MODEL 1
REMARK VINA RESULT:     -10.8      0.000      0.000
ROOT
ATOM     27  C22 UNL A   1      38.021  29.951  29.736  1.00  0.00    +0.000 C 
ATOM     28  C23 UNL A   1      39.093  29.037  29.211  1.00  0.00    +0.000 C 
ATOM     29  N3  UNL A   1      40.201  28.642  29.789  1.00  0.00    +0.000 N 
ATOM     30  C24 UNL A   1      40.806  27.771  28.893  1.00  0.00    +0.000 C 
ATOM     31  C25 UNL A   1      41.998  27.136  29.005  1.00  0.00    +0.000 C 
ATOM     43  C32 UNL A   1      42.892  27.281  30.124  1.00  0.00    +0.000 C 
ATOM     44  C33 UNL A   1      44.151  26.732  30.297  1.00  0.00    +0.000 C 
ATOM     45  C34 UNL A   1      44.630  27.123  31.552  1.00  0.00    +0.000 C 
ATOM     46  C35 UNL A   1      43.688  27.951  32.139  1.00  0.00    +0.000 C 
ATOM     47  N4  UNL A   1      42.623  28.033  31.256  1.00  0.00    +0.000 N 
ATOM     48  C36 UNL A   1      43.754  28.621  33.412  1.00  0.00    +0.000 C 
ATOM     60  C43 UNL A   1      42.775  29.402  33.929  1.00  0.00    +0.000 C 
ATOM     61  N5  UNL A   1      41.549  29.747  33.376  1.00  0.00    +0.000 N 
ATOM     62  C44 UNL A   1      40.956  30.508  34.261  1.00  0.00    +0.000 C 
ATOM     63  C45 UNL A   1      39.623  31.205  34.177  1.00  0.00    +0.000 C 
ATOM     75  C52 UNL A   1      38.890  31.089  33.054  1.00  0.00    +0.000 C 
ATOM     76  C53 UNL A   1      37.594  31.717  32.820  1.00  0.00    +0.000 C 
ATOM     77  C54 UNL A   1      37.145  31.356  31.607  1.00  0.00    +0.000 C 
ATOM     78  C55 UNL A   1      38.139  30.494  30.965  1.00  0.00    +0.000 C 
ATOM     79  N6  UNL A   1      39.141  30.392  31.897  1.00  0.00    +0.000 N 
ATOM     80  C56 UNL A   1      41.726  30.701  35.498  1.00  0.00    +0.000 C 
ATOM     81  C57 UNL A   1      42.845  30.047  35.223  1.00  0.00    +0.000 C 
ATOM     82  C58 UNL A   1      39.925  27.659  27.750  1.00  0.00    +0.000 C 
ATOM     83  C59 UNL A   1      38.884  28.471  27.869  1.00  0.00    +0.000 C 
ATOM    116  H27 UNL A   1      44.652  26.138  29.617  1.00  0.00    +0.000 H 
ATOM    117  H28 UNL A   1      45.530  26.840  31.969  1.00  0.00    +0.000 H 
ATOM    118  H29 UNL A   1      41.799  28.549  31.410  1.00  0.00    +0.000 H 
ATOM    119  H30 UNL A   1      37.101  32.339  33.480  1.00  0.00    +0.000 H 
ATOM    120  H31 UNL A   1      36.243  31.641  31.194  1.00  0.00    +0.000 H 
ATOM    121  H32 UNL A   1      39.962  29.869  31.750  1.00  0.00    +0.000 H 
ATOM    122  H33 UNL A   1      41.466  31.212  36.356  1.00  0.00    +0.000 H 
ATOM    123  H34 UNL A   1      43.663  30.002  35.851  1.00  0.00    +0.000 H 
ATOM    124  H35 UNL A   1      40.087  27.031  26.947  1.00  0.00    +0.000 H 
ATOM    125  H36 UNL A   1      38.125  28.657  27.196  1.00  0.00    +0.000 H 
ENDROOT
BRANCH   27   26
ATOM    114  H25 UNL A   1      35.057  32.718  27.516  1.00  0.00    +0.000 H 
ATOM    115  H26 UNL A   1      37.110  32.298  28.740  1.00  0.00    +0.000 H 
ATOM     84  C60 UNL A   1      35.957  29.151  28.571  1.00  0.00    +0.000 C 
ATOM     85  C61 UNL A   1      34.819  29.384  27.800  1.00  0.00    +0.000 C 
ATOM     23  C18 UNL A   1      34.460  30.691  27.462  1.00  0.00    +0.000 C 
ATOM     24  C19 UNL A   1      35.303  31.755  27.797  1.00  0.00    +0.000 C 
ATOM     25  C20 UNL A   1      36.477  31.515  28.515  1.00  0.00    +0.000 C 
ATOM     26  C21 UNL A   1      36.801  30.214  28.931  1.00  0.00    +0.000 C 
ATOM    126  H37 UNL A   1      36.182  28.192  28.879  1.00  0.00    +0.000 H 
ATOM    127  H38 UNL A   1      34.242  28.591  27.480  1.00  0.00    +0.000 H 
BRANCH   23   21
ATOM     21  C17 UNL A   1      33.212  30.983  26.724  1.00  0.00    +0.000 C 
ATOM     22  O3  UNL A   1      32.507  31.928  27.071  1.00  0.00    +0.000 O 
BRANCH   21   20
ATOM    113  H24 UNL A   1      33.468  30.151  24.922  1.00  0.00    +0.000 H 
ATOM     20  N2  UNL A   1      32.829  30.193  25.670  1.00  0.00    +0.000 N 
BRANCH   20   19
ATOM     19  C16 UNL A   1      31.619  29.410  25.496  1.00  0.00    +0.000 C 
ATOM    111  H22 UNL A   1      30.804  29.928  25.957  1.00  0.00    +0.000 H 
ATOM    112  H23 UNL A   1      31.462  29.285  24.445  1.00  0.00    +0.000 H 
BRANCH   19   18
ATOM     18  C15 UNL A   1      31.725  28.020  26.116  1.00  0.00    +0.000 C 
ATOM    109  H20 UNL A   1      31.848  28.137  27.172  1.00  0.00    +0.000 H 
ATOM    110  H21 UNL A   1      30.827  27.506  25.844  1.00  0.00    +0.000 H 
BRANCH   18   17
ATOM     17  C14 UNL A   1      32.879  27.158  25.598  1.00  0.00    +0.000 C 
ATOM    107  H18 UNL A   1      32.779  27.079  24.536  1.00  0.00    +0.000 H 
ATOM    108  H19 UNL A   1      33.776  27.648  25.913  1.00  0.00    +0.000 H 
BRANCH   17   16
ATOM    105  H16 UNL A   1      33.019  25.816  27.236  1.00  0.00    +0.000 H 
ATOM    106  H17 UNL A   1      32.076  25.235  25.829  1.00  0.00    +0.000 H 
ATOM     16  C13 UNL A   1      32.955  25.739  26.171  1.00  0.00    +0.000 C 
BRANCH   16   15
ATOM    103  H14 UNL A   1      34.112  24.867  24.617  1.00  0.00    +0.000 H 
ATOM     15  C12 UNL A   1      34.139  24.897  25.686  1.00  0.00    +0.000 C 
ATOM    104  H15 UNL A   1      35.020  25.364  26.072  1.00  0.00    +0.000 H 
BRANCH   15   14
ATOM    102  H13 UNL A   1      33.267  23.304  26.780  1.00  0.00    +0.000 H 
ATOM    101  H12 UNL A   1      35.029  23.313  26.795  1.00  0.00    +0.000 H 
ATOM     14  C11 UNL A   1      34.153  23.461  26.201  1.00  0.00    +0.000 C 
BRANCH   14   13
ATOM    100  H11 UNL A   1      35.049  22.210  24.818  1.00  0.00    +0.000 H 
ATOM     13  N1  UNL A   1      34.157  22.505  25.113  1.00  0.00    +0.000 N 
BRANCH   13   11
ATOM     11  C10 UNL A   1      33.110  21.952  24.438  1.00  0.00    +0.000 C 
ATOM     12  O2  UNL A   1      32.393  21.157  25.054  1.00  0.00    +0.000 O 
BRANCH   11    9
ATOM      9  C8  UNL A   1      32.811  22.301  22.974  1.00  0.00    +0.000 C 
ATOM     96  H7  UNL A   1      33.717  22.295  22.404  1.00  0.00    +0.000 H 
BRANCH    9    8
ATOM    129  H40 UNL A   1      32.994  26.646  21.246  1.00  0.00    +0.000 H 
ATOM    130  H41 UNL A   1      31.193  28.286  21.613  1.00  0.00    +0.000 H 
ATOM      3  C2  UNL A   1      29.550  27.989  22.896  1.00  0.00    +0.000 C 
ATOM      4  C3  UNL A   1      28.891  27.083  23.724  1.00  0.00    +0.000 C 
ATOM      5  C4  UNL A   1      29.426  25.808  23.918  1.00  0.00    +0.000 C 
ATOM      6  C5  UNL A   1      30.621  25.426  23.287  1.00  0.00    +0.000 C 
ATOM      7  C6  UNL A   1      31.159  24.139  23.451  1.00  0.00    +0.000 C 
ATOM      8  C7  UNL A   1      32.352  23.746  22.815  1.00  0.00    +0.000 C 
ATOM     86  C62 UNL A   1      33.029  24.694  22.041  1.00  0.00    +0.000 C 
ATOM     87  C63 UNL A   1      32.493  25.972  21.845  1.00  0.00    +0.000 C 
ATOM     88  C64 UNL A   1      31.287  26.347  22.452  1.00  0.00    +0.000 C 
ATOM     89  C65 UNL A   1      30.729  27.619  22.249  1.00  0.00    +0.000 C 
ATOM     93  H4  UNL A   1      28.011  27.353  24.189  1.00  0.00    +0.000 H 
ATOM     94  H5  UNL A   1      28.938  25.139  24.535  1.00  0.00    +0.000 H 
ATOM     95  H6  UNL A   1      30.666  23.463  24.055  1.00  0.00    +0.000 H 
ATOM    128  H39 UNL A   1      33.933  24.448  21.608  1.00  0.00    +0.000 H 
BRANCH    3    2
ATOM      2  O1  UNL A   1      29.059  29.235  22.620  1.00  0.00    +0.000 O 
BRANCH    2    1
ATOM      1  C1  UNL A   1      27.661  29.337  22.878  1.00  0.00    +0.000 C 
ATOM     90  H1  UNL A   1      27.401  28.694  23.693  1.00  0.00    +0.000 H 
ATOM     91  H2  UNL A   1      27.115  29.045  22.006  1.00  0.00    +0.000 H 
ATOM     92  H3  UNL A   1      27.418  30.349  23.129  1.00  0.00    +0.000 H 
ENDBRANCH    2    1
ENDBRANCH    3    2
ENDBRANCH    9    8
BRANCH    9   10
ATOM     97  H8  UNL A   1      31.284  21.651  21.622  1.00  0.00    +0.000 H 
ATOM     10  C9  UNL A   1      31.985  21.204  22.294  1.00  0.00    +0.000 C 
ATOM     99  H10 UNL A   1      32.637  20.553  21.749  1.00  0.00    +0.000 H 
ATOM     98  H9  UNL A   1      31.460  20.642  23.037  1.00  0.00    +0.000 H 
ENDBRANCH    9   10
ENDBRANCH   11    9
ENDBRANCH   13   11
ENDBRANCH   14   13
ENDBRANCH   15   14
ENDBRANCH   16   15
ENDBRANCH   17   16
ENDBRANCH   18   17
ENDBRANCH   19   18
ENDBRANCH   20   19
ENDBRANCH   21   20
ENDBRANCH   23   21
ENDBRANCH   27   26
BRANCH   31   32
ATOM     33  C27 UNL A   1      41.911  24.927  27.766  1.00  0.00    +0.000 C 
ATOM     34  F1  UNL A   1      41.088  24.434  28.703  1.00  0.00    +0.000 F 
ATOM     35  C28 UNL A   1      42.268  24.115  26.693  1.00  0.00    +0.000 C 
ATOM     36  F2  UNL A   1      41.799  22.862  26.617  1.00  0.00    +0.000 F 
ATOM     37  C29 UNL A   1      43.112  24.599  25.705  1.00  0.00    +0.000 C 
ATOM     38  F3  UNL A   1      43.443  23.822  24.663  1.00  0.00    +0.000 F 
ATOM     39  C30 UNL A   1      43.617  25.888  25.797  1.00  0.00    +0.000 C 
ATOM     40  F4  UNL A   1      44.422  26.361  24.836  1.00  0.00    +0.000 F 
ATOM     41  C31 UNL A   1      43.283  26.692  26.883  1.00  0.00    +0.000 C 
ATOM     42  F5  UNL A   1      43.792  27.932  26.948  1.00  0.00    +0.000 F 
ATOM     32  C26 UNL A   1      42.418  26.229  27.885  1.00  0.00    +0.000 C 
ENDBRANCH   31   32
BRANCH   48   49
ATOM     49  C37 UNL A   1      45.011  28.468  34.218  1.00  0.00    +0.000 C 
ATOM     50  C38 UNL A   1      46.092  29.349  34.074  1.00  0.00    +0.000 C 
ATOM     51  F6  UNL A   1      46.041  30.338  33.169  1.00  0.00    +0.000 F 
ATOM     52  C39 UNL A   1      47.248  29.190  34.832  1.00  0.00    +0.000 C 
ATOM     53  F7  UNL A   1      48.290  30.012  34.643  1.00  0.00    +0.000 F 
ATOM     54  C40 UNL A   1      47.333  28.171  35.770  1.00  0.00    +0.000 C 
ATOM     55  F8  UNL A   1      48.445  28.023  36.502  1.00  0.00    +0.000 F 
ATOM     56  C41 UNL A   1      46.266  27.304  35.946  1.00  0.00    +0.000 C 
ATOM     57  F9  UNL A   1      46.340  26.327  36.860  1.00  0.00    +0.000 F 
ATOM     58  C42 UNL A   1      45.120  27.441  35.168  1.00  0.00    +0.000 C 
ATOM     59  F10 UNL A   1      44.110  26.577  35.348  1.00  0.00    +0.000 F 
ENDBRANCH   48   49
BRANCH   63   64
ATOM     65  C47 UNL A   1      39.444  33.401  35.386  1.00  0.00    +0.000 C 
ATOM     66  F11 UNL A   1      40.182  33.974  34.424  1.00  0.00    +0.000 F 
ATOM     67  C48 UNL A   1      39.048  34.170  36.477  1.00  0.00    +0.000 C 
ATOM     68  F12 UNL A   1      39.410  35.457  36.554  1.00  0.00    +0.000 F 
ATOM     69  C49 UNL A   1      38.302  33.596  37.497  1.00  0.00    +0.000 C 
ATOM     70  F13 UNL A   1      37.926  34.335  38.550  1.00  0.00    +0.000 F 
ATOM     71  C50 UNL A   1      37.958  32.255  37.429  1.00  0.00    +0.000 C 
ATOM     72  F14 UNL A   1      37.228  31.702  38.406  1.00  0.00    +0.000 F 
ATOM     73  C51 UNL A   1      38.381  31.478  36.351  1.00  0.00    +0.000 C 
ATOM     74  F15 UNL A   1      38.053  30.178  36.324  1.00  0.00    +0.000 F 
ATOM     64  C46 UNL A   1      39.135  32.035  35.309  1.00  0.00    +0.000 C 
ENDBRANCH   63   64
TORSDOF 19
ENDMDL
MODEL 2
REMARK VINA RESULT:     -10.7      0.592      7.260
ROOT
ATOM     27  C22 UNL A   1      37.999  29.771  29.851  1.00  0.00    +0.000 C 
ATOM     28  C23 UNL A   1      38.227  30.326  31.230  1.00  0.00    +0.000 C 
ATOM     29  N3  UNL A   1      39.266  30.190  32.016  1.00  0.00    +0.000 N 
ATOM     30  C24 UNL A   1      38.984  30.940  33.150  1.00  0.00    +0.000 C 
ATOM     31  C25 UNL A   1      39.724  31.080  34.276  1.00  0.00    +0.000 C 
ATOM     43  C32 UNL A   1      40.986  30.426  34.504  1.00  0.00    +0.000 C 
ATOM     44  C33 UNL A   1      41.777  30.452  35.640  1.00  0.00    +0.000 C 
ATOM     45  C34 UNL A   1      42.927  29.695  35.390  1.00  0.00    +0.000 C 
ATOM     46  C35 UNL A   1      42.829  29.160  34.116  1.00  0.00    +0.000 C 
ATOM     47  N4  UNL A   1      41.637  29.623  33.580  1.00  0.00    +0.000 N 
ATOM     48  C36 UNL A   1      43.752  28.290  33.436  1.00  0.00    +0.000 C 
ATOM     60  C43 UNL A   1      43.594  27.825  32.173  1.00  0.00    +0.000 C 
ATOM     61  N5  UNL A   1      42.547  28.044  31.287  1.00  0.00    +0.000 N 
ATOM     62  C44 UNL A   1      42.859  27.393  30.194  1.00  0.00    +0.000 C 
ATOM     63  C45 UNL A   1      42.072  27.241  28.919  1.00  0.00    +0.000 C 
ATOM     75  C52 UNL A   1      40.857  27.812  28.825  1.00  0.00    +0.000 C 
ATOM     76  C53 UNL A   1      39.973  27.738  27.665  1.00  0.00    +0.000 C 
ATOM     77  C54 UNL A   1      38.863  28.450  27.915  1.00  0.00    +0.000 C 
ATOM     78  C55 UNL A   1      38.942  29.006  29.266  1.00  0.00    +0.000 C 
ATOM     79  N6  UNL A   1      40.160  28.574  29.731  1.00  0.00    +0.000 N 
ATOM     80  C56 UNL A   1      44.164  26.718  30.251  1.00  0.00    +0.000 C 
ATOM     81  C57 UNL A   1      44.545  26.972  31.494  1.00  0.00    +0.000 C 
ATOM     82  C58 UNL A   1      37.695  31.562  32.937  1.00  0.00    +0.000 C 
ATOM     83  C59 UNL A   1      37.157  31.165  31.793  1.00  0.00    +0.000 C 
ATOM    116  H27 UNL A   1      41.558  30.944  36.520  1.00  0.00    +0.000 H 
ATOM    117  H28 UNL A   1      43.714  29.559  36.043  1.00  0.00    +0.000 H 
ATOM    118  H29 UNL A   1      41.303  29.414  32.679  1.00  0.00    +0.000 H 
ATOM    119  H30 UNL A   1      40.170  27.220  26.794  1.00  0.00    +0.000 H 
ATOM    120  H31 UNL A   1      38.077  28.583  27.258  1.00  0.00    +0.000 H 
ATOM    121  H32 UNL A   1      40.502  28.791  30.629  1.00  0.00    +0.000 H 
ATOM    122  H33 UNL A   1      44.654  26.184  29.516  1.00  0.00    +0.000 H 
ATOM    123  H34 UNL A   1      45.410  26.609  31.923  1.00  0.00    +0.000 H 
ATOM    124  H35 UNL A   1      37.253  32.228  33.590  1.00  0.00    +0.000 H 
ATOM    125  H36 UNL A   1      36.229  31.385  31.400  1.00  0.00    +0.000 H 
ENDROOT
BRANCH   27   26
ATOM    114  H25 UNL A   1      33.899  28.746  27.975  1.00  0.00    +0.000 H 
ATOM    115  H26 UNL A   1      35.865  28.201  29.290  1.00  0.00    +0.000 H 
ATOM     84  C60 UNL A   1      36.577  31.407  28.603  1.00  0.00    +0.000 C 
ATOM     85  C61 UNL A   1      35.411  31.740  27.914  1.00  0.00    +0.000 C 
ATOM     23  C18 UNL A   1      34.459  30.756  27.637  1.00  0.00    +0.000 C 
ATOM     24  C19 UNL A   1      34.620  29.465  28.148  1.00  0.00    +0.000 C 
ATOM     25  C20 UNL A   1      35.759  29.147  28.892  1.00  0.00    +0.000 C 
ATOM     26  C21 UNL A   1      36.760  30.109  29.103  1.00  0.00    +0.000 C 
ATOM    126  H37 UNL A   1      37.311  32.119  28.744  1.00  0.00    +0.000 H 
ATOM    127  H38 UNL A   1      35.252  32.713  27.610  1.00  0.00    +0.000 H 
BRANCH   23   21
ATOM     21  C17 UNL A   1      33.253  31.052  26.832  1.00  0.00    +0.000 C 
ATOM     22  O3  UNL A   1      32.635  32.095  27.026  1.00  0.00    +0.000 O 
BRANCH   21   20
ATOM    113  H24 UNL A   1      33.328  30.146  25.049  1.00  0.00    +0.000 H 
ATOM     20  N2  UNL A   1      32.813  30.159  25.889  1.00  0.00    +0.000 N 
BRANCH   20   19
ATOM     19  C16 UNL A   1      31.699  29.229  25.948  1.00  0.00    +0.000 C 
ATOM    111  H22 UNL A   1      31.203  29.345  26.889  1.00  0.00    +0.000 H 
ATOM    112  H23 UNL A   1      31.046  29.453  25.130  1.00  0.00    +0.000 H 
BRANCH   19   18
ATOM     18  C15 UNL A   1      32.139  27.776  25.803  1.00  0.00    +0.000 C 
ATOM    109  H20 UNL A   1      32.073  27.313  26.765  1.00  0.00    +0.000 H 
ATOM    110  H21 UNL A   1      31.488  27.342  25.073  1.00  0.00    +0.000 H 
BRANCH   18   17
ATOM     17  C14 UNL A   1      33.562  27.572  25.276  1.00  0.00    +0.000 C 
ATOM    107  H18 UNL A   1      33.574  27.856  24.245  1.00  0.00    +0.000 H 
ATOM    108  H19 UNL A   1      34.194  28.170  25.898  1.00  0.00    +0.000 H 
BRANCH   17   16
ATOM    105  H16 UNL A   1      34.222  25.762  24.384  1.00  0.00    +0.000 H 
ATOM    106  H17 UNL A   1      35.025  26.215  25.920  1.00  0.00    +0.000 H 
ATOM     16  C13 UNL A   1      34.106  26.143  25.377  1.00  0.00    +0.000 C 
BRANCH   16   15
ATOM    103  H14 UNL A   1      33.177  25.497  27.175  1.00  0.00    +0.000 H 
ATOM     15  C12 UNL A   1      33.231  25.161  26.161  1.00  0.00    +0.000 C 
ATOM    104  H15 UNL A   1      32.280  25.146  25.672  1.00  0.00    +0.000 H 
BRANCH   15   14
ATOM    102  H13 UNL A   1      32.918  23.080  26.426  1.00  0.00    +0.000 H 
ATOM    101  H12 UNL A   1      34.531  23.633  26.874  1.00  0.00    +0.000 H 
ATOM     14  C11 UNL A   1      33.735  23.721  26.165  1.00  0.00    +0.000 C 
BRANCH   14   13
ATOM    100  H11 UNL A   1      34.954  23.875  24.500  1.00  0.00    +0.000 H 
ATOM     13  N1  UNL A   1      34.223  23.323  24.860  1.00  0.00    +0.000 N 
BRANCH   13   11
ATOM     11  C10 UNL A   1      33.820  22.298  24.058  1.00  0.00    +0.000 C 
ATOM     12  O2  UNL A   1      34.124  21.152  24.405  1.00  0.00    +0.000 O 
BRANCH   11    9
ATOM      9  C8  UNL A   1      33.010  22.538  22.776  1.00  0.00    +0.000 C 
ATOM     96  H7  UNL A   1      33.654  22.484  21.922  1.00  0.00    +0.000 H 
BRANCH    9    8
ATOM    129  H40 UNL A   1      32.998  26.960  21.245  1.00  0.00    +0.000 H 
ATOM    130  H41 UNL A   1      31.140  28.508  21.706  1.00  0.00    +0.000 H 
ATOM      3  C2  UNL A   1      29.527  28.087  22.993  1.00  0.00    +0.000 C 
ATOM      4  C3  UNL A   1      28.915  27.120  23.787  1.00  0.00    +0.000 C 
ATOM      5  C4  UNL A   1      29.503  25.860  23.918  1.00  0.00    +0.000 C 
ATOM      6  C5  UNL A   1      30.703  25.555  23.256  1.00  0.00    +0.000 C 
ATOM      7  C6  UNL A   1      31.294  24.284  23.356  1.00  0.00    +0.000 C 
ATOM      8  C7  UNL A   1      32.493  23.968  22.689  1.00  0.00    +0.000 C 
ATOM     86  C62 UNL A   1      33.122  24.977  21.950  1.00  0.00    +0.000 C 
ATOM     87  C63 UNL A   1      32.533  26.239  21.819  1.00  0.00    +0.000 C 
ATOM     88  C64 UNL A   1      31.321  26.539  22.456  1.00  0.00    +0.000 C 
ATOM     89  C65 UNL A   1      30.710  27.795  22.317  1.00  0.00    +0.000 C 
ATOM     93  H4  UNL A   1      28.031  27.334  24.275  1.00  0.00    +0.000 H 
ATOM     94  H5  UNL A   1      29.050  25.145  24.509  1.00  0.00    +0.000 H 
ATOM     95  H6  UNL A   1      30.836  23.563  23.934  1.00  0.00    +0.000 H 
ATOM    128  H39 UNL A   1      34.029  24.787  21.497  1.00  0.00    +0.000 H 
BRANCH    3    2
ATOM      2  O1  UNL A   1      28.984  29.324  22.780  1.00  0.00    +0.000 O 
BRANCH    2    1
ATOM      1  C1  UNL A   1      29.680  30.057  21.774  1.00  0.00    +0.000 C 
ATOM     90  H1  UNL A   1      29.584  31.105  21.965  1.00  0.00    +0.000 H 
ATOM     91  H2  UNL A   1      29.264  29.829  20.815  1.00  0.00    +0.000 H 
ATOM     92  H3  UNL A   1      30.715  29.785  21.788  1.00  0.00    +0.000 H 
ENDBRANCH    2    1
ENDBRANCH    3    2
ENDBRANCH    9    8
BRANCH    9   10
ATOM     97  H8  UNL A   1      31.168  21.514  23.151  1.00  0.00    +0.000 H 
ATOM     10  C9  UNL A   1      32.022  21.397  22.517  1.00  0.00    +0.000 C 
ATOM     99  H10 UNL A   1      31.712  21.419  21.493  1.00  0.00    +0.000 H 
ATOM     98  H9  UNL A   1      32.496  20.461  22.726  1.00  0.00    +0.000 H 
ENDBRANCH    9   10
ENDBRANCH   11    9
ENDBRANCH   13   11
ENDBRANCH   14   13
ENDBRANCH   15   14
ENDBRANCH   16   15
ENDBRANCH   17   16
ENDBRANCH   18   17
ENDBRANCH   19   18
ENDBRANCH   20   19
ENDBRANCH   21   20
ENDBRANCH   23   21
ENDBRANCH   27   26
BRANCH   31   32
ATOM     33  C27 UNL A   1      38.426  31.455  36.420  1.00  0.00    +0.000 C 
ATOM     34  F1  UNL A   1      38.091  30.157  36.444  1.00  0.00    +0.000 F 
ATOM     35  C28 UNL A   1      37.982  32.282  37.448  1.00  0.00    +0.000 C 
ATOM     36  F2  UNL A   1      37.224  31.778  38.432  1.00  0.00    +0.000 F 
ATOM     37  C29 UNL A   1      38.317  33.628  37.454  1.00  0.00    +0.000 C 
ATOM     38  F3  UNL A   1      37.902  34.420  38.453  1.00  0.00    +0.000 F 
ATOM     39  C30 UNL A   1      39.080  34.154  36.422  1.00  0.00    +0.000 C 
ATOM     40  F4  UNL A   1      39.417  35.451  36.434  1.00  0.00    +0.000 F 
ATOM     41  C31 UNL A   1      39.503  33.335  35.378  1.00  0.00    +0.000 C 
ATOM     42  F5  UNL A   1      40.235  33.874  34.392  1.00  0.00    +0.000 F 
ATOM     32  C26 UNL A   1      39.190  31.968  35.361  1.00  0.00    +0.000 C 
ENDBRANCH   31   32
BRANCH   48   49
ATOM     49  C37 UNL A   1      44.970  27.838  34.188  1.00  0.00    +0.000 C 
ATOM     50  C38 UNL A   1      46.164  28.572  34.170  1.00  0.00    +0.000 C 
ATOM     51  F6  UNL A   1      46.257  29.690  33.435  1.00  0.00    +0.000 F 
ATOM     52  C39 UNL A   1      47.282  28.135  34.874  1.00  0.00    +0.000 C 
ATOM     53  F7  UNL A   1      48.429  28.824  34.802  1.00  0.00    +0.000 F 
ATOM     54  C40 UNL A   1      47.217  26.977  35.636  1.00  0.00    +0.000 C 
ATOM     55  F8  UNL A   1      48.293  26.561  36.316  1.00  0.00    +0.000 F 
ATOM     56  C41 UNL A   1      46.039  26.249  35.687  1.00  0.00    +0.000 C 
ATOM     57  F9  UNL A   1      45.970  25.137  36.432  1.00  0.00    +0.000 F 
ATOM     58  C42 UNL A   1      44.928  26.666  34.960  1.00  0.00    +0.000 C 
ATOM     59  F10 UNL A   1      43.807  25.932  35.016  1.00  0.00    +0.000 F 
ENDBRANCH   48   49
BRANCH   63   64
ATOM     65  C47 UNL A   1      43.461  27.033  26.835  1.00  0.00    +0.000 C 
ATOM     66  F11 UNL A   1      43.795  28.327  26.946  1.00  0.00    +0.000 F 
ATOM     67  C48 UNL A   1      43.919  26.312  25.735  1.00  0.00    +0.000 C 
ATOM     68  F12 UNL A   1      44.675  26.916  24.809  1.00  0.00    +0.000 F 
ATOM     69  C49 UNL A   1      43.571  24.978  25.586  1.00  0.00    +0.000 C 
ATOM     70  F13 UNL A   1      44.007  24.286  24.524  1.00  0.00    +0.000 F 
ATOM     71  C50 UNL A   1      42.761  24.366  26.531  1.00  0.00    +0.000 C 
ATOM     72  F14 UNL A   1      42.434  23.074  26.395  1.00  0.00    +0.000 F 
ATOM     73  C51 UNL A   1      42.278  25.096  27.615  1.00  0.00    +0.000 C 
ATOM     74  F15 UNL A   1      41.477  24.484  28.500  1.00  0.00    +0.000 F 
ATOM     64  C46 UNL A   1      42.616  26.445  27.788  1.00  0.00    +0.000 C 
ENDBRANCH   63   64
TORSDOF 19
ENDMDL
MODEL 3
REMARK VINA RESULT:     -10.6      0.794      7.346
ROOT
ATOM     27  C22 UNL A   1      37.949  29.914  29.840  1.00  0.00    +0.000 C 
ATOM     28  C23 UNL A   1      38.178  30.437  31.231  1.00  0.00    +0.000 C 
ATOM     29  N3  UNL A   1      39.207  30.262  32.023  1.00  0.00    +0.000 N 
ATOM     30  C24 UNL A   1      38.932  30.996  33.169  1.00  0.00    +0.000 C 
ATOM     31  C25 UNL A   1      39.666  31.097  34.304  1.00  0.00    +0.000 C 
ATOM     43  C32 UNL A   1      40.910  30.410  34.530  1.00  0.00    +0.000 C 
ATOM     44  C33 UNL A   1      41.692  30.395  35.672  1.00  0.00    +0.000 C 
ATOM     45  C34 UNL A   1      42.825  29.616  35.417  1.00  0.00    +0.000 C 
ATOM     46  C35 UNL A   1      42.726  29.109  34.132  1.00  0.00    +0.000 C 
ATOM     47  N4  UNL A   1      41.551  29.610  33.596  1.00  0.00    +0.000 N 
ATOM     48  C36 UNL A   1      43.635  28.230  33.443  1.00  0.00    +0.000 C 
ATOM     60  C43 UNL A   1      43.477  27.794  32.170  1.00  0.00    +0.000 C 
ATOM     61  N5  UNL A   1      42.444  28.054  31.280  1.00  0.00    +0.000 N 
ATOM     62  C44 UNL A   1      42.750  27.417  30.177  1.00  0.00    +0.000 C 
ATOM     63  C45 UNL A   1      41.971  27.308  28.893  1.00  0.00    +0.000 C 
ATOM     75  C52 UNL A   1      40.770  27.909  28.800  1.00  0.00    +0.000 C 
ATOM     76  C53 UNL A   1      39.894  27.877  27.632  1.00  0.00    +0.000 C 
ATOM     77  C54 UNL A   1      38.799  28.610  27.886  1.00  0.00    +0.000 C 
ATOM     78  C55 UNL A   1      38.880  29.139  29.249  1.00  0.00    +0.000 C 
ATOM     79  N6  UNL A   1      40.083  28.669  29.715  1.00  0.00    +0.000 N 
ATOM     80  C56 UNL A   1      44.038  26.710  30.232  1.00  0.00    +0.000 C 
ATOM     81  C57 UNL A   1      44.414  26.932  31.483  1.00  0.00    +0.000 C 
ATOM     82  C58 UNL A   1      37.660  31.653  32.958  1.00  0.00    +0.000 C 
ATOM     83  C59 UNL A   1      37.123  31.290  31.802  1.00  0.00    +0.000 C 
ATOM    116  H27 UNL A   1      41.476  30.876  36.560  1.00  0.00    +0.000 H 
ATOM    117  H28 UNL A   1      43.604  29.450  36.074  1.00  0.00    +0.000 H 
ATOM    118  H29 UNL A   1      41.220  29.425  32.688  1.00  0.00    +0.000 H 
ATOM    119  H30 UNL A   1      40.087  27.372  26.752  1.00  0.00    +0.000 H 
ATOM    120  H31 UNL A   1      38.023  28.775  27.225  1.00  0.00    +0.000 H 
ATOM    121  H32 UNL A   1      40.422  28.861  30.620  1.00  0.00    +0.000 H 
ATOM    122  H33 UNL A   1      44.522  26.180  29.491  1.00  0.00    +0.000 H 
ATOM    123  H34 UNL A   1      45.266  26.540  31.912  1.00  0.00    +0.000 H 
ATOM    124  H35 UNL A   1      37.228  32.316  33.620  1.00  0.00    +0.000 H 
ATOM    125  H36 UNL A   1      36.204  31.539  31.405  1.00  0.00    +0.000 H 
ENDROOT
BRANCH   27   26
ATOM    114  H25 UNL A   1      35.257  32.922  27.586  1.00  0.00    +0.000 H 
ATOM    115  H26 UNL A   1      37.310  32.294  28.718  1.00  0.00    +0.000 H 
ATOM     84  C60 UNL A   1      35.719  29.344  28.863  1.00  0.00    +0.000 C 
ATOM     85  C61 UNL A   1      34.573  29.686  28.144  1.00  0.00    +0.000 C 
ATOM     23  C18 UNL A   1      34.380  31.005  27.726  1.00  0.00    +0.000 C 
ATOM     24  C19 UNL A   1      35.384  31.956  27.927  1.00  0.00    +0.000 C 
ATOM     25  C20 UNL A   1      36.559  31.598  28.592  1.00  0.00    +0.000 C 
ATOM     26  C21 UNL A   1      36.725  30.295  29.089  1.00  0.00    +0.000 C 
ATOM    126  H37 UNL A   1      35.827  28.386  29.231  1.00  0.00    +0.000 H 
ATOM    127  H38 UNL A   1      33.870  28.964  27.920  1.00  0.00    +0.000 H 
BRANCH   23   21
ATOM     21  C17 UNL A   1      33.137  31.423  27.040  1.00  0.00    +0.000 C 
ATOM     22  O3  UNL A   1      32.566  32.452  27.391  1.00  0.00    +0.000 O 
BRANCH   21   20
ATOM    113  H24 UNL A   1      32.721  31.022  25.125  1.00  0.00    +0.000 H 
ATOM     20  N2  UNL A   1      32.609  30.657  26.033  1.00  0.00    +0.000 N 
BRANCH   20   19
ATOM     19  C16 UNL A   1      31.912  29.386  26.108  1.00  0.00    +0.000 C 
ATOM    111  H22 UNL A   1      31.744  29.146  27.138  1.00  0.00    +0.000 H 
ATOM    112  H23 UNL A   1      30.991  29.489  25.573  1.00  0.00    +0.000 H 
BRANCH   19   18
ATOM     18  C15 UNL A   1      32.696  28.246  25.464  1.00  0.00    +0.000 C 
ATOM    109  H20 UNL A   1      32.255  28.038  24.512  1.00  0.00    +0.000 H 
ATOM    110  H21 UNL A   1      33.710  28.585  25.402  1.00  0.00    +0.000 H 
BRANCH   18   17
ATOM     17  C14 UNL A   1      32.734  26.942  26.265  1.00  0.00    +0.000 C 
ATOM    107  H18 UNL A   1      32.983  27.185  27.277  1.00  0.00    +0.000 H 
ATOM    108  H19 UNL A   1      31.766  26.501  26.151  1.00  0.00    +0.000 H 
BRANCH   17   16
ATOM    105  H16 UNL A   1      33.729  25.907  24.702  1.00  0.00    +0.000 H 
ATOM    106  H17 UNL A   1      34.677  26.157  26.201  1.00  0.00    +0.000 H 
ATOM     16  C13 UNL A   1      33.734  25.892  25.772  1.00  0.00    +0.000 C 
BRANCH   16   15
ATOM    103  H14 UNL A   1      33.182  24.479  27.260  1.00  0.00    +0.000 H 
ATOM     15  C12 UNL A   1      33.455  24.455  26.225  1.00  0.00    +0.000 C 
ATOM    104  H15 UNL A   1      32.675  24.085  25.593  1.00  0.00    +0.000 H 
BRANCH   15   14
ATOM    102  H13 UNL A   1      34.701  22.902  26.953  1.00  0.00    +0.000 H 
ATOM    101  H12 UNL A   1      35.524  24.065  25.916  1.00  0.00    +0.000 H 
ATOM     14  C11 UNL A   1      34.631  23.497  26.066  1.00  0.00    +0.000 C 
BRANCH   14   13
ATOM    100  H11 UNL A   1      34.204  21.682  25.170  1.00  0.00    +0.000 H 
ATOM     13  N1  UNL A   1      34.445  22.608  24.938  1.00  0.00    +0.000 N 
BRANCH   13   11
ATOM     11  C10 UNL A   1      34.553  22.863  23.604  1.00  0.00    +0.000 C 
ATOM     12  O2  UNL A   1      35.688  23.041  23.150  1.00  0.00    +0.000 O 
BRANCH   11    9
ATOM      9  C8  UNL A   1      33.326  22.917  22.684  1.00  0.00    +0.000 C 
ATOM     96  H7  UNL A   1      33.629  22.801  21.664  1.00  0.00    +0.000 H 
BRANCH    9    8
ATOM    129  H40 UNL A   1      33.015  27.429  21.482  1.00  0.00    +0.000 H 
ATOM    130  H41 UNL A   1      31.000  28.773  21.924  1.00  0.00    +0.000 H 
ATOM      3  C2  UNL A   1      29.353  28.118  23.062  1.00  0.00    +0.000 C 
ATOM      4  C3  UNL A   1      28.781  27.043  23.738  1.00  0.00    +0.000 C 
ATOM      5  C4  UNL A   1      29.470  25.831  23.817  1.00  0.00    +0.000 C 
ATOM      6  C5  UNL A   1      30.732  25.681  23.220  1.00  0.00    +0.000 C 
ATOM      7  C6  UNL A   1      31.427  24.461  23.268  1.00  0.00    +0.000 C 
ATOM      8  C7  UNL A   1      32.689  24.301  22.665  1.00  0.00    +0.000 C 
ATOM     86  C62 UNL A   1      33.270  25.414  22.048  1.00  0.00    +0.000 C 
ATOM     87  C63 UNL A   1      32.581  26.629  21.968  1.00  0.00    +0.000 C 
ATOM     88  C64 UNL A   1      31.309  26.774  22.539  1.00  0.00    +0.000 C 
ATOM     89  C65 UNL A   1      30.598  27.981  22.450  1.00  0.00    +0.000 C 
ATOM     93  H4  UNL A   1      27.853  27.143  24.177  1.00  0.00    +0.000 H 
ATOM     94  H5  UNL A   1      29.047  25.036  24.322  1.00  0.00    +0.000 H 
ATOM     95  H6  UNL A   1      31.000  23.661  23.759  1.00  0.00    +0.000 H 
ATOM    128  H39 UNL A   1      34.218  25.338  21.646  1.00  0.00    +0.000 H 
BRANCH    3    2
ATOM      2  O1  UNL A   1      28.716  29.318  22.902  1.00  0.00    +0.000 O 
BRANCH    2    1
ATOM      1  C1  UNL A   1      29.410  30.390  23.537  1.00  0.00    +0.000 C 
ATOM     90  H1  UNL A   1      28.793  30.810  24.304  1.00  0.00    +0.000 H 
ATOM     91  H2  UNL A   1      29.641  31.143  22.813  1.00  0.00    +0.000 H 
ATOM     92  H3  UNL A   1      30.316  30.020  23.969  1.00  0.00    +0.000 H 
ENDBRANCH    2    1
ENDBRANCH    3    2
ENDBRANCH    9    8
BRANCH    9   10
ATOM     97  H8  UNL A   1      32.182  21.262  21.952  1.00  0.00    +0.000 H 
ATOM     10  C9  UNL A   1      32.412  21.706  22.897  1.00  0.00    +0.000 C 
ATOM     99  H10 UNL A   1      32.909  20.989  23.517  1.00  0.00    +0.000 H 
ATOM     98  H9  UNL A   1      31.507  22.023  23.373  1.00  0.00    +0.000 H 
ENDBRANCH    9   10
ENDBRANCH   11    9
ENDBRANCH   13   11
ENDBRANCH   14   13
ENDBRANCH   15   14
ENDBRANCH   16   15
ENDBRANCH   17   16
ENDBRANCH   18   17
ENDBRANCH   19   18
ENDBRANCH   20   19
ENDBRANCH   21   20
ENDBRANCH   23   21
ENDBRANCH   27   26
BRANCH   31   32
ATOM     33  C27 UNL A   1      38.337  31.467  36.430  1.00  0.00    +0.000 C 
ATOM     34  F1  UNL A   1      37.950  30.183  36.411  1.00  0.00    +0.000 F 
ATOM     35  C28 UNL A   1      37.902  32.283  37.470  1.00  0.00    +0.000 C 
ATOM     36  F2  UNL A   1      37.104  31.783  38.424  1.00  0.00    +0.000 F 
ATOM     37  C29 UNL A   1      38.290  33.614  37.520  1.00  0.00    +0.000 C 
ATOM     38  F3  UNL A   1      37.884  34.395  38.532  1.00  0.00    +0.000 F 
ATOM     39  C30 UNL A   1      39.096  34.137  36.519  1.00  0.00    +0.000 C 
ATOM     40  F4  UNL A   1      39.482  35.419  36.574  1.00  0.00    +0.000 F 
ATOM     41  C31 UNL A   1      39.509  33.330  35.462  1.00  0.00    +0.000 C 
ATOM     42  F5  UNL A   1      40.283  33.865  34.507  1.00  0.00    +0.000 F 
ATOM     32  C26 UNL A   1      39.143  31.977  35.402  1.00  0.00    +0.000 C 
ENDBRANCH   31   32
BRANCH   48   49
ATOM     49  C37 UNL A   1      44.835  27.735  34.196  1.00  0.00    +0.000 C 
ATOM     50  C38 UNL A   1      46.046  28.441  34.202  1.00  0.00    +0.000 C 
ATOM     51  F6  UNL A   1      46.172  29.571  33.490  1.00  0.00    +0.000 F 
ATOM     52  C39 UNL A   1      47.147  27.965  34.907  1.00  0.00    +0.000 C 
ATOM     53  F7  UNL A   1      48.311  28.629  34.858  1.00  0.00    +0.000 F 
ATOM     54  C40 UNL A   1      47.049  26.794  35.646  1.00  0.00    +0.000 C 
ATOM     55  F8  UNL A   1      48.109  26.340  36.327  1.00  0.00    +0.000 F 
ATOM     56  C41 UNL A   1      45.854  26.093  35.673  1.00  0.00    +0.000 C 
ATOM     57  F9  UNL A   1      45.753  24.970  36.396  1.00  0.00    +0.000 F 
ATOM     58  C42 UNL A   1      44.760  26.550  34.945  1.00  0.00    +0.000 C 
ATOM     59  F10 UNL A   1      43.621  25.842  34.977  1.00  0.00    +0.000 F 
ENDBRANCH   48   49
BRANCH   63   64
ATOM     65  C47 UNL A   1      42.207  25.158  27.613  1.00  0.00    +0.000 C 
ATOM     66  F11 UNL A   1      41.419  24.553  28.514  1.00  0.00    +0.000 F 
ATOM     67  C48 UNL A   1      42.759  24.399  26.584  1.00  0.00    +0.000 C 
ATOM     68  F12 UNL A   1      42.504  23.087  26.512  1.00  0.00    +0.000 F 
ATOM     69  C49 UNL A   1      43.594  24.997  25.652  1.00  0.00    +0.000 C 
ATOM     70  F13 UNL A   1      44.131  24.265  24.666  1.00  0.00    +0.000 F 
ATOM     71  C50 UNL A   1      43.881  26.350  25.750  1.00  0.00    +0.000 C 
ATOM     72  F14 UNL A   1      44.677  26.932  24.844  1.00  0.00    +0.000 F 
ATOM     73  C51 UNL A   1      43.353  27.103  26.797  1.00  0.00    +0.000 C 
ATOM     74  F15 UNL A   1      43.667  28.404  26.881  1.00  0.00    +0.000 F 
ATOM     64  C46 UNL A   1      42.506  26.521  27.751  1.00  0.00    +0.000 C 
ENDBRANCH   63   64
TORSDOF 19
ENDMDL
MODEL 4
REMARK VINA RESULT:     -10.4      3.932      6.768
ROOT
ATOM     27  C22 UNL A   1      41.200  26.266  27.458  1.00  0.00    +0.000 C 
ATOM     28  C23 UNL A   1      42.619  26.526  27.034  1.00  0.00    +0.000 C 
ATOM     29  N3  UNL A   1      43.391  27.549  27.305  1.00  0.00    +0.000 N 
ATOM     30  C24 UNL A   1      44.615  27.268  26.713  1.00  0.00    +0.000 C 
ATOM     31  C25 UNL A   1      45.727  28.040  26.666  1.00  0.00    +0.000 C 
ATOM     43  C32 UNL A   1      45.827  29.357  27.238  1.00  0.00    +0.000 C 
ATOM     44  C33 UNL A   1      46.889  30.243  27.183  1.00  0.00    +0.000 C 
ATOM     45  C34 UNL A   1      46.542  31.387  27.909  1.00  0.00    +0.000 C 
ATOM     46  C35 UNL A   1      45.247  31.232  28.377  1.00  0.00    +0.000 C 
ATOM     47  N4  UNL A   1      44.823  29.979  27.965  1.00  0.00    +0.000 N 
ATOM     48  C36 UNL A   1      44.454  32.158  29.141  1.00  0.00    +0.000 C 
ATOM     60  C43 UNL A   1      43.196  31.921  29.583  1.00  0.00    +0.000 C 
ATOM     61  N5  UNL A   1      42.400  30.800  29.393  1.00  0.00    +0.000 N 
ATOM     62  C44 UNL A   1      41.277  31.044  30.019  1.00  0.00    +0.000 C 
ATOM     63  C45 UNL A   1      40.034  30.198  30.112  1.00  0.00    +0.000 C 
ATOM     75  C52 UNL A   1      39.994  29.016  29.468  1.00  0.00    +0.000 C 
ATOM     76  C53 UNL A   1      38.859  28.098  29.451  1.00  0.00    +0.000 C 
ATOM     77  C54 UNL A   1      39.187  27.009  28.738  1.00  0.00    +0.000 C 
ATOM     78  C55 UNL A   1      40.548  27.166  28.221  1.00  0.00    +0.000 C 
ATOM     79  N6  UNL A   1      40.947  28.388  28.703  1.00  0.00    +0.000 N 
ATOM     80  C56 UNL A   1      41.247  32.340  30.713  1.00  0.00    +0.000 C 
ATOM     81  C57 UNL A   1      42.421  32.853  30.374  1.00  0.00    +0.000 C 
ATOM     82  C58 UNL A   1      44.500  25.962  26.101  1.00  0.00    +0.000 C 
ATOM     83  C59 UNL A   1      43.268  25.488  26.216  1.00  0.00    +0.000 C 
ATOM    116  H27 UNL A   1      47.782  30.087  26.691  1.00  0.00    +0.000 H 
ATOM    117  H28 UNL A   1      47.149  32.206  28.071  1.00  0.00    +0.000 H 
ATOM    118  H29 UNL A   1      43.941  29.588  28.160  1.00  0.00    +0.000 H 
ATOM    119  H30 UNL A   1      37.950  28.261  29.913  1.00  0.00    +0.000 H 
ATOM    120  H31 UNL A   1      38.577  26.192  28.580  1.00  0.00    +0.000 H 
ATOM    121  H32 UNL A   1      41.833  28.777  28.519  1.00  0.00    +0.000 H 
ATOM    122  H33 UNL A   1      40.508  32.744  31.308  1.00  0.00    +0.000 H 
ATOM    123  H34 UNL A   1      42.742  33.797  30.640  1.00  0.00    +0.000 H 
ATOM    124  H35 UNL A   1      45.276  25.465  25.635  1.00  0.00    +0.000 H 
ATOM    125  H36 UNL A   1      42.867  24.619  25.832  1.00  0.00    +0.000 H 
ENDROOT
BRANCH   27   26
ATOM    114  H25 UNL A   1      40.762  21.664  27.507  1.00  0.00    +0.000 H 
ATOM    115  H26 UNL A   1      41.810  23.737  28.209  1.00  0.00    +0.000 H 
ATOM     84  C60 UNL A   1      39.399  25.014  26.257  1.00  0.00    +0.000 C 
ATOM     85  C61 UNL A   1      38.750  23.827  25.917  1.00  0.00    +0.000 C 
ATOM     23  C18 UNL A   1      39.280  22.601  26.328  1.00  0.00    +0.000 C 
ATOM     24  C19 UNL A   1      40.392  22.568  27.173  1.00  0.00    +0.000 C 
ATOM     25  C20 UNL A   1      41.005  23.761  27.565  1.00  0.00    +0.000 C 
ATOM     26  C21 UNL A   1      40.529  24.993  27.088  1.00  0.00    +0.000 C 
ATOM    126  H37 UNL A   1      39.046  25.913  25.894  1.00  0.00    +0.000 H 
ATOM    127  H38 UNL A   1      37.880  23.854  25.364  1.00  0.00    +0.000 H 
BRANCH   23   21
ATOM     21  C17 UNL A   1      38.670  21.318  25.912  1.00  0.00    +0.000 C 
ATOM     22  O3  UNL A   1      39.195  20.259  26.246  1.00  0.00    +0.000 O 
BRANCH   21   20
ATOM    113  H24 UNL A   1      37.693  21.291  24.166  1.00  0.00    +0.000 H 
ATOM     20  N2  UNL A   1      37.537  21.307  25.138  1.00  0.00    +0.000 N 
BRANCH   20   19
ATOM     19  C16 UNL A   1      36.143  21.316  25.543  1.00  0.00    +0.000 C 
ATOM    111  H22 UNL A   1      35.767  20.314  25.503  1.00  0.00    +0.000 H 
ATOM    112  H23 UNL A   1      36.096  21.714  26.535  1.00  0.00    +0.000 H 
BRANCH   19   18
ATOM     18  C15 UNL A   1      35.277  22.198  24.649  1.00  0.00    +0.000 C 
ATOM    109  H20 UNL A   1      35.419  21.883  23.636  1.00  0.00    +0.000 H 
ATOM    110  H21 UNL A   1      34.273  22.077  24.999  1.00  0.00    +0.000 H 
BRANCH   18   17
ATOM     17  C14 UNL A   1      35.574  23.698  24.724  1.00  0.00    +0.000 C 
ATOM    107  H18 UNL A   1      36.541  23.820  25.165  1.00  0.00    +0.000 H 
ATOM    108  H19 UNL A   1      35.506  24.060  23.720  1.00  0.00    +0.000 H 
BRANCH   17   16
ATOM    105  H16 UNL A   1      33.708  23.929  25.710  1.00  0.00    +0.000 H 
ATOM    106  H17 UNL A   1      35.088  24.811  26.433  1.00  0.00    +0.000 H 
ATOM     16  C13 UNL A   1      34.576  24.529  25.538  1.00  0.00    +0.000 C 
BRANCH   16   15
ATOM    103  H14 UNL A   1      34.904  26.172  24.231  1.00  0.00    +0.000 H 
ATOM     15  C12 UNL A   1      34.124  25.838  24.882  1.00  0.00    +0.000 C 
ATOM    104  H15 UNL A   1      33.212  25.619  24.368  1.00  0.00    +0.000 H 
BRANCH   15   14
ATOM    102  H13 UNL A   1      34.181  27.879  25.452  1.00  0.00    +0.000 H 
ATOM    101  H12 UNL A   1      34.271  26.749  26.800  1.00  0.00    +0.000 H 
ATOM     14  C11 UNL A   1      33.807  26.964  25.861  1.00  0.00    +0.000 C 
BRANCH   14   13
ATOM    100  H11 UNL A   1      32.097  27.190  27.003  1.00  0.00    +0.000 H 
ATOM     13  N1  UNL A   1      32.380  27.108  26.064  1.00  0.00    +0.000 N 
BRANCH   13   11
ATOM     11  C10 UNL A   1      31.372  27.149  25.148  1.00  0.00    +0.000 C 
ATOM     12  O2  UNL A   1      31.393  28.067  24.321  1.00  0.00    +0.000 O 
BRANCH   11    9
ATOM      9  C8  UNL A   1      30.255  26.098  25.121  1.00  0.00    +0.000 C 
ATOM     96  H7  UNL A   1      29.673  26.160  26.018  1.00  0.00    +0.000 H 
BRANCH    9    8
ATOM    129  H40 UNL A   1      31.437  22.125  27.293  1.00  0.00    +0.000 H 
ATOM    130  H41 UNL A   1      32.083  20.093  26.061  1.00  0.00    +0.000 H 
ATOM      3  C2  UNL A   1      32.387  20.004  23.979  1.00  0.00    +0.000 C 
ATOM      4  C3  UNL A   1      32.306  20.704  22.777  1.00  0.00    +0.000 C 
ATOM      5  C4  UNL A   1      31.903  22.041  22.782  1.00  0.00    +0.000 C 
ATOM      6  C5  UNL A   1      31.575  22.689  23.984  1.00  0.00    +0.000 C 
ATOM      7  C6  UNL A   1      31.143  24.025  24.003  1.00  0.00    +0.000 C 
ATOM      8  C7  UNL A   1      30.805  24.679  25.204  1.00  0.00    +0.000 C 
ATOM     86  C62 UNL A   1      30.957  23.974  26.403  1.00  0.00    +0.000 C 
ATOM     87  C63 UNL A   1      31.360  22.635  26.399  1.00  0.00    +0.000 C 
ATOM     88  C64 UNL A   1      31.662  21.977  25.199  1.00  0.00    +0.000 C 
ATOM     89  C65 UNL A   1      32.049  20.628  25.179  1.00  0.00    +0.000 C 
ATOM     93  H4  UNL A   1      32.541  20.236  21.888  1.00  0.00    +0.000 H 
ATOM     94  H5  UNL A   1      31.846  22.560  21.891  1.00  0.00    +0.000 H 
ATOM     95  H6  UNL A   1      31.071  24.542  23.113  1.00  0.00    +0.000 H 
ATOM    128  H39 UNL A   1      30.767  24.448  27.301  1.00  0.00    +0.000 H 
BRANCH    3    2
ATOM      2  O1  UNL A   1      32.726  18.681  24.045  1.00  0.00    +0.000 O 
BRANCH    2    1
ATOM      1  C1  UNL A   1      32.681  18.175  25.378  1.00  0.00    +0.000 C 
ATOM     90  H1  UNL A   1      32.115  17.268  25.396  1.00  0.00    +0.000 H 
ATOM     91  H2  UNL A   1      32.219  18.897  26.017  1.00  0.00    +0.000 H 
ATOM     92  H3  UNL A   1      33.677  17.982  25.719  1.00  0.00    +0.000 H 
ENDBRANCH    2    1
ENDBRANCH    3    2
ENDBRANCH    9    8
BRANCH    9   10
ATOM     97  H8  UNL A   1      29.061  27.463  23.984  1.00  0.00    +0.000 H 
ATOM     10  C9  UNL A   1      29.220  26.407  24.034  1.00  0.00    +0.000 C 
ATOM     99  H10 UNL A   1      29.580  26.055  23.090  1.00  0.00    +0.000 H 
ATOM     98  H9  UNL A   1      28.299  25.918  24.271  1.00  0.00    +0.000 H 
ENDBRANCH    9   10
ENDBRANCH   11    9
ENDBRANCH   13   11
ENDBRANCH   14   13
ENDBRANCH   15   14
ENDBRANCH   16   15
ENDBRANCH   17   16
ENDBRANCH   18   17
ENDBRANCH   19   18
ENDBRANCH   20   19
ENDBRANCH   21   20
ENDBRANCH   23   21
ENDBRANCH   27   26
BRANCH   31   32
ATOM     33  C27 UNL A   1      47.128  27.671  24.586  1.00  0.00    +0.000 C 
ATOM     34  F1  UNL A   1      46.191  28.283  23.847  1.00  0.00    +0.000 F 
ATOM     35  C28 UNL A   1      48.278  27.201  23.957  1.00  0.00    +0.000 C 
ATOM     36  F2  UNL A   1      48.427  27.355  22.634  1.00  0.00    +0.000 F 
ATOM     37  C29 UNL A   1      49.267  26.569  24.696  1.00  0.00    +0.000 C 
ATOM     38  F3  UNL A   1      50.381  26.132  24.092  1.00  0.00    +0.000 F 
ATOM     39  C30 UNL A   1      49.101  26.388  26.061  1.00  0.00    +0.000 C 
ATOM     40  F4  UNL A   1      50.062  25.790  26.778  1.00  0.00    +0.000 F 
ATOM     41  C31 UNL A   1      47.939  26.833  26.689  1.00  0.00    +0.000 C 
ATOM     42  F5  UNL A   1      47.805  26.638  28.009  1.00  0.00    +0.000 F 
ATOM     32  C26 UNL A   1      46.934  27.489  25.963  1.00  0.00    +0.000 C 
ENDBRANCH   31   32
BRANCH   48   49
ATOM     49  C37 UNL A   1      45.052  33.500  29.453  1.00  0.00    +0.000 C 
ATOM     50  C38 UNL A   1      45.821  33.716  30.605  1.00  0.00    +0.000 C 
ATOM     51  F6  UNL A   1      46.008  32.724  31.488  1.00  0.00    +0.000 F 
ATOM     52  C39 UNL A   1      46.366  34.968  30.875  1.00  0.00    +0.000 C 
ATOM     53  F7  UNL A   1      47.055  35.167  32.007  1.00  0.00    +0.000 F 
ATOM     54  C40 UNL A   1      46.182  36.016  29.984  1.00  0.00    +0.000 C 
ATOM     55  F8  UNL A   1      46.711  37.219  30.244  1.00  0.00    +0.000 F 
ATOM     56  C41 UNL A   1      45.445  35.817  28.827  1.00  0.00    +0.000 C 
ATOM     57  F9  UNL A   1      45.277  36.824  27.958  1.00  0.00    +0.000 F 
ATOM     58  C42 UNL A   1      44.873  34.575  28.568  1.00  0.00    +0.000 C 
ATOM     59  F10 UNL A   1      44.151  34.416  27.449  1.00  0.00    +0.000 F 
ENDBRANCH   48   49
BRANCH   63   64
ATOM     65  C47 UNL A   1      37.832  31.399  30.254  1.00  0.00    +0.000 C 
ATOM     66  F11 UNL A   1      37.908  31.663  28.941  1.00  0.00    +0.000 F 
ATOM     67  C48 UNL A   1      36.757  31.906  30.980  1.00  0.00    +0.000 C 
ATOM     68  F12 UNL A   1      35.826  32.648  30.365  1.00  0.00    +0.000 F 
ATOM     69  C49 UNL A   1      36.665  31.666  32.343  1.00  0.00    +0.000 C 
ATOM     70  F13 UNL A   1      35.634  32.159  33.043  1.00  0.00    +0.000 F 
ATOM     71  C50 UNL A   1      37.649  30.925  32.980  1.00  0.00    +0.000 C 
ATOM     72  F14 UNL A   1      37.556  30.681  34.294  1.00  0.00    +0.000 F 
ATOM     73  C51 UNL A   1      38.740  30.444  32.259  1.00  0.00    +0.000 C 
ATOM     74  F15 UNL A   1      39.688  29.751  32.906  1.00  0.00    +0.000 F 
ATOM     64  C46 UNL A   1      38.854  30.673  30.881  1.00  0.00    +0.000 C 
ENDBRANCH   63   64
TORSDOF 19
ENDMDL
MODEL 5
REMARK VINA RESULT:     -10.4     38.944     43.438
ROOT
ATOM     27  C22 UNL A   1      29.136 -14.066  30.634  1.00  0.00    +0.000 C 
ATOM     28  C23 UNL A   1      28.897 -14.173  32.115  1.00  0.00    +0.000 C 
ATOM     29  N3  UNL A   1      27.889 -13.731  32.825  1.00  0.00    +0.000 N 
ATOM     30  C24 UNL A   1      28.138 -14.136  34.130  1.00  0.00    +0.000 C 
ATOM     31  C25 UNL A   1      27.414 -13.881  35.246  1.00  0.00    +0.000 C 
ATOM     43  C32 UNL A   1      26.211 -13.090  35.271  1.00  0.00    +0.000 C 
ATOM     44  C33 UNL A   1      25.446 -12.719  36.364  1.00  0.00    +0.000 C 
ATOM     45  C34 UNL A   1      24.353 -11.979  35.901  1.00  0.00    +0.000 C 
ATOM     46  C35 UNL A   1      24.464 -11.850  34.526  1.00  0.00    +0.000 C 
ATOM     47  N4  UNL A   1      25.603 -12.543  34.151  1.00  0.00    +0.000 N 
ATOM     48  C36 UNL A   1      23.595 -11.146  33.620  1.00  0.00    +0.000 C 
ATOM     60  C43 UNL A   1      23.760 -11.085  32.277  1.00  0.00    +0.000 C 
ATOM     61  N5  UNL A   1      24.766 -11.636  31.495  1.00  0.00    +0.000 N 
ATOM     62  C44 UNL A   1      24.481 -11.311  30.259  1.00  0.00    +0.000 C 
ATOM     63  C45 UNL A   1      25.249 -11.601  28.996  1.00  0.00    +0.000 C 
ATOM     75  C52 UNL A   1      26.414 -12.270  29.075  1.00  0.00    +0.000 C 
ATOM     76  C53 UNL A   1      27.276 -12.609  27.946  1.00  0.00    +0.000 C 
ATOM     77  C54 UNL A   1      28.333 -13.304  28.394  1.00  0.00    +0.000 C 
ATOM     78  C55 UNL A   1      28.241 -13.432  29.850  1.00  0.00    +0.000 C 
ATOM     79  N6  UNL A   1      27.071 -12.787  30.166  1.00  0.00    +0.000 N 
ATOM     80  C56 UNL A   1      23.234 -10.546  30.113  1.00  0.00    +0.000 C 
ATOM     81  C57 UNL A   1      22.862 -10.394  31.376  1.00  0.00    +0.000 C 
ATOM     82  C58 UNL A   1      29.370 -14.894  34.110  1.00  0.00    +0.000 C 
ATOM     83  C59 UNL A   1      29.911 -14.893  32.900  1.00  0.00    +0.000 C 
ATOM    116  H27 UNL A   1      25.647 -12.949  37.349  1.00  0.00    +0.000 H 
ATOM    117  H28 UNL A   1      23.593 -11.596  36.484  1.00  0.00    +0.000 H 
ATOM    118  H29 UNL A   1      25.932 -12.634  33.229  1.00  0.00    +0.000 H 
ATOM    119  H30 UNL A   1      27.099 -12.355  26.961  1.00  0.00    +0.000 H 
ATOM    120  H31 UNL A   1      29.091 -13.686  27.806  1.00  0.00    +0.000 H 
ATOM    121  H32 UNL A   1      26.734 -12.704  31.087  1.00  0.00    +0.000 H 
ATOM    122  H33 UNL A   1      22.770 -10.213  29.254  1.00  0.00    +0.000 H 
ATOM    123  H34 UNL A   1      22.037  -9.853  31.678  1.00  0.00    +0.000 H 
ATOM    124  H35 UNL A   1      29.773 -15.373  34.930  1.00  0.00    +0.000 H 
ATOM    125  H36 UNL A   1      30.810 -15.292  32.590  1.00  0.00    +0.000 H 
ENDROOT
BRANCH   27   26
ATOM    114  H25 UNL A   1      31.393 -17.627  28.738  1.00  0.00    +0.000 H 
ATOM    115  H26 UNL A   1      29.404 -16.571  29.641  1.00  0.00    +0.000 H 
ATOM     84  C60 UNL A   1      31.516 -13.974  29.873  1.00  0.00    +0.000 C 
ATOM     85  C61 UNL A   1      32.636 -14.559  29.282  1.00  0.00    +0.000 C 
ATOM     23  C18 UNL A   1      32.609 -15.907  28.918  1.00  0.00    +0.000 C 
ATOM     24  C19 UNL A   1      31.425 -16.640  29.041  1.00  0.00    +0.000 C 
ATOM     25  C20 UNL A   1      30.284 -16.036  29.575  1.00  0.00    +0.000 C 
ATOM     26  C21 UNL A   1      30.328 -14.705  30.020  1.00  0.00    +0.000 C 
ATOM    126  H37 UNL A   1      31.562 -12.998  30.205  1.00  0.00    +0.000 H 
ATOM    127  H38 UNL A   1      33.484 -13.995  29.113  1.00  0.00    +0.000 H 
BRANCH   23   21
ATOM     21  C17 UNL A   1      33.806 -16.584  28.372  1.00  0.00    +0.000 C 
ATOM     22  O3  UNL A   1      34.622 -17.089  29.139  1.00  0.00    +0.000 O 
BRANCH   21   20
ATOM    113  H24 UNL A   1      33.206 -16.598  26.463  1.00  0.00    +0.000 H 
ATOM     20  N2  UNL A   1      34.019 -16.631  27.018  1.00  0.00    +0.000 N 
BRANCH   20   19
ATOM     19  C16 UNL A   1      35.268 -16.720  26.283  1.00  0.00    +0.000 C 
ATOM    111  H22 UNL A   1      36.068 -16.864  26.979  1.00  0.00    +0.000 H 
ATOM    112  H23 UNL A   1      35.185 -17.542  25.602  1.00  0.00    +0.000 H 
BRANCH   19   18
ATOM     18  C15 UNL A   1      35.556 -15.466  25.462  1.00  0.00    +0.000 C 
ATOM    109  H20 UNL A   1      36.392 -14.966  25.904  1.00  0.00    +0.000 H 
ATOM    110  H21 UNL A   1      35.738 -15.804  24.462  1.00  0.00    +0.000 H 
BRANCH   18   17
ATOM     17  C14 UNL A   1      34.401 -14.466  25.366  1.00  0.00    +0.000 C 
ATOM    107  H18 UNL A   1      34.371 -14.094  24.364  1.00  0.00    +0.000 H 
ATOM    108  H19 UNL A   1      33.523 -15.003  25.656  1.00  0.00    +0.000 H 
BRANCH   17   16
ATOM    105  H16 UNL A   1      33.623 -13.277  26.943  1.00  0.00    +0.000 H 
ATOM    106  H17 UNL A   1      35.409 -13.372  26.844  1.00  0.00    +0.000 H 
ATOM     16  C13 UNL A   1      34.488 -13.264  26.313  1.00  0.00    +0.000 C 
BRANCH   16   15
ATOM    103  H14 UNL A   1      35.369 -11.905  24.937  1.00  0.00    +0.000 H 
ATOM     15  C12 UNL A   1      34.554 -11.894  25.630  1.00  0.00    +0.000 C 
ATOM    104  H15 UNL A   1      33.605 -11.744  25.160  1.00  0.00    +0.000 H 
BRANCH   15   14
ATOM    102  H13 UNL A   1      34.919  -9.837  25.994  1.00  0.00    +0.000 H 
ATOM    101  H12 UNL A   1      35.597 -10.920  27.209  1.00  0.00    +0.000 H 
ATOM     14  C11 UNL A   1      34.755 -10.718  26.580  1.00  0.00    +0.000 C 
BRANCH   14   13
ATOM    100  H11 UNL A   1      33.502 -11.107  28.180  1.00  0.00    +0.000 H 
ATOM     13  N1  UNL A   1      33.589 -10.498  27.411  1.00  0.00    +0.000 N 
BRANCH   13   11
ATOM     11  C10 UNL A   1      32.596  -9.574  27.287  1.00  0.00    +0.000 C 
ATOM     12  O2  UNL A   1      32.891  -8.392  27.493  1.00  0.00    +0.000 O 
BRANCH   11    9
ATOM      9  C8  UNL A   1      31.165  -9.966  26.895  1.00  0.00    +0.000 C 
ATOM     96  H7  UNL A   1      30.866  -9.428  26.019  1.00  0.00    +0.000 H 
BRANCH    9    8
ATOM    129  H40 UNL A   1      27.488  -7.480  28.379  1.00  0.00    +0.000 H 
ATOM    130  H41 UNL A   1      26.438  -7.864  30.573  1.00  0.00    +0.000 H 
ATOM      3  C2  UNL A   1      27.206  -9.146  32.056  1.00  0.00    +0.000 C 
ATOM      4  C3  UNL A   1      28.188 -10.085  32.365  1.00  0.00    +0.000 C 
ATOM      5  C4  UNL A   1      29.167 -10.396  31.420  1.00  0.00    +0.000 C 
ATOM      6  C5  UNL A   1      29.173  -9.777  30.160  1.00  0.00    +0.000 C 
ATOM      7  C6  UNL A   1      30.136 -10.098  29.188  1.00  0.00    +0.000 C 
ATOM      8  C7  UNL A   1      30.143  -9.487  27.919  1.00  0.00    +0.000 C 
ATOM     86  C62 UNL A   1      29.185  -8.501  27.657  1.00  0.00    +0.000 C 
ATOM     87  C63 UNL A   1      28.204  -8.189  28.603  1.00  0.00    +0.000 C 
ATOM     88  C64 UNL A   1      28.179  -8.825  29.852  1.00  0.00    +0.000 C 
ATOM     89  C65 UNL A   1      27.188  -8.535  30.803  1.00  0.00    +0.000 C 
ATOM     93  H4  UNL A   1      28.190 -10.548  33.287  1.00  0.00    +0.000 H 
ATOM     94  H5  UNL A   1      29.897 -11.090  31.651  1.00  0.00    +0.000 H 
ATOM     95  H6  UNL A   1      30.857 -10.801  29.410  1.00  0.00    +0.000 H 
ATOM    128  H39 UNL A   1      29.203  -8.000  26.755  1.00  0.00    +0.000 H 
BRANCH    3    2
ATOM      2  O1  UNL A   1      26.188  -8.828  32.913  1.00  0.00    +0.000 O 
BRANCH    2    1
ATOM      1  C1  UNL A   1      26.597  -8.866  34.279  1.00  0.00    +0.000 C 
ATOM     90  H1  UNL A   1      27.390  -9.575  34.394  1.00  0.00    +0.000 H 
ATOM     91  H2  UNL A   1      25.768  -9.154  34.890  1.00  0.00    +0.000 H 
ATOM     92  H3  UNL A   1      26.938  -7.895  34.574  1.00  0.00    +0.000 H 
ENDBRANCH    2    1
ENDBRANCH    3    2
ENDBRANCH    9    8
BRANCH    9   10
ATOM     97  H8  UNL A   1      30.162 -11.851  26.743  1.00  0.00    +0.000 H 
ATOM     10  C9  UNL A   1      31.090 -11.424  26.430  1.00  0.00    +0.000 C 
ATOM     99  H10 UNL A   1      31.158 -11.461  25.362  1.00  0.00    +0.000 H 
ATOM     98  H9  UNL A   1      31.900 -11.976  26.859  1.00  0.00    +0.000 H 
ENDBRANCH    9   10
ENDBRANCH   11    9
ENDBRANCH   13   11
ENDBRANCH   14   13
ENDBRANCH   15   14
ENDBRANCH   16   15
ENDBRANCH   17   16
ENDBRANCH   18   17
ENDBRANCH   19   18
ENDBRANCH   20   19
ENDBRANCH   21   20
ENDBRANCH   23   21
ENDBRANCH   27   26
BRANCH   31   32
ATOM     33  C27 UNL A   1      28.814 -13.760  37.355  1.00  0.00    +0.000 C 
ATOM     34  F1  UNL A   1      29.332 -12.593  36.945  1.00  0.00    +0.000 F 
ATOM     35  C28 UNL A   1      29.218 -14.278  38.582  1.00  0.00    +0.000 C 
ATOM     36  F2  UNL A   1      30.117 -13.616  39.325  1.00  0.00    +0.000 F 
ATOM     37  C29 UNL A   1      28.697 -15.480  39.037  1.00  0.00    +0.000 C 
ATOM     38  F3  UNL A   1      29.074 -15.970  40.226  1.00  0.00    +0.000 F 
ATOM     39  C30 UNL A   1      27.786 -16.177  38.256  1.00  0.00    +0.000 C 
ATOM     40  F4  UNL A   1      27.271 -17.332  38.700  1.00  0.00    +0.000 F 
ATOM     41  C31 UNL A   1      27.400 -15.675  37.016  1.00  0.00    +0.000 C 
ATOM     42  F5  UNL A   1      26.522 -16.374  36.282  1.00  0.00    +0.000 F 
ATOM     32  C26 UNL A   1      27.903 -14.452  36.545  1.00  0.00    +0.000 C 
ENDBRANCH   31   32
BRANCH   48   49
ATOM     49  C37 UNL A   1      22.433 -10.397  34.205  1.00  0.00    +0.000 C 
ATOM     50  C38 UNL A   1      21.122 -10.888  34.123  1.00  0.00    +0.000 C 
ATOM     51  F6  UNL A   1      20.870 -12.035  33.475  1.00  0.00    +0.000 F 
ATOM     52  C39 UNL A   1      20.058 -10.178  34.673  1.00  0.00    +0.000 C 
ATOM     53  F7  UNL A   1      18.807 -10.640  34.539  1.00  0.00    +0.000 F 
ATOM     54  C40 UNL A   1      20.287  -8.985  35.342  1.00  0.00    +0.000 C 
ATOM     55  F8  UNL A   1      19.262  -8.306  35.873  1.00  0.00    +0.000 F 
ATOM     56  C41 UNL A   1      21.578  -8.493  35.455  1.00  0.00    +0.000 C 
ATOM     57  F9  UNL A   1      21.804  -7.347  36.111  1.00  0.00    +0.000 F 
ATOM     58  C42 UNL A   1      22.641  -9.185  34.881  1.00  0.00    +0.000 C 
ATOM     59  F10 UNL A   1      23.877  -8.677  34.991  1.00  0.00    +0.000 F 
ENDBRANCH   48   49
BRANCH   63   64
ATOM     65  C47 UNL A   1      24.121 -12.017  26.789  1.00  0.00    +0.000 C 
ATOM     66  F11 UNL A   1      23.969 -13.306  27.126  1.00  0.00    +0.000 F 
ATOM     67  C48 UNL A   1      23.706 -11.598  25.528  1.00  0.00    +0.000 C 
ATOM     68  F12 UNL A   1      23.170 -12.480  24.674  1.00  0.00    +0.000 F 
ATOM     69  C49 UNL A   1      23.871 -10.274  25.146  1.00  0.00    +0.000 C 
ATOM     70  F13 UNL A   1      23.477  -9.873  23.930  1.00  0.00    +0.000 F 
ATOM     71  C50 UNL A   1      24.456  -9.372  26.022  1.00  0.00    +0.000 C 
ATOM     72  F14 UNL A   1      24.605  -8.091  25.660  1.00  0.00    +0.000 F 
ATOM     73  C51 UNL A   1      24.899  -9.798  27.272  1.00  0.00    +0.000 C 
ATOM     74  F15 UNL A   1      25.483  -8.908  28.089  1.00  0.00    +0.000 F 
ATOM     64  C46 UNL A   1      24.742 -11.130  27.680  1.00  0.00    +0.000 C 
ENDBRANCH   63   64
TORSDOF 19
ENDMDL
MODEL 6
REMARK VINA RESULT:     -10.4     20.152     24.991
ROOT
ATOM     27  C22 UNL A   1      53.501  19.648  11.638  1.00  0.00    +0.000 C 
ATOM     28  C23 UNL A   1      54.860  19.018  11.511  1.00  0.00    +0.000 C 
ATOM     29  N3  UNL A   1      55.849  19.002  12.370  1.00  0.00    +0.000 N 
ATOM     30  C24 UNL A   1      56.853  18.247  11.778  1.00  0.00    +0.000 C 
ATOM     31  C25 UNL A   1      58.096  17.979  12.246  1.00  0.00    +0.000 C 
ATOM     43  C32 UNL A   1      58.618  18.472  13.494  1.00  0.00    +0.000 C 
ATOM     44  C33 UNL A   1      59.888  18.311  14.021  1.00  0.00    +0.000 C 
ATOM     45  C34 UNL A   1      59.926  18.939  15.270  1.00  0.00    +0.000 C 
ATOM     46  C35 UNL A   1      58.694  19.530  15.499  1.00  0.00    +0.000 C 
ATOM     47  N4  UNL A   1      57.898  19.230  14.406  1.00  0.00    +0.000 N 
ATOM     48  C36 UNL A   1      58.273  20.313  16.631  1.00  0.00    +0.000 C 
ATOM     60  C43 UNL A   1      57.036  20.841  16.792  1.00  0.00    +0.000 C 
ATOM     61  N5  UNL A   1      55.942  20.780  15.939  1.00  0.00    +0.000 N 
ATOM     62  C44 UNL A   1      54.979  21.431  16.541  1.00  0.00    +0.000 C 
ATOM     63  C45 UNL A   1      53.582  21.723  16.060  1.00  0.00    +0.000 C 
ATOM     75  C52 UNL A   1      53.205  21.301  14.839  1.00  0.00    +0.000 C 
ATOM     76  C53 UNL A   1      51.896  21.522  14.231  1.00  0.00    +0.000 C 
ATOM     77  C54 UNL A   1      51.868  20.934  13.025  1.00  0.00    +0.000 C 
ATOM     78  C55 UNL A   1      53.170  20.320  12.759  1.00  0.00    +0.000 C 
ATOM     79  N6  UNL A   1      53.900  20.590  13.890  1.00  0.00    +0.000 N 
ATOM     80  C56 UNL A   1      55.343  21.949  17.868  1.00  0.00    +0.000 C 
ATOM     81  C57 UNL A   1      56.620  21.604  17.950  1.00  0.00    +0.000 C 
ATOM     82  C58 UNL A   1      56.342  17.787  10.505  1.00  0.00    +0.000 C 
ATOM     83  C59 UNL A   1      55.139  18.288  10.265  1.00  0.00    +0.000 C 
ATOM    116  H27 UNL A   1      60.672  17.814  13.570  1.00  0.00    +0.000 H 
ATOM    117  H28 UNL A   1      60.733  18.957  15.912  1.00  0.00    +0.000 H 
ATOM    118  H29 UNL A   1      56.962  19.511  14.293  1.00  0.00    +0.000 H 
ATOM    119  H30 UNL A   1      51.117  22.046  14.661  1.00  0.00    +0.000 H 
ATOM    120  H31 UNL A   1      51.057  20.918  12.386  1.00  0.00    +0.000 H 
ATOM    121  H32 UNL A   1      54.834  20.301  14.011  1.00  0.00    +0.000 H 
ATOM    122  H33 UNL A   1      54.759  22.450  18.555  1.00  0.00    +0.000 H 
ATOM    123  H34 UNL A   1      57.238  21.848  18.739  1.00  0.00    +0.000 H 
ATOM    124  H35 UNL A   1      56.849  17.152   9.868  1.00  0.00    +0.000 H 
ATOM    125  H36 UNL A   1      54.551  18.192   9.423  1.00  0.00    +0.000 H 
ENDROOT
BRANCH   27   26
ATOM    114  H25 UNL A   1      50.162  17.347   9.417  1.00  0.00    +0.000 H 
ATOM    115  H26 UNL A   1      51.723  17.642  11.252  1.00  0.00    +0.000 H 
ATOM     84  C60 UNL A   1      52.365  20.473   9.568  1.00  0.00    +0.000 C 
ATOM     85  C61 UNL A   1      51.414  20.339   8.558  1.00  0.00    +0.000 C 
ATOM     23  C18 UNL A   1      50.648  19.173   8.470  1.00  0.00    +0.000 C 
ATOM     24  C19 UNL A   1      50.754  18.192   9.460  1.00  0.00    +0.000 C 
ATOM     25  C20 UNL A   1      51.664  18.356  10.508  1.00  0.00    +0.000 C 
ATOM     26  C21 UNL A   1      52.496  19.485  10.557  1.00  0.00    +0.000 C 
ATOM    126  H37 UNL A   1      52.979  21.303   9.589  1.00  0.00    +0.000 H 
ATOM    127  H38 UNL A   1      51.275  21.101   7.875  1.00  0.00    +0.000 H 
BRANCH   23   21
ATOM     21  C17 UNL A   1      49.693  18.958   7.361  1.00  0.00    +0.000 C 
ATOM     22  O3  UNL A   1      49.173  17.855   7.213  1.00  0.00    +0.000 O 
BRANCH   21   20
ATOM    113  H24 UNL A   1      50.036  20.075   5.736  1.00  0.00    +0.000 H 
ATOM     20  N2  UNL A   1      49.406  19.975   6.486  1.00  0.00    +0.000 N 
BRANCH   20   19
ATOM     19  C16 UNL A   1      48.308  20.924   6.504  1.00  0.00    +0.000 C 
ATOM    111  H22 UNL A   1      47.717  20.752   7.380  1.00  0.00    +0.000 H 
ATOM    112  H23 UNL A   1      48.729  21.908   6.501  1.00  0.00    +0.000 H 
BRANCH   19   18
ATOM     18  C15 UNL A   1      47.407  20.803   5.278  1.00  0.00    +0.000 C 
ATOM    109  H20 UNL A   1      46.720  21.623   5.290  1.00  0.00    +0.000 H 
ATOM    110  H21 UNL A   1      48.062  20.806   4.430  1.00  0.00    +0.000 H 
BRANCH   18   17
ATOM     17  C14 UNL A   1      46.599  19.507   5.184  1.00  0.00    +0.000 C 
ATOM    107  H18 UNL A   1      46.986  18.825   5.912  1.00  0.00    +0.000 H 
ATOM    108  H19 UNL A   1      45.579  19.785   5.351  1.00  0.00    +0.000 H 
BRANCH   17   16
ATOM    105  H16 UNL A   1      47.598  18.943   3.399  1.00  0.00    +0.000 H 
ATOM    106  H17 UNL A   1      46.376  17.785   4.009  1.00  0.00    +0.000 H 
ATOM     16  C13 UNL A   1      46.624  18.808   3.821  1.00  0.00    +0.000 C 
BRANCH   16   15
ATOM    103  H14 UNL A   1      46.002  20.170   2.313  1.00  0.00    +0.000 H 
ATOM     15  C12 UNL A   1      45.594  19.312   2.805  1.00  0.00    +0.000 C 
ATOM    104  H15 UNL A   1      45.402  18.497   2.140  1.00  0.00    +0.000 H 
BRANCH   15   14
ATOM    102  H13 UNL A   1      44.420  20.440   4.164  1.00  0.00    +0.000 H 
ATOM    101  H12 UNL A   1      43.784  18.833   3.817  1.00  0.00    +0.000 H 
ATOM     14  C11 UNL A   1      44.248  19.704   3.405  1.00  0.00    +0.000 C 
BRANCH   14   13
ATOM    100  H11 UNL A   1      43.281  21.259   2.442  1.00  0.00    +0.000 H 
ATOM     13  N1  UNL A   1      43.367  20.279   2.409  1.00  0.00    +0.000 N 
BRANCH   13   11
ATOM     11  C10 UNL A   1      42.641  19.664   1.434  1.00  0.00    +0.000 C 
ATOM     12  O2  UNL A   1      43.219  19.406   0.373  1.00  0.00    +0.000 O 
BRANCH   11    9
ATOM      9  C8  UNL A   1      41.166  19.288   1.632  1.00  0.00    +0.000 C 
ATOM     96  H7  UNL A   1      40.945  18.386   1.101  1.00  0.00    +0.000 H 
BRANCH    9    8
ATOM    129  H40 UNL A   1      40.029  22.657  -1.410  1.00  0.00    +0.000 H 
ATOM    130  H41 UNL A   1      37.699  23.359  -1.787  1.00  0.00    +0.000 H 
ATOM      3  C2  UNL A   1      36.055  22.702  -0.647  1.00  0.00    +0.000 C 
ATOM      4  C3  UNL A   1      35.630  21.844   0.364  1.00  0.00    +0.000 C 
ATOM      5  C4  UNL A   1      36.560  21.037   1.022  1.00  0.00    +0.000 C 
ATOM      6  C5  UNL A   1      37.920  21.078   0.675  1.00  0.00    +0.000 C 
ATOM      7  C6  UNL A   1      38.865  20.254   1.308  1.00  0.00    +0.000 C 
ATOM      8  C7  UNL A   1      40.229  20.284   0.960  1.00  0.00    +0.000 C 
ATOM     86  C62 UNL A   1      40.640  21.201  -0.014  1.00  0.00    +0.000 C 
ATOM     87  C63 UNL A   1      39.709  22.009  -0.674  1.00  0.00    +0.000 C 
ATOM     88  C64 UNL A   1      38.347  21.951  -0.348  1.00  0.00    +0.000 C 
ATOM     89  C65 UNL A   1      37.399  22.743  -1.015  1.00  0.00    +0.000 C 
ATOM     93  H4  UNL A   1      34.632  21.805   0.625  1.00  0.00    +0.000 H 
ATOM     94  H5  UNL A   1      36.245  20.404   1.774  1.00  0.00    +0.000 H 
ATOM     95  H6  UNL A   1      38.551  19.610   2.050  1.00  0.00    +0.000 H 
ATOM    128  H39 UNL A   1      41.642  21.280  -0.249  1.00  0.00    +0.000 H 
BRANCH    3    2
ATOM      2  O1  UNL A   1      35.194  23.484  -1.367  1.00  0.00    +0.000 O 
BRANCH    2    1
ATOM      1  C1  UNL A   1      34.239  22.713  -2.093  1.00  0.00    +0.000 C 
ATOM     90  H1  UNL A   1      33.902  21.899  -1.486  1.00  0.00    +0.000 H 
ATOM     91  H2  UNL A   1      34.693  22.331  -2.983  1.00  0.00    +0.000 H 
ATOM     92  H3  UNL A   1      33.406  23.332  -2.354  1.00  0.00    +0.000 H 
ENDBRANCH    2    1
ENDBRANCH    3    2
ENDBRANCH    9    8
BRANCH    9   10
ATOM     97  H8  UNL A   1      39.888  19.200   3.347  1.00  0.00    +0.000 H 
ATOM     10  C9  UNL A   1      40.879  18.896   3.085  1.00  0.00    +0.000 C 
ATOM     99  H10 UNL A   1      40.966  17.834   3.191  1.00  0.00    +0.000 H 
ATOM     98  H9  UNL A   1      41.583  19.378   3.730  1.00  0.00    +0.000 H 
ENDBRANCH    9   10
ENDBRANCH   11    9
ENDBRANCH   13   11
ENDBRANCH   14   13
ENDBRANCH   15   14
ENDBRANCH   16   15
ENDBRANCH   17   16
ENDBRANCH   18   17
ENDBRANCH   19   18
ENDBRANCH   20   19
ENDBRANCH   21   20
ENDBRANCH   23   21
ENDBRANCH   27   26
BRANCH   31   32
ATOM     33  C27 UNL A   1      59.000  15.721  11.533  1.00  0.00    +0.000 C 
ATOM     34  F1  UNL A   1      58.253  15.125  12.475  1.00  0.00    +0.000 F 
ATOM     35  C28 UNL A   1      59.797  14.931  10.710  1.00  0.00    +0.000 C 
ATOM     36  F2  UNL A   1      59.815  13.600  10.873  1.00  0.00    +0.000 F 
ATOM     37  C29 UNL A   1      60.575  15.517   9.723  1.00  0.00    +0.000 C 
ATOM     38  F3  UNL A   1      61.329  14.754   8.919  1.00  0.00    +0.000 F 
ATOM     39  C30 UNL A   1      60.574  16.896   9.570  1.00  0.00    +0.000 C 
ATOM     40  F4  UNL A   1      61.315  17.463   8.609  1.00  0.00    +0.000 F 
ATOM     41  C31 UNL A   1      59.799  17.691  10.411  1.00  0.00    +0.000 C 
ATOM     42  F5  UNL A   1      59.824  19.022  10.243  1.00  0.00    +0.000 F 
ATOM     32  C26 UNL A   1      58.992  17.117  11.405  1.00  0.00    +0.000 C 
ENDBRANCH   31   32
BRANCH   48   49
ATOM     49  C37 UNL A   1      59.285  20.592  17.704  1.00  0.00    +0.000 C 
ATOM     50  C38 UNL A   1      59.477  19.718  18.783  1.00  0.00    +0.000 C 
ATOM     51  F6  UNL A   1      58.720  18.617  18.903  1.00  0.00    +0.000 F 
ATOM     52  C39 UNL A   1      60.421  19.995  19.768  1.00  0.00    +0.000 C 
ATOM     53  F7  UNL A   1      60.553  19.172  20.818  1.00  0.00    +0.000 F 
ATOM     54  C40 UNL A   1      61.213  21.130  19.675  1.00  0.00    +0.000 C 
ATOM     55  F8  UNL A   1      62.124  21.393  20.621  1.00  0.00    +0.000 F 
ATOM     56  C41 UNL A   1      61.056  21.996  18.604  1.00  0.00    +0.000 C 
ATOM     57  F9  UNL A   1      61.828  23.087  18.505  1.00  0.00    +0.000 F 
ATOM     58  C42 UNL A   1      60.092  21.738  17.633  1.00  0.00    +0.000 C 
ATOM     59  F10 UNL A   1      59.951  22.602  16.617  1.00  0.00    +0.000 F 
ENDBRANCH   48   49
BRANCH   63   64
ATOM     65  C47 UNL A   1      51.882  21.857  17.906  1.00  0.00    +0.000 C 
ATOM     66  F11 UNL A   1      52.016  20.538  18.106  1.00  0.00    +0.000 F 
ATOM     67  C48 UNL A   1      50.946  22.559  18.661  1.00  0.00    +0.000 C 
ATOM     68  F12 UNL A   1      50.195  21.913  19.563  1.00  0.00    +0.000 F 
ATOM     69  C49 UNL A   1      50.772  23.921  18.460  1.00  0.00    +0.000 C 
ATOM     70  F13 UNL A   1      49.866  24.595  19.181  1.00  0.00    +0.000 F 
ATOM     71  C50 UNL A   1      51.528  24.578  17.501  1.00  0.00    +0.000 C 
ATOM     72  F14 UNL A   1      51.371  25.895  17.314  1.00  0.00    +0.000 F 
ATOM     73  C51 UNL A   1      52.443  23.869  16.725  1.00  0.00    +0.000 C 
ATOM     74  F15 UNL A   1      53.144  24.527  15.790  1.00  0.00    +0.000 F 
ATOM     64  C46 UNL A   1      52.637  22.494  16.911  1.00  0.00    +0.000 C 
ENDBRANCH   63   64
TORSDOF 19
ENDMDL
MODEL 7
REMARK VINA RESULT:     -10.4      4.303      7.331
ROOT
ATOM     27  C22 UNL A   1      41.696  26.063  27.461  1.00  0.00    +0.000 C 
ATOM     28  C23 UNL A   1      43.073  26.438  26.986  1.00  0.00    +0.000 C 
ATOM     29  N3  UNL A   1      43.754  27.536  27.203  1.00  0.00    +0.000 N 
ATOM     30  C24 UNL A   1      44.982  27.349  26.582  1.00  0.00    +0.000 C 
ATOM     31  C25 UNL A   1      46.017  28.217  26.477  1.00  0.00    +0.000 C 
ATOM     43  C32 UNL A   1      46.009  29.556  27.006  1.00  0.00    +0.000 C 
ATOM     44  C33 UNL A   1      46.983  30.533  26.891  1.00  0.00    +0.000 C 
ATOM     45  C34 UNL A   1      46.553  31.665  27.592  1.00  0.00    +0.000 C 
ATOM     46  C35 UNL A   1      45.291  31.407  28.103  1.00  0.00    +0.000 C 
ATOM     47  N4  UNL A   1      44.973  30.108  27.743  1.00  0.00    +0.000 N 
ATOM     48  C36 UNL A   1      44.437  32.282  28.863  1.00  0.00    +0.000 C 
ATOM     60  C43 UNL A   1      43.218  31.946  29.349  1.00  0.00    +0.000 C 
ATOM     61  N5  UNL A   1      42.525  30.750  29.218  1.00  0.00    +0.000 N 
ATOM     62  C44 UNL A   1      41.401  30.912  29.870  1.00  0.00    +0.000 C 
ATOM     63  C45 UNL A   1      40.245  29.959  30.027  1.00  0.00    +0.000 C 
ATOM     75  C52 UNL A   1      40.297  28.758  29.421  1.00  0.00    +0.000 C 
ATOM     76  C53 UNL A   1      39.251  27.740  29.466  1.00  0.00    +0.000 C 
ATOM     77  C54 UNL A   1      39.660  26.662  28.778  1.00  0.00    +0.000 C 
ATOM     78  C55 UNL A   1      40.985  26.925  28.215  1.00  0.00    +0.000 C 
ATOM     79  N6  UNL A   1      41.282  28.194  28.647  1.00  0.00    +0.000 N 
ATOM     80  C56 UNL A   1      41.271  32.222  30.525  1.00  0.00    +0.000 C 
ATOM     81  C57 UNL A   1      42.382  32.829  30.134  1.00  0.00    +0.000 C 
ATOM     82  C58 UNL A   1      44.972  26.018  26.014  1.00  0.00    +0.000 C 
ATOM     83  C59 UNL A   1      43.792  25.437  26.181  1.00  0.00    +0.000 C 
ATOM    116  H27 UNL A   1      47.874  30.444  26.378  1.00  0.00    +0.000 H 
ATOM    117  H28 UNL A   1      47.085  32.541  27.710  1.00  0.00    +0.000 H 
ATOM    118  H29 UNL A   1      44.137  29.645  27.976  1.00  0.00    +0.000 H 
ATOM    119  H30 UNL A   1      38.344  27.834  29.950  1.00  0.00    +0.000 H 
ATOM    120  H31 UNL A   1      39.123  25.787  28.664  1.00  0.00    +0.000 H 
ATOM    121  H32 UNL A   1      42.123  28.656  28.424  1.00  0.00    +0.000 H 
ATOM    122  H33 UNL A   1      40.513  32.576  31.129  1.00  0.00    +0.000 H 
ATOM    123  H34 UNL A   1      42.622  33.806  30.362  1.00  0.00    +0.000 H 
ATOM    124  H35 UNL A   1      45.777  25.579  25.541  1.00  0.00    +0.000 H 
ATOM    125  H36 UNL A   1      43.463  24.522  25.837  1.00  0.00    +0.000 H 
ENDROOT
BRANCH   27   26
ATOM    114  H25 UNL A   1      41.658  21.447  27.708  1.00  0.00    +0.000 H 
ATOM    115  H26 UNL A   1      42.527  23.631  28.313  1.00  0.00    +0.000 H 
ATOM     84  C60 UNL A   1      40.004  24.611  26.329  1.00  0.00    +0.000 C 
ATOM     85  C61 UNL A   1      39.459  23.359  26.046  1.00  0.00    +0.000 C 
ATOM     23  C18 UNL A   1      40.095  22.201  26.503  1.00  0.00    +0.000 C 
ATOM     24  C19 UNL A   1      41.210  22.301  27.340  1.00  0.00    +0.000 C 
ATOM     25  C20 UNL A   1      41.719  23.558  27.675  1.00  0.00    +0.000 C 
ATOM     26  C21 UNL A   1      41.136  24.723  27.151  1.00  0.00    +0.000 C 
ATOM    126  H37 UNL A   1      39.573  25.460  25.931  1.00  0.00    +0.000 H 
ATOM    127  H38 UNL A   1      38.587  23.287  25.499  1.00  0.00    +0.000 H 
BRANCH   23   21
ATOM     21  C17 UNL A   1      39.596  20.855  26.147  1.00  0.00    +0.000 C 
ATOM     22  O3  UNL A   1      40.091  19.863  26.677  1.00  0.00    +0.000 O 
BRANCH   21   20
ATOM    113  H24 UNL A   1      38.650  21.326  24.448  1.00  0.00    +0.000 H 
ATOM     20  N2  UNL A   1      38.602  20.708  25.213  1.00  0.00    +0.000 N 
BRANCH   20   19
ATOM     19  C16 UNL A   1      37.490  19.774  25.188  1.00  0.00    +0.000 C 
ATOM    111  H22 UNL A   1      37.677  19.037  24.435  1.00  0.00    +0.000 H 
ATOM    112  H23 UNL A   1      37.415  19.333  26.160  1.00  0.00    +0.000 H 
BRANCH   19   18
ATOM     18  C15 UNL A   1      36.159  20.455  24.885  1.00  0.00    +0.000 C 
ATOM    109  H20 UNL A   1      36.264  20.992  23.965  1.00  0.00    +0.000 H 
ATOM    110  H21 UNL A   1      35.430  19.673  24.843  1.00  0.00    +0.000 H 
BRANCH   18   17
ATOM     17  C14 UNL A   1      35.666  21.436  25.952  1.00  0.00    +0.000 C 
ATOM    107  H18 UNL A   1      34.676  21.146  26.232  1.00  0.00    +0.000 H 
ATOM    108  H19 UNL A   1      36.376  21.381  26.750  1.00  0.00    +0.000 H 
BRANCH   17   16
ATOM    105  H16 UNL A   1      34.600  23.201  25.450  1.00  0.00    +0.000 H 
ATOM    106  H17 UNL A   1      36.168  23.445  26.278  1.00  0.00    +0.000 H 
ATOM     16  C13 UNL A   1      35.625  22.908  25.530  1.00  0.00    +0.000 C 
BRANCH   16   15
ATOM    103  H14 UNL A   1      36.924  24.096  24.339  1.00  0.00    +0.000 H 
ATOM     15  C12 UNL A   1      36.313  23.229  24.199  1.00  0.00    +0.000 C 
ATOM    104  H15 UNL A   1      36.874  22.358  23.931  1.00  0.00    +0.000 H 
BRANCH   15   14
ATOM    102  H13 UNL A   1      34.937  22.570  22.727  1.00  0.00    +0.000 H 
ATOM    101  H12 UNL A   1      35.907  23.960  22.242  1.00  0.00    +0.000 H 
ATOM     14  C11 UNL A   1      35.360  23.502  23.039  1.00  0.00    +0.000 C 
BRANCH   14   13
ATOM    100  H11 UNL A   1      34.509  25.047  24.121  1.00  0.00    +0.000 H 
ATOM     13  N1  UNL A   1      34.279  24.381  23.433  1.00  0.00    +0.000 N 
BRANCH   13   11
ATOM     11  C10 UNL A   1      32.990  24.423  22.992  1.00  0.00    +0.000 C 
ATOM     12  O2  UNL A   1      32.759  25.090  21.977  1.00  0.00    +0.000 O 
BRANCH   11    9
ATOM      9  C8  UNL A   1      31.860  23.671  23.707  1.00  0.00    +0.000 C 
ATOM     96  H7  UNL A   1      31.954  23.791  24.767  1.00  0.00    +0.000 H 
BRANCH    9    8
ATOM    129  H40 UNL A   1      32.151  19.660  21.313  1.00  0.00    +0.000 H 
ATOM    130  H41 UNL A   1      32.745  17.526  22.388  1.00  0.00    +0.000 H 
ATOM      3  C2  UNL A   1      32.946  17.250  24.466  1.00  0.00    +0.000 C 
ATOM      4  C3  UNL A   1      32.952  17.875  25.711  1.00  0.00    +0.000 C 
ATOM      5  C4  UNL A   1      32.708  19.247  25.796  1.00  0.00    +0.000 C 
ATOM      6  C5  UNL A   1      32.459  20.006  24.641  1.00  0.00    +0.000 C 
ATOM      7  C6  UNL A   1      32.237  21.392  24.706  1.00  0.00    +0.000 C 
ATOM      8  C7  UNL A   1      31.994  22.161  23.552  1.00  0.00    +0.000 C 
ATOM     86  C62 UNL A   1      31.930  21.499  22.321  1.00  0.00    +0.000 C 
ATOM     87  C63 UNL A   1      32.174  20.124  22.235  1.00  0.00    +0.000 C 
ATOM     88  C64 UNL A   1      32.450  19.369  23.383  1.00  0.00    +0.000 C 
ATOM     89  C65 UNL A   1      32.717  17.992  23.308  1.00  0.00    +0.000 C 
ATOM     93  H4  UNL A   1      33.137  17.327  26.565  1.00  0.00    +0.000 H 
ATOM     94  H5  UNL A   1      32.709  19.709  26.719  1.00  0.00    +0.000 H 
ATOM     95  H6  UNL A   1      32.253  21.859  25.626  1.00  0.00    +0.000 H 
ATOM    128  H39 UNL A   1      31.700  22.031  21.467  1.00  0.00    +0.000 H 
BRANCH    3    2
ATOM      2  O1  UNL A   1      33.225  15.921  24.302  1.00  0.00    +0.000 O 
BRANCH    2    1
ATOM      1  C1  UNL A   1      32.726  15.125  25.375  1.00  0.00    +0.000 C 
ATOM     90  H1  UNL A   1      32.643  15.726  26.256  1.00  0.00    +0.000 H 
ATOM     91  H2  UNL A   1      33.398  14.314  25.559  1.00  0.00    +0.000 H 
ATOM     92  H3  UNL A   1      31.763  14.739  25.113  1.00  0.00    +0.000 H 
ENDBRANCH    2    1
ENDBRANCH    3    2
ENDBRANCH    9    8
BRANCH    9   10
ATOM     97  H8  UNL A   1      30.604  25.368  23.357  1.00  0.00    +0.000 H 
ATOM     10  C9  UNL A   1      30.496  24.306  23.422  1.00  0.00    +0.000 C 
ATOM     99  H10 UNL A   1      30.113  23.929  22.496  1.00  0.00    +0.000 H 
ATOM     98  H9  UNL A   1      29.818  24.064  24.214  1.00  0.00    +0.000 H 
ENDBRANCH    9   10
ENDBRANCH   11    9
ENDBRANCH   13   11
ENDBRANCH   14   13
ENDBRANCH   15   14
ENDBRANCH   16   15
ENDBRANCH   17   16
ENDBRANCH   18   17
ENDBRANCH   19   18
ENDBRANCH   20   19
ENDBRANCH   21   20
ENDBRANCH   23   21
ENDBRANCH   27   26
BRANCH   31   32
ATOM     33  C27 UNL A   1      48.353  27.235  26.447  1.00  0.00    +0.000 C 
ATOM     34  F1  UNL A   1      48.359  27.208  27.787  1.00  0.00    +0.000 F 
ATOM     35  C28 UNL A   1      49.468  26.762  25.761  1.00  0.00    +0.000 C 
ATOM     36  F2  UNL A   1      50.526  26.300  26.442  1.00  0.00    +0.000 F 
ATOM     37  C29 UNL A   1      49.489  26.772  24.374  1.00  0.00    +0.000 C 
ATOM     38  F3  UNL A   1      50.558  26.301  23.715  1.00  0.00    +0.000 F 
ATOM     39  C30 UNL A   1      48.405  27.273  23.670  1.00  0.00    +0.000 C 
ATOM     40  F4  UNL A   1      48.418  27.270  22.330  1.00  0.00    +0.000 F 
ATOM     41  C31 UNL A   1      47.299  27.772  24.354  1.00  0.00    +0.000 C 
ATOM     42  F5  UNL A   1      46.267  28.255  23.645  1.00  0.00    +0.000 F 
ATOM     32  C26 UNL A   1      47.249  27.756  25.756  1.00  0.00    +0.000 C 
ENDBRANCH   31   32
BRANCH   48   49
ATOM     49  C37 UNL A   1      44.916  33.682  29.114  1.00  0.00    +0.000 C 
ATOM     50  C38 UNL A   1      45.699  34.005  30.231  1.00  0.00    +0.000 C 
ATOM     51  F6  UNL A   1      46.008  33.062  31.134  1.00  0.00    +0.000 F 
ATOM     52  C39 UNL A   1      46.133  35.310  30.446  1.00  0.00    +0.000 C 
ATOM     53  F7  UNL A   1      46.838  35.607  31.546  1.00  0.00    +0.000 F 
ATOM     54  C40 UNL A   1      45.822  36.308  29.533  1.00  0.00    +0.000 C 
ATOM     55  F8  UNL A   1      46.244  37.562  29.740  1.00  0.00    +0.000 F 
ATOM     56  C41 UNL A   1      45.068  36.005  28.410  1.00  0.00    +0.000 C 
ATOM     57  F9  UNL A   1      44.777  36.964  27.520  1.00  0.00    +0.000 F 
ATOM     58  C42 UNL A   1      44.607  34.708  28.207  1.00  0.00    +0.000 C 
ATOM     59  F10 UNL A   1      43.866  34.448  27.120  1.00  0.00    +0.000 F 
ENDBRANCH   48   49
BRANCH   63   64
ATOM     65  C47 UNL A   1      37.952  30.973  30.201  1.00  0.00    +0.000 C 
ATOM     66  F11 UNL A   1      37.975  31.214  28.882  1.00  0.00    +0.000 F 
ATOM     67  C48 UNL A   1      36.856  31.403  30.945  1.00  0.00    +0.000 C 
ATOM     68  F12 UNL A   1      35.852  32.050  30.340  1.00  0.00    +0.000 F 
ATOM     69  C49 UNL A   1      36.818  31.185  32.314  1.00  0.00    +0.000 C 
ATOM     70  F13 UNL A   1      35.766  31.605  33.030  1.00  0.00    +0.000 F 
ATOM     71  C50 UNL A   1      37.876  30.544  32.940  1.00  0.00    +0.000 C 
ATOM     72  F14 UNL A   1      37.835  30.322  34.261  1.00  0.00    +0.000 F 
ATOM     73  C51 UNL A   1      38.986  30.141  32.201  1.00  0.00    +0.000 C 
ATOM     74  F15 UNL A   1      40.005  29.544  32.837  1.00  0.00    +0.000 F 
ATOM     64  C46 UNL A   1      39.047  30.349  30.816  1.00  0.00    +0.000 C 
ENDBRANCH   63   64
TORSDOF 19
ENDMDL
MODEL 8
REMARK VINA RESULT:     -10.3     20.064     24.879
ROOT
ATOM     27  C22 UNL A   1      53.622  19.560  11.772  1.00  0.00    +0.000 C 
ATOM     28  C23 UNL A   1      54.994  18.951  11.688  1.00  0.00    +0.000 C 
ATOM     29  N3  UNL A   1      55.958  18.956  12.576  1.00  0.00    +0.000 N 
ATOM     30  C24 UNL A   1      56.990  18.213  12.018  1.00  0.00    +0.000 C 
ATOM     31  C25 UNL A   1      58.223  17.968  12.523  1.00  0.00    +0.000 C 
ATOM     43  C32 UNL A   1      58.701  18.477  13.782  1.00  0.00    +0.000 C 
ATOM     44  C33 UNL A   1      59.957  18.340  14.347  1.00  0.00    +0.000 C 
ATOM     45  C34 UNL A   1      59.949  18.976  15.592  1.00  0.00    +0.000 C 
ATOM     46  C35 UNL A   1      58.702  19.549  15.782  1.00  0.00    +0.000 C 
ATOM     47  N4  UNL A   1      57.943  19.229  14.668  1.00  0.00    +0.000 N 
ATOM     48  C36 UNL A   1      58.236  20.332  16.896  1.00  0.00    +0.000 C 
ATOM     60  C43 UNL A   1      56.987  20.842  17.017  1.00  0.00    +0.000 C 
ATOM     61  N5  UNL A   1      55.920  20.757  16.133  1.00  0.00    +0.000 N 
ATOM     62  C44 UNL A   1      54.929  21.397  16.703  1.00  0.00    +0.000 C 
ATOM     63  C45 UNL A   1      53.542  21.664  16.180  1.00  0.00    +0.000 C 
ATOM     75  C52 UNL A   1      53.208  21.228  14.951  1.00  0.00    +0.000 C 
ATOM     76  C53 UNL A   1      51.913  21.424  14.305  1.00  0.00    +0.000 C 
ATOM     77  C54 UNL A   1      51.930  20.828  13.102  1.00  0.00    +0.000 C 
ATOM     78  C55 UNL A   1      53.248  20.234  12.878  1.00  0.00    +0.000 C 
ATOM     79  N6  UNL A   1      53.941  20.522  14.028  1.00  0.00    +0.000 N 
ATOM     80  C56 UNL A   1      55.246  21.929  18.036  1.00  0.00    +0.000 C 
ATOM     81  C57 UNL A   1      56.526  21.605  18.157  1.00  0.00    +0.000 C 
ATOM     82  C58 UNL A   1      56.524  17.737  10.734  1.00  0.00    +0.000 C 
ATOM     83  C59 UNL A   1      55.320  18.217  10.455  1.00  0.00    +0.000 C 
ATOM    116  H27 UNL A   1      60.762  17.852  13.922  1.00  0.00    +0.000 H 
ATOM    117  H28 UNL A   1      60.737  19.011  16.257  1.00  0.00    +0.000 H 
ATOM    118  H29 UNL A   1      57.007  19.494  14.526  1.00  0.00    +0.000 H 
ATOM    119  H30 UNL A   1      51.114  21.939  14.708  1.00  0.00    +0.000 H 
ATOM    120  H31 UNL A   1      51.138  20.795  12.440  1.00  0.00    +0.000 H 
ATOM    121  H32 UNL A   1      54.875  20.249  14.177  1.00  0.00    +0.000 H 
ATOM    122  H33 UNL A   1      54.635  22.425  18.703  1.00  0.00    +0.000 H 
ATOM    123  H34 UNL A   1      57.117  21.863  18.962  1.00  0.00    +0.000 H 
ATOM    124  H35 UNL A   1      57.058  17.106  10.116  1.00  0.00    +0.000 H 
ATOM    125  H36 UNL A   1      54.759  18.106   9.597  1.00  0.00    +0.000 H 
ENDROOT
BRANCH   27   26
ATOM    114  H25 UNL A   1      51.302  20.983   8.034  1.00  0.00    +0.000 H 
ATOM    115  H26 UNL A   1      52.968  21.268   9.775  1.00  0.00    +0.000 H 
ATOM     84  C60 UNL A   1      51.948  18.166  10.543  1.00  0.00    +0.000 C 
ATOM     85  C61 UNL A   1      51.047  17.974   9.497  1.00  0.00    +0.000 C 
ATOM     23  C18 UNL A   1      50.770  19.021   8.614  1.00  0.00    +0.000 C 
ATOM     24  C19 UNL A   1      51.480  20.221   8.709  1.00  0.00    +0.000 C 
ATOM     25  C20 UNL A   1      52.428  20.391   9.721  1.00  0.00    +0.000 C 
ATOM     26  C21 UNL A   1      52.651  19.374  10.663  1.00  0.00    +0.000 C 
ATOM    126  H37 UNL A   1      52.097  17.415  11.236  1.00  0.00    +0.000 H 
ATOM    127  H38 UNL A   1      50.586  17.059   9.374  1.00  0.00    +0.000 H 
BRANCH   23   21
ATOM     21  C17 UNL A   1      49.754  18.883   7.546  1.00  0.00    +0.000 C 
ATOM     22  O3  UNL A   1      49.476  17.768   7.112  1.00  0.00    +0.000 O 
BRANCH   21   20
ATOM    113  H24 UNL A   1      48.842  20.659   7.689  1.00  0.00    +0.000 H 
ATOM     20  N2  UNL A   1      49.140  19.994   7.026  1.00  0.00    +0.000 N 
BRANCH   20   19
ATOM     19  C16 UNL A   1      48.866  20.333   5.641  1.00  0.00    +0.000 C 
ATOM    111  H22 UNL A   1      49.677  20.920   5.263  1.00  0.00    +0.000 H 
ATOM    112  H23 UNL A   1      48.756  19.417   5.098  1.00  0.00    +0.000 H 
BRANCH   19   18
ATOM     18  C15 UNL A   1      47.573  21.126   5.476  1.00  0.00    +0.000 C 
ATOM    109  H20 UNL A   1      47.184  21.331   6.452  1.00  0.00    +0.000 H 
ATOM    110  H21 UNL A   1      47.834  22.005   4.925  1.00  0.00    +0.000 H 
BRANCH   18   17
ATOM     17  C14 UNL A   1      46.476  20.429   4.666  1.00  0.00    +0.000 C 
ATOM    107  H18 UNL A   1      45.593  20.396   5.269  1.00  0.00    +0.000 H 
ATOM    108  H19 UNL A   1      46.367  21.002   3.769  1.00  0.00    +0.000 H 
BRANCH   17   16
ATOM    105  H16 UNL A   1      47.077  19.034   3.184  1.00  0.00    +0.000 H 
ATOM    106  H17 UNL A   1      47.570  18.651   4.862  1.00  0.00    +0.000 H 
ATOM     16  C13 UNL A   1      46.794  19.000   4.215  1.00  0.00    +0.000 C 
BRANCH   16   15
ATOM    103  H14 UNL A   1      46.020  17.126   4.850  1.00  0.00    +0.000 H 
ATOM     15  C12 UNL A   1      45.645  17.997   4.356  1.00  0.00    +0.000 C 
ATOM    104  H15 UNL A   1      44.875  18.494   4.907  1.00  0.00    +0.000 H 
BRANCH   15   14
ATOM    102  H13 UNL A   1      44.201  16.901   3.255  1.00  0.00    +0.000 H 
ATOM    101  H12 UNL A   1      45.758  17.065   2.445  1.00  0.00    +0.000 H 
ATOM     14  C11 UNL A   1      45.016  17.559   3.036  1.00  0.00    +0.000 C 
BRANCH   14   13
ATOM    100  H11 UNL A   1      45.026  18.948   1.503  1.00  0.00    +0.000 H 
ATOM     13  N1  UNL A   1      44.498  18.688   2.292  1.00  0.00    +0.000 N 
BRANCH   13   11
ATOM     11  C10 UNL A   1      43.388  19.444   2.522  1.00  0.00    +0.000 C 
ATOM     12  O2  UNL A   1      43.559  20.640   2.784  1.00  0.00    +0.000 O 
BRANCH   11    9
ATOM      9  C8  UNL A   1      41.973  18.855   2.449  1.00  0.00    +0.000 C 
ATOM     96  H7  UNL A   1      42.001  17.894   1.979  1.00  0.00    +0.000 H 
BRANCH    9    8
ATOM    129  H40 UNL A   1      40.853  20.914  -1.601  1.00  0.00    +0.000 H 
ATOM    130  H41 UNL A   1      38.586  21.754  -2.068  1.00  0.00    +0.000 H 
ATOM      3  C2  UNL A   1      37.030  21.842  -0.653  1.00  0.00    +0.000 C 
ATOM      4  C3  UNL A   1      36.639  21.516   0.644  1.00  0.00    +0.000 C 
ATOM      5  C4  UNL A   1      37.548  20.898   1.505  1.00  0.00    +0.000 C 
ATOM      6  C5  UNL A   1      38.851  20.598   1.079  1.00  0.00    +0.000 C 
ATOM      7  C6  UNL A   1      39.770  19.952   1.923  1.00  0.00    +0.000 C 
ATOM      8  C7  UNL A   1      41.077  19.641   1.500  1.00  0.00    +0.000 C 
ATOM     86  C62 UNL A   1      41.465  20.037   0.216  1.00  0.00    +0.000 C 
ATOM     87  C63 UNL A   1      40.555  20.656  -0.647  1.00  0.00    +0.000 C 
ATOM     88  C64 UNL A   1      39.245  20.933  -0.234  1.00  0.00    +0.000 C 
ATOM     89  C65 UNL A   1      38.315  21.536  -1.096  1.00  0.00    +0.000 C 
ATOM     93  H4  UNL A   1      35.682  21.730   0.966  1.00  0.00    +0.000 H 
ATOM     94  H5  UNL A   1      37.258  20.659   2.467  1.00  0.00    +0.000 H 
ATOM     95  H6  UNL A   1      39.479  19.699   2.880  1.00  0.00    +0.000 H 
ATOM    128  H39 UNL A   1      42.434  19.869  -0.099  1.00  0.00    +0.000 H 
BRANCH    3    2
ATOM      2  O1  UNL A   1      36.179  22.404  -1.565  1.00  0.00    +0.000 O 
BRANCH    2    1
ATOM      1  C1  UNL A   1      35.929  23.782  -1.297  1.00  0.00    +0.000 C 
ATOM     90  H1  UNL A   1      36.833  24.253  -0.974  1.00  0.00    +0.000 H 
ATOM     91  H2  UNL A   1      35.188  23.867  -0.530  1.00  0.00    +0.000 H 
ATOM     92  H3  UNL A   1      35.576  24.259  -2.188  1.00  0.00    +0.000 H 
ENDBRANCH    2    1
ENDBRANCH    3    2
ENDBRANCH    9    8
BRANCH    9   10
ATOM     97  H8  UNL A   1      42.249  18.372   4.516  1.00  0.00    +0.000 H 
ATOM     10  C9  UNL A   1      41.432  18.525   3.844  1.00  0.00    +0.000 C 
ATOM     99  H10 UNL A   1      40.829  19.337   4.194  1.00  0.00    +0.000 H 
ATOM     98  H9  UNL A   1      40.838  17.636   3.794  1.00  0.00    +0.000 H 
ENDBRANCH    9   10
ENDBRANCH   11    9
ENDBRANCH   13   11
ENDBRANCH   14   13
ENDBRANCH   15   14
ENDBRANCH   16   15
ENDBRANCH   17   16
ENDBRANCH   18   17
ENDBRANCH   19   18
ENDBRANCH   20   19
ENDBRANCH   21   20
ENDBRANCH   23   21
ENDBRANCH   27   26
BRANCH   31   32
ATOM     33  C27 UNL A   1      60.052  17.678  10.793  1.00  0.00    +0.000 C 
ATOM     34  F1  UNL A   1      60.040  18.998  10.559  1.00  0.00    +0.000 F 
ATOM     35  C28 UNL A   1      60.948  16.880  10.087  1.00  0.00    +0.000 C 
ATOM     36  F2  UNL A   1      61.772  17.434   9.187  1.00  0.00    +0.000 F 
ATOM     37  C29 UNL A   1      60.989  15.511  10.312  1.00  0.00    +0.000 C 
ATOM     38  F3  UNL A   1      61.864  14.746   9.643  1.00  0.00    +0.000 F 
ATOM     39  C30 UNL A   1      60.119  14.935  11.226  1.00  0.00    +0.000 C 
ATOM     40  F4  UNL A   1      60.166  13.615  11.453  1.00  0.00    +0.000 F 
ATOM     41  C31 UNL A   1      59.202  15.727  11.913  1.00  0.00    +0.000 C 
ATOM     42  F5  UNL A   1      58.370  15.140  12.786  1.00  0.00    +0.000 F 
ATOM     32  C26 UNL A   1      59.156  17.115  11.714  1.00  0.00    +0.000 C 
ENDBRANCH   31   32
BRANCH   48   49
ATOM     49  C37 UNL A   1      59.212  20.634  17.995  1.00  0.00    +0.000 C 
ATOM     50  C38 UNL A   1      59.913  21.847  18.049  1.00  0.00    +0.000 C 
ATOM     51  F6  UNL A   1      59.755  22.761  17.080  1.00  0.00    +0.000 F 
ATOM     52  C39 UNL A   1      60.814  22.107  19.078  1.00  0.00    +0.000 C 
ATOM     53  F7  UNL A   1      61.512  23.251  19.081  1.00  0.00    +0.000 F 
ATOM     54  C40 UNL A   1      61.005  21.176  20.089  1.00  0.00    +0.000 C 
ATOM     55  F8  UNL A   1      61.869  21.431  21.080  1.00  0.00    +0.000 F 
ATOM     56  C41 UNL A   1      60.304  19.980  20.068  1.00  0.00    +0.000 C 
ATOM     57  F9  UNL A   1      60.478  19.086  21.050  1.00  0.00    +0.000 F 
ATOM     58  C42 UNL A   1      59.426  19.704  19.025  1.00  0.00    +0.000 C 
ATOM     59  F10 UNL A   1      58.774  18.532  19.023  1.00  0.00    +0.000 F 
ENDBRANCH   48   49
BRANCH   63   64
ATOM     65  C47 UNL A   1      52.387  23.804  16.814  1.00  0.00    +0.000 C 
ATOM     66  F11 UNL A   1      53.104  24.449  15.883  1.00  0.00    +0.000 F 
ATOM     67  C48 UNL A   1      51.520  24.535  17.622  1.00  0.00    +0.000 C 
ATOM     68  F12 UNL A   1      51.420  25.861  17.464  1.00  0.00    +0.000 F 
ATOM     69  C49 UNL A   1      50.783  23.895  18.607  1.00  0.00    +0.000 C 
ATOM     70  F13 UNL A   1      49.954  24.600  19.389  1.00  0.00    +0.000 F 
ATOM     71  C50 UNL A   1      50.916  22.526  18.789  1.00  0.00    +0.000 C 
ATOM     72  F14 UNL A   1      50.195  21.904  19.731  1.00  0.00    +0.000 F 
ATOM     73  C51 UNL A   1      51.806  21.800  18.000  1.00  0.00    +0.000 C 
ATOM     74  F15 UNL A   1      51.931  20.481  18.214  1.00  0.00    +0.000 F 
ATOM     64  C46 UNL A   1      52.561  22.424  16.998  1.00  0.00    +0.000 C 
ENDBRANCH   63   64
TORSDOF 19
ENDMDL
MODEL 9
REMARK VINA RESULT:     -10.3      3.786      6.948
ROOT
ATOM     27  C22 UNL A   1      40.628  27.934  28.501  1.00  0.00    +0.000 C 
ATOM     28  C23 UNL A   1      42.068  28.157  28.874  1.00  0.00    +0.000 C 
ATOM     29  N3  UNL A   1      42.624  29.198  29.444  1.00  0.00    +0.000 N 
ATOM     30  C24 UNL A   1      43.963  28.870  29.607  1.00  0.00    +0.000 C 
ATOM     31  C25 UNL A   1      44.966  29.633  30.104  1.00  0.00    +0.000 C 
ATOM     43  C32 UNL A   1      44.805  30.991  30.554  1.00  0.00    +0.000 C 
ATOM     44  C33 UNL A   1      45.774  31.869  31.010  1.00  0.00    +0.000 C 
ATOM     45  C34 UNL A   1      45.147  33.067  31.366  1.00  0.00    +0.000 C 
ATOM     46  C35 UNL A   1      43.795  32.951  31.089  1.00  0.00    +0.000 C 
ATOM     47  N4  UNL A   1      43.597  31.670  30.599  1.00  0.00    +0.000 N 
ATOM     48  C36 UNL A   1      42.759  33.936  31.256  1.00  0.00    +0.000 C 
ATOM     60  C43 UNL A   1      41.447  33.736  30.980  1.00  0.00    +0.000 C 
ATOM     61  N5  UNL A   1      40.824  32.604  30.473  1.00  0.00    +0.000 N 
ATOM     62  C44 UNL A   1      39.550  32.899  30.394  1.00  0.00    +0.000 C 
ATOM     63  C45 UNL A   1      38.410  32.065  29.873  1.00  0.00    +0.000 C 
ATOM     75  C52 UNL A   1      38.664  30.836  29.385  1.00  0.00    +0.000 C 
ATOM     76  C53 UNL A   1      37.670  29.921  28.831  1.00  0.00    +0.000 C 
ATOM     77  C54 UNL A   1      38.278  28.779  28.473  1.00  0.00    +0.000 C 
ATOM     78  C55 UNL A   1      39.712  28.893  28.743  1.00  0.00    +0.000 C 
ATOM     79  N6  UNL A   1      39.849  30.148  29.282  1.00  0.00    +0.000 N 
ATOM     80  C56 UNL A   1      39.216  34.245  30.881  1.00  0.00    +0.000 C 
ATOM     81  C57 UNL A   1      40.413  34.729  31.179  1.00  0.00    +0.000 C 
ATOM     82  C58 UNL A   1      44.132  27.519  29.115  1.00  0.00    +0.000 C 
ATOM     83  C59 UNL A   1      43.005  27.058  28.593  1.00  0.00    +0.000 C 
ATOM    116  H27 UNL A   1      46.785  31.673  31.076  1.00  0.00    +0.000 H 
ATOM    117  H28 UNL A   1      45.612  33.895  31.769  1.00  0.00    +0.000 H 
ATOM    118  H29 UNL A   1      42.729  31.297  30.323  1.00  0.00    +0.000 H 
ATOM    119  H30 UNL A   1      36.662  30.121  28.731  1.00  0.00    +0.000 H 
ATOM    120  H31 UNL A   1      37.808  27.952  28.071  1.00  0.00    +0.000 H 
ATOM    121  H32 UNL A   1      40.715  30.520  29.568  1.00  0.00    +0.000 H 
ATOM    122  H33 UNL A   1      38.292  34.697  30.967  1.00  0.00    +0.000 H 
ATOM    123  H34 UNL A   1      40.585  35.690  31.512  1.00  0.00    +0.000 H 
ATOM    124  H35 UNL A   1      45.015  26.986  29.164  1.00  0.00    +0.000 H 
ATOM    125  H36 UNL A   1      42.829  26.162  28.114  1.00  0.00    +0.000 H 
ENDROOT
BRANCH   27   26
ATOM    114  H25 UNL A   1      38.565  23.801  28.696  1.00  0.00    +0.000 H 
ATOM    115  H26 UNL A   1      39.166  25.957  29.635  1.00  0.00    +0.000 H 
ATOM     84  C60 UNL A   1      40.534  26.320  26.593  1.00  0.00    +0.000 C 
ATOM     85  C61 UNL A   1      40.121  25.114  26.029  1.00  0.00    +0.000 C 
ATOM     23  C18 UNL A   1      39.451  24.171  26.813  1.00  0.00    +0.000 C 
ATOM     24  C19 UNL A   1      39.093  24.483  28.128  1.00  0.00    +0.000 C 
ATOM     25  C20 UNL A   1      39.452  25.719  28.673  1.00  0.00    +0.000 C 
ATOM     26  C21 UNL A   1      40.198  26.637  27.918  1.00  0.00    +0.000 C 
ATOM    126  H37 UNL A   1      41.090  26.985  26.032  1.00  0.00    +0.000 H 
ATOM    127  H38 UNL A   1      40.310  24.917  25.034  1.00  0.00    +0.000 H 
BRANCH   23   21
ATOM     21  C17 UNL A   1      39.077  22.844  26.275  1.00  0.00    +0.000 C 
ATOM     22  O3  UNL A   1      39.902  21.934  26.275  1.00  0.00    +0.000 O 
BRANCH   21   20
ATOM    113  H24 UNL A   1      37.477  21.717  25.857  1.00  0.00    +0.000 H 
ATOM     20  N2  UNL A   1      37.824  22.634  25.757  1.00  0.00    +0.000 N 
BRANCH   20   19
ATOM     19  C16 UNL A   1      36.935  23.564  25.085  1.00  0.00    +0.000 C 
ATOM    111  H22 UNL A   1      37.253  24.563  25.303  1.00  0.00    +0.000 H 
ATOM    112  H23 UNL A   1      36.981  23.356  24.036  1.00  0.00    +0.000 H 
BRANCH   19   18
ATOM     18  C15 UNL A   1      35.482  23.408  25.524  1.00  0.00    +0.000 C 
ATOM    109  H20 UNL A   1      34.994  22.758  24.828  1.00  0.00    +0.000 H 
ATOM    110  H21 UNL A   1      35.515  23.022  26.521  1.00  0.00    +0.000 H 
BRANCH   18   17
ATOM     17  C14 UNL A   1      34.679  24.709  25.601  1.00  0.00    +0.000 C 
ATOM    107  H18 UNL A   1      33.803  24.520  26.185  1.00  0.00    +0.000 H 
ATOM    108  H19 UNL A   1      35.337  25.435  26.030  1.00  0.00    +0.000 H 
BRANCH   17   16
ATOM    105  H16 UNL A   1      35.040  25.182  23.564  1.00  0.00    +0.000 H 
ATOM    106  H17 UNL A   1      33.352  24.752  23.978  1.00  0.00    +0.000 H 
ATOM     16  C13 UNL A   1      34.232  25.292  24.256  1.00  0.00    +0.000 C 
BRANCH   16   15
ATOM    103  H14 UNL A   1      34.690  27.355  24.037  1.00  0.00    +0.000 H 
ATOM     15  C12 UNL A   1      33.829  26.769  24.282  1.00  0.00    +0.000 C 
ATOM    104  H15 UNL A   1      33.031  26.878  23.578  1.00  0.00    +0.000 H 
BRANCH   15   14
ATOM    102  H13 UNL A   1      33.925  28.044  25.974  1.00  0.00    +0.000 H 
ATOM    101  H12 UNL A   1      33.277  26.440  26.311  1.00  0.00    +0.000 H 
ATOM     14  C11 UNL A   1      33.289  27.258  25.623  1.00  0.00    +0.000 C 
BRANCH   14   13
ATOM    100  H11 UNL A   1      31.703  28.475  26.156  1.00  0.00    +0.000 H 
ATOM     13  N1  UNL A   1      31.946  27.786  25.496  1.00  0.00    +0.000 N 
BRANCH   13   11
ATOM     11  C10 UNL A   1      30.970  27.472  24.599  1.00  0.00    +0.000 C 
ATOM     12  O2  UNL A   1      30.953  28.101  23.535  1.00  0.00    +0.000 O 
BRANCH   11    9
ATOM      9  C8  UNL A   1      29.934  26.375  24.874  1.00  0.00    +0.000 C 
ATOM     96  H7  UNL A   1      29.493  26.523  25.839  1.00  0.00    +0.000 H 
BRANCH    9    8
ATOM    129  H40 UNL A   1      31.454  22.654  27.271  1.00  0.00    +0.000 H 
ATOM    130  H41 UNL A   1      32.200  20.587  26.159  1.00  0.00    +0.000 H 
ATOM      3  C2  UNL A   1      32.446  20.371  24.079  1.00  0.00    +0.000 C 
ATOM      4  C3  UNL A   1      32.280  20.977  22.836  1.00  0.00    +0.000 C 
ATOM      5  C4  UNL A   1      31.786  22.281  22.763  1.00  0.00    +0.000 C 
ATOM      6  C5  UNL A   1      31.451  22.989  23.928  1.00  0.00    +0.000 C 
ATOM      7  C6  UNL A   1      30.928  24.292  23.871  1.00  0.00    +0.000 C 
ATOM      8  C7  UNL A   1      30.583  25.006  25.035  1.00  0.00    +0.000 C 
ATOM     86  C62 UNL A   1      30.820  24.399  26.274  1.00  0.00    +0.000 C 
ATOM     87  C63 UNL A   1      31.314  23.093  26.348  1.00  0.00    +0.000 C 
ATOM     88  C64 UNL A   1      31.624  22.374  25.186  1.00  0.00    +0.000 C 
ATOM     89  C65 UNL A   1      32.103  21.055  25.245  1.00  0.00    +0.000 C 
ATOM     93  H4  UNL A   1      32.519  20.464  21.974  1.00  0.00    +0.000 H 
ATOM     94  H5  UNL A   1      31.666  22.730  21.841  1.00  0.00    +0.000 H 
ATOM     95  H6  UNL A   1      30.794  24.738  22.951  1.00  0.00    +0.000 H 
ATOM    128  H39 UNL A   1      30.626  24.922  27.143  1.00  0.00    +0.000 H 
BRANCH    3    2
ATOM      2  O1  UNL A   1      32.877  19.082  24.224  1.00  0.00    +0.000 O 
BRANCH    2    1
ATOM      1  C1  UNL A   1      32.521  18.262  23.113  1.00  0.00    +0.000 C 
ATOM     90  H1  UNL A   1      33.364  18.159  22.462  1.00  0.00    +0.000 H 
ATOM     91  H2  UNL A   1      31.712  18.716  22.580  1.00  0.00    +0.000 H 
ATOM     92  H3  UNL A   1      32.221  17.297  23.464  1.00  0.00    +0.000 H 
ENDBRANCH    2    1
ENDBRANCH    3    2
ENDBRANCH    9    8
BRANCH    9   10
ATOM     97  H8  UNL A   1      28.461  27.525  23.830  1.00  0.00    +0.000 H 
ATOM     10  C9  UNL A   1      28.728  26.495  23.937  1.00  0.00    +0.000 C 
ATOM     99  H10 UNL A   1      28.979  26.090  22.979  1.00  0.00    +0.000 H 
ATOM     98  H9  UNL A   1      27.902  25.953  24.349  1.00  0.00    +0.000 H 
ENDBRANCH    9   10
ENDBRANCH   11    9
ENDBRANCH   13   11
ENDBRANCH   14   13
ENDBRANCH   15   14
ENDBRANCH   16   15
ENDBRANCH   17   16
ENDBRANCH   18   17
ENDBRANCH   19   18
ENDBRANCH   20   19
ENDBRANCH   21   20
ENDBRANCH   23   21
ENDBRANCH   27   26
BRANCH   31   32
ATOM     33  C27 UNL A   1      46.772  28.342  31.327  1.00  0.00    +0.000 C 
ATOM     34  F1  UNL A   1      45.990  28.279  32.414  1.00  0.00    +0.000 F 
ATOM     35  C28 UNL A   1      48.026  27.739  31.366  1.00  0.00    +0.000 C 
ATOM     36  F2  UNL A   1      48.436  27.119  32.481  1.00  0.00    +0.000 F 
ATOM     37  C29 UNL A   1      48.855  27.783  30.254  1.00  0.00    +0.000 C 
ATOM     38  F3  UNL A   1      50.056  27.188  30.288  1.00  0.00    +0.000 F 
ATOM     39  C30 UNL A   1      48.441  28.446  29.109  1.00  0.00    +0.000 C 
ATOM     40  F4  UNL A   1      49.235  28.477  28.030  1.00  0.00    +0.000 F 
ATOM     41  C31 UNL A   1      47.198  29.074  29.076  1.00  0.00    +0.000 C 
ATOM     42  F5  UNL A   1      46.827  29.712  27.956  1.00  0.00    +0.000 F 
ATOM     32  C26 UNL A   1      46.337  29.027  30.183  1.00  0.00    +0.000 C 
ENDBRANCH   31   32
BRANCH   48   49
ATOM     49  C37 UNL A   1      43.159  35.297  31.746  1.00  0.00    +0.000 C 
ATOM     50  C38 UNL A   1      43.104  35.638  33.105  1.00  0.00    +0.000 C 
ATOM     51  F6  UNL A   1      42.646  34.754  34.004  1.00  0.00    +0.000 F 
ATOM     52  C39 UNL A   1      43.481  36.906  33.539  1.00  0.00    +0.000 C 
ATOM     53  F7  UNL A   1      43.372  37.228  34.835  1.00  0.00    +0.000 F 
ATOM     54  C40 UNL A   1      43.950  37.843  32.630  1.00  0.00    +0.000 C 
ATOM     55  F8  UNL A   1      44.316  39.061  33.050  1.00  0.00    +0.000 F 
ATOM     56  C41 UNL A   1      44.035  37.519  31.285  1.00  0.00    +0.000 C 
ATOM     57  F9  UNL A   1      44.500  38.417  30.407  1.00  0.00    +0.000 F 
ATOM     58  C42 UNL A   1      43.631  36.262  30.843  1.00  0.00    +0.000 C 
ATOM     59  F10 UNL A   1      43.709  35.982  29.534  1.00  0.00    +0.000 F 
ENDBRANCH   48   49
BRANCH   63   64
ATOM     65  C47 UNL A   1      36.539  33.336  28.777  1.00  0.00    +0.000 C 
ATOM     66  F11 UNL A   1      37.328  33.552  27.714  1.00  0.00    +0.000 F 
ATOM     67  C48 UNL A   1      35.266  33.899  28.795  1.00  0.00    +0.000 C 
ATOM     68  F12 UNL A   1      34.852  34.647  27.764  1.00  0.00    +0.000 F 
ATOM     69  C49 UNL A   1      34.437  33.707  29.891  1.00  0.00    +0.000 C 
ATOM     70  F13 UNL A   1      33.214  34.255  29.911  1.00  0.00    +0.000 F 
ATOM     71  C50 UNL A   1      34.883  32.959  30.970  1.00  0.00    +0.000 C 
ATOM     72  F14 UNL A   1      34.080  32.763  32.024  1.00  0.00    +0.000 F 
ATOM     73  C51 UNL A   1      36.169  32.422  30.965  1.00  0.00    +0.000 C 
ATOM     74  F15 UNL A   1      36.581  31.722  32.033  1.00  0.00    +0.000 F 
ATOM     64  C46 UNL A   1      37.024  32.601  29.869  1.00  0.00    +0.000 C 
ENDBRANCH   63   64
TORSDOF 19
ENDMDL
MODEL 10
REMARK VINA RESULT:     -10.3      5.265      9.090
ROOT
ATOM     27  C22 UNL A   1      40.514  27.874  29.069  1.00  0.00    +0.000 C 
ATOM     28  C23 UNL A   1      41.900  27.995  29.638  1.00  0.00    +0.000 C 
ATOM     29  N3  UNL A   1      42.419  28.960  30.356  1.00  0.00    +0.000 N 
ATOM     30  C24 UNL A   1      43.712  28.554  30.660  1.00  0.00    +0.000 C 
ATOM     31  C25 UNL A   1      44.671  29.226  31.340  1.00  0.00    +0.000 C 
ATOM     43  C32 UNL A   1      44.508  30.553  31.875  1.00  0.00    +0.000 C 
ATOM     44  C33 UNL A   1      45.445  31.343  32.519  1.00  0.00    +0.000 C 
ATOM     45  C34 UNL A   1      44.825  32.542  32.889  1.00  0.00    +0.000 C 
ATOM     46  C35 UNL A   1      43.517  32.515  32.434  1.00  0.00    +0.000 C 
ATOM     47  N4  UNL A   1      43.333  31.287  31.821  1.00  0.00    +0.000 N 
ATOM     48  C36 UNL A   1      42.509  33.536  32.549  1.00  0.00    +0.000 C 
ATOM     60  C43 UNL A   1      41.237  33.424  32.094  1.00  0.00    +0.000 C 
ATOM     61  N5  UNL A   1      40.640  32.366  31.422  1.00  0.00    +0.000 N 
ATOM     62  C44 UNL A   1      39.400  32.731  31.207  1.00  0.00    +0.000 C 
ATOM     63  C45 UNL A   1      38.305  31.996  30.479  1.00  0.00    +0.000 C 
ATOM     75  C52 UNL A   1      38.570  30.797  29.929  1.00  0.00    +0.000 C 
ATOM     76  C53 UNL A   1      37.621  29.978  29.182  1.00  0.00    +0.000 C 
ATOM     77  C54 UNL A   1      38.223  28.836  28.812  1.00  0.00    +0.000 C 
ATOM     78  C55 UNL A   1      39.613  28.857  29.270  1.00  0.00    +0.000 C 
ATOM     79  N6  UNL A   1      39.730  30.060  29.921  1.00  0.00    +0.000 N 
ATOM     80  C56 UNL A   1      39.060  34.051  31.755  1.00  0.00    +0.000 C 
ATOM     81  C57 UNL A   1      40.227  34.450  32.241  1.00  0.00    +0.000 C 
ATOM     82  C58 UNL A   1      43.888  27.238  30.085  1.00  0.00    +0.000 C 
ATOM     83  C59 UNL A   1      42.820  26.874  29.389  1.00  0.00    +0.000 C 
ATOM    116  H27 UNL A   1      46.430  31.093  32.697  1.00  0.00    +0.000 H 
ATOM    117  H28 UNL A   1      45.267  33.313  33.414  1.00  0.00    +0.000 H 
ATOM    118  H29 UNL A   1      42.494  30.980  31.409  1.00  0.00    +0.000 H 
ATOM    119  H30 UNL A   1      36.643  30.235  28.972  1.00  0.00    +0.000 H 
ATOM    120  H31 UNL A   1      37.776  28.067  28.288  1.00  0.00    +0.000 H 
ATOM    121  H32 UNL A   1      40.565  30.364  30.344  1.00  0.00    +0.000 H 
ATOM    122  H33 UNL A   1      38.152  34.541  31.760  1.00  0.00    +0.000 H 
ATOM    123  H34 UNL A   1      40.393  35.373  32.669  1.00  0.00    +0.000 H 
ATOM    124  H35 UNL A   1      44.735  26.658  30.202  1.00  0.00    +0.000 H 
ATOM    125  H36 UNL A   1      42.673  26.027  28.821  1.00  0.00    +0.000 H 
ENDROOT
BRANCH   27   26
ATOM    114  H25 UNL A   1      40.250  25.229  25.286  1.00  0.00    +0.000 H 
ATOM    115  H26 UNL A   1      41.009  27.191  26.496  1.00  0.00    +0.000 H 
ATOM     84  C60 UNL A   1      39.392  25.640  28.993  1.00  0.00    +0.000 C 
ATOM     85  C61 UNL A   1      39.023  24.478  28.317  1.00  0.00    +0.000 C 
ATOM     23  C18 UNL A   1      39.287  24.351  26.951  1.00  0.00    +0.000 C 
ATOM     24  C19 UNL A   1      40.022  25.339  26.287  1.00  0.00    +0.000 C 
ATOM     25  C20 UNL A   1      40.446  26.475  26.980  1.00  0.00    +0.000 C 
ATOM     26  C21 UNL A   1      40.111  26.648  28.333  1.00  0.00    +0.000 C 
ATOM    126  H37 UNL A   1      39.133  25.761  29.985  1.00  0.00    +0.000 H 
ATOM    127  H38 UNL A   1      38.556  23.711  28.825  1.00  0.00    +0.000 H 
BRANCH   23   21
ATOM     21  C17 UNL A   1      38.832  23.172  26.181  1.00  0.00    +0.000 C 
ATOM     22  O3  UNL A   1      37.840  23.262  25.462  1.00  0.00    +0.000 O 
BRANCH   21   20
ATOM    113  H24 UNL A   1      38.963  21.228  26.635  1.00  0.00    +0.000 H 
ATOM     20  N2  UNL A   1      39.498  21.978  26.285  1.00  0.00    +0.000 N 
BRANCH   20   19
ATOM     19  C16 UNL A   1      40.874  21.656  25.954  1.00  0.00    +0.000 C 
ATOM    111  H22 UNL A   1      40.879  20.939  25.160  1.00  0.00    +0.000 H 
ATOM    112  H23 UNL A   1      41.360  22.566  25.666  1.00  0.00    +0.000 H 
BRANCH   19   18
ATOM     18  C15 UNL A   1      41.643  21.077  27.138  1.00  0.00    +0.000 C 
ATOM    109  H20 UNL A   1      41.198  20.138  27.394  1.00  0.00    +0.000 H 
ATOM    110  H21 UNL A   1      42.661  20.996  26.818  1.00  0.00    +0.000 H 
BRANCH   18   17
ATOM     17  C14 UNL A   1      41.664  21.949  28.396  1.00  0.00    +0.000 C 
ATOM    107  H18 UNL A   1      40.655  22.227  28.620  1.00  0.00    +0.000 H 
ATOM    108  H19 UNL A   1      42.129  21.357  29.155  1.00  0.00    +0.000 H 
BRANCH   17   16
ATOM    105  H16 UNL A   1      42.834  23.330  27.287  1.00  0.00    +0.000 H 
ATOM    106  H17 UNL A   1      41.852  24.026  28.613  1.00  0.00    +0.000 H 
ATOM     16  C13 UNL A   1      42.495  23.233  28.297  1.00  0.00    +0.000 C 
BRANCH   16   15
ATOM    103  H14 UNL A   1      43.616  24.142  29.856  1.00  0.00    +0.000 H 
ATOM     15  C12 UNL A   1      43.721  23.293  29.214  1.00  0.00    +0.000 C 
ATOM    104  H15 UNL A   1      43.747  22.365  29.745  1.00  0.00    +0.000 H 
BRANCH   15   14
ATOM    102  H13 UNL A   1      45.769  22.793  28.991  1.00  0.00    +0.000 H 
ATOM    101  H12 UNL A   1      45.366  24.434  28.492  1.00  0.00    +0.000 H 
ATOM     14  C11 UNL A   1      45.056  23.410  28.486  1.00  0.00    +0.000 C 
BRANCH   14   13
ATOM    100  H11 UNL A   1      44.447  22.125  26.983  1.00  0.00    +0.000 H 
ATOM     13  N1  UNL A   1      44.957  22.957  27.114  1.00  0.00    +0.000 N 
BRANCH   13   11
ATOM     11  C10 UNL A   1      45.463  23.512  25.977  1.00  0.00    +0.000 C 
ATOM     12  O2  UNL A   1      46.556  23.093  25.578  1.00  0.00    +0.000 O 
BRANCH   11    9
ATOM      9  C8  UNL A   1      44.716  24.605  25.202  1.00  0.00    +0.000 C 
ATOM     96  H7  UNL A   1      45.192  24.776  24.259  1.00  0.00    +0.000 H 
BRANCH    9    8
ATOM    129  H40 UNL A   1      46.991  28.043  27.417  1.00  0.00    +0.000 H 
ATOM    130  H41 UNL A   1      45.996  30.267  27.769  1.00  0.00    +0.000 H 
ATOM      3  C2  UNL A   1      43.996  30.764  27.332  1.00  0.00    +0.000 C 
ATOM      4  C3  UNL A   1      42.800  30.320  26.775  1.00  0.00    +0.000 C 
ATOM      5  C4  UNL A   1      42.709  29.016  26.282  1.00  0.00    +0.000 C 
ATOM      6  C5  UNL A   1      43.811  28.148  26.339  1.00  0.00    +0.000 C 
ATOM      7  C6  UNL A   1      43.745  26.843  25.824  1.00  0.00    +0.000 C 
ATOM      8  C7  UNL A   1      44.848  25.969  25.870  1.00  0.00    +0.000 C 
ATOM     86  C62 UNL A   1      46.018  26.417  26.494  1.00  0.00    +0.000 C 
ATOM     87  C63 UNL A   1      46.109  27.722  26.988  1.00  0.00    +0.000 C 
ATOM     88  C64 UNL A   1      45.020  28.601  26.908  1.00  0.00    +0.000 C 
ATOM     89  C65 UNL A   1      45.105  29.919  27.382  1.00  0.00    +0.000 C 
ATOM     93  H4  UNL A   1      41.986  30.951  26.725  1.00  0.00    +0.000 H 
ATOM     94  H5  UNL A   1      41.821  28.687  25.871  1.00  0.00    +0.000 H 
ATOM     95  H6  UNL A   1      42.863  26.515  25.400  1.00  0.00    +0.000 H 
ATOM    128  H39 UNL A   1      46.822  25.777  26.589  1.00  0.00    +0.000 H 
BRANCH    3    2
ATOM      2  O1  UNL A   1      44.173  32.041  27.789  1.00  0.00    +0.000 O 
BRANCH    2    1
ATOM      1  C1  UNL A   1      45.482  32.538  27.520  1.00  0.00    +0.000 C 
ATOM     90  H1  UNL A   1      45.994  31.860  26.869  1.00  0.00    +0.000 H 
ATOM     91  H2  UNL A   1      46.024  32.629  28.438  1.00  0.00    +0.000 H 
ATOM     92  H3  UNL A   1      45.409  33.497  27.051  1.00  0.00    +0.000 H 
ENDBRANCH    2    1
ENDBRANCH    3    2
ENDBRANCH    9    8
BRANCH    9   10
ATOM     97  H8  UNL A   1      43.221  23.091  24.970  1.00  0.00    +0.000 H 
ATOM     10  C9  UNL A   1      43.317  24.140  24.786  1.00  0.00    +0.000 C 
ATOM     99  H10 UNL A   1      42.580  24.671  25.353  1.00  0.00    +0.000 H 
ATOM     98  H9  UNL A   1      43.173  24.335  23.744  1.00  0.00    +0.000 H 
ENDBRANCH    9   10
ENDBRANCH   11    9
ENDBRANCH   13   11
ENDBRANCH   14   13
ENDBRANCH   15   14
ENDBRANCH   16   15
ENDBRANCH   17   16
ENDBRANCH   18   17
ENDBRANCH   19   18
ENDBRANCH   20   19
ENDBRANCH   21   20
ENDBRANCH   23   21
ENDBRANCH   27   26
BRANCH   31   32
ATOM     33  C27 UNL A   1      47.101  28.839  30.731  1.00  0.00    +0.000 C 
ATOM     34  F1  UNL A   1      46.976  29.685  29.698  1.00  0.00    +0.000 F 
ATOM     35  C28 UNL A   1      48.336  28.241  30.963  1.00  0.00    +0.000 C 
ATOM     36  F2  UNL A   1      49.371  28.508  30.154  1.00  0.00    +0.000 F 
ATOM     37  C29 UNL A   1      48.498  27.367  32.028  1.00  0.00    +0.000 C 
ATOM     38  F3  UNL A   1      49.692  26.804  32.260  1.00  0.00    +0.000 F 
ATOM     39  C30 UNL A   1      47.420  27.072  32.850  1.00  0.00    +0.000 C 
ATOM     40  F4  UNL A   1      47.578  26.238  33.886  1.00  0.00    +0.000 F 
ATOM     41  C31 UNL A   1      46.176  27.647  32.603  1.00  0.00    +0.000 C 
ATOM     42  F5  UNL A   1      45.151  27.339  33.412  1.00  0.00    +0.000 F 
ATOM     32  C26 UNL A   1      45.995  28.548  31.542  1.00  0.00    +0.000 C 
ENDBRANCH   31   32
BRANCH   48   49
ATOM     49  C37 UNL A   1      42.897  34.834  33.194  1.00  0.00    +0.000 C 
ATOM     50  C38 UNL A   1      43.333  35.933  32.440  1.00  0.00    +0.000 C 
ATOM     51  F6  UNL A   1      43.453  35.832  31.108  1.00  0.00    +0.000 F 
ATOM     52  C39 UNL A   1      43.688  37.128  33.059  1.00  0.00    +0.000 C 
ATOM     53  F7  UNL A   1      44.151  38.149  32.324  1.00  0.00    +0.000 F 
ATOM     54  C40 UNL A   1      43.582  37.258  34.436  1.00  0.00    +0.000 C 
ATOM     55  F8  UNL A   1      43.921  38.411  35.029  1.00  0.00    +0.000 F 
ATOM     56  C41 UNL A   1      43.131  36.193  35.199  1.00  0.00    +0.000 C 
ATOM     57  F9  UNL A   1      43.015  36.320  36.527  1.00  0.00    +0.000 F 
ATOM     58  C42 UNL A   1      42.803  34.986  34.587  1.00  0.00    +0.000 C 
ATOM     59  F10 UNL A   1      42.385  33.967  35.351  1.00  0.00    +0.000 F 
ENDBRANCH   48   49
BRANCH   63   64
ATOM     65  C47 UNL A   1      36.622  33.379  29.225  1.00  0.00    +0.000 C 
ATOM     66  F11 UNL A   1      37.528  33.575  28.256  1.00  0.00    +0.000 F 
ATOM     67  C48 UNL A   1      35.382  34.003  29.123  1.00  0.00    +0.000 C 
ATOM     68  F12 UNL A   1      35.115  34.790  28.073  1.00  0.00    +0.000 F 
ATOM     69  C49 UNL A   1      34.434  33.833  30.122  1.00  0.00    +0.000 C 
ATOM     70  F13 UNL A   1      33.243  34.440  30.027  1.00  0.00    +0.000 F 
ATOM     71  C50 UNL A   1      34.728  33.045  31.224  1.00  0.00    +0.000 C 
ATOM     72  F14 UNL A   1      33.811  32.869  32.184  1.00  0.00    +0.000 F 
ATOM     73  C51 UNL A   1      35.980  32.444  31.340  1.00  0.00    +0.000 C 
ATOM     74  F15 UNL A   1      36.245  31.706  32.429  1.00  0.00    +0.000 F 
ATOM     64  C46 UNL A   1      36.953  32.601  30.344  1.00  0.00    +0.000 C 
ENDBRANCH   63   64
TORSDOF 19
ENDMDL
