MODEL 1
REMARK VINA RESULT:      -8.2      0.000      0.000
ROOT
ATOM    148  H44 UNL A   1       1.590  15.848  38.468  1.00  0.00    +0.000 H 
ATOM    149  H45 UNL A   1       4.190  15.393  38.773  1.00  0.00    +0.000 H 
ATOM    150  H46 UNL A   1       2.861  17.639  41.886  1.00  0.00    +0.000 H 
ATOM    151  H47 UNL A   1       5.136  11.283  46.134  1.00  0.00    +0.000 H 
ATOM    152  H48 UNL A   1       3.427  10.257  44.547  1.00  0.00    +0.000 H 
ATOM    153  H49 UNL A   1       3.502  14.341  43.782  1.00  0.00    +0.000 H 
ATOM    154  H50 UNL A   1       3.892  16.706  45.992  1.00  0.00    +0.000 H 
ATOM    155  H51 UNL A   1       3.586  17.596  43.592  1.00  0.00    +0.000 H 
ATOM    156  H52 UNL A   1      -1.753  15.041  42.527  1.00  0.00    +0.000 H 
ATOM    157  H53 UNL A   1      -0.939  13.035  43.917  1.00  0.00    +0.000 H 
ATOM     37  C32 UNL A   1       1.741  12.236  43.274  1.00  0.00    +0.000 C 
ATOM     38  C33 UNL A   1       0.983  13.418  42.770  1.00  0.00    +0.000 C 
ATOM     39  N3  UNL A   1       1.342  14.266  41.860  1.00  0.00    +0.000 N 
ATOM     40  C34 UNL A   1       0.307  15.195  41.778  1.00  0.00    +0.000 C 
ATOM     41  C35 UNL A   1       0.512  16.448  41.289  1.00  0.00    +0.000 C 
ATOM     53  C42 UNL A   1       1.722  16.525  40.519  1.00  0.00    +0.000 C 
ATOM     54  C43 UNL A   1       2.156  16.023  39.312  1.00  0.00    +0.000 C 
ATOM     55  C44 UNL A   1       3.555  15.798  39.478  1.00  0.00    +0.000 C 
ATOM     56  C45 UNL A   1       3.917  16.218  40.759  1.00  0.00    +0.000 C 
ATOM     57  N4  UNL A   1       2.838  16.938  41.196  1.00  0.00    +0.000 N 
ATOM     58  C46 UNL A   1       5.048  15.908  41.603  1.00  0.00    +0.000 C 
ATOM     70  C53 UNL A   1       5.114  16.141  42.946  1.00  0.00    +0.000 C 
ATOM     71  N5  UNL A   1       5.944  15.375  43.748  1.00  0.00    +0.000 N 
ATOM     72  C54 UNL A   1       5.353  15.361  44.911  1.00  0.00    +0.000 C 
ATOM     73  C55 UNL A   1       5.352  14.189  45.817  1.00  0.00    +0.000 C 
ATOM     85  C62 UNL A   1       4.621  13.224  45.205  1.00  0.00    +0.000 C 
ATOM     86  C63 UNL A   1       4.558  11.802  45.454  1.00  0.00    +0.000 C 
ATOM     87  C64 UNL A   1       3.619  11.266  44.649  1.00  0.00    +0.000 C 
ATOM     88  C65 UNL A   1       2.910  12.335  43.941  1.00  0.00    +0.000 C 
ATOM     89  N6  UNL A   1       3.643  13.470  44.218  1.00  0.00    +0.000 N 
ATOM     90  C66 UNL A   1       4.362  16.400  45.125  1.00  0.00    +0.000 C 
ATOM     91  C67 UNL A   1       4.234  16.843  43.873  1.00  0.00    +0.000 C 
ATOM     92  C68 UNL A   1      -0.795  14.656  42.529  1.00  0.00    +0.000 C 
ATOM     93  C69 UNL A   1      -0.406  13.592  43.231  1.00  0.00    +0.000 C 
ENDROOT
BRANCH   37   36
ATOM     33  C28 UNL A   1      -0.316   8.575  42.634  1.00  0.00    +0.000 C 
ATOM     34  C29 UNL A   1       0.019   9.408  41.566  1.00  0.00    +0.000 C 
ATOM     35  C30 UNL A   1       0.718  10.587  41.783  1.00  0.00    +0.000 C 
ATOM     36  C31 UNL A   1       1.054  10.964  43.084  1.00  0.00    +0.000 C 
ATOM    146  H42 UNL A   1      -0.256   9.145  40.605  1.00  0.00    +0.000 H 
ATOM    147  H43 UNL A   1       0.989  11.183  40.985  1.00  0.00    +0.000 H 
ATOM    158  H54 UNL A   1       0.808  10.527  45.133  1.00  0.00    +0.000 H 
ATOM    159  H55 UNL A   1      -0.327   8.431  44.743  1.00  0.00    +0.000 H 
ATOM     94  C70 UNL A   1       0.630  10.205  44.170  1.00  0.00    +0.000 C 
ATOM     95  C71 UNL A   1      -0.035   9.010  43.941  1.00  0.00    +0.000 C 
BRANCH   33   31
ATOM     31  C27 UNL A   1      -0.929   7.228  42.530  1.00  0.00    +0.000 C 
ATOM     32  O2  UNL A   1      -1.631   6.819  43.459  1.00  0.00    +0.000 O 
BRANCH   31   30
ATOM    145  H41 UNL A   1      -1.592   6.009  41.140  1.00  0.00    +0.000 H 
ATOM     30  N2  UNL A   1      -0.744   6.365  41.493  1.00  0.00    +0.000 N 
BRANCH   30   29
ATOM     29  C26 UNL A   1       0.411   5.854  40.791  1.00  0.00    +0.000 C 
ATOM    143  H39 UNL A   1       0.276   4.805  40.627  1.00  0.00    +0.000 H 
ATOM    144  H40 UNL A   1       0.493   6.393  39.870  1.00  0.00    +0.000 H 
BRANCH   29   28
ATOM     28  C25 UNL A   1       1.714   6.062  41.564  1.00  0.00    +0.000 C 
ATOM    141  H37 UNL A   1       2.350   6.703  40.989  1.00  0.00    +0.000 H 
ATOM    142  H38 UNL A   1       1.457   6.492  42.509  1.00  0.00    +0.000 H 
BRANCH   28   27
ATOM     27  C24 UNL A   1       2.467   4.754  41.848  1.00  0.00    +0.000 C 
ATOM    140  H36 UNL A   1       1.778   4.112  42.356  1.00  0.00    +0.000 H 
ATOM    139  H35 UNL A   1       3.333   4.988  42.431  1.00  0.00    +0.000 H 
BRANCH   27   26
ATOM    137  H33 UNL A   1       3.391   3.083  40.902  1.00  0.00    +0.000 H 
ATOM     26  C23 UNL A   1       2.925   3.994  40.594  1.00  0.00    +0.000 C 
ATOM    138  H34 UNL A   1       2.056   3.824  39.995  1.00  0.00    +0.000 H 
BRANCH   26   25
ATOM     25  C22 UNL A   1       3.911   4.774  39.740  1.00  0.00    +0.000 C 
ATOM    135  H31 UNL A   1       4.143   5.699  40.225  1.00  0.00    +0.000 H 
ATOM    136  H32 UNL A   1       4.799   4.190  39.615  1.00  0.00    +0.000 H 
BRANCH   25   24
ATOM    133  H29 UNL A   1       3.997   4.710  37.629  1.00  0.00    +0.000 H 
ATOM    134  H30 UNL A   1       2.380   4.561  38.311  1.00  0.00    +0.000 H 
ATOM     24  C21 UNL A   1       3.322   5.061  38.382  1.00  0.00    +0.000 C 
BRANCH   24   23
ATOM    132  H28 UNL A   1       3.742   7.086  38.630  1.00  0.00    +0.000 H 
ATOM     23  N1  UNL A   1       3.100   6.483  38.190  1.00  0.00    +0.000 N 
BRANCH   23   21
ATOM     21  C20 UNL A   1       2.097   7.089  37.465  1.00  0.00    +0.000 C 
ATOM     22  O1  UNL A   1       1.620   6.456  36.544  1.00  0.00    +0.000 O 
BRANCH   21   18
ATOM     18  C17 UNL A   1       1.856   8.585  37.706  1.00  0.00    +0.000 C 
BRANCH   18   17
ATOM     17  C16 UNL A   1       2.572   9.306  38.886  1.00  0.00    +0.000 C 
ATOM    124  H20 UNL A   1       1.818   9.760  39.493  1.00  0.00    +0.000 H 
ATOM    125  H21 UNL A   1       3.142   8.544  39.376  1.00  0.00    +0.000 H 
BRANCH   17   16
ATOM      4  C4  UNL A   1       6.354  13.140  36.164  1.00  0.00    +0.000 C 
ATOM      5  C5  UNL A   1       5.306  14.026  36.431  1.00  0.00    +0.000 C 
ATOM      6  C6  UNL A   1       4.204  13.649  37.206  1.00  0.00    +0.000 C 
ATOM      7  C7  UNL A   1       4.153  12.339  37.713  1.00  0.00    +0.000 C 
ATOM      8  C8  UNL A   1       5.216  11.437  37.536  1.00  0.00    +0.000 C 
ATOM      9  C9  UNL A   1       6.325  11.864  36.758  1.00  0.00    +0.000 C 
ATOM     10  C10 UNL A   1       4.876  10.197  38.196  1.00  0.00    +0.000 C 
ATOM    112  H8  UNL A   1       5.346  14.982  36.045  1.00  0.00    +0.000 H 
ATOM    113  H9  UNL A   1       3.444  14.320  37.403  1.00  0.00    +0.000 H 
ATOM    114  H10 UNL A   1       7.126  11.226  36.625  1.00  0.00    +0.000 H 
ATOM     16  C15 UNL A   1       3.539  10.342  38.532  1.00  0.00    +0.000 C 
ATOM     96  N7  UNL A   1       3.162  11.678  38.426  1.00  0.00    +0.000 N 
BRANCH    4    2
ATOM      2  C2  UNL A   1       7.484  13.583  35.247  1.00  0.00    +0.000 C 
ATOM    108  H4  UNL A   1       7.965  12.689  34.910  1.00  0.00    +0.000 H 
BRANCH    2    1
ATOM      1  C1  UNL A   1       6.937  14.340  34.039  1.00  0.00    +0.000 C 
ATOM    106  H2  UNL A   1       7.410  15.297  33.972  1.00  0.00    +0.000 H 
ATOM    107  H3  UNL A   1       5.881  14.472  34.148  1.00  0.00    +0.000 H 
ATOM    105  H1  UNL A   1       7.137  13.782  33.147  1.00  0.00    +0.000 H 
ENDBRANCH    2    1
BRANCH    2    3
ATOM      3  C3  UNL A   1       8.561  14.406  35.965  1.00  0.00    +0.000 C 
ATOM    109  H5  UNL A   1       8.113  14.958  36.765  1.00  0.00    +0.000 H 
ATOM    110  H6  UNL A   1       9.012  15.083  35.272  1.00  0.00    +0.000 H 
ATOM    111  H7  UNL A   1       9.307  13.748  36.359  1.00  0.00    +0.000 H 
ENDBRANCH    2    3
ENDBRANCH    4    2
BRANCH   10   11
ATOM     11  S1  UNL A   1       5.994   8.800  38.187  1.00  0.00    +0.000 S 
ATOM     12  C11 UNL A   1       6.645   8.104  36.565  1.00  0.00    +0.000 C 
ATOM     13  C12 UNL A   1       5.500   7.474  35.765  1.00  0.00    +0.000 C 
ATOM     14  C13 UNL A   1       7.550   8.877  35.573  1.00  0.00    +0.000 C 
ATOM     15  C14 UNL A   1       7.624   6.996  37.046  1.00  0.00    +0.000 C 
ATOM    115  H11 UNL A   1       4.830   8.242  35.437  1.00  0.00    +0.000 H 
ATOM    116  H12 UNL A   1       4.971   6.780  36.384  1.00  0.00    +0.000 H 
ATOM    117  H13 UNL A   1       5.898   6.960  34.915  1.00  0.00    +0.000 H 
ATOM    118  H14 UNL A   1       7.001   9.691  35.149  1.00  0.00    +0.000 H 
ATOM    119  H15 UNL A   1       7.869   8.217  34.793  1.00  0.00    +0.000 H 
ATOM    120  H16 UNL A   1       8.406   9.255  36.092  1.00  0.00    +0.000 H 
ATOM    121  H17 UNL A   1       7.128   6.365  37.754  1.00  0.00    +0.000 H 
ATOM    122  H18 UNL A   1       8.477   7.448  37.506  1.00  0.00    +0.000 H 
ATOM    123  H19 UNL A   1       7.940   6.410  36.207  1.00  0.00    +0.000 H 
ENDBRANCH   10   11
BRANCH   96   97
ATOM     97  C72 UNL A   1       2.024  12.355  39.116  1.00  0.00    +0.000 C 
ATOM    161  H57 UNL A   1       1.785  11.698  39.926  1.00  0.00    +0.000 H 
ATOM    160  H56 UNL A   1       2.357  13.337  39.381  1.00  0.00    +0.000 H 
BRANCH   97   98
ATOM     98  C73 UNL A   1       0.702  12.517  38.374  1.00  0.00    +0.000 C 
ATOM     99  C74 UNL A   1      -0.495  12.815  39.058  1.00  0.00    +0.000 C 
ATOM    100  C75 UNL A   1      -1.742  12.720  38.427  1.00  0.00    +0.000 C 
ATOM    162  H58 UNL A   1      -0.451  13.109  40.046  1.00  0.00    +0.000 H 
ATOM    165  H61 UNL A   1       1.486  12.255  36.428  1.00  0.00    +0.000 H 
ATOM    103  C77 UNL A   1      -0.626  12.329  36.330  1.00  0.00    +0.000 C 
ATOM    104  C78 UNL A   1       0.620  12.356  36.980  1.00  0.00    +0.000 C 
ATOM    163  H59 UNL A   1      -2.610  12.852  38.969  1.00  0.00    +0.000 H 
ATOM    164  H60 UNL A   1      -0.669  12.221  35.304  1.00  0.00    +0.000 H 
ATOM    101  C76 UNL A   1      -1.802  12.446  37.067  1.00  0.00    +0.000 C 
ATOM    102 Cl1  UNL A   1      -3.331  12.216  36.311  1.00  0.00    +0.000 Cl
ENDBRANCH   97   98
ENDBRANCH   96   97
ENDBRANCH   17   16
ENDBRANCH   18   17
BRANCH   18   19
ATOM     19  C18 UNL A   1       0.328   8.463  37.975  1.00  0.00    +0.000 C 
ATOM    126  H22 UNL A   1       0.023   9.232  38.654  1.00  0.00    +0.000 H 
ATOM    127  H23 UNL A   1       0.116   7.505  38.404  1.00  0.00    +0.000 H 
ATOM    128  H24 UNL A   1      -0.206   8.568  37.055  1.00  0.00    +0.000 H 
ENDBRANCH   18   19
BRANCH   18   20
ATOM    129  H25 UNL A   1       2.451   8.728  35.627  1.00  0.00    +0.000 H 
ATOM    130  H26 UNL A   1       3.437   9.682  36.709  1.00  0.00    +0.000 H 
ATOM    131  H27 UNL A   1       1.830  10.222  36.286  1.00  0.00    +0.000 H 
ATOM     20  C19 UNL A   1       2.439   9.366  36.486  1.00  0.00    +0.000 C 
ENDBRANCH   18   20
ENDBRANCH   21   18
ENDBRANCH   23   21
ENDBRANCH   24   23
ENDBRANCH   25   24
ENDBRANCH   26   25
ENDBRANCH   27   26
ENDBRANCH   28   27
ENDBRANCH   29   28
ENDBRANCH   30   29
ENDBRANCH   31   30
ENDBRANCH   33   31
ENDBRANCH   37   36
BRANCH   41   42
ATOM     42  C36 UNL A   1      -0.153  17.681  41.852  1.00  0.00    +0.000 C 
ATOM     43  C37 UNL A   1       0.176  18.127  43.146  1.00  0.00    +0.000 C 
ATOM     44  F1  UNL A   1       1.231  17.612  43.798  1.00  0.00    +0.000 F 
ATOM     45  C38 UNL A   1      -0.620  19.050  43.832  1.00  0.00    +0.000 C 
ATOM     46  F2  UNL A   1      -0.329  19.369  45.101  1.00  0.00    +0.000 F 
ATOM     47  C39 UNL A   1      -1.743  19.593  43.233  1.00  0.00    +0.000 C 
ATOM     48  F3  UNL A   1      -2.532  20.440  43.905  1.00  0.00    +0.000 F 
ATOM     49  C40 UNL A   1      -2.076  19.210  41.952  1.00  0.00    +0.000 C 
ATOM     50  F4  UNL A   1      -3.178  19.698  41.366  1.00  0.00    +0.000 F 
ATOM     51  C41 UNL A   1      -1.314  18.252  41.286  1.00  0.00    +0.000 C 
ATOM     52  F5  UNL A   1      -1.818  17.823  40.122  1.00  0.00    +0.000 F 
ENDBRANCH   41   42
BRANCH   58   59
ATOM     65  F8  UNL A   1       9.112  13.010  38.944  1.00  0.00    +0.000 F 
ATOM     66  C51 UNL A   1       8.185  15.059  39.662  1.00  0.00    +0.000 C 
ATOM     67  F9  UNL A   1       9.143  15.736  39.015  1.00  0.00    +0.000 F 
ATOM     68  C52 UNL A   1       7.197  15.753  40.354  1.00  0.00    +0.000 C 
ATOM     69  F10 UNL A   1       7.238  17.094  40.361  1.00  0.00    +0.000 F 
ATOM     59  C47 UNL A   1       6.144  15.080  40.991  1.00  0.00    +0.000 C 
ATOM     60  C48 UNL A   1       6.126  13.677  40.909  1.00  0.00    +0.000 C 
ATOM     61  F6  UNL A   1       5.106  12.971  41.416  1.00  0.00    +0.000 F 
ATOM     62  C49 UNL A   1       7.141  12.982  40.249  1.00  0.00    +0.000 C 
ATOM     63  F7  UNL A   1       7.112  11.643  40.192  1.00  0.00    +0.000 F 
ATOM     64  C50 UNL A   1       8.163  13.675  39.618  1.00  0.00    +0.000 C 
ENDBRANCH   58   59
BRANCH   73   74
ATOM     74  C56 UNL A   1       5.727  14.300  47.246  1.00  0.00    +0.000 C 
ATOM     75  C57 UNL A   1       6.940  14.903  47.625  1.00  0.00    +0.000 C 
ATOM     76  F11 UNL A   1       7.883  15.155  46.705  1.00  0.00    +0.000 F 
ATOM     77  C58 UNL A   1       7.168  15.332  48.936  1.00  0.00    +0.000 C 
ATOM     78  F12 UNL A   1       8.305  15.973  49.243  1.00  0.00    +0.000 F 
ATOM     79  C59 UNL A   1       6.196  15.161  49.908  1.00  0.00    +0.000 C 
ATOM     80  F13 UNL A   1       6.383  15.636  51.146  1.00  0.00    +0.000 F 
ATOM     81  C60 UNL A   1       5.009  14.533  49.578  1.00  0.00    +0.000 C 
ATOM     82  F14 UNL A   1       4.047  14.393  50.500  1.00  0.00    +0.000 F 
ATOM     83  C61 UNL A   1       4.778  14.109  48.268  1.00  0.00    +0.000 C 
ATOM     84  F15 UNL A   1       3.567  13.601  47.996  1.00  0.00    +0.000 F 
ENDBRANCH   73   74
TORSDOF 25
ENDMDL
MODEL 2
REMARK VINA RESULT:      -8.1     17.649     24.843
ROOT
ATOM    148  H44 UNL A   1      12.440  -3.088  25.640  1.00  0.00    +0.000 H 
ATOM    149  H45 UNL A   1       9.888  -3.032  26.377  1.00  0.00    +0.000 H 
ATOM    150  H46 UNL A   1      11.654   0.469  27.439  1.00  0.00    +0.000 H 
ATOM    151  H47 UNL A   1       6.305   3.539  22.381  1.00  0.00    +0.000 H 
ATOM    152  H48 UNL A   1       7.581   1.934  20.869  1.00  0.00    +0.000 H 
ATOM    153  H49 UNL A   1       9.399   1.794  24.604  1.00  0.00    +0.000 H 
ATOM    154  H50 UNL A   1       9.803   4.307  26.642  1.00  0.00    +0.000 H 
ATOM    155  H51 UNL A   1      10.771   2.096  27.547  1.00  0.00    +0.000 H 
ATOM    156  H52 UNL A   1      14.543   1.016  22.988  1.00  0.00    +0.000 H 
ATOM    157  H53 UNL A   1      12.763   2.028  21.430  1.00  0.00    +0.000 H 
ATOM     37  C32 UNL A   1      10.110   1.092  21.998  1.00  0.00    +0.000 C 
ATOM     38  C33 UNL A   1      11.366   0.826  22.757  1.00  0.00    +0.000 C 
ATOM     39  N3  UNL A   1      11.534   0.033  23.767  1.00  0.00    +0.000 N 
ATOM     40  C34 UNL A   1      12.873   0.163  24.132  1.00  0.00    +0.000 C 
ATOM     41  C35 UNL A   1      13.301  -0.142  25.387  1.00  0.00    +0.000 C 
ATOM     53  C42 UNL A   1      12.356  -0.971  26.082  1.00  0.00    +0.000 C 
ATOM     54  C43 UNL A   1      11.905  -2.268  25.960  1.00  0.00    +0.000 C 
ATOM     55  C44 UNL A   1      10.540  -2.232  26.374  1.00  0.00    +0.000 C 
ATOM     56  C45 UNL A   1      10.238  -0.929  26.774  1.00  0.00    +0.000 C 
ATOM     57  N4  UNL A   1      11.457  -0.317  26.880  1.00  0.00    +0.000 N 
ATOM     58  C46 UNL A   1       8.986  -0.220  26.920  1.00  0.00    +0.000 C 
ATOM     70  C53 UNL A   1       8.857   1.136  27.014  1.00  0.00    +0.000 C 
ATOM     71  N5  UNL A   1       7.681   1.754  26.624  1.00  0.00    +0.000 N 
ATOM     72  C54 UNL A   1       8.052   2.938  26.223  1.00  0.00    +0.000 C 
ATOM     73  C55 UNL A   1       7.425   3.654  25.087  1.00  0.00    +0.000 C 
ATOM     85  C62 UNL A   1       7.732   2.953  23.968  1.00  0.00    +0.000 C 
ATOM     86  C63 UNL A   1       7.134   2.986  22.652  1.00  0.00    +0.000 C 
ATOM     87  C64 UNL A   1       7.839   2.175  21.839  1.00  0.00    +0.000 C 
ATOM     88  C65 UNL A   1       9.028   1.687  22.542  1.00  0.00    +0.000 C 
ATOM     89  N6  UNL A   1       8.836   2.083  23.849  1.00  0.00    +0.000 N 
ATOM     90  C66 UNL A   1       9.362   3.374  26.674  1.00  0.00    +0.000 C 
ATOM     91  C67 UNL A   1       9.830   2.215  27.141  1.00  0.00    +0.000 C 
ATOM     92  C68 UNL A   1      13.522   0.896  23.079  1.00  0.00    +0.000 C 
ATOM     93  C69 UNL A   1      12.620   1.400  22.236  1.00  0.00    +0.000 C 
ENDROOT
BRANCH   37   36
ATOM     33  C28 UNL A   1      10.431   0.054  17.892  1.00  0.00    +0.000 C 
ATOM     34  C29 UNL A   1      10.774  -0.856  18.892  1.00  0.00    +0.000 C 
ATOM     35  C30 UNL A   1      10.637  -0.517  20.231  1.00  0.00    +0.000 C 
ATOM     36  C31 UNL A   1      10.190   0.758  20.580  1.00  0.00    +0.000 C 
ATOM    146  H42 UNL A   1      11.134  -1.789  18.635  1.00  0.00    +0.000 H 
ATOM    147  H43 UNL A   1      10.864  -1.205  20.965  1.00  0.00    +0.000 H 
ATOM    158  H54 UNL A   1       9.700   2.680  19.863  1.00  0.00    +0.000 H 
ATOM    159  H55 UNL A   1       9.853   2.056  17.534  1.00  0.00    +0.000 H 
ATOM     94  C70 UNL A   1       9.952   1.715  19.600  1.00  0.00    +0.000 C 
ATOM     95  C71 UNL A   1      10.055   1.356  18.265  1.00  0.00    +0.000 C 
BRANCH   33   31
ATOM     31  C27 UNL A   1      10.393  -0.226  16.435  1.00  0.00    +0.000 C 
ATOM     32  O2  UNL A   1      11.456  -0.296  15.813  1.00  0.00    +0.000 O 
BRANCH   31   30
ATOM    145  H41 UNL A   1       9.397  -0.190  14.742  1.00  0.00    +0.000 H 
ATOM     30  N2  UNL A   1       9.256  -0.373  15.699  1.00  0.00    +0.000 N 
BRANCH   30   29
ATOM     29  C26 UNL A   1       7.891  -0.736  16.002  1.00  0.00    +0.000 C 
ATOM    143  H39 UNL A   1       7.542  -0.121  16.805  1.00  0.00    +0.000 H 
ATOM    144  H40 UNL A   1       7.314  -0.593  15.112  1.00  0.00    +0.000 H 
BRANCH   29   28
ATOM     28  C25 UNL A   1       7.744  -2.202  16.412  1.00  0.00    +0.000 C 
ATOM    141  H37 UNL A   1       6.910  -2.619  15.888  1.00  0.00    +0.000 H 
ATOM    142  H38 UNL A   1       8.662  -2.694  16.166  1.00  0.00    +0.000 H 
BRANCH   28   27
ATOM     27  C24 UNL A   1       7.517  -2.391  17.919  1.00  0.00    +0.000 C 
ATOM    140  H36 UNL A   1       8.471  -2.631  18.341  1.00  0.00    +0.000 H 
ATOM    139  H35 UNL A   1       6.790  -3.164  18.052  1.00  0.00    +0.000 H 
BRANCH   27   26
ATOM    137  H33 UNL A   1       7.599  -0.299  18.322  1.00  0.00    +0.000 H 
ATOM     26  C23 UNL A   1       7.021  -1.136  18.653  1.00  0.00    +0.000 C 
ATOM    138  H34 UNL A   1       5.981  -1.028  18.424  1.00  0.00    +0.000 H 
BRANCH   26   25
ATOM     25  C22 UNL A   1       7.137  -1.233  20.165  1.00  0.00    +0.000 C 
ATOM    135  H31 UNL A   1       8.081  -0.832  20.472  1.00  0.00    +0.000 H 
ATOM    136  H32 UNL A   1       6.338  -0.678  20.611  1.00  0.00    +0.000 H 
BRANCH   25   24
ATOM    133  H29 UNL A   1       6.376  -2.730  21.449  1.00  0.00    +0.000 H 
ATOM    134  H30 UNL A   1       6.674  -3.252  19.794  1.00  0.00    +0.000 H 
ATOM     24  C21 UNL A   1       7.040  -2.669  20.611  1.00  0.00    +0.000 C 
BRANCH   24   23
ATOM    132  H28 UNL A   1       9.012  -3.257  20.286  1.00  0.00    +0.000 H 
ATOM     23  N1  UNL A   1       8.338  -3.192  21.001  1.00  0.00    +0.000 N 
BRANCH   23   21
ATOM     21  C20 UNL A   1       8.738  -3.607  22.252  1.00  0.00    +0.000 C 
ATOM     22  O1  UNL A   1       9.344  -2.805  22.935  1.00  0.00    +0.000 O 
BRANCH   21   18
ATOM     18  C17 UNL A   1       8.621  -5.104  22.570  1.00  0.00    +0.000 C 
BRANCH   18   17
ATOM     17  C16 UNL A   1       7.364  -5.643  23.314  1.00  0.00    +0.000 C 
ATOM    124  H20 UNL A   1       7.281  -5.110  24.238  1.00  0.00    +0.000 H 
ATOM    125  H21 UNL A   1       6.551  -5.492  22.635  1.00  0.00    +0.000 H 
BRANCH   17   16
ATOM      4  C4  UNL A   1       8.285 -11.596  23.676  1.00  0.00    +0.000 C 
ATOM      5  C5  UNL A   1       8.896 -11.211  24.873  1.00  0.00    +0.000 C 
ATOM      6  C6  UNL A   1       8.826  -9.896  25.345  1.00  0.00    +0.000 C 
ATOM      7  C7  UNL A   1       8.133  -8.941  24.581  1.00  0.00    +0.000 C 
ATOM      8  C8  UNL A   1       7.439  -9.295  23.411  1.00  0.00    +0.000 C 
ATOM      9  C9  UNL A   1       7.520 -10.645  22.975  1.00  0.00    +0.000 C 
ATOM     10  C10 UNL A   1       6.809  -8.109  22.878  1.00  0.00    +0.000 C 
ATOM    112  H8  UNL A   1       9.413 -11.916  25.422  1.00  0.00    +0.000 H 
ATOM    113  H9  UNL A   1       9.274  -9.632  26.237  1.00  0.00    +0.000 H 
ATOM    114  H10 UNL A   1       7.007 -10.934  22.126  1.00  0.00    +0.000 H 
ATOM     16  C15 UNL A   1       7.346  -7.071  23.623  1.00  0.00    +0.000 C 
ATOM     96  N7  UNL A   1       7.978  -7.574  24.758  1.00  0.00    +0.000 N 
BRANCH    4    2
ATOM      2  C2  UNL A   1       8.467 -13.021  23.176  1.00  0.00    +0.000 C 
ATOM    108  H4  UNL A   1       7.542 -13.524  23.364  1.00  0.00    +0.000 H 
BRANCH    2    1
ATOM      1  C1  UNL A   1       8.746 -13.038  21.674  1.00  0.00    +0.000 C 
ATOM    106  H2  UNL A   1       7.827 -13.159  21.141  1.00  0.00    +0.000 H 
ATOM    107  H3  UNL A   1       9.403 -13.850  21.443  1.00  0.00    +0.000 H 
ATOM    105  H1  UNL A   1       9.205 -12.114  21.386  1.00  0.00    +0.000 H 
ENDBRANCH    2    1
BRANCH    2    3
ATOM      3  C3  UNL A   1       9.544 -13.800  23.940  1.00  0.00    +0.000 C 
ATOM    109  H5  UNL A   1       9.402 -14.850  23.783  1.00  0.00    +0.000 H 
ATOM    110  H6  UNL A   1       9.468 -13.581  24.984  1.00  0.00    +0.000 H 
ATOM    111  H7  UNL A   1      10.511 -13.513  23.584  1.00  0.00    +0.000 H 
ENDBRANCH    2    3
ENDBRANCH    4    2
BRANCH   10   11
ATOM     11  S1  UNL A   1       5.828  -8.166  21.382  1.00  0.00    +0.000 S 
ATOM     12  C11 UNL A   1       4.464  -6.905  21.083  1.00  0.00    +0.000 C 
ATOM     13  C12 UNL A   1       3.332  -7.104  22.096  1.00  0.00    +0.000 C 
ATOM     14  C13 UNL A   1       4.692  -5.382  20.915  1.00  0.00    +0.000 C 
ATOM     15  C14 UNL A   1       3.969  -7.283  19.658  1.00  0.00    +0.000 C 
ATOM    115  H11 UNL A   1       3.679  -6.843  23.074  1.00  0.00    +0.000 H 
ATOM    116  H12 UNL A   1       3.022  -8.128  22.089  1.00  0.00    +0.000 H 
ATOM    117  H13 UNL A   1       2.504  -6.480  21.833  1.00  0.00    +0.000 H 
ATOM    118  H14 UNL A   1       5.043  -4.970  21.838  1.00  0.00    +0.000 H 
ATOM    119  H15 UNL A   1       3.770  -4.912  20.642  1.00  0.00    +0.000 H 
ATOM    120  H16 UNL A   1       5.419  -5.213  20.148  1.00  0.00    +0.000 H 
ATOM    121  H17 UNL A   1       3.764  -8.332  19.618  1.00  0.00    +0.000 H 
ATOM    122  H18 UNL A   1       4.724  -7.038  18.940  1.00  0.00    +0.000 H 
ATOM    123  H19 UNL A   1       3.075  -6.737  19.435  1.00  0.00    +0.000 H 
ENDBRANCH   10   11
BRANCH   96   97
ATOM     97  C72 UNL A   1       8.257  -6.851  26.034  1.00  0.00    +0.000 C 
ATOM    161  H57 UNL A   1       9.180  -7.271  26.373  1.00  0.00    +0.000 H 
ATOM    160  H56 UNL A   1       8.264  -5.805  25.808  1.00  0.00    +0.000 H 
BRANCH   97   98
ATOM     98  C73 UNL A   1       7.311  -7.045  27.214  1.00  0.00    +0.000 C 
ATOM     99  C74 UNL A   1       6.161  -6.245  27.376  1.00  0.00    +0.000 C 
ATOM    100  C75 UNL A   1       5.431  -6.246  28.572  1.00  0.00    +0.000 C 
ATOM    162  H58 UNL A   1       5.850  -5.645  26.597  1.00  0.00    +0.000 H 
ATOM    165  H61 UNL A   1       8.320  -8.700  28.059  1.00  0.00    +0.000 H 
ATOM    103  C77 UNL A   1       6.785  -8.069  29.371  1.00  0.00    +0.000 C 
ATOM    104  C78 UNL A   1       7.559  -8.017  28.199  1.00  0.00    +0.000 C 
ATOM    163  H59 UNL A   1       4.648  -5.587  28.703  1.00  0.00    +0.000 H 
ATOM    164  H60 UNL A   1       6.973  -8.796  30.080  1.00  0.00    +0.000 H 
ATOM    101  C76 UNL A   1       5.768  -7.141  29.578  1.00  0.00    +0.000 C 
ATOM    102 Cl1  UNL A   1       4.947  -7.070  31.090  1.00  0.00    +0.000 Cl
ENDBRANCH   97   98
ENDBRANCH   96   97
ENDBRANCH   17   16
ENDBRANCH   18   17
BRANCH   18   19
ATOM     19  C18 UNL A   1       9.880  -5.176  23.483  1.00  0.00    +0.000 C 
ATOM    126  H22 UNL A   1      10.563  -4.398  23.211  1.00  0.00    +0.000 H 
ATOM    127  H23 UNL A   1      10.356  -6.127  23.360  1.00  0.00    +0.000 H 
ATOM    128  H24 UNL A   1       9.588  -5.053  24.505  1.00  0.00    +0.000 H 
ENDBRANCH   18   19
BRANCH   18   20
ATOM    129  H25 UNL A   1       8.047  -5.247  20.485  1.00  0.00    +0.000 H 
ATOM    130  H26 UNL A   1       7.930  -6.759  21.353  1.00  0.00    +0.000 H 
ATOM    131  H27 UNL A   1       9.494  -6.143  20.880  1.00  0.00    +0.000 H 
ATOM     20  C19 UNL A   1       8.515  -5.874  21.216  1.00  0.00    +0.000 C 
ENDBRANCH   18   20
ENDBRANCH   21   18
ENDBRANCH   23   21
ENDBRANCH   24   23
ENDBRANCH   25   24
ENDBRANCH   26   25
ENDBRANCH   27   26
ENDBRANCH   28   27
ENDBRANCH   29   28
ENDBRANCH   30   29
ENDBRANCH   31   30
ENDBRANCH   33   31
ENDBRANCH   37   36
BRANCH   41   42
ATOM     42  C36 UNL A   1      14.360   0.645  26.120  1.00  0.00    +0.000 C 
ATOM     43  C37 UNL A   1      15.663   0.125  26.241  1.00  0.00    +0.000 C 
ATOM     44  F1  UNL A   1      16.039  -0.946  25.525  1.00  0.00    +0.000 F 
ATOM     45  C38 UNL A   1      16.580   0.643  27.161  1.00  0.00    +0.000 C 
ATOM     46  F2  UNL A   1      17.773   0.053  27.317  1.00  0.00    +0.000 F 
ATOM     47  C39 UNL A   1      16.244   1.723  27.958  1.00  0.00    +0.000 C 
ATOM     48  F3  UNL A   1      17.104   2.190  28.872  1.00  0.00    +0.000 F 
ATOM     49  C40 UNL A   1      14.991   2.284  27.841  1.00  0.00    +0.000 C 
ATOM     50  F4  UNL A   1      14.634   3.310  28.627  1.00  0.00    +0.000 F 
ATOM     51  C41 UNL A   1      14.058   1.738  26.961  1.00  0.00    +0.000 C 
ATOM     52  F5  UNL A   1      12.821   2.243  27.049  1.00  0.00    +0.000 F 
ENDBRANCH   41   42
BRANCH   58   59
ATOM     65  F8  UNL A   1       4.440  -3.553  26.470  1.00  0.00    +0.000 F 
ATOM     66  C51 UNL A   1       6.061  -2.458  27.792  1.00  0.00    +0.000 C 
ATOM     67  F9  UNL A   1       5.579  -3.044  28.896  1.00  0.00    +0.000 F 
ATOM     68  C52 UNL A   1       7.156  -1.605  27.886  1.00  0.00    +0.000 C 
ATOM     69  F10 UNL A   1       7.697  -1.383  29.094  1.00  0.00    +0.000 F 
ATOM     59  C47 UNL A   1       7.727  -1.023  26.745  1.00  0.00    +0.000 C 
ATOM     60  C48 UNL A   1       7.149  -1.330  25.501  1.00  0.00    +0.000 C 
ATOM     61  F6  UNL A   1       7.693  -0.883  24.361  1.00  0.00    +0.000 F 
ATOM     62  C49 UNL A   1       6.026  -2.154  25.414  1.00  0.00    +0.000 C 
ATOM     63  F7  UNL A   1       5.482  -2.424  24.218  1.00  0.00    +0.000 F 
ATOM     64  C50 UNL A   1       5.490  -2.725  26.558  1.00  0.00    +0.000 C 
ENDBRANCH   58   59
BRANCH   73   74
ATOM     74  C56 UNL A   1       6.956   5.055  25.203  1.00  0.00    +0.000 C 
ATOM     75  C57 UNL A   1       6.048   5.427  26.211  1.00  0.00    +0.000 C 
ATOM     76  F11 UNL A   1       5.401   4.486  26.915  1.00  0.00    +0.000 F 
ATOM     77  C58 UNL A   1       5.854   6.765  26.567  1.00  0.00    +0.000 C 
ATOM     78  F12 UNL A   1       5.037   7.075  27.584  1.00  0.00    +0.000 F 
ATOM     79  C59 UNL A   1       6.553   7.770  25.919  1.00  0.00    +0.000 C 
ATOM     80  F13 UNL A   1       6.423   9.045  26.308  1.00  0.00    +0.000 F 
ATOM     81  C60 UNL A   1       7.423   7.441  24.896  1.00  0.00    +0.000 C 
ATOM     82  F14 UNL A   1       8.131   8.401  24.285  1.00  0.00    +0.000 F 
ATOM     83  C61 UNL A   1       7.621   6.105  24.543  1.00  0.00    +0.000 C 
ATOM     84  F15 UNL A   1       8.552   5.852  23.612  1.00  0.00    +0.000 F 
ENDBRANCH   73   74
TORSDOF 25
ENDMDL
MODEL 3
REMARK VINA RESULT:      -8.1     51.494     58.653
ROOT
ATOM    148  H44 UNL A   1      31.543  24.558  -5.670  1.00  0.00    +0.000 H 
ATOM    149  H45 UNL A   1      32.514  23.521  -7.915  1.00  0.00    +0.000 H 
ATOM    150  H46 UNL A   1      29.643  21.052  -6.444  1.00  0.00    +0.000 H 
ATOM    151  H47 UNL A   1      26.018  22.818 -13.327  1.00  0.00    +0.000 H 
ATOM    152  H48 UNL A   1      26.299  25.126 -12.285  1.00  0.00    +0.000 H 
ATOM    153  H49 UNL A   1      27.749  22.365  -9.538  1.00  0.00    +0.000 H 
ATOM    154  H50 UNL A   1      26.529  19.396  -8.966  1.00  0.00    +0.000 H 
ATOM    155  H51 UNL A   1      28.564  19.963  -7.488  1.00  0.00    +0.000 H 
ATOM    156  H52 UNL A   1      26.284  24.917  -4.953  1.00  0.00    +0.000 H 
ATOM    157  H53 UNL A   1      25.146  25.406  -7.209  1.00  0.00    +0.000 H 
ATOM     37  C32 UNL A   1      26.892  25.020  -9.454  1.00  0.00    +0.000 C 
ATOM     38  C33 UNL A   1      27.155  24.721  -8.016  1.00  0.00    +0.000 C 
ATOM     39  N3  UNL A   1      28.263  24.326  -7.475  1.00  0.00    +0.000 N 
ATOM     40  C34 UNL A   1      27.984  24.159  -6.120  1.00  0.00    +0.000 C 
ATOM     41  C35 UNL A   1      28.735  23.340  -5.334  1.00  0.00    +0.000 C 
ATOM     53  C42 UNL A   1      30.009  23.054  -5.933  1.00  0.00    +0.000 C 
ATOM     54  C43 UNL A   1      31.151  23.773  -6.211  1.00  0.00    +0.000 C 
ATOM     55  C44 UNL A   1      31.675  23.199  -7.407  1.00  0.00    +0.000 C 
ATOM     56  C45 UNL A   1      30.858  22.129  -7.774  1.00  0.00    +0.000 C 
ATOM     57  N4  UNL A   1      30.080  21.904  -6.670  1.00  0.00    +0.000 N 
ATOM     58  C46 UNL A   1      30.660  21.438  -9.029  1.00  0.00    +0.000 C 
ATOM     70  C53 UNL A   1      29.606  20.621  -9.319  1.00  0.00    +0.000 C 
ATOM     71  N5  UNL A   1      29.205  20.438 -10.631  1.00  0.00    +0.000 N 
ATOM     72  C54 UNL A   1      27.925  20.202 -10.553  1.00  0.00    +0.000 C 
ATOM     73  C55 UNL A   1      26.940  20.673 -11.555  1.00  0.00    +0.000 C 
ATOM     85  C62 UNL A   1      26.905  22.025 -11.461  1.00  0.00    +0.000 C 
ATOM     86  C63 UNL A   1      26.396  23.012 -12.386  1.00  0.00    +0.000 C 
ATOM     87  C64 UNL A   1      26.499  24.229 -11.815  1.00  0.00    +0.000 C 
ATOM     88  C65 UNL A   1      26.938  24.085 -10.425  1.00  0.00    +0.000 C 
ATOM     89  N6  UNL A   1      27.289  22.755 -10.316  1.00  0.00    +0.000 N 
ATOM     90  C66 UNL A   1      27.439  19.797  -9.246  1.00  0.00    +0.000 C 
ATOM     91  C67 UNL A   1      28.512  20.093  -8.511  1.00  0.00    +0.000 C 
ATOM     92  C68 UNL A   1      26.693  24.748  -5.885  1.00  0.00    +0.000 C 
ATOM     93  C69 UNL A   1      26.099  25.045  -7.041  1.00  0.00    +0.000 C 
ENDROOT
BRANCH   37   36
ATOM     33  C28 UNL A   1      25.586  29.010 -10.100  1.00  0.00    +0.000 C 
ATOM     34  C29 UNL A   1      25.751  28.508  -8.809  1.00  0.00    +0.000 C 
ATOM     35  C30 UNL A   1      26.207  27.213  -8.610  1.00  0.00    +0.000 C 
ATOM     36  C31 UNL A   1      26.465  26.392  -9.708  1.00  0.00    +0.000 C 
ATOM    146  H42 UNL A   1      25.531  29.105  -7.995  1.00  0.00    +0.000 H 
ATOM    147  H43 UNL A   1      26.356  26.858  -7.652  1.00  0.00    +0.000 H 
ATOM    158  H54 UNL A   1      26.312  26.200 -11.803  1.00  0.00    +0.000 H 
ATOM    159  H55 UNL A   1      25.606  28.485 -12.148  1.00  0.00    +0.000 H 
ATOM     94  C70 UNL A   1      26.198  26.836 -10.998  1.00  0.00    +0.000 C 
ATOM     95  C71 UNL A   1      25.779  28.143 -11.190  1.00  0.00    +0.000 C 
BRANCH   33   31
ATOM     31  C27 UNL A   1      25.247  30.411 -10.454  1.00  0.00    +0.000 C 
ATOM     32  O2  UNL A   1      24.960  31.201  -9.551  1.00  0.00    +0.000 O 
BRANCH   31   30
ATOM    145  H41 UNL A   1      26.061  30.939 -12.162  1.00  0.00    +0.000 H 
ATOM     30  N2  UNL A   1      25.180  30.900 -11.724  1.00  0.00    +0.000 N 
BRANCH   30   29
ATOM     29  C26 UNL A   1      24.113  31.375 -12.574  1.00  0.00    +0.000 C 
ATOM    143  H39 UNL A   1      23.219  31.453 -11.990  1.00  0.00    +0.000 H 
ATOM    144  H40 UNL A   1      24.413  32.323 -12.969  1.00  0.00    +0.000 H 
BRANCH   29   28
ATOM     28  C25 UNL A   1      23.842  30.448 -13.760  1.00  0.00    +0.000 C 
ATOM    141  H37 UNL A   1      23.158  30.936 -14.422  1.00  0.00    +0.000 H 
ATOM    142  H38 UNL A   1      24.783  30.248 -14.227  1.00  0.00    +0.000 H 
BRANCH   28   27
ATOM     27  C24 UNL A   1      23.241  29.096 -13.348  1.00  0.00    +0.000 C 
ATOM    140  H36 UNL A   1      22.955  29.192 -12.321  1.00  0.00    +0.000 H 
ATOM    139  H35 UNL A   1      23.980  28.340 -13.510  1.00  0.00    +0.000 H 
BRANCH   27   26
ATOM    137  H33 UNL A   1      22.183  28.743 -15.164  1.00  0.00    +0.000 H 
ATOM     26  C23 UNL A   1      21.971  28.699 -14.117  1.00  0.00    +0.000 C 
ATOM    138  H34 UNL A   1      21.706  27.714 -13.797  1.00  0.00    +0.000 H 
BRANCH   26   25
ATOM     25  C22 UNL A   1      20.782  29.599 -13.827  1.00  0.00    +0.000 C 
ATOM    135  H31 UNL A   1      21.132  30.525 -13.420  1.00  0.00    +0.000 H 
ATOM    136  H32 UNL A   1      20.250  29.775 -14.739  1.00  0.00    +0.000 H 
BRANCH   25   24
ATOM    133  H29 UNL A   1      20.089  29.289 -11.855  1.00  0.00    +0.000 H 
ATOM    134  H30 UNL A   1      18.847  29.201 -13.101  1.00  0.00    +0.000 H 
ATOM     24  C21 UNL A   1      19.851  28.944 -12.840  1.00  0.00    +0.000 C 
BRANCH   24   23
ATOM    132  H28 UNL A   1      20.754  27.117 -12.406  1.00  0.00    +0.000 H 
ATOM     23  N1  UNL A   1      19.976  27.497 -12.874  1.00  0.00    +0.000 N 
BRANCH   23   21
ATOM     21  C20 UNL A   1      19.133  26.594 -13.484  1.00  0.00    +0.000 C 
ATOM     22  O1  UNL A   1      18.455  27.004 -14.406  1.00  0.00    +0.000 O 
BRANCH   21   18
ATOM     18  C17 UNL A   1      18.927  25.240 -12.791  1.00  0.00    +0.000 C 
BRANCH   18   17
ATOM     17  C16 UNL A   1      19.948  24.088 -13.022  1.00  0.00    +0.000 C 
ATOM    124  H20 UNL A   1      20.304  23.774 -12.063  1.00  0.00    +0.000 H 
ATOM    125  H21 UNL A   1      19.410  23.340 -13.566  1.00  0.00    +0.000 H 
BRANCH   17   16
ATOM      4  C4  UNL A   1      24.241  26.620 -16.424  1.00  0.00    +0.000 C 
ATOM      5  C5  UNL A   1      24.955  26.507 -15.228  1.00  0.00    +0.000 C 
ATOM      6  C6  UNL A   1      24.434  25.827 -14.122  1.00  0.00    +0.000 C 
ATOM      7  C7  UNL A   1      23.152  25.258 -14.223  1.00  0.00    +0.000 C 
ATOM      8  C8  UNL A   1      22.428  25.279 -15.427  1.00  0.00    +0.000 C 
ATOM      9  C9  UNL A   1      23.000  25.964 -16.533  1.00  0.00    +0.000 C 
ATOM     10  C10 UNL A   1      21.175  24.591 -15.218  1.00  0.00    +0.000 C 
ATOM    112  H8  UNL A   1      25.890  26.938 -15.158  1.00  0.00    +0.000 H 
ATOM    113  H9  UNL A   1      24.979  25.744 -13.249  1.00  0.00    +0.000 H 
ATOM    114  H10 UNL A   1      22.496  25.982 -17.433  1.00  0.00    +0.000 H 
ATOM     16  C15 UNL A   1      21.114  24.399 -13.846  1.00  0.00    +0.000 C 
ATOM     96  N7  UNL A   1      22.366  24.614 -13.277  1.00  0.00    +0.000 N 
BRANCH    4    2
ATOM      2  C2  UNL A   1      24.827  27.441 -17.562  1.00  0.00    +0.000 C 
ATOM    108  H4  UNL A   1      25.310  26.746 -18.216  1.00  0.00    +0.000 H 
BRANCH    2    1
ATOM      1  C1  UNL A   1      23.726  28.167 -18.332  1.00  0.00    +0.000 C 
ATOM    106  H2  UNL A   1      22.791  27.673 -18.168  1.00  0.00    +0.000 H 
ATOM    107  H3  UNL A   1      23.955  28.158 -19.377  1.00  0.00    +0.000 H 
ATOM    105  H1  UNL A   1      23.658  29.179 -17.990  1.00  0.00    +0.000 H 
ENDBRANCH    2    1
BRANCH    2    3
ATOM      3  C3  UNL A   1      25.912  28.425 -17.105  1.00  0.00    +0.000 C 
ATOM    109  H5  UNL A   1      26.282  28.127 -16.146  1.00  0.00    +0.000 H 
ATOM    110  H6  UNL A   1      25.496  29.408 -17.038  1.00  0.00    +0.000 H 
ATOM    111  H7  UNL A   1      26.714  28.424 -17.813  1.00  0.00    +0.000 H 
ENDBRANCH    2    3
ENDBRANCH    4    2
BRANCH   10   11
ATOM     11  S1  UNL A   1      19.978  24.412 -16.536  1.00  0.00    +0.000 S 
ATOM     12  C11 UNL A   1      20.250  23.159 -17.913  1.00  0.00    +0.000 C 
ATOM     13  C12 UNL A   1      21.457  23.566 -18.765  1.00  0.00    +0.000 C 
ATOM     14  C13 UNL A   1      20.306  21.624 -17.711  1.00  0.00    +0.000 C 
ATOM     15  C14 UNL A   1      18.946  23.294 -18.749  1.00  0.00    +0.000 C 
ATOM    115  H11 UNL A   1      22.351  23.472 -18.184  1.00  0.00    +0.000 H 
ATOM    116  H12 UNL A   1      21.344  24.582 -19.082  1.00  0.00    +0.000 H 
ATOM    117  H13 UNL A   1      21.519  22.930 -19.623  1.00  0.00    +0.000 H 
ATOM    118  H14 UNL A   1      21.173  21.371 -17.137  1.00  0.00    +0.000 H 
ATOM    119  H15 UNL A   1      20.355  21.140 -18.664  1.00  0.00    +0.000 H 
ATOM    120  H16 UNL A   1      19.428  21.301 -17.191  1.00  0.00    +0.000 H 
ATOM    121  H17 UNL A   1      18.770  24.325 -18.973  1.00  0.00    +0.000 H 
ATOM    122  H18 UNL A   1      18.121  22.904 -18.189  1.00  0.00    +0.000 H 
ATOM    123  H19 UNL A   1      19.048  22.743 -19.661  1.00  0.00    +0.000 H 
ENDBRANCH   10   11
BRANCH   96   97
ATOM     97  C72 UNL A   1      22.875  24.078 -11.980  1.00  0.00    +0.000 C 
ATOM    161  H57 UNL A   1      22.170  23.317 -11.720  1.00  0.00    +0.000 H 
ATOM    160  H56 UNL A   1      23.883  23.758 -12.146  1.00  0.00    +0.000 H 
BRANCH   97   98
ATOM     98  C73 UNL A   1      22.893  24.993 -10.760  1.00  0.00    +0.000 C 
ATOM     99  C74 UNL A   1      23.198  24.500  -9.474  1.00  0.00    +0.000 C 
ATOM    100  C75 UNL A   1      22.975  25.268  -8.324  1.00  0.00    +0.000 C 
ATOM    162  H58 UNL A   1      23.595  23.553  -9.379  1.00  0.00    +0.000 H 
ATOM    165  H61 UNL A   1      22.470  26.786 -11.799  1.00  0.00    +0.000 H 
ATOM    103  C77 UNL A   1      22.426  27.154  -9.716  1.00  0.00    +0.000 C 
ATOM    104  C78 UNL A   1      22.583  26.360 -10.865  1.00  0.00    +0.000 C 
ATOM    163  H59 UNL A   1      23.119  24.856  -7.389  1.00  0.00    +0.000 H 
ATOM    164  H60 UNL A   1      22.210  28.159  -9.810  1.00  0.00    +0.000 H 
ATOM    101  C76 UNL A   1      22.559  26.587  -8.451  1.00  0.00    +0.000 C 
ATOM    102 Cl1  UNL A   1      22.175  27.498  -7.042  1.00  0.00    +0.000 Cl
ENDBRANCH   97   98
ENDBRANCH   96   97
ENDBRANCH   17   16
ENDBRANCH   18   17
BRANCH   18   19
ATOM     19  C18 UNL A   1      17.563  24.916 -13.466  1.00  0.00    +0.000 C 
ATOM    126  H22 UNL A   1      17.147  25.813 -13.877  1.00  0.00    +0.000 H 
ATOM    127  H23 UNL A   1      16.890  24.515 -12.736  1.00  0.00    +0.000 H 
ATOM    128  H24 UNL A   1      17.711  24.201 -14.246  1.00  0.00    +0.000 H 
ENDBRANCH   18   19
BRANCH   18   20
ATOM    129  H25 UNL A   1      18.178  25.157 -10.759  1.00  0.00    +0.000 H 
ATOM    130  H26 UNL A   1      19.256  26.499 -11.058  1.00  0.00    +0.000 H 
ATOM    131  H27 UNL A   1      19.899  24.885 -10.886  1.00  0.00    +0.000 H 
ATOM     20  C19 UNL A   1      19.077  25.463 -11.252  1.00  0.00    +0.000 C 
ENDBRANCH   18   20
ENDBRANCH   21   18
ENDBRANCH   23   21
ENDBRANCH   24   23
ENDBRANCH   25   24
ENDBRANCH   26   25
ENDBRANCH   27   26
ENDBRANCH   28   27
ENDBRANCH   29   28
ENDBRANCH   30   29
ENDBRANCH   31   30
ENDBRANCH   33   31
ENDBRANCH   37   36
BRANCH   41   42
ATOM     42  C36 UNL A   1      28.157  22.475  -4.241  1.00  0.00    +0.000 C 
ATOM     43  C37 UNL A   1      28.881  22.270  -3.050  1.00  0.00    +0.000 C 
ATOM     44  F1  UNL A   1      29.967  23.008  -2.778  1.00  0.00    +0.000 F 
ATOM     45  C38 UNL A   1      28.553  21.245  -2.156  1.00  0.00    +0.000 C 
ATOM     46  F2  UNL A   1      29.331  21.019  -1.089  1.00  0.00    +0.000 F 
ATOM     47  C39 UNL A   1      27.468  20.422  -2.396  1.00  0.00    +0.000 C 
ATOM     48  F3  UNL A   1      27.181  19.412  -1.565  1.00  0.00    +0.000 F 
ATOM     49  C40 UNL A   1      26.711  20.617  -3.531  1.00  0.00    +0.000 C 
ATOM     50  F4  UNL A   1      25.675  19.809  -3.799  1.00  0.00    +0.000 F 
ATOM     51  C41 UNL A   1      27.065  21.603  -4.450  1.00  0.00    +0.000 C 
ATOM     52  F5  UNL A   1      26.374  21.596  -5.596  1.00  0.00    +0.000 F 
ENDBRANCH   41   42
BRANCH   58   59
ATOM     65  F8  UNL A   1      33.753  22.874 -13.540  1.00  0.00    +0.000 F 
ATOM     66  C51 UNL A   1      31.978  23.307 -12.045  1.00  0.00    +0.000 C 
ATOM     67  F9  UNL A   1      31.607  24.371 -12.770  1.00  0.00    +0.000 F 
ATOM     68  C52 UNL A   1      31.252  22.959 -10.910  1.00  0.00    +0.000 C 
ATOM     69  F10 UNL A   1      30.197  23.712 -10.565  1.00  0.00    +0.000 F 
ATOM     59  C47 UNL A   1      31.573  21.816 -10.162  1.00  0.00    +0.000 C 
ATOM     60  C48 UNL A   1      32.658  21.038 -10.599  1.00  0.00    +0.000 C 
ATOM     61  F6  UNL A   1      32.968  19.886  -9.989  1.00  0.00    +0.000 F 
ATOM     62  C49 UNL A   1      33.409  21.412 -11.715  1.00  0.00    +0.000 C 
ATOM     63  F7  UNL A   1      34.448  20.661 -12.108  1.00  0.00    +0.000 F 
ATOM     64  C50 UNL A   1      33.061  22.540 -12.442  1.00  0.00    +0.000 C 
ENDBRANCH   58   59
BRANCH   73   74
ATOM     74  C56 UNL A   1      25.947  19.761 -12.170  1.00  0.00    +0.000 C 
ATOM     75  C57 UNL A   1      24.578  19.882 -11.869  1.00  0.00    +0.000 C 
ATOM     76  F11 UNL A   1      24.180  20.646 -10.841  1.00  0.00    +0.000 F 
ATOM     77  C58 UNL A   1      23.596  19.291 -12.669  1.00  0.00    +0.000 C 
ATOM     78  F12 UNL A   1      22.299  19.492 -12.395  1.00  0.00    +0.000 F 
ATOM     79  C59 UNL A   1      23.953  18.552 -13.785  1.00  0.00    +0.000 C 
ATOM     80  F13 UNL A   1      23.013  18.046 -14.593  1.00  0.00    +0.000 F 
ATOM     81  C60 UNL A   1      25.292  18.379 -14.084  1.00  0.00    +0.000 C 
ATOM     82  F14 UNL A   1      25.650  17.696 -15.181  1.00  0.00    +0.000 F 
ATOM     83  C61 UNL A   1      26.274  18.974 -13.290  1.00  0.00    +0.000 C 
ATOM     84  F15 UNL A   1      27.545  18.848 -13.696  1.00  0.00    +0.000 F 
ENDBRANCH   73   74
TORSDOF 25
ENDMDL
MODEL 4
REMARK VINA RESULT:      -8.0     44.978     50.140
ROOT
ATOM    148  H44 UNL A   1      12.631  55.185   9.718  1.00  0.00    +0.000 H 
ATOM    149  H45 UNL A   1      14.392  53.242  10.147  1.00  0.00    +0.000 H 
ATOM    150  H46 UNL A   1      12.582  54.192  13.658  1.00  0.00    +0.000 H 
ATOM    151  H47 UNL A   1      10.073  46.631  13.250  1.00  0.00    +0.000 H 
ATOM    152  H48 UNL A   1       9.138  47.602  11.088  1.00  0.00    +0.000 H 
ATOM    153  H49 UNL A   1      11.003  50.714  13.113  1.00  0.00    +0.000 H 
ATOM    154  H50 UNL A   1      11.049  51.154  16.344  1.00  0.00    +0.000 H 
ATOM    155  H51 UNL A   1      12.302  52.997  15.048  1.00  0.00    +0.000 H 
ATOM    156  H52 UNL A   1       7.683  54.770  11.628  1.00  0.00    +0.000 H 
ATOM    157  H53 UNL A   1       6.943  52.307  11.555  1.00  0.00    +0.000 H 
ATOM     37  C32 UNL A   1       9.115  50.496  11.069  1.00  0.00    +0.000 C 
ATOM     38  C33 UNL A   1       9.174  51.969  11.297  1.00  0.00    +0.000 C 
ATOM     39  N3  UNL A   1      10.206  52.748  11.218  1.00  0.00    +0.000 N 
ATOM     40  C34 UNL A   1       9.747  54.021  11.550  1.00  0.00    +0.000 C 
ATOM     41  C35 UNL A   1      10.589  54.982  12.015  1.00  0.00    +0.000 C 
ATOM     53  C42 UNL A   1      11.960  54.677  11.712  1.00  0.00    +0.000 C 
ATOM     54  C43 UNL A   1      12.726  54.610  10.569  1.00  0.00    +0.000 C 
ATOM     55  C44 UNL A   1      13.679  53.577  10.814  1.00  0.00    +0.000 C 
ATOM     56  C45 UNL A   1      13.482  53.098  12.109  1.00  0.00    +0.000 C 
ATOM     57  N4  UNL A   1      12.659  54.024  12.691  1.00  0.00    +0.000 N 
ATOM     58  C46 UNL A   1      13.857  51.862  12.759  1.00  0.00    +0.000 C 
ATOM     70  C53 UNL A   1      13.328  51.396  13.928  1.00  0.00    +0.000 C 
ATOM     71  N5  UNL A   1      13.325  50.038  14.200  1.00  0.00    +0.000 N 
ATOM     72  C54 UNL A   1      12.276  49.858  14.954  1.00  0.00    +0.000 C 
ATOM     73  C55 UNL A   1      11.417  48.652  14.892  1.00  0.00    +0.000 C 
ATOM     85  C62 UNL A   1      10.800  48.675  13.685  1.00  0.00    +0.000 C 
ATOM     86  C63 UNL A   1      10.130  47.620  12.959  1.00  0.00    +0.000 C 
ATOM     87  C64 UNL A   1       9.592  48.144  11.839  1.00  0.00    +0.000 C 
ATOM     88  C65 UNL A   1       9.751  49.600  11.852  1.00  0.00    +0.000 C 
ATOM     89  N6  UNL A   1      10.595  49.840  12.916  1.00  0.00    +0.000 N 
ATOM     90  C66 UNL A   1      11.744  51.052  15.586  1.00  0.00    +0.000 C 
ATOM     91  C67 UNL A   1      12.415  51.981  14.903  1.00  0.00    +0.000 C 
ATOM     92  C68 UNL A   1       8.310  53.953  11.566  1.00  0.00    +0.000 C 
ATOM     93  C69 UNL A   1       7.901  52.686  11.492  1.00  0.00    +0.000 C 
ENDROOT
BRANCH   37   36
ATOM     33  C28 UNL A   1       6.452  49.256   8.001  1.00  0.00    +0.000 C 
ATOM     34  C29 UNL A   1       6.064  49.236   9.341  1.00  0.00    +0.000 C 
ATOM     35  C30 UNL A   1       6.932  49.672  10.332  1.00  0.00    +0.000 C 
ATOM     36  C31 UNL A   1       8.217  50.096   9.991  1.00  0.00    +0.000 C 
ATOM    146  H42 UNL A   1       5.124  48.893   9.598  1.00  0.00    +0.000 H 
ATOM    147  H43 UNL A   1       6.628  49.683  11.319  1.00  0.00    +0.000 H 
ATOM    158  H54 UNL A   1       9.635  50.253   8.438  1.00  0.00    +0.000 H 
ATOM    159  H55 UNL A   1       8.091  49.581   6.706  1.00  0.00    +0.000 H 
ATOM     94  C70 UNL A   1       8.660  50.016   8.676  1.00  0.00    +0.000 C 
ATOM     95  C71 UNL A   1       7.774  49.616   7.688  1.00  0.00    +0.000 C 
BRANCH   33   31
ATOM     31  C27 UNL A   1       5.581  48.957   6.837  1.00  0.00    +0.000 C 
ATOM     32  O2  UNL A   1       5.069  49.895   6.220  1.00  0.00    +0.000 O 
BRANCH   31   30
ATOM    145  H41 UNL A   1       5.622  47.504   5.517  1.00  0.00    +0.000 H 
ATOM     30  N2  UNL A   1       5.255  47.706   6.408  1.00  0.00    +0.000 N 
BRANCH   30   29
ATOM     29  C26 UNL A   1       4.495  46.609   6.961  1.00  0.00    +0.000 C 
ATOM    143  H39 UNL A   1       3.894  46.980   7.766  1.00  0.00    +0.000 H 
ATOM    144  H40 UNL A   1       3.896  46.203   6.173  1.00  0.00    +0.000 H 
BRANCH   29   28
ATOM     28  C25 UNL A   1       5.381  45.482   7.493  1.00  0.00    +0.000 C 
ATOM    141  H37 UNL A   1       5.275  45.441   8.557  1.00  0.00    +0.000 H 
ATOM    142  H38 UNL A   1       5.059  44.577   7.022  1.00  0.00    +0.000 H 
BRANCH   28   27
ATOM     27  C24 UNL A   1       6.867  45.668   7.157  1.00  0.00    +0.000 C 
ATOM    140  H36 UNL A   1       6.933  46.549   6.553  1.00  0.00    +0.000 H 
ATOM    139  H35 UNL A   1       7.208  44.787   6.654  1.00  0.00    +0.000 H 
BRANCH   27   26
ATOM    137  H33 UNL A   1       7.368  46.713   8.945  1.00  0.00    +0.000 H 
ATOM     26  C23 UNL A   1       7.774  45.906   8.373  1.00  0.00    +0.000 C 
ATOM    138  H34 UNL A   1       7.804  44.991   8.927  1.00  0.00    +0.000 H 
BRANCH   26   25
ATOM     25  C22 UNL A   1       9.207  46.251   8.002  1.00  0.00    +0.000 C 
ATOM    135  H31 UNL A   1       9.469  47.189   8.446  1.00  0.00    +0.000 H 
ATOM    136  H32 UNL A   1       9.854  45.479   8.363  1.00  0.00    +0.000 H 
BRANCH   25   24
ATOM    133  H29 UNL A   1       9.193  45.386   6.075  1.00  0.00    +0.000 H 
ATOM    134  H30 UNL A   1       8.638  47.056   6.143  1.00  0.00    +0.000 H 
ATOM     24  C21 UNL A   1       9.355  46.352   6.506  1.00  0.00    +0.000 C 
BRANCH   24   23
ATOM    132  H28 UNL A   1      11.409  46.160   6.211  1.00  0.00    +0.000 H 
ATOM     23  N1  UNL A   1      10.681  46.818   6.135  1.00  0.00    +0.000 N 
BRANCH   23   21
ATOM     21  C20 UNL A   1      11.038  48.071   5.690  1.00  0.00    +0.000 C 
ATOM     22  O1  UNL A   1      10.334  48.580   4.841  1.00  0.00    +0.000 O 
BRANCH   21   18
ATOM     18  C17 UNL A   1      12.420  48.598   6.099  1.00  0.00    +0.000 C 
BRANCH   18   17
ATOM     17  C16 UNL A   1      12.549  49.592   7.291  1.00  0.00    +0.000 C 
ATOM    124  H20 UNL A   1      11.613  49.601   7.808  1.00  0.00    +0.000 H 
ATOM    125  H21 UNL A   1      13.375  49.232   7.868  1.00  0.00    +0.000 H 
BRANCH   17   16
ATOM      4  C4  UNL A   1      13.355  55.569   7.116  1.00  0.00    +0.000 C 
ATOM      5  C5  UNL A   1      14.666  55.185   7.413  1.00  0.00    +0.000 C 
ATOM      6  C6  UNL A   1      15.054  53.841   7.421  1.00  0.00    +0.000 C 
ATOM      7  C7  UNL A   1      14.091  52.859   7.134  1.00  0.00    +0.000 C 
ATOM      8  C8  UNL A   1      12.780  53.199   6.756  1.00  0.00    +0.000 C 
ATOM      9  C9  UNL A   1      12.430  54.576   6.743  1.00  0.00    +0.000 C 
ATOM     10  C10 UNL A   1      12.048  51.980   6.499  1.00  0.00    +0.000 C 
ATOM    112  H8  UNL A   1      15.365  55.912   7.634  1.00  0.00    +0.000 H 
ATOM    113  H9  UNL A   1      16.030  53.575   7.632  1.00  0.00    +0.000 H 
ATOM    114  H10 UNL A   1      11.479  54.854   6.454  1.00  0.00    +0.000 H 
ATOM     16  C15 UNL A   1      12.885  50.974   6.960  1.00  0.00    +0.000 C 
ATOM     96  N7  UNL A   1      14.170  51.474   7.154  1.00  0.00    +0.000 N 
BRANCH    4    2
ATOM      2  C2  UNL A   1      12.976  57.040   7.205  1.00  0.00    +0.000 C 
ATOM    108  H4  UNL A   1      13.857  57.558   7.520  1.00  0.00    +0.000 H 
BRANCH    2    1
ATOM      1  C1  UNL A   1      12.547  57.573   5.839  1.00  0.00    +0.000 C 
ATOM    106  H2  UNL A   1      11.531  57.904   5.888  1.00  0.00    +0.000 H 
ATOM    107  H3  UNL A   1      12.634  56.796   5.109  1.00  0.00    +0.000 H 
ATOM    105  H1  UNL A   1      13.176  58.394   5.563  1.00  0.00    +0.000 H 
ENDBRANCH    2    1
BRANCH    2    3
ATOM      3  C3  UNL A   1      11.906  57.328   8.264  1.00  0.00    +0.000 C 
ATOM    109  H5  UNL A   1      11.832  56.495   8.932  1.00  0.00    +0.000 H 
ATOM    110  H6  UNL A   1      10.963  57.486   7.784  1.00  0.00    +0.000 H 
ATOM    111  H7  UNL A   1      12.177  58.205   8.815  1.00  0.00    +0.000 H 
ENDBRANCH    2    3
ENDBRANCH    4    2
BRANCH   10   11
ATOM     11  S1  UNL A   1      10.333  52.011   5.990  1.00  0.00    +0.000 S 
ATOM     12  C11 UNL A   1       9.241  53.488   6.397  1.00  0.00    +0.000 C 
ATOM     13  C12 UNL A   1       9.022  53.580   7.911  1.00  0.00    +0.000 C 
ATOM     14  C13 UNL A   1       9.461  54.924   5.860  1.00  0.00    +0.000 C 
ATOM     15  C14 UNL A   1       7.904  53.118   5.693  1.00  0.00    +0.000 C 
ATOM    115  H11 UNL A   1       9.945  53.834   8.389  1.00  0.00    +0.000 H 
ATOM    116  H12 UNL A   1       8.678  52.636   8.280  1.00  0.00    +0.000 H 
ATOM    117  H13 UNL A   1       8.291  54.332   8.121  1.00  0.00    +0.000 H 
ATOM    118  H14 UNL A   1      10.367  55.322   6.267  1.00  0.00    +0.000 H 
ATOM    119  H15 UNL A   1       8.637  55.543   6.149  1.00  0.00    +0.000 H 
ATOM    120  H16 UNL A   1       9.531  54.898   4.792  1.00  0.00    +0.000 H 
ATOM    121  H17 UNL A   1       7.615  52.127   5.975  1.00  0.00    +0.000 H 
ATOM    122  H18 UNL A   1       8.035  53.164   4.632  1.00  0.00    +0.000 H 
ATOM    123  H19 UNL A   1       7.142  53.809   5.988  1.00  0.00    +0.000 H 
ENDBRANCH   10   11
BRANCH   96   97
ATOM     97  C72 UNL A   1      15.448  50.702   7.168  1.00  0.00    +0.000 C 
ATOM    161  H57 UNL A   1      16.150  51.372   7.620  1.00  0.00    +0.000 H 
ATOM    160  H56 UNL A   1      15.258  49.788   7.690  1.00  0.00    +0.000 H 
BRANCH   97   98
ATOM     98  C73 UNL A   1      16.101  50.330   5.840  1.00  0.00    +0.000 C 
ATOM     99  C74 UNL A   1      16.388  48.989   5.511  1.00  0.00    +0.000 C 
ATOM    100  C75 UNL A   1      17.203  48.662   4.420  1.00  0.00    +0.000 C 
ATOM    162  H58 UNL A   1      15.989  48.232   6.087  1.00  0.00    +0.000 H 
ATOM    165  H61 UNL A   1      16.164  52.289   5.047  1.00  0.00    +0.000 H 
ATOM    103  C77 UNL A   1      17.220  50.979   3.766  1.00  0.00    +0.000 C 
ATOM    104  C78 UNL A   1      16.461  51.312   4.901  1.00  0.00    +0.000 C 
ATOM    163  H59 UNL A   1      17.475  47.681   4.251  1.00  0.00    +0.000 H 
ATOM    164  H60 UNL A   1      17.467  51.709   3.079  1.00  0.00    +0.000 H 
ATOM    101  C76 UNL A   1      17.641  49.666   3.567  1.00  0.00    +0.000 C 
ATOM    102 Cl1  UNL A   1      18.734  49.285   2.293  1.00  0.00    +0.000 Cl
ENDBRANCH   97   98
ENDBRANCH   96   97
ENDBRANCH   17   16
ENDBRANCH   18   17
BRANCH   18   19
ATOM     19  C18 UNL A   1      12.732  49.307   4.749  1.00  0.00    +0.000 C 
ATOM    126  H22 UNL A   1      11.856  49.816   4.403  1.00  0.00    +0.000 H 
ATOM    127  H23 UNL A   1      13.030  48.578   4.024  1.00  0.00    +0.000 H 
ATOM    128  H24 UNL A   1      13.523  50.013   4.890  1.00  0.00    +0.000 H 
ENDBRANCH   18   19
BRANCH   18   20
ATOM    129  H25 UNL A   1      13.741  46.904   5.811  1.00  0.00    +0.000 H 
ATOM    130  H26 UNL A   1      12.605  46.696   7.123  1.00  0.00    +0.000 H 
ATOM    131  H27 UNL A   1      13.990  47.741   7.324  1.00  0.00    +0.000 H 
ATOM     20  C19 UNL A   1      13.255  47.390   6.632  1.00  0.00    +0.000 C 
ENDBRANCH   18   20
ENDBRANCH   21   18
ENDBRANCH   23   21
ENDBRANCH   24   23
ENDBRANCH   25   24
ENDBRANCH   26   25
ENDBRANCH   27   26
ENDBRANCH   28   27
ENDBRANCH   29   28
ENDBRANCH   30   29
ENDBRANCH   31   30
ENDBRANCH   33   31
ENDBRANCH   37   36
BRANCH   41   42
ATOM     42  C36 UNL A   1      10.213  55.969  13.093  1.00  0.00    +0.000 C 
ATOM     43  C37 UNL A   1      10.434  57.345  12.894  1.00  0.00    +0.000 C 
ATOM     44  F1  UNL A   1      10.762  57.815  11.680  1.00  0.00    +0.000 F 
ATOM     45  C38 UNL A   1      10.407  58.257  13.955  1.00  0.00    +0.000 C 
ATOM     46  F2  UNL A   1      10.726  59.540  13.738  1.00  0.00    +0.000 F 
ATOM     47  C39 UNL A   1      10.113  57.834  15.239  1.00  0.00    +0.000 C 
ATOM     48  F3  UNL A   1      10.133  58.697  16.262  1.00  0.00    +0.000 F 
ATOM     49  C40 UNL A   1       9.852  56.500  15.467  1.00  0.00    +0.000 C 
ATOM     50  F4  UNL A   1       9.598  56.065  16.709  1.00  0.00    +0.000 F 
ATOM     51  C41 UNL A   1       9.929  55.582  14.421  1.00  0.00    +0.000 C 
ATOM     52  F5  UNL A   1       9.831  54.295  14.778  1.00  0.00    +0.000 F 
ENDBRANCH   41   42
BRANCH   58   59
ATOM     65  F8  UNL A   1      17.365  48.691   9.658  1.00  0.00    +0.000 F 
ATOM     66  C51 UNL A   1      17.003  50.400  11.246  1.00  0.00    +0.000 C 
ATOM     67  F9  UNL A   1      18.315  50.673  11.272  1.00  0.00    +0.000 F 
ATOM     68  C52 UNL A   1      16.128  51.144  12.030  1.00  0.00    +0.000 C 
ATOM     69  F10 UNL A   1      16.628  52.118  12.805  1.00  0.00    +0.000 F 
ATOM     59  C47 UNL A   1      14.743  50.928  11.981  1.00  0.00    +0.000 C 
ATOM     60  C48 UNL A   1      14.272  49.928  11.113  1.00  0.00    +0.000 C 
ATOM     61  F6  UNL A   1      12.957  49.725  10.947  1.00  0.00    +0.000 F 
ATOM     62  C49 UNL A   1      15.156  49.156  10.358  1.00  0.00    +0.000 C 
ATOM     63  F7  UNL A   1      14.686  48.199   9.545  1.00  0.00    +0.000 F 
ATOM     64  C50 UNL A   1      16.519  49.400  10.418  1.00  0.00    +0.000 C 
ENDBRANCH   58   59
BRANCH   73   74
ATOM     74  C56 UNL A   1      11.050  47.886  16.106  1.00  0.00    +0.000 C 
ATOM     75  C57 UNL A   1       9.862  48.172  16.803  1.00  0.00    +0.000 C 
ATOM     76  F11 UNL A   1       9.178  49.294  16.536  1.00  0.00    +0.000 F 
ATOM     77  C58 UNL A   1       9.315  47.270  17.722  1.00  0.00    +0.000 C 
ATOM     78  F12 UNL A   1       8.142  47.543  18.310  1.00  0.00    +0.000 F 
ATOM     79  C59 UNL A   1       9.946  46.064  17.979  1.00  0.00    +0.000 C 
ATOM     80  F13 UNL A   1       9.387  45.169  18.804  1.00  0.00    +0.000 F 
ATOM     81  C60 UNL A   1      11.138  45.771  17.342  1.00  0.00    +0.000 C 
ATOM     82  F14 UNL A   1      11.739  44.593  17.555  1.00  0.00    +0.000 F 
ATOM     83  C61 UNL A   1      11.681  46.668  16.420  1.00  0.00    +0.000 C 
ATOM     84  F15 UNL A   1      12.783  46.275  15.765  1.00  0.00    +0.000 F 
ENDBRANCH   73   74
TORSDOF 25
ENDMDL
MODEL 5
REMARK VINA RESULT:      -8.0     40.270     45.750
ROOT
ATOM    148  H44 UNL A   1      46.039  30.941  29.073  1.00  0.00    +0.000 H 
ATOM    149  H45 UNL A   1      43.537  30.429  28.337  1.00  0.00    +0.000 H 
ATOM    150  H46 UNL A   1      46.072  28.259  26.021  1.00  0.00    +0.000 H 
ATOM    151  H47 UNL A   1      42.295  22.106  29.411  1.00  0.00    +0.000 H 
ATOM    152  H48 UNL A   1      43.231  23.320  31.445  1.00  0.00    +0.000 H 
ATOM    153  H49 UNL A   1      44.558  25.373  28.085  1.00  0.00    +0.000 H 
ATOM    154  H50 UNL A   1      45.423  24.045  25.235  1.00  0.00    +0.000 H 
ATOM    155  H51 UNL A   1      45.659  26.612  25.275  1.00  0.00    +0.000 H 
ATOM    156  H52 UNL A   1      49.433  26.939  29.947  1.00  0.00    +0.000 H 
ATOM    157  H53 UNL A   1      48.161  24.947  30.964  1.00  0.00    +0.000 H 
ATOM     37  C32 UNL A   1      45.310  25.217  30.768  1.00  0.00    +0.000 C 
ATOM     38  C33 UNL A   1      46.364  26.100  30.189  1.00  0.00    +0.000 C 
ATOM     39  N3  UNL A   1      46.208  27.226  29.570  1.00  0.00    +0.000 N 
ATOM     40  C34 UNL A   1      47.488  27.637  29.202  1.00  0.00    +0.000 C 
ATOM     41  C35 UNL A   1      47.688  28.502  28.171  1.00  0.00    +0.000 C 
ATOM     53  C42 UNL A   1      46.489  29.219  27.841  1.00  0.00    +0.000 C 
ATOM     54  C43 UNL A   1      45.717  30.184  28.451  1.00  0.00    +0.000 C 
ATOM     55  C44 UNL A   1      44.379  29.913  28.037  1.00  0.00    +0.000 C 
ATOM     56  C45 UNL A   1      44.403  28.830  27.157  1.00  0.00    +0.000 C 
ATOM     57  N4  UNL A   1      45.726  28.683  26.839  1.00  0.00    +0.000 N 
ATOM     58  C46 UNL A   1      43.384  27.898  26.730  1.00  0.00    +0.000 C 
ATOM     70  C53 UNL A   1      43.619  26.703  26.114  1.00  0.00    +0.000 C 
ATOM     71  N5  UNL A   1      42.701  25.672  26.216  1.00  0.00    +0.000 N 
ATOM     72  C54 UNL A   1      43.418  24.586  26.130  1.00  0.00    +0.000 C 
ATOM     73  C55 UNL A   1      43.126  23.347  26.889  1.00  0.00    +0.000 C 
ATOM     85  C62 UNL A   1      43.342  23.631  28.197  1.00  0.00    +0.000 C 
ATOM     86  C63 UNL A   1      42.911  22.934  29.388  1.00  0.00    +0.000 C 
ATOM     87  C64 UNL A   1      43.447  23.547  30.462  1.00  0.00    +0.000 C 
ATOM     88  C65 UNL A   1      44.382  24.585  30.021  1.00  0.00    +0.000 C 
ATOM     89  N6  UNL A   1      44.174  24.672  28.660  1.00  0.00    +0.000 N 
ATOM     90  C66 UNL A   1      44.744  24.751  25.564  1.00  0.00    +0.000 C 
ATOM     91  C67 UNL A   1      44.831  26.082  25.590  1.00  0.00    +0.000 C 
ATOM     92  C68 UNL A   1      48.414  26.783  29.896  1.00  0.00    +0.000 C 
ATOM     93  C69 UNL A   1      47.772  25.762  30.464  1.00  0.00    +0.000 C 
ENDROOT
BRANCH   37   36
ATOM     33  C28 UNL A   1      45.624  24.493  34.942  1.00  0.00    +0.000 C 
ATOM     34  C29 UNL A   1      45.587  23.437  34.030  1.00  0.00    +0.000 C 
ATOM     35  C30 UNL A   1      45.516  23.686  32.667  1.00  0.00    +0.000 C 
ATOM     36  C31 UNL A   1      45.439  25.001  32.205  1.00  0.00    +0.000 C 
ATOM    146  H42 UNL A   1      45.613  22.463  34.372  1.00  0.00    +0.000 H 
ATOM    147  H43 UNL A   1      45.519  22.902  31.996  1.00  0.00    +0.000 H 
ATOM    158  H54 UNL A   1      45.220  27.024  32.762  1.00  0.00    +0.000 H 
ATOM    159  H55 UNL A   1      45.438  26.590  35.129  1.00  0.00    +0.000 H 
ATOM     94  C70 UNL A   1      45.359  26.060  33.103  1.00  0.00    +0.000 C 
ATOM     95  C71 UNL A   1      45.470  25.804  34.461  1.00  0.00    +0.000 C 
BRANCH   33   31
ATOM     31  C27 UNL A   1      45.844  24.374  36.405  1.00  0.00    +0.000 C 
ATOM     32  O2  UNL A   1      46.267  23.307  36.859  1.00  0.00    +0.000 O 
BRANCH   31   30
ATOM    145  H41 UNL A   1      46.359  25.896  37.534  1.00  0.00    +0.000 H 
ATOM     30  N2  UNL A   1      45.571  25.348  37.317  1.00  0.00    +0.000 N 
BRANCH   30   29
ATOM     29  C26 UNL A   1      44.388  25.761  38.037  1.00  0.00    +0.000 C 
ATOM    143  H39 UNL A   1      44.398  25.302  39.004  1.00  0.00    +0.000 H 
ATOM    144  H40 UNL A   1      44.409  26.829  38.104  1.00  0.00    +0.000 H 
BRANCH   29   28
ATOM     28  C25 UNL A   1      43.092  25.371  37.324  1.00  0.00    +0.000 C 
ATOM    141  H37 UNL A   1      43.337  24.731  36.502  1.00  0.00    +0.000 H 
ATOM    142  H38 UNL A   1      42.470  24.882  38.044  1.00  0.00    +0.000 H 
BRANCH   28   27
ATOM     27  C24 UNL A   1      42.308  26.577  36.788  1.00  0.00    +0.000 C 
ATOM    140  H36 UNL A   1      42.967  27.418  36.849  1.00  0.00    +0.000 H 
ATOM    139  H35 UNL A   1      41.425  26.690  37.381  1.00  0.00    +0.000 H 
BRANCH   27   26
ATOM    137  H33 UNL A   1      42.702  26.051  34.760  1.00  0.00    +0.000 H 
ATOM     26  C23 UNL A   1      41.885  26.462  35.315  1.00  0.00    +0.000 C 
ATOM    138  H34 UNL A   1      41.018  25.837  35.286  1.00  0.00    +0.000 H 
BRANCH   26   25
ATOM     25  C22 UNL A   1      41.499  27.792  34.691  1.00  0.00    +0.000 C 
ATOM    135  H31 UNL A   1      42.059  27.934  33.790  1.00  0.00    +0.000 H 
ATOM    136  H32 UNL A   1      40.451  27.783  34.476  1.00  0.00    +0.000 H 
BRANCH   25   24
ATOM    133  H29 UNL A   1      41.991  28.524  36.611  1.00  0.00    +0.000 H 
ATOM    134  H30 UNL A   1      42.636  29.466  35.270  1.00  0.00    +0.000 H 
ATOM     24  C21 UNL A   1      41.791  28.926  35.640  1.00  0.00    +0.000 C 
BRANCH   24   23
ATOM    132  H28 UNL A   1      39.773  29.433  35.734  1.00  0.00    +0.000 H 
ATOM     23  N1  UNL A   1      40.667  29.843  35.732  1.00  0.00    +0.000 N 
BRANCH   23   21
ATOM     21  C20 UNL A   1      40.707  31.217  35.816  1.00  0.00    +0.000 C 
ATOM     22  O1  UNL A   1      41.491  31.701  36.609  1.00  0.00    +0.000 O 
BRANCH   21   18
ATOM     18  C17 UNL A   1      39.592  32.001  35.110  1.00  0.00    +0.000 C 
BRANCH   18   17
ATOM     17  C16 UNL A   1      39.772  32.439  33.627  1.00  0.00    +0.000 C 
ATOM    124  H20 UNL A   1      38.901  32.127  33.090  1.00  0.00    +0.000 H 
ATOM    125  H21 UNL A   1      39.920  33.498  33.664  1.00  0.00    +0.000 H 
BRANCH   17   16
ATOM      4  C4  UNL A   1      45.048  30.022  31.971  1.00  0.00    +0.000 C 
ATOM      5  C5  UNL A   1      44.212  28.945  31.663  1.00  0.00    +0.000 C 
ATOM      6  C6  UNL A   1      42.819  29.051  31.733  1.00  0.00    +0.000 C 
ATOM      7  C7  UNL A   1      42.255  30.273  32.137  1.00  0.00    +0.000 C 
ATOM      8  C8  UNL A   1      43.050  31.406  32.384  1.00  0.00    +0.000 C 
ATOM      9  C9  UNL A   1      44.460  31.262  32.285  1.00  0.00    +0.000 C 
ATOM     10  C10 UNL A   1      42.181  32.503  32.747  1.00  0.00    +0.000 C 
ATOM    112  H8  UNL A   1      44.634  28.047  31.378  1.00  0.00    +0.000 H 
ATOM    113  H9  UNL A   1      42.216  28.248  31.491  1.00  0.00    +0.000 H 
ATOM    114  H10 UNL A   1      45.065  32.083  32.447  1.00  0.00    +0.000 H 
ATOM     16  C15 UNL A   1      40.939  31.912  32.923  1.00  0.00    +0.000 C 
ATOM     96  N7  UNL A   1      40.936  30.632  32.374  1.00  0.00    +0.000 N 
BRANCH    4    2
ATOM      2  C2  UNL A   1      46.555  29.819  31.956  1.00  0.00    +0.000 C 
ATOM    108  H4  UNL A   1      46.757  29.134  31.159  1.00  0.00    +0.000 H 
BRANCH    2    1
ATOM      1  C1  UNL A   1      47.277  31.135  31.675  1.00  0.00    +0.000 C 
ATOM    106  H2  UNL A   1      46.586  31.842  31.264  1.00  0.00    +0.000 H 
ATOM    107  H3  UNL A   1      48.070  30.965  30.977  1.00  0.00    +0.000 H 
ATOM    105  H1  UNL A   1      47.681  31.523  32.587  1.00  0.00    +0.000 H 
ENDBRANCH    2    1
BRANCH    2    3
ATOM      3  C3  UNL A   1      47.093  29.163  33.233  1.00  0.00    +0.000 C 
ATOM    109  H5  UNL A   1      47.907  28.514  32.985  1.00  0.00    +0.000 H 
ATOM    110  H6  UNL A   1      46.314  28.597  33.698  1.00  0.00    +0.000 H 
ATOM    111  H7  UNL A   1      47.434  29.922  33.907  1.00  0.00    +0.000 H 
ENDBRANCH    2    3
ENDBRANCH    4    2
BRANCH   10   11
ATOM     11  S1  UNL A   1      42.835  34.122  33.135  1.00  0.00    +0.000 S 
ATOM     12  C11 UNL A   1      43.696  35.149  31.814  1.00  0.00    +0.000 C 
ATOM     13  C12 UNL A   1      45.008  34.475  31.396  1.00  0.00    +0.000 C 
ATOM     14  C13 UNL A   1      43.013  35.694  30.535  1.00  0.00    +0.000 C 
ATOM     15  C14 UNL A   1      44.001  36.474  32.567  1.00  0.00    +0.000 C 
ATOM    115  H11 UNL A   1      44.792  33.564  30.878  1.00  0.00    +0.000 H 
ATOM    116  H12 UNL A   1      45.592  34.261  32.266  1.00  0.00    +0.000 H 
ATOM    117  H13 UNL A   1      45.556  35.130  30.752  1.00  0.00    +0.000 H 
ATOM    118  H14 UNL A   1      42.739  34.877  29.900  1.00  0.00    +0.000 H 
ATOM    119  H15 UNL A   1      43.691  36.338  30.015  1.00  0.00    +0.000 H 
ATOM    120  H16 UNL A   1      42.137  36.245  30.807  1.00  0.00    +0.000 H 
ATOM    121  H17 UNL A   1      44.487  36.254  33.494  1.00  0.00    +0.000 H 
ATOM    122  H18 UNL A   1      43.086  36.995  32.758  1.00  0.00    +0.000 H 
ATOM    123  H19 UNL A   1      44.640  37.087  31.966  1.00  0.00    +0.000 H 
ENDBRANCH   10   11
BRANCH   96   97
ATOM     97  C72 UNL A   1      39.752  29.848  31.913  1.00  0.00    +0.000 C 
ATOM    161  H57 UNL A   1      40.171  29.103  31.269  1.00  0.00    +0.000 H 
ATOM    160  H56 UNL A   1      39.249  29.494  32.788  1.00  0.00    +0.000 H 
BRANCH   97   98
ATOM     98  C73 UNL A   1      38.705  30.536  31.043  1.00  0.00    +0.000 C 
ATOM     99  C74 UNL A   1      37.325  30.311  31.234  1.00  0.00    +0.000 C 
ATOM    100  C75 UNL A   1      36.378  30.736  30.294  1.00  0.00    +0.000 C 
ATOM    162  H58 UNL A   1      37.008  29.823  32.085  1.00  0.00    +0.000 H 
ATOM    165  H61 UNL A   1      40.061  31.691  29.903  1.00  0.00    +0.000 H 
ATOM    103  C77 UNL A   1      38.116  31.893  29.096  1.00  0.00    +0.000 C 
ATOM    104  C78 UNL A   1      39.074  31.406  30.003  1.00  0.00    +0.000 C 
ATOM    163  H59 UNL A   1      35.384  30.482  30.407  1.00  0.00    +0.000 H 
ATOM    164  H60 UNL A   1      38.401  32.540  28.344  1.00  0.00    +0.000 H 
ATOM    101  C76 UNL A   1      36.785  31.502  29.210  1.00  0.00    +0.000 C 
ATOM    102 Cl1  UNL A   1      35.643  31.929  27.994  1.00  0.00    +0.000 Cl
ENDBRANCH   97   98
ENDBRANCH   96   97
ENDBRANCH   17   16
ENDBRANCH   18   17
BRANCH   18   19
ATOM     19  C18 UNL A   1      39.629  33.232  36.062  1.00  0.00    +0.000 C 
ATOM    126  H22 UNL A   1      39.405  34.119  35.506  1.00  0.00    +0.000 H 
ATOM    127  H23 UNL A   1      40.604  33.319  36.494  1.00  0.00    +0.000 H 
ATOM    128  H24 UNL A   1      38.905  33.104  36.838  1.00  0.00    +0.000 H 
ENDBRANCH   18   19
BRANCH   18   20
ATOM    129  H25 UNL A   1      37.596  31.542  34.402  1.00  0.00    +0.000 H 
ATOM    130  H26 UNL A   1      37.963  30.856  35.967  1.00  0.00    +0.000 H 
ATOM    131  H27 UNL A   1      38.638  30.145  34.521  1.00  0.00    +0.000 H 
ATOM     20  C19 UNL A   1      38.350  31.061  34.991  1.00  0.00    +0.000 C 
ENDBRANCH   18   20
ENDBRANCH   21   18
ENDBRANCH   23   21
ENDBRANCH   24   23
ENDBRANCH   25   24
ENDBRANCH   26   25
ENDBRANCH   27   26
ENDBRANCH   28   27
ENDBRANCH   29   28
ENDBRANCH   30   29
ENDBRANCH   31   30
ENDBRANCH   33   31
ENDBRANCH   37   36
BRANCH   41   42
ATOM     42  C36 UNL A   1      48.842  28.391  27.204  1.00  0.00    +0.000 C 
ATOM     43  C37 UNL A   1      49.008  27.220  26.439  1.00  0.00    +0.000 C 
ATOM     44  F1  UNL A   1      48.036  26.296  26.388  1.00  0.00    +0.000 F 
ATOM     45  C38 UNL A   1      50.208  26.934  25.781  1.00  0.00    +0.000 C 
ATOM     46  F2  UNL A   1      50.360  25.761  25.151  1.00  0.00    +0.000 F 
ATOM     47  C39 UNL A   1      51.265  27.826  25.825  1.00  0.00    +0.000 C 
ATOM     48  F3  UNL A   1      52.430  27.533  25.234  1.00  0.00    +0.000 F 
ATOM     49  C40 UNL A   1      51.126  29.002  26.530  1.00  0.00    +0.000 C 
ATOM     50  F4  UNL A   1      52.149  29.865  26.612  1.00  0.00    +0.000 F 
ATOM     51  C41 UNL A   1      49.950  29.266  27.230  1.00  0.00    +0.000 C 
ATOM     52  F5  UNL A   1      49.981  30.346  28.020  1.00  0.00    +0.000 F 
ENDBRANCH   41   42
BRANCH   58   59
ATOM     65  F8  UNL A   1      38.048  28.521  28.497  1.00  0.00    +0.000 F 
ATOM     66  C51 UNL A   1      40.245  27.727  28.838  1.00  0.00    +0.000 C 
ATOM     67  F9  UNL A   1      39.869  27.132  29.978  1.00  0.00    +0.000 F 
ATOM     68  C52 UNL A   1      41.563  27.618  28.405  1.00  0.00    +0.000 C 
ATOM     69  F10 UNL A   1      42.430  26.920  29.154  1.00  0.00    +0.000 F 
ATOM     59  C47 UNL A   1      41.978  28.174  27.186  1.00  0.00    +0.000 C 
ATOM     60  C48 UNL A   1      41.014  28.851  26.420  1.00  0.00    +0.000 C 
ATOM     61  F6  UNL A   1      41.314  29.332  25.205  1.00  0.00    +0.000 F 
ATOM     62  C49 UNL A   1      39.703  28.995  26.876  1.00  0.00    +0.000 C 
ATOM     63  F7  UNL A   1      38.801  29.655  26.135  1.00  0.00    +0.000 F 
ATOM     64  C50 UNL A   1      39.318  28.424  28.080  1.00  0.00    +0.000 C 
ENDBRANCH   58   59
BRANCH   73   74
ATOM     74  C56 UNL A   1      43.046  22.022  26.230  1.00  0.00    +0.000 C 
ATOM     75  C57 UNL A   1      44.215  21.319  25.889  1.00  0.00    +0.000 C 
ATOM     76  F11 UNL A   1      45.405  21.936  25.919  1.00  0.00    +0.000 F 
ATOM     77  C58 UNL A   1      44.190  19.952  25.593  1.00  0.00    +0.000 C 
ATOM     78  F12 UNL A   1      45.334  19.299  25.348  1.00  0.00    +0.000 F 
ATOM     79  C59 UNL A   1      42.994  19.252  25.620  1.00  0.00    +0.000 C 
ATOM     80  F13 UNL A   1      42.978  17.930  25.410  1.00  0.00    +0.000 F 
ATOM     81  C60 UNL A   1      41.821  19.924  25.912  1.00  0.00    +0.000 C 
ATOM     82  F14 UNL A   1      40.663  19.251  25.975  1.00  0.00    +0.000 F 
ATOM     83  C61 UNL A   1      41.846  21.287  26.212  1.00  0.00    +0.000 C 
ATOM     84  F15 UNL A   1      40.688  21.850  26.583  1.00  0.00    +0.000 F 
ENDBRANCH   73   74
TORSDOF 25
ENDMDL
MODEL 6
REMARK VINA RESULT:      -8.0     39.873     45.632
ROOT
ATOM    148  H44 UNL A   1       6.146  29.863  -5.340  1.00  0.00    +0.000 H 
ATOM    149  H45 UNL A   1       8.487  28.638  -5.623  1.00  0.00    +0.000 H 
ATOM    150  H46 UNL A   1       9.133  32.571  -4.837  1.00  0.00    +0.000 H 
ATOM    151  H47 UNL A   1      12.705  29.648   1.668  1.00  0.00    +0.000 H 
ATOM    152  H48 UNL A   1      10.345  28.722   1.916  1.00  0.00    +0.000 H 
ATOM    153  H49 UNL A   1      10.368  31.100  -1.491  1.00  0.00    +0.000 H 
ATOM    154  H50 UNL A   1      12.033  33.875  -1.891  1.00  0.00    +0.000 H 
ATOM    155  H51 UNL A   1      10.622  33.230  -3.949  1.00  0.00    +0.000 H 
ATOM    156  H52 UNL A   1       5.292  33.051  -1.168  1.00  0.00    +0.000 H 
ATOM    157  H53 UNL A   1       6.526  32.118   0.887  1.00  0.00    +0.000 H 
ATOM     37  C32 UNL A   1       8.422  30.068   0.223  1.00  0.00    +0.000 C 
ATOM     38  C33 UNL A   1       7.618  30.918  -0.703  1.00  0.00    +0.000 C 
ATOM     39  N3  UNL A   1       7.532  30.832  -1.992  1.00  0.00    +0.000 N 
ATOM     40  C34 UNL A   1       6.684  31.865  -2.385  1.00  0.00    +0.000 C 
ATOM     41  C35 UNL A   1       6.717  32.371  -3.648  1.00  0.00    +0.000 C 
ATOM     53  C42 UNL A   1       7.365  31.473  -4.561  1.00  0.00    +0.000 C 
ATOM     54  C43 UNL A   1       7.077  30.239  -5.103  1.00  0.00    +0.000 C 
ATOM     55  C44 UNL A   1       8.339  29.596  -5.269  1.00  0.00    +0.000 C 
ATOM     56  C45 UNL A   1       9.339  30.483  -4.867  1.00  0.00    +0.000 C 
ATOM     57  N4  UNL A   1       8.701  31.689  -4.769  1.00  0.00    +0.000 N 
ATOM     58  C46 UNL A   1      10.712  30.284  -4.459  1.00  0.00    +0.000 C 
ATOM     70  C53 UNL A   1      11.474  31.200  -3.794  1.00  0.00    +0.000 C 
ATOM     71  N5  UNL A   1      12.528  30.785  -2.997  1.00  0.00    +0.000 N 
ATOM     72  C54 UNL A   1      12.616  31.697  -2.069  1.00  0.00    +0.000 C 
ATOM     73  C55 UNL A   1      12.976  31.405  -0.662  1.00  0.00    +0.000 C 
ATOM     85  C62 UNL A   1      11.957  30.680  -0.140  1.00  0.00    +0.000 C 
ATOM     86  C63 UNL A   1      11.908  29.857   1.047  1.00  0.00    +0.000 C 
ATOM     87  C64 UNL A   1      10.647  29.406   1.206  1.00  0.00    +0.000 C 
ATOM     88  C65 UNL A   1       9.771  30.038   0.216  1.00  0.00    +0.000 C 
ATOM     89  N6  UNL A   1      10.637  30.686  -0.640  1.00  0.00    +0.000 N 
ATOM     90  C66 UNL A   1      11.965  32.961  -2.366  1.00  0.00    +0.000 C 
ATOM     91  C67 UNL A   1      11.254  32.597  -3.435  1.00  0.00    +0.000 C 
ATOM     92  C68 UNL A   1       6.079  32.385  -1.188  1.00  0.00    +0.000 C 
ATOM     93  C69 UNL A   1       6.679  31.886  -0.107  1.00  0.00    +0.000 C 
ENDROOT
BRANCH   37   36
ATOM     33  C28 UNL A   1       6.030  27.977   3.042  1.00  0.00    +0.000 C 
ATOM     34  C29 UNL A   1       6.007  27.638   1.688  1.00  0.00    +0.000 C 
ATOM     35  C30 UNL A   1       6.815  28.309   0.781  1.00  0.00    +0.000 C 
ATOM     36  C31 UNL A   1       7.628  29.355   1.218  1.00  0.00    +0.000 C 
ATOM    146  H42 UNL A   1       5.383  26.884   1.359  1.00  0.00    +0.000 H 
ATOM    147  H43 UNL A   1       6.815  28.033  -0.214  1.00  0.00    +0.000 H 
ATOM    158  H54 UNL A   1       8.120  30.606   2.843  1.00  0.00    +0.000 H 
ATOM    159  H55 UNL A   1       6.781  29.377   4.436  1.00  0.00    +0.000 H 
ATOM     94  C70 UNL A   1       7.580  29.781   2.540  1.00  0.00    +0.000 C 
ATOM     95  C71 UNL A   1       6.798  29.082   3.447  1.00  0.00    +0.000 C 
BRANCH   33   31
ATOM     31  C27 UNL A   1       5.331  27.253   4.133  1.00  0.00    +0.000 C 
ATOM     32  O2  UNL A   1       4.929  27.891   5.109  1.00  0.00    +0.000 O 
BRANCH   31   30
ATOM    145  H41 UNL A   1       4.175  25.666   4.182  1.00  0.00    +0.000 H 
ATOM     30  N2  UNL A   1       5.130  25.906   4.172  1.00  0.00    +0.000 N 
BRANCH   30   29
ATOM     29  C26 UNL A   1       5.997  24.751   4.200  1.00  0.00    +0.000 C 
ATOM    143  H39 UNL A   1       6.934  25.036   4.632  1.00  0.00    +0.000 H 
ATOM    144  H40 UNL A   1       5.508  23.994   4.776  1.00  0.00    +0.000 H 
BRANCH   29   28
ATOM     28  C25 UNL A   1       6.259  24.171   2.809  1.00  0.00    +0.000 C 
ATOM    141  H37 UNL A   1       5.397  24.348   2.200  1.00  0.00    +0.000 H 
ATOM    142  H38 UNL A   1       7.131  24.655   2.422  1.00  0.00    +0.000 H 
BRANCH   28   27
ATOM     27  C24 UNL A   1       6.544  22.662   2.824  1.00  0.00    +0.000 C 
ATOM    140  H36 UNL A   1       5.904  22.226   2.086  1.00  0.00    +0.000 H 
ATOM    139  H35 UNL A   1       6.356  22.298   3.812  1.00  0.00    +0.000 H 
BRANCH   27   26
ATOM    137  H33 UNL A   1       8.049  21.212   2.409  1.00  0.00    +0.000 H 
ATOM     26  C23 UNL A   1       7.980  22.278   2.437  1.00  0.00    +0.000 C 
ATOM    138  H34 UNL A   1       8.177  22.723   1.484  1.00  0.00    +0.000 H 
BRANCH   26   25
ATOM     25  C22 UNL A   1       9.029  22.804   3.402  1.00  0.00    +0.000 C 
ATOM    135  H31 UNL A   1       9.756  23.370   2.858  1.00  0.00    +0.000 H 
ATOM    136  H32 UNL A   1       8.549  23.425   4.131  1.00  0.00    +0.000 H 
BRANCH   25   24
ATOM    133  H29 UNL A   1       9.525  21.741   5.160  1.00  0.00    +0.000 H 
ATOM    134  H30 UNL A   1       9.330  20.746   3.720  1.00  0.00    +0.000 H 
ATOM     24  C21 UNL A   1       9.715  21.664   4.110  1.00  0.00    +0.000 C 
BRANCH   24   23
ATOM    132  H28 UNL A   1      11.707  21.895   4.672  1.00  0.00    +0.000 H 
ATOM     23  N1  UNL A   1      11.150  21.689   3.887  1.00  0.00    +0.000 N 
BRANCH   23   21
ATOM     21  C20 UNL A   1      11.823  21.457   2.708  1.00  0.00    +0.000 C 
ATOM     22  O1  UNL A   1      11.378  20.595   1.976  1.00  0.00    +0.000 O 
BRANCH   21   18
ATOM     18  C17 UNL A   1      13.203  22.107   2.543  1.00  0.00    +0.000 C 
BRANCH   18   17
ATOM     17  C16 UNL A   1      13.351  23.411   1.706  1.00  0.00    +0.000 C 
ATOM    124  H20 UNL A   1      13.531  24.216   2.389  1.00  0.00    +0.000 H 
ATOM    125  H21 UNL A   1      14.152  23.217   1.023  1.00  0.00    +0.000 H 
BRANCH   17   16
ATOM      4  C4  UNL A   1       8.079  23.873  -1.192  1.00  0.00    +0.000 C 
ATOM      5  C5  UNL A   1       7.905  24.905  -0.266  1.00  0.00    +0.000 C 
ATOM      6  C6  UNL A   1       8.941  25.317   0.579  1.00  0.00    +0.000 C 
ATOM      7  C7  UNL A   1      10.181  24.660   0.495  1.00  0.00    +0.000 C 
ATOM      8  C8  UNL A   1      10.427  23.669  -0.470  1.00  0.00    +0.000 C 
ATOM      9  C9  UNL A   1       9.354  23.292  -1.322  1.00  0.00    +0.000 C 
ATOM     10  C10 UNL A   1      11.791  23.214  -0.320  1.00  0.00    +0.000 C 
ATOM    112  H8  UNL A   1       6.988  25.375  -0.203  1.00  0.00    +0.000 H 
ATOM    113  H9  UNL A   1       8.799  26.089   1.250  1.00  0.00    +0.000 H 
ATOM    114  H10 UNL A   1       9.513  22.577  -2.050  1.00  0.00    +0.000 H 
ATOM     16  C15 UNL A   1      12.214  23.787   0.870  1.00  0.00    +0.000 C 
ATOM     96  N7  UNL A   1      11.336  24.797   1.253  1.00  0.00    +0.000 N 
BRANCH    4    2
ATOM      2  C2  UNL A   1       6.890  23.417  -2.025  1.00  0.00    +0.000 C 
ATOM    108  H4  UNL A   1       7.164  22.471  -2.445  1.00  0.00    +0.000 H 
BRANCH    2    1
ATOM      1  C1  UNL A   1       5.653  23.233  -1.149  1.00  0.00    +0.000 C 
ATOM    106  H2  UNL A   1       4.947  22.606  -1.654  1.00  0.00    +0.000 H 
ATOM    107  H3  UNL A   1       5.208  24.186  -0.955  1.00  0.00    +0.000 H 
ATOM    105  H1  UNL A   1       5.935  22.775  -0.223  1.00  0.00    +0.000 H 
ENDBRANCH    2    1
BRANCH    2    3
ATOM      3  C3  UNL A   1       6.588  24.342  -3.210  1.00  0.00    +0.000 C 
ATOM    109  H5  UNL A   1       6.747  25.359  -2.917  1.00  0.00    +0.000 H 
ATOM    110  H6  UNL A   1       5.570  24.212  -3.512  1.00  0.00    +0.000 H 
ATOM    111  H7  UNL A   1       7.237  24.100  -4.025  1.00  0.00    +0.000 H 
ENDBRANCH    2    3
ENDBRANCH    4    2
BRANCH   10   11
ATOM     11  S1  UNL A   1      12.473  21.947  -1.383  1.00  0.00    +0.000 S 
ATOM     12  C11 UNL A   1      14.205  22.127  -2.097  1.00  0.00    +0.000 C 
ATOM     13  C12 UNL A   1      14.245  23.293  -3.091  1.00  0.00    +0.000 C 
ATOM     14  C13 UNL A   1      15.506  22.171  -1.258  1.00  0.00    +0.000 C 
ATOM     15  C14 UNL A   1      14.394  20.782  -2.855  1.00  0.00    +0.000 C 
ATOM    115  H11 UNL A   1      14.114  24.215  -2.564  1.00  0.00    +0.000 H 
ATOM    116  H12 UNL A   1      13.461  23.178  -3.809  1.00  0.00    +0.000 H 
ATOM    117  H13 UNL A   1      15.190  23.300  -3.594  1.00  0.00    +0.000 H 
ATOM    118  H14 UNL A   1      15.520  23.064  -0.668  1.00  0.00    +0.000 H 
ATOM    119  H15 UNL A   1      16.353  22.162  -1.912  1.00  0.00    +0.000 H 
ATOM    120  H16 UNL A   1      15.543  21.317  -0.614  1.00  0.00    +0.000 H 
ATOM    121  H17 UNL A   1      13.552  20.610  -3.492  1.00  0.00    +0.000 H 
ATOM    122  H18 UNL A   1      14.476  19.983  -2.148  1.00  0.00    +0.000 H 
ATOM    123  H19 UNL A   1      15.285  20.828  -3.446  1.00  0.00    +0.000 H 
ENDBRANCH   10   11
BRANCH   96   97
ATOM     97  C72 UNL A   1      11.625  25.957   2.149  1.00  0.00    +0.000 C 
ATOM    161  H57 UNL A   1      12.659  25.841   2.395  1.00  0.00    +0.000 H 
ATOM    160  H56 UNL A   1      11.359  26.843   1.611  1.00  0.00    +0.000 H 
BRANCH   97   98
ATOM     98  C73 UNL A   1      10.931  26.032   3.505  1.00  0.00    +0.000 C 
ATOM     99  C74 UNL A   1      11.350  25.236   4.591  1.00  0.00    +0.000 C 
ATOM    100  C75 UNL A   1      10.574  25.114   5.751  1.00  0.00    +0.000 C 
ATOM    162  H58 UNL A   1      12.248  24.733   4.531  1.00  0.00    +0.000 H 
ATOM    165  H61 UNL A   1       9.568  27.565   2.992  1.00  0.00    +0.000 H 
ATOM    103  C77 UNL A   1       9.090  26.814   4.911  1.00  0.00    +0.000 C 
ATOM    104  C78 UNL A   1       9.833  26.882   3.719  1.00  0.00    +0.000 C 
ATOM    163  H59 UNL A   1      10.853  24.457   6.496  1.00  0.00    +0.000 H 
ATOM    164  H60 UNL A   1       8.293  27.453   5.058  1.00  0.00    +0.000 H 
ATOM    101  C76 UNL A   1       9.427  25.884   5.892  1.00  0.00    +0.000 C 
ATOM    102 Cl1  UNL A   1       8.411  25.656   7.262  1.00  0.00    +0.000 Cl
ENDBRANCH   97   98
ENDBRANCH   96   97
ENDBRANCH   17   16
ENDBRANCH   18   17
BRANCH   18   19
ATOM     19  C18 UNL A   1      13.867  20.902   1.815  1.00  0.00    +0.000 C 
ATOM    126  H22 UNL A   1      13.366  19.998   2.095  1.00  0.00    +0.000 H 
ATOM    127  H23 UNL A   1      14.898  20.839   2.096  1.00  0.00    +0.000 H 
ATOM    128  H24 UNL A   1      13.792  21.039   0.757  1.00  0.00    +0.000 H 
ENDBRANCH   18   19
BRANCH   18   20
ATOM    129  H25 UNL A   1      12.902  22.407   4.669  1.00  0.00    +0.000 H 
ATOM    130  H26 UNL A   1      13.857  23.657   3.910  1.00  0.00    +0.000 H 
ATOM    131  H27 UNL A   1      14.563  22.093   4.231  1.00  0.00    +0.000 H 
ATOM     20  C19 UNL A   1      13.668  22.605   3.949  1.00  0.00    +0.000 C 
ENDBRANCH   18   20
ENDBRANCH   21   18
ENDBRANCH   23   21
ENDBRANCH   24   23
ENDBRANCH   25   24
ENDBRANCH   26   25
ENDBRANCH   27   26
ENDBRANCH   28   27
ENDBRANCH   29   28
ENDBRANCH   30   29
ENDBRANCH   31   30
ENDBRANCH   33   31
ENDBRANCH   37   36
BRANCH   41   42
ATOM     42  C36 UNL A   1       6.541  33.837  -3.962  1.00  0.00    +0.000 C 
ATOM     43  C37 UNL A   1       5.475  34.257  -4.780  1.00  0.00    +0.000 C 
ATOM     44  F1  UNL A   1       4.485  33.409  -5.099  1.00  0.00    +0.000 F 
ATOM     45  C38 UNL A   1       5.447  35.531  -5.357  1.00  0.00    +0.000 C 
ATOM     46  F2  UNL A   1       4.467  35.853  -6.213  1.00  0.00    +0.000 F 
ATOM     47  C39 UNL A   1       6.455  36.442  -5.101  1.00  0.00    +0.000 C 
ATOM     48  F3  UNL A   1       6.454  37.645  -5.690  1.00  0.00    +0.000 F 
ATOM     49  C40 UNL A   1       7.496  36.082  -4.273  1.00  0.00    +0.000 C 
ATOM     50  F4  UNL A   1       8.500  36.938  -4.038  1.00  0.00    +0.000 F 
ATOM     51  C41 UNL A   1       7.554  34.796  -3.737  1.00  0.00    +0.000 C 
ATOM     52  F5  UNL A   1       8.686  34.492  -3.092  1.00  0.00    +0.000 F 
ENDBRANCH   41   42
BRANCH   58   59
ATOM     65  F8  UNL A   1      12.587  25.023  -5.339  1.00  0.00    +0.000 F 
ATOM     66  C51 UNL A   1      12.351  27.263  -6.043  1.00  0.00    +0.000 C 
ATOM     67  F9  UNL A   1      12.916  26.968  -7.222  1.00  0.00    +0.000 F 
ATOM     68  C52 UNL A   1      11.917  28.561  -5.792  1.00  0.00    +0.000 C 
ATOM     69  F10 UNL A   1      12.087  29.491  -6.744  1.00  0.00    +0.000 F 
ATOM     59  C47 UNL A   1      11.266  28.893  -4.596  1.00  0.00    +0.000 C 
ATOM     60  C48 UNL A   1      11.071  27.867  -3.656  1.00  0.00    +0.000 C 
ATOM     61  F6  UNL A   1      10.379  28.087  -2.529  1.00  0.00    +0.000 F 
ATOM     62  C49 UNL A   1      11.544  26.575  -3.893  1.00  0.00    +0.000 C 
ATOM     63  F7  UNL A   1      11.359  25.613  -2.978  1.00  0.00    +0.000 F 
ATOM     64  C50 UNL A   1      12.174  26.273  -5.091  1.00  0.00    +0.000 C 
ENDBRANCH   58   59
BRANCH   73   74
ATOM     74  C56 UNL A   1      14.038  32.156   0.049  1.00  0.00    +0.000 C 
ATOM     75  C57 UNL A   1      13.710  33.214   0.917  1.00  0.00    +0.000 C 
ATOM     76  F11 UNL A   1      12.469  33.722   0.920  1.00  0.00    +0.000 F 
ATOM     77  C58 UNL A   1      14.626  33.708   1.851  1.00  0.00    +0.000 C 
ATOM     78  F12 UNL A   1      14.253  34.664   2.713  1.00  0.00    +0.000 F 
ATOM     79  C59 UNL A   1      15.899  33.167   1.937  1.00  0.00    +0.000 C 
ATOM     80  F13 UNL A   1      16.753  33.588   2.878  1.00  0.00    +0.000 F 
ATOM     81  C60 UNL A   1      16.266  32.154   1.069  1.00  0.00    +0.000 C 
ATOM     82  F14 UNL A   1      17.482  31.598   1.166  1.00  0.00    +0.000 F 
ATOM     83  C61 UNL A   1      15.350  31.656   0.141  1.00  0.00    +0.000 C 
ATOM     84  F15 UNL A   1      15.741  30.608  -0.599  1.00  0.00    +0.000 F 
ENDBRANCH   73   74
TORSDOF 25
ENDMDL
MODEL 7
REMARK VINA RESULT:      -7.9     35.880     43.244
ROOT
ATOM    148  H44 UNL A   1      24.847  21.004   8.967  1.00  0.00    +0.000 H 
ATOM    149  H45 UNL A   1      26.203  20.063   6.885  1.00  0.00    +0.000 H 
ATOM    150  H46 UNL A   1      25.356  16.998   9.413  1.00  0.00    +0.000 H 
ATOM    151  H47 UNL A   1      21.266  14.275   3.130  1.00  0.00    +0.000 H 
ATOM    152  H48 UNL A   1      20.156  16.533   3.528  1.00  0.00    +0.000 H 
ATOM    153  H49 UNL A   1      22.999  16.030   6.517  1.00  0.00    +0.000 H 
ATOM    154  H50 UNL A   1      23.766  13.224   7.991  1.00  0.00    +0.000 H 
ATOM    155  H51 UNL A   1      25.105  15.240   8.879  1.00  0.00    +0.000 H 
ATOM    156  H52 UNL A   1      20.394  18.575  10.569  1.00  0.00    +0.000 H 
ATOM    157  H53 UNL A   1      19.147  17.641   8.522  1.00  0.00    +0.000 H 
ATOM     37  C32 UNL A   1      20.747  17.635   6.139  1.00  0.00    +0.000 C 
ATOM     38  C33 UNL A   1      21.161  17.983   7.529  1.00  0.00    +0.000 C 
ATOM     39  N3  UNL A   1      22.299  18.456   7.927  1.00  0.00    +0.000 N 
ATOM     40  C34 UNL A   1      22.195  18.581   9.311  1.00  0.00    +0.000 C 
ATOM     41  C35 UNL A   1      23.297  18.600  10.108  1.00  0.00    +0.000 C 
ATOM     53  C42 UNL A   1      24.485  18.907   9.362  1.00  0.00    +0.000 C 
ATOM     54  C43 UNL A   1      24.982  20.015   8.710  1.00  0.00    +0.000 C 
ATOM     55  C44 UNL A   1      25.722  19.501   7.604  1.00  0.00    +0.000 C 
ATOM     56  C45 UNL A   1      25.684  18.107   7.662  1.00  0.00    +0.000 C 
ATOM     57  N4  UNL A   1      25.206  17.833   8.915  1.00  0.00    +0.000 N 
ATOM     58  C46 UNL A   1      25.907  17.084   6.665  1.00  0.00    +0.000 C 
ATOM     70  C53 UNL A   1      25.529  15.777   6.781  1.00  0.00    +0.000 C 
ATOM     71  N5  UNL A   1      25.290  15.016   5.649  1.00  0.00    +0.000 N 
ATOM     72  C54 UNL A   1      24.394  14.145   6.023  1.00  0.00    +0.000 C 
ATOM     73  C55 UNL A   1      23.303  13.661   5.146  1.00  0.00    +0.000 C 
ATOM     85  C62 UNL A   1      22.482  14.717   4.925  1.00  0.00    +0.000 C 
ATOM     86  C63 UNL A   1      21.474  14.920   3.909  1.00  0.00    +0.000 C 
ATOM     87  C64 UNL A   1      20.853  16.091   4.148  1.00  0.00    +0.000 C 
ATOM     88  C65 UNL A   1      21.317  16.643   5.423  1.00  0.00    +0.000 C 
ATOM     89  N6  UNL A   1      22.384  15.841   5.772  1.00  0.00    +0.000 N 
ATOM     90  C66 UNL A   1      24.262  13.956   7.457  1.00  0.00    +0.000 C 
ATOM     91  C67 UNL A   1      24.969  15.004   7.884  1.00  0.00    +0.000 C 
ATOM     92  C68 UNL A   1      20.808  18.390   9.642  1.00  0.00    +0.000 C 
ATOM     93  C69 UNL A   1      20.133  17.941   8.584  1.00  0.00    +0.000 C 
ENDROOT
BRANCH   37   36
ATOM     33  C28 UNL A   1      17.341  19.719   4.691  1.00  0.00    +0.000 C 
ATOM     34  C29 UNL A   1      17.247  18.390   5.106  1.00  0.00    +0.000 C 
ATOM     35  C30 UNL A   1      18.360  17.729   5.606  1.00  0.00    +0.000 C 
ATOM     36  C31 UNL A   1      19.591  18.383   5.657  1.00  0.00    +0.000 C 
ATOM    146  H42 UNL A   1      16.344  17.895   5.040  1.00  0.00    +0.000 H 
ATOM    147  H43 UNL A   1      18.277  16.755   5.939  1.00  0.00    +0.000 H 
ATOM    158  H54 UNL A   1      20.655  20.120   5.108  1.00  0.00    +0.000 H 
ATOM    159  H55 UNL A   1      18.697  21.299   4.325  1.00  0.00    +0.000 H 
ATOM     94  C70 UNL A   1      19.728  19.668   5.144  1.00  0.00    +0.000 C 
ATOM     95  C71 UNL A   1      18.604  20.335   4.682  1.00  0.00    +0.000 C 
BRANCH   33   31
ATOM     31  C27 UNL A   1      16.208  20.584   4.276  1.00  0.00    +0.000 C 
ATOM     32  O2  UNL A   1      15.557  21.171   5.144  1.00  0.00    +0.000 O 
BRANCH   31   30
ATOM    145  H41 UNL A   1      16.059  20.015   2.402  1.00  0.00    +0.000 H 
ATOM     30  N2  UNL A   1      15.788  20.756   2.991  1.00  0.00    +0.000 N 
BRANCH   30   29
ATOM     29  C26 UNL A   1      15.036  21.775   2.297  1.00  0.00    +0.000 C 
ATOM    143  H39 UNL A   1      14.213  21.311   1.794  1.00  0.00    +0.000 H 
ATOM    144  H40 UNL A   1      14.706  22.486   3.027  1.00  0.00    +0.000 H 
BRANCH   29   28
ATOM     28  C25 UNL A   1      15.874  22.532   1.265  1.00  0.00    +0.000 C 
ATOM    141  H37 UNL A   1      15.975  21.919   0.395  1.00  0.00    +0.000 H 
ATOM    142  H38 UNL A   1      15.365  23.450   1.055  1.00  0.00    +0.000 H 
BRANCH   28   27
ATOM     27  C24 UNL A   1      17.277  22.896   1.772  1.00  0.00    +0.000 C 
ATOM    140  H36 UNL A   1      17.393  22.410   2.719  1.00  0.00    +0.000 H 
ATOM    139  H35 UNL A   1      17.342  23.962   1.836  1.00  0.00    +0.000 H 
BRANCH   27   26
ATOM    137  H33 UNL A   1      18.102  22.419  -0.134  1.00  0.00    +0.000 H 
ATOM     26  C23 UNL A   1      18.427  22.398   0.884  1.00  0.00    +0.000 C 
ATOM    138  H34 UNL A   1      19.261  23.044   1.058  1.00  0.00    +0.000 H 
BRANCH   26   25
ATOM     25  C22 UNL A   1      18.880  20.985   1.215  1.00  0.00    +0.000 C 
ATOM    135  H31 UNL A   1      18.327  20.627   2.058  1.00  0.00    +0.000 H 
ATOM    136  H32 UNL A   1      18.705  20.358   0.366  1.00  0.00    +0.000 H 
BRANCH   25   24
ATOM    133  H29 UNL A   1      20.526  20.244   2.313  1.00  0.00    +0.000 H 
ATOM    134  H30 UNL A   1      20.889  20.711   0.654  1.00  0.00    +0.000 H 
ATOM     24  C21 UNL A   1      20.351  20.965   1.542  1.00  0.00    +0.000 C 
BRANCH   24   23
ATOM    132  H28 UNL A   1      20.179  22.778   2.553  1.00  0.00    +0.000 H 
ATOM     23  N1  UNL A   1      20.810  22.265   1.999  1.00  0.00    +0.000 N 
BRANCH   23   21
ATOM     21  C20 UNL A   1      22.025  22.864   1.749  1.00  0.00    +0.000 C 
ATOM     22  O1  UNL A   1      23.005  22.146   1.739  1.00  0.00    +0.000 O 
BRANCH   21   18
ATOM     18  C17 UNL A   1      22.074  24.398   1.769  1.00  0.00    +0.000 C 
BRANCH   18   17
ATOM     17  C16 UNL A   1      22.167  25.188   0.431  1.00  0.00    +0.000 C 
ATOM    124  H20 UNL A   1      22.110  26.230   0.666  1.00  0.00    +0.000 H 
ATOM    125  H21 UNL A   1      23.089  24.879  -0.014  1.00  0.00    +0.000 H 
BRANCH   17   16
ATOM      4  C4  UNL A   1      17.504  23.120  -2.793  1.00  0.00    +0.000 C 
ATOM      5  C5  UNL A   1      16.965  24.349  -2.401  1.00  0.00    +0.000 C 
ATOM      6  C6  UNL A   1      17.731  25.307  -1.728  1.00  0.00    +0.000 C 
ATOM      7  C7  UNL A   1      19.073  25.011  -1.433  1.00  0.00    +0.000 C 
ATOM      8  C8  UNL A   1      19.680  23.822  -1.873  1.00  0.00    +0.000 C 
ATOM      9  C9  UNL A   1      18.873  22.883  -2.569  1.00  0.00    +0.000 C 
ATOM     10  C10 UNL A   1      21.060  23.828  -1.441  1.00  0.00    +0.000 C 
ATOM    112  H8  UNL A   1      15.975  24.554  -2.611  1.00  0.00    +0.000 H 
ATOM    113  H9  UNL A   1      17.320  26.214  -1.455  1.00  0.00    +0.000 H 
ATOM    114  H10 UNL A   1      19.298  22.009  -2.916  1.00  0.00    +0.000 H 
ATOM     16  C15 UNL A   1      21.142  24.905  -0.572  1.00  0.00    +0.000 C 
ATOM     96  N7  UNL A   1      20.024  25.722  -0.715  1.00  0.00    +0.000 N 
BRANCH    4    2
ATOM      2  C2  UNL A   1      16.597  22.089  -3.448  1.00  0.00    +0.000 C 
ATOM    108  H4  UNL A   1      17.195  21.586  -4.179  1.00  0.00    +0.000 H 
BRANCH    2    1
ATOM      1  C1  UNL A   1      16.105  21.070  -2.422  1.00  0.00    +0.000 C 
ATOM    106  H2  UNL A   1      15.375  20.431  -2.874  1.00  0.00    +0.000 H 
ATOM    107  H3  UNL A   1      15.666  21.582  -1.592  1.00  0.00    +0.000 H 
ATOM    105  H1  UNL A   1      16.931  20.480  -2.080  1.00  0.00    +0.000 H 
ENDBRANCH    2    1
BRANCH    2    3
ATOM      3  C3  UNL A   1      15.420  22.710  -4.208  1.00  0.00    +0.000 C 
ATOM    109  H5  UNL A   1      14.500  22.395  -3.759  1.00  0.00    +0.000 H 
ATOM    110  H6  UNL A   1      15.447  22.392  -5.228  1.00  0.00    +0.000 H 
ATOM    111  H7  UNL A   1      15.490  23.777  -4.164  1.00  0.00    +0.000 H 
ENDBRANCH    2    3
ENDBRANCH    4    2
BRANCH   10   11
ATOM     11  S1  UNL A   1      22.160  22.469  -1.820  1.00  0.00    +0.000 S 
ATOM     12  C11 UNL A   1      22.882  22.273  -3.546  1.00  0.00    +0.000 C 
ATOM     13  C12 UNL A   1      21.770  21.941  -4.547  1.00  0.00    +0.000 C 
ATOM     14  C13 UNL A   1      23.843  23.284  -4.221  1.00  0.00    +0.000 C 
ATOM     15  C14 UNL A   1      23.823  21.047  -3.377  1.00  0.00    +0.000 C 
ATOM    115  H11 UNL A   1      21.126  22.789  -4.659  1.00  0.00    +0.000 H 
ATOM    116  H12 UNL A   1      21.203  21.108  -4.188  1.00  0.00    +0.000 H 
ATOM    117  H13 UNL A   1      22.204  21.695  -5.493  1.00  0.00    +0.000 H 
ATOM    118  H14 UNL A   1      23.325  24.201  -4.404  1.00  0.00    +0.000 H 
ATOM    119  H15 UNL A   1      24.193  22.879  -5.148  1.00  0.00    +0.000 H 
ATOM    120  H16 UNL A   1      24.677  23.467  -3.575  1.00  0.00    +0.000 H 
ATOM    121  H17 UNL A   1      23.286  20.247  -2.913  1.00  0.00    +0.000 H 
ATOM    122  H18 UNL A   1      24.658  21.319  -2.766  1.00  0.00    +0.000 H 
ATOM    123  H19 UNL A   1      24.173  20.731  -4.338  1.00  0.00    +0.000 H 
ENDBRANCH   10   11
BRANCH   96   97
ATOM     97  C72 UNL A   1      19.911  27.170  -0.368  1.00  0.00    +0.000 C 
ATOM    161  H57 UNL A   1      19.077  27.510  -0.945  1.00  0.00    +0.000 H 
ATOM    160  H56 UNL A   1      19.811  27.230   0.696  1.00  0.00    +0.000 H 
BRANCH   97   98
ATOM     98  C73 UNL A   1      21.040  28.115  -0.764  1.00  0.00    +0.000 C 
ATOM     99  C74 UNL A   1      21.432  28.270  -2.111  1.00  0.00    +0.000 C 
ATOM    100  C75 UNL A   1      22.615  28.935  -2.457  1.00  0.00    +0.000 C 
ATOM    162  H58 UNL A   1      20.832  27.886  -2.857  1.00  0.00    +0.000 H 
ATOM    165  H61 UNL A   1      21.423  28.860   1.177  1.00  0.00    +0.000 H 
ATOM    103  C77 UNL A   1      22.901  29.578  -0.154  1.00  0.00    +0.000 C 
ATOM    104  C78 UNL A   1      21.750  28.852   0.199  1.00  0.00    +0.000 C 
ATOM    163  H59 UNL A   1      22.930  28.958  -3.439  1.00  0.00    +0.000 H 
ATOM    164  H60 UNL A   1      23.405  30.125   0.562  1.00  0.00    +0.000 H 
ATOM    101  C76 UNL A   1      23.362  29.562  -1.468  1.00  0.00    +0.000 C 
ATOM    102 Cl1  UNL A   1      24.874  30.281  -1.871  1.00  0.00    +0.000 Cl
ENDBRANCH   97   98
ENDBRANCH   96   97
ENDBRANCH   17   16
ENDBRANCH   18   17
BRANCH   18   19
ATOM     19  C18 UNL A   1      23.401  24.509   2.573  1.00  0.00    +0.000 C 
ATOM    126  H22 UNL A   1      24.142  24.998   1.974  1.00  0.00    +0.000 H 
ATOM    127  H23 UNL A   1      23.744  23.529   2.833  1.00  0.00    +0.000 H 
ATOM    128  H24 UNL A   1      23.233  25.076   3.464  1.00  0.00    +0.000 H 
ENDBRANCH   18   19
BRANCH   18   20
ATOM    129  H25 UNL A   1      20.840  25.285   3.315  1.00  0.00    +0.000 H 
ATOM    130  H26 UNL A   1      20.001  24.108   2.334  1.00  0.00    +0.000 H 
ATOM    131  H27 UNL A   1      20.340  25.697   1.692  1.00  0.00    +0.000 H 
ATOM     20  C19 UNL A   1      20.706  24.913   2.320  1.00  0.00    +0.000 C 
ENDBRANCH   18   20
ENDBRANCH   21   18
ENDBRANCH   23   21
ENDBRANCH   24   23
ENDBRANCH   25   24
ENDBRANCH   26   25
ENDBRANCH   27   26
ENDBRANCH   28   27
ENDBRANCH   29   28
ENDBRANCH   30   29
ENDBRANCH   31   30
ENDBRANCH   33   31
ENDBRANCH   37   36
BRANCH   41   42
ATOM     42  C36 UNL A   1      23.357  17.939  11.463  1.00  0.00    +0.000 C 
ATOM     43  C37 UNL A   1      23.614  16.557  11.560  1.00  0.00    +0.000 C 
ATOM     44  F1  UNL A   1      24.029  15.864  10.488  1.00  0.00    +0.000 F 
ATOM     45  C38 UNL A   1      23.368  15.842  12.736  1.00  0.00    +0.000 C 
ATOM     46  F2  UNL A   1      23.526  14.512  12.753  1.00  0.00    +0.000 F 
ATOM     47  C39 UNL A   1      22.902  16.488  13.868  1.00  0.00    +0.000 C 
ATOM     48  F3  UNL A   1      22.622  15.798  14.981  1.00  0.00    +0.000 F 
ATOM     49  C40 UNL A   1      22.677  17.847  13.825  1.00  0.00    +0.000 C 
ATOM     50  F4  UNL A   1      22.195  18.486  14.900  1.00  0.00    +0.000 F 
ATOM     51  C41 UNL A   1      22.872  18.553  12.639  1.00  0.00    +0.000 C 
ATOM     52  F5  UNL A   1      22.460  19.827  12.653  1.00  0.00    +0.000 F 
ENDBRANCH   41   42
BRANCH   58   59
ATOM     65  F8  UNL A   1      27.489  18.552   1.438  1.00  0.00    +0.000 F 
ATOM     66  C51 UNL A   1      25.823  18.344   3.097  1.00  0.00    +0.000 C 
ATOM     67  F9  UNL A   1      24.884  18.735   2.224  1.00  0.00    +0.000 F 
ATOM     68  C52 UNL A   1      25.459  18.014   4.399  1.00  0.00    +0.000 C 
ATOM     69  F10 UNL A   1      24.168  18.108   4.749  1.00  0.00    +0.000 F 
ATOM     59  C47 UNL A   1      26.404  17.542   5.322  1.00  0.00    +0.000 C 
ATOM     60  C48 UNL A   1      27.734  17.418   4.884  1.00  0.00    +0.000 C 
ATOM     61  F6  UNL A   1      28.674  16.891   5.680  1.00  0.00    +0.000 F 
ATOM     62  C49 UNL A   1      28.102  17.788   3.590  1.00  0.00    +0.000 C 
ATOM     63  F7  UNL A   1      29.379  17.673   3.195  1.00  0.00    +0.000 F 
ATOM     64  C50 UNL A   1      27.144  18.241   2.695  1.00  0.00    +0.000 C 
ENDBRANCH   58   59
BRANCH   73   74
ATOM     74  C56 UNL A   1      23.025  12.217   4.963  1.00  0.00    +0.000 C 
ATOM     75  C57 UNL A   1      23.731  11.465   4.007  1.00  0.00    +0.000 C 
ATOM     76  F11 UNL A   1      24.477  12.084   3.080  1.00  0.00    +0.000 F 
ATOM     77  C58 UNL A   1      23.750  10.067   4.040  1.00  0.00    +0.000 C 
ATOM     78  F12 UNL A   1      24.496   9.386   3.159  1.00  0.00    +0.000 F 
ATOM     79  C59 UNL A   1      23.054   9.381   5.022  1.00  0.00    +0.000 C 
ATOM     80  F13 UNL A   1      23.129   8.046   5.100  1.00  0.00    +0.000 F 
ATOM     81  C60 UNL A   1      22.315  10.090   5.952  1.00  0.00    +0.000 C 
ATOM     82  F14 UNL A   1      21.666   9.439   6.928  1.00  0.00    +0.000 F 
ATOM     83  C61 UNL A   1      22.301  11.485   5.923  1.00  0.00    +0.000 C 
ATOM     84  F15 UNL A   1      21.647  12.109   6.914  1.00  0.00    +0.000 F 
ENDBRANCH   73   74
TORSDOF 25
ENDMDL
MODEL 8
REMARK VINA RESULT:      -7.8     36.078     43.388
ROOT
ATOM    148  H44 UNL A   1      25.070  20.532   9.726  1.00  0.00    +0.000 H 
ATOM    149  H45 UNL A   1      26.666  19.511   7.863  1.00  0.00    +0.000 H 
ATOM    150  H46 UNL A   1      25.004  16.479   9.994  1.00  0.00    +0.000 H 
ATOM    151  H47 UNL A   1      21.854  14.575   2.918  1.00  0.00    +0.000 H 
ATOM    152  H48 UNL A   1      20.968  16.939   3.257  1.00  0.00    +0.000 H 
ATOM    153  H49 UNL A   1      23.126  15.947   6.667  1.00  0.00    +0.000 H 
ATOM    154  H50 UNL A   1      23.265  13.006   8.068  1.00  0.00    +0.000 H 
ATOM    155  H51 UNL A   1      24.648  14.792   9.311  1.00  0.00    +0.000 H 
ATOM    156  H52 UNL A   1      20.139  18.636  10.345  1.00  0.00    +0.000 H 
ATOM    157  H53 UNL A   1      19.190  17.958   8.051  1.00  0.00    +0.000 H 
ATOM     37  C32 UNL A   1      21.192  17.844   5.997  1.00  0.00    +0.000 C 
ATOM     38  C33 UNL A   1      21.380  18.078   7.459  1.00  0.00    +0.000 C 
ATOM     39  N3  UNL A   1      22.472  18.382   8.083  1.00  0.00    +0.000 N 
ATOM     40  C34 UNL A   1      22.129  18.460   9.432  1.00  0.00    +0.000 C 
ATOM     41  C35 UNL A   1      23.059  18.304  10.413  1.00  0.00    +0.000 C 
ATOM     53  C42 UNL A   1      24.392  18.485   9.912  1.00  0.00    +0.000 C 
ATOM     54  C43 UNL A   1      25.130  19.545   9.433  1.00  0.00    +0.000 C 
ATOM     55  C44 UNL A   1      25.996  18.986   8.447  1.00  0.00    +0.000 C 
ATOM     56  C45 UNL A   1      25.781  17.608   8.405  1.00  0.00    +0.000 C 
ATOM     57  N4  UNL A   1      25.050  17.347   9.532  1.00  0.00    +0.000 N 
ATOM     58  C46 UNL A   1      26.061  16.607   7.400  1.00  0.00    +0.000 C 
ATOM     70  C53 UNL A   1      25.515  15.357   7.362  1.00  0.00    +0.000 C 
ATOM     71  N5  UNL A   1      25.400  14.682   6.158  1.00  0.00    +0.000 N 
ATOM     72  C54 UNL A   1      24.353  13.920   6.309  1.00  0.00    +0.000 C 
ATOM     73  C55 UNL A   1      23.394  13.618   5.221  1.00  0.00    +0.000 C 
ATOM     85  C62 UNL A   1      22.760  14.779   4.926  1.00  0.00    +0.000 C 
ATOM     86  C63 UNL A   1      21.990  15.154   3.762  1.00  0.00    +0.000 C 
ATOM     87  C64 UNL A   1      21.480  16.385   3.962  1.00  0.00    +0.000 C 
ATOM     88  C65 UNL A   1      21.762  16.818   5.332  1.00  0.00    +0.000 C 
ATOM     89  N6  UNL A   1      22.642  15.870   5.813  1.00  0.00    +0.000 N 
ATOM     90  C66 UNL A   1      23.935  13.689   7.680  1.00  0.00    +0.000 C 
ATOM     91  C67 UNL A   1      24.671  14.617   8.294  1.00  0.00    +0.000 C 
ATOM     92  C68 UNL A   1      20.692  18.438   9.497  1.00  0.00    +0.000 C 
ATOM     93  C69 UNL A   1      20.176  18.125   8.308  1.00  0.00    +0.000 C 
ENDROOT
BRANCH   37   36
ATOM     33  C28 UNL A   1      18.372  20.410   4.125  1.00  0.00    +0.000 C 
ATOM     34  C29 UNL A   1      17.976  19.197   4.690  1.00  0.00    +0.000 C 
ATOM     35  C30 UNL A   1      18.901  18.381   5.326  1.00  0.00    +0.000 C 
ATOM     36  C31 UNL A   1      20.244  18.756   5.366  1.00  0.00    +0.000 C 
ATOM    146  H42 UNL A   1      16.987  18.904   4.634  1.00  0.00    +0.000 H 
ATOM    147  H43 UNL A   1      18.596  17.500   5.768  1.00  0.00    +0.000 H 
ATOM    158  H54 UNL A   1      21.680  20.136   4.672  1.00  0.00    +0.000 H 
ATOM    159  H55 UNL A   1      20.053  21.599   3.647  1.00  0.00    +0.000 H 
ATOM     94  C70 UNL A   1      20.676  19.904   4.711  1.00  0.00    +0.000 C 
ATOM     95  C71 UNL A   1      19.740  20.732   4.111  1.00  0.00    +0.000 C 
BRANCH   33   31
ATOM     31  C27 UNL A   1      17.470  21.438   3.547  1.00  0.00    +0.000 C 
ATOM     32  O2  UNL A   1      17.393  22.540   4.097  1.00  0.00    +0.000 O 
BRANCH   31   30
ATOM    145  H41 UNL A   1      17.176  21.026   1.649  1.00  0.00    +0.000 H 
ATOM     30  N2  UNL A   1      16.668  21.251   2.462  1.00  0.00    +0.000 N 
BRANCH   30   29
ATOM     29  C26 UNL A   1      15.243  21.305   2.232  1.00  0.00    +0.000 C 
ATOM    143  H39 UNL A   1      14.978  20.534   1.539  1.00  0.00    +0.000 H 
ATOM    144  H40 UNL A   1      14.759  21.173   3.177  1.00  0.00    +0.000 H 
BRANCH   29   28
ATOM     28  C25 UNL A   1      14.784  22.650   1.665  1.00  0.00    +0.000 C 
ATOM    141  H37 UNL A   1      13.803  22.857   2.037  1.00  0.00    +0.000 H 
ATOM    142  H38 UNL A   1      15.497  23.384   1.976  1.00  0.00    +0.000 H 
BRANCH   28   27
ATOM     27  C24 UNL A   1      14.741  22.678   0.130  1.00  0.00    +0.000 C 
ATOM    140  H36 UNL A   1      13.779  22.302  -0.152  1.00  0.00    +0.000 H 
ATOM    139  H35 UNL A   1      15.549  22.082  -0.237  1.00  0.00    +0.000 H 
BRANCH   27   26
ATOM    137  H33 UNL A   1      13.908  24.562  -0.415  1.00  0.00    +0.000 H 
ATOM     26  C23 UNL A   1      14.859  24.079  -0.488  1.00  0.00    +0.000 C 
ATOM    138  H34 UNL A   1      15.621  24.598   0.055  1.00  0.00    +0.000 H 
BRANCH   26   25
ATOM     25  C22 UNL A   1      15.281  24.063  -1.947  1.00  0.00    +0.000 C 
ATOM    135  H31 UNL A   1      15.692  23.104  -2.184  1.00  0.00    +0.000 H 
ATOM    136  H32 UNL A   1      14.424  24.259  -2.558  1.00  0.00    +0.000 H 
BRANCH   25   24
ATOM    133  H29 UNL A   1      16.482  25.200  -3.264  1.00  0.00    +0.000 H 
ATOM    134  H30 UNL A   1      15.958  26.052  -1.814  1.00  0.00    +0.000 H 
ATOM     24  C21 UNL A   1      16.318  25.126  -2.209  1.00  0.00    +0.000 C 
BRANCH   24   23
ATOM    132  H28 UNL A   1      17.944  25.503  -0.962  1.00  0.00    +0.000 H 
ATOM     23  N1  UNL A   1      17.577  24.810  -1.556  1.00  0.00    +0.000 N 
BRANCH   23   21
ATOM     21  C20 UNL A   1      18.317  23.654  -1.670  1.00  0.00    +0.000 C 
ATOM     22  O1  UNL A   1      18.377  23.141  -2.770  1.00  0.00    +0.000 O 
BRANCH   21   18
ATOM     18  C17 UNL A   1      18.774  22.976  -0.372  1.00  0.00    +0.000 C 
BRANCH   18   17
ATOM     17  C16 UNL A   1      20.293  22.856  -0.053  1.00  0.00    +0.000 C 
ATOM    124  H20 UNL A   1      20.435  23.158   0.964  1.00  0.00    +0.000 H 
ATOM    125  H21 UNL A   1      20.542  21.835  -0.256  1.00  0.00    +0.000 H 
BRANCH   17   16
ATOM      4  C4  UNL A   1      22.932  26.360  -4.197  1.00  0.00    +0.000 C 
ATOM      5  C5  UNL A   1      22.899  27.270  -3.137  1.00  0.00    +0.000 C 
ATOM      6  C6  UNL A   1      22.496  26.888  -1.852  1.00  0.00    +0.000 C 
ATOM      7  C7  UNL A   1      22.103  25.556  -1.637  1.00  0.00    +0.000 C 
ATOM      8  C8  UNL A   1      22.191  24.588  -2.651  1.00  0.00    +0.000 C 
ATOM      9  C9  UNL A   1      22.623  25.011  -3.937  1.00  0.00    +0.000 C 
ATOM     10  C10 UNL A   1      21.749  23.321  -2.113  1.00  0.00    +0.000 C 
ATOM    112  H8  UNL A   1      23.178  28.249  -3.306  1.00  0.00    +0.000 H 
ATOM    113  H9  UNL A   1      22.488  27.571  -1.078  1.00  0.00    +0.000 H 
ATOM    114  H10 UNL A   1      22.711  24.317  -4.696  1.00  0.00    +0.000 H 
ATOM     16  C15 UNL A   1      21.202  23.645  -0.881  1.00  0.00    +0.000 C 
ATOM     96  N7  UNL A   1      21.586  24.931  -0.511  1.00  0.00    +0.000 N 
BRANCH    4    2
ATOM      2  C2  UNL A   1      23.301  26.855  -5.587  1.00  0.00    +0.000 C 
ATOM    108  H4  UNL A   1      24.273  27.293  -5.501  1.00  0.00    +0.000 H 
BRANCH    2    1
ATOM      1  C1  UNL A   1      23.364  25.694  -6.578  1.00  0.00    +0.000 C 
ATOM    106  H2  UNL A   1      22.993  26.015  -7.528  1.00  0.00    +0.000 H 
ATOM    107  H3  UNL A   1      22.766  24.883  -6.217  1.00  0.00    +0.000 H 
ATOM    105  H1  UNL A   1      24.379  25.369  -6.683  1.00  0.00    +0.000 H 
ENDBRANCH    2    1
BRANCH    2    3
ATOM      3  C3  UNL A   1      22.375  27.963  -6.103  1.00  0.00    +0.000 C 
ATOM    109  H5  UNL A   1      22.436  28.010  -7.170  1.00  0.00    +0.000 H 
ATOM    110  H6  UNL A   1      22.675  28.901  -5.686  1.00  0.00    +0.000 H 
ATOM    111  H7  UNL A   1      21.367  27.749  -5.812  1.00  0.00    +0.000 H 
ENDBRANCH    2    3
ENDBRANCH    4    2
BRANCH   10   11
ATOM     11  S1  UNL A   1      21.721  21.840  -3.117  1.00  0.00    +0.000 S 
ATOM     12  C11 UNL A   1      23.169  20.638  -3.090  1.00  0.00    +0.000 C 
ATOM     13  C12 UNL A   1      24.410  21.296  -3.702  1.00  0.00    +0.000 C 
ATOM     14  C13 UNL A   1      23.621  19.829  -1.849  1.00  0.00    +0.000 C 
ATOM     15  C14 UNL A   1      22.668  19.493  -4.015  1.00  0.00    +0.000 C 
ATOM    115  H11 UNL A   1      24.749  22.083  -3.061  1.00  0.00    +0.000 H 
ATOM    116  H12 UNL A   1      24.164  21.699  -4.662  1.00  0.00    +0.000 H 
ATOM    117  H13 UNL A   1      25.184  20.565  -3.810  1.00  0.00    +0.000 H 
ATOM    118  H14 UNL A   1      24.000  20.499  -1.105  1.00  0.00    +0.000 H 
ATOM    119  H15 UNL A   1      24.389  19.140  -2.133  1.00  0.00    +0.000 H 
ATOM    120  H16 UNL A   1      22.787  19.290  -1.452  1.00  0.00    +0.000 H 
ATOM    121  H17 UNL A   1      22.316  19.907  -4.937  1.00  0.00    +0.000 H 
ATOM    122  H18 UNL A   1      21.872  18.966  -3.533  1.00  0.00    +0.000 H 
ATOM    123  H19 UNL A   1      23.474  18.817  -4.214  1.00  0.00    +0.000 H 
ENDBRANCH   10   11
BRANCH   96   97
ATOM     97  C72 UNL A   1      21.646  25.496   0.870  1.00  0.00    +0.000 C 
ATOM    161  H57 UNL A   1      21.032  24.836   1.446  1.00  0.00    +0.000 H 
ATOM    160  H56 UNL A   1      22.679  25.547   1.144  1.00  0.00    +0.000 H 
BRANCH   97   98
ATOM     98  C73 UNL A   1      21.046  26.874   1.131  1.00  0.00    +0.000 C 
ATOM     99  C74 UNL A   1      19.745  27.204   0.699  1.00  0.00    +0.000 C 
ATOM    100  C75 UNL A   1      19.283  28.527   0.711  1.00  0.00    +0.000 C 
ATOM    162  H58 UNL A   1      19.118  26.455   0.368  1.00  0.00    +0.000 H 
ATOM    165  H61 UNL A   1      22.682  27.644   2.228  1.00  0.00    +0.000 H 
ATOM    103  C77 UNL A   1      21.287  29.192   1.869  1.00  0.00    +0.000 C 
ATOM    104  C78 UNL A   1      21.776  27.877   1.793  1.00  0.00    +0.000 C 
ATOM    163  H59 UNL A   1      18.363  28.759   0.307  1.00  0.00    +0.000 H 
ATOM    164  H60 UNL A   1      21.829  29.915   2.368  1.00  0.00    +0.000 H 
ATOM    101  C76 UNL A   1      20.073  29.522   1.270  1.00  0.00    +0.000 C 
ATOM    102 Cl1  UNL A   1      19.561  31.164   1.185  1.00  0.00    +0.000 Cl
ENDBRANCH   97   98
ENDBRANCH   96   97
ENDBRANCH   17   16
ENDBRANCH   18   17
BRANCH   18   19
ATOM     19  C18 UNL A   1      18.160  21.582  -0.689  1.00  0.00    +0.000 C 
ATOM    126  H22 UNL A   1      17.092  21.647  -0.661  1.00  0.00    +0.000 H 
ATOM    127  H23 UNL A   1      18.493  20.871   0.039  1.00  0.00    +0.000 H 
ATOM    128  H24 UNL A   1      18.473  21.267  -1.662  1.00  0.00    +0.000 H 
ENDBRANCH   18   19
BRANCH   18   20
ATOM    129  H25 UNL A   1      17.249  23.689   0.994  1.00  0.00    +0.000 H 
ATOM    130  H26 UNL A   1      18.451  24.891   0.592  1.00  0.00    +0.000 H 
ATOM    131  H27 UNL A   1      18.843  23.602   1.703  1.00  0.00    +0.000 H 
ATOM     20  C19 UNL A   1      18.292  23.859   0.824  1.00  0.00    +0.000 C 
ENDBRANCH   18   20
ENDBRANCH   21   18
ENDBRANCH   23   21
ENDBRANCH   24   23
ENDBRANCH   25   24
ENDBRANCH   26   25
ENDBRANCH   27   26
ENDBRANCH   28   27
ENDBRANCH   29   28
ENDBRANCH   30   29
ENDBRANCH   31   30
ENDBRANCH   33   31
ENDBRANCH   37   36
BRANCH   41   42
ATOM     42  C36 UNL A   1      22.786  17.584  11.711  1.00  0.00    +0.000 C 
ATOM     43  C37 UNL A   1      22.404  18.314  12.853  1.00  0.00    +0.000 C 
ATOM     44  F1  UNL A   1      22.058  19.607  12.751  1.00  0.00    +0.000 F 
ATOM     45  C38 UNL A   1      22.450  17.755  14.134  1.00  0.00    +0.000 C 
ATOM     46  F2  UNL A   1      22.178  18.517  15.203  1.00  0.00    +0.000 F 
ATOM     47  C39 UNL A   1      22.834  16.439  14.315  1.00  0.00    +0.000 C 
ATOM     48  F3  UNL A   1      22.923  15.917  15.544  1.00  0.00    +0.000 F 
ATOM     49  C40 UNL A   1      23.177  15.679  13.217  1.00  0.00    +0.000 C 
ATOM     50  F4  UNL A   1      23.584  14.412  13.373  1.00  0.00    +0.000 F 
ATOM     51  C41 UNL A   1      23.182  16.248  11.944  1.00  0.00    +0.000 C 
ATOM     52  F5  UNL A   1      23.696  15.482  10.974  1.00  0.00    +0.000 F 
ENDBRANCH   41   42
BRANCH   58   59
ATOM     65  F8  UNL A   1      28.741  18.090   2.646  1.00  0.00    +0.000 F 
ATOM     66  C51 UNL A   1      26.797  18.063   3.985  1.00  0.00    +0.000 C 
ATOM     67  F9  UNL A   1      26.096  18.650   3.005  1.00  0.00    +0.000 F 
ATOM     68  C52 UNL A   1      26.165  17.724   5.177  1.00  0.00    +0.000 C 
ATOM     69  F10 UNL A   1      24.861  18.007   5.317  1.00  0.00    +0.000 F 
ATOM     59  C47 UNL A   1      26.850  17.053   6.200  1.00  0.00    +0.000 C 
ATOM     60  C48 UNL A   1      28.202  16.739   5.978  1.00  0.00    +0.000 C 
ATOM     61  F6  UNL A   1      28.897  16.022   6.872  1.00  0.00    +0.000 F 
ATOM     62  C49 UNL A   1      28.844  17.116   4.798  1.00  0.00    +0.000 C 
ATOM     63  F7  UNL A   1      30.137  16.817   4.611  1.00  0.00    +0.000 F 
ATOM     64  C50 UNL A   1      28.137  17.769   3.799  1.00  0.00    +0.000 C 
ENDBRANCH   58   59
BRANCH   73   74
ATOM     74  C56 UNL A   1      22.983  12.231   4.898  1.00  0.00    +0.000 C 
ATOM     75  C57 UNL A   1      23.663  11.492   3.913  1.00  0.00    +0.000 C 
ATOM     76  F11 UNL A   1      24.518  12.105   3.082  1.00  0.00    +0.000 F 
ATOM     77  C58 UNL A   1      23.540  10.101   3.823  1.00  0.00    +0.000 C 
ATOM     78  F12 UNL A   1      24.263   9.422   2.922  1.00  0.00    +0.000 F 
ATOM     79  C59 UNL A   1      22.725   9.412   4.707  1.00  0.00    +0.000 C 
ATOM     80  F13 UNL A   1      22.662   8.075   4.669  1.00  0.00    +0.000 F 
ATOM     81  C60 UNL A   1      22.010  10.115   5.660  1.00  0.00    +0.000 C 
ATOM     82  F14 UNL A   1      21.246   9.456   6.542  1.00  0.00    +0.000 F 
ATOM     83  C61 UNL A   1      22.137  11.501   5.754  1.00  0.00    +0.000 C 
ATOM     84  F15 UNL A   1      21.494  12.105   6.764  1.00  0.00    +0.000 F 
ENDBRANCH   73   74
TORSDOF 25
ENDMDL
MODEL 9
REMARK VINA RESULT:      -7.8     39.173     44.124
ROOT
ATOM    148  H44 UNL A   1      46.930   9.820  47.783  1.00  0.00    +0.000 H 
ATOM    149  H45 UNL A   1      46.001   7.567  48.845  1.00  0.00    +0.000 H 
ATOM    150  H46 UNL A   1      49.004   8.996  51.179  1.00  0.00    +0.000 H 
ATOM    151  H47 UNL A   1      43.190   9.472  56.620  1.00  0.00    +0.000 H 
ATOM    152  H48 UNL A   1      42.276  10.952  54.759  1.00  0.00    +0.000 H 
ATOM    153  H49 UNL A   1      46.045   9.675  53.559  1.00  0.00    +0.000 H 
ATOM    154  H50 UNL A   1      48.636   9.245  55.491  1.00  0.00    +0.000 H 
ATOM    155  H51 UNL A   1      49.120   8.735  53.011  1.00  0.00    +0.000 H 
ATOM    156  H52 UNL A   1      47.595  14.129  50.831  1.00  0.00    +0.000 H 
ATOM    157  H53 UNL A   1      45.749  14.201  52.622  1.00  0.00    +0.000 H 
ATOM     37  C32 UNL A   1      44.301  11.733  52.843  1.00  0.00    +0.000 C 
ATOM     38  C33 UNL A   1      45.505  12.027  52.012  1.00  0.00    +0.000 C 
ATOM     39  N3  UNL A   1      46.078  11.260  51.141  1.00  0.00    +0.000 N 
ATOM     40  C34 UNL A   1      47.173  11.979  50.666  1.00  0.00    +0.000 C 
ATOM     41  C35 UNL A   1      48.246  11.355  50.106  1.00  0.00    +0.000 C 
ATOM     53  C42 UNL A   1      47.925  10.017  49.696  1.00  0.00    +0.000 C 
ATOM     54  C43 UNL A   1      47.132   9.447  48.724  1.00  0.00    +0.000 C 
ATOM     55  C44 UNL A   1      46.652   8.231  49.294  1.00  0.00    +0.000 C 
ATOM     56  C45 UNL A   1      47.212   8.092  50.565  1.00  0.00    +0.000 C 
ATOM     57  N4  UNL A   1      48.210   9.029  50.598  1.00  0.00    +0.000 N 
ATOM     58  C46 UNL A   1      46.829   7.311  51.719  1.00  0.00    +0.000 C 
ATOM     70  C53 UNL A   1      47.283   7.512  52.991  1.00  0.00    +0.000 C 
ATOM     71  N5  UNL A   1      46.518   7.118  54.076  1.00  0.00    +0.000 N 
ATOM     72  C54 UNL A   1      46.840   7.953  55.024  1.00  0.00    +0.000 C 
ATOM     73  C55 UNL A   1      45.879   8.465  56.028  1.00  0.00    +0.000 C 
ATOM     85  C62 UNL A   1      44.995   9.246  55.360  1.00  0.00    +0.000 C 
ATOM     86  C63 UNL A   1      43.687   9.721  55.750  1.00  0.00    +0.000 C 
ATOM     87  C64 UNL A   1      43.224  10.544  54.788  1.00  0.00    +0.000 C 
ATOM     88  C65 UNL A   1      44.271  10.772  53.789  1.00  0.00    +0.000 C 
ATOM     89  N6  UNL A   1      45.258   9.865  54.119  1.00  0.00    +0.000 N 
ATOM     90  C66 UNL A   1      48.085   8.674  54.830  1.00  0.00    +0.000 C 
ATOM     91  C67 UNL A   1      48.311   8.384  53.548  1.00  0.00    +0.000 C 
ATOM     92  C68 UNL A   1      47.024  13.327  51.144  1.00  0.00    +0.000 C 
ATOM     93  C69 UNL A   1      46.047  13.397  52.048  1.00  0.00    +0.000 C 
ENDROOT
BRANCH   37   36
ATOM     33  C28 UNL A   1      41.073  14.443  52.315  1.00  0.00    +0.000 C 
ATOM     34  C29 UNL A   1      42.138  14.750  53.162  1.00  0.00    +0.000 C 
ATOM     35  C30 UNL A   1      43.202  13.871  53.303  1.00  0.00    +0.000 C 
ATOM     36  C31 UNL A   1      43.189  12.652  52.625  1.00  0.00    +0.000 C 
ATOM    146  H42 UNL A   1      42.135  15.639  53.689  1.00  0.00    +0.000 H 
ATOM    147  H43 UNL A   1      44.001  14.118  53.908  1.00  0.00    +0.000 H 
ATOM    158  H54 UNL A   1      42.041  11.344  51.432  1.00  0.00    +0.000 H 
ATOM    159  H55 UNL A   1      40.234  12.917  51.116  1.00  0.00    +0.000 H 
ATOM     94  C70 UNL A   1      42.085  12.279  51.866  1.00  0.00    +0.000 C 
ATOM     95  C71 UNL A   1      41.044  13.179  51.701  1.00  0.00    +0.000 C 
BRANCH   33   31
ATOM     31  C27 UNL A   1      39.951  15.348  51.962  1.00  0.00    +0.000 C 
ATOM     32  O2  UNL A   1      38.862  15.192  52.521  1.00  0.00    +0.000 O 
BRANCH   31   30
ATOM    145  H41 UNL A   1      39.638  17.185  51.342  1.00  0.00    +0.000 H 
ATOM     30  N2  UNL A   1      40.008  16.331  51.021  1.00  0.00    +0.000 N 
BRANCH   30   29
ATOM     29  C26 UNL A   1      40.488  16.406  49.660  1.00  0.00    +0.000 C 
ATOM    143  H39 UNL A   1      40.619  15.411  49.288  1.00  0.00    +0.000 H 
ATOM    144  H40 UNL A   1      39.762  16.950  49.092  1.00  0.00    +0.000 H 
BRANCH   29   28
ATOM     28  C25 UNL A   1      41.818  17.151  49.540  1.00  0.00    +0.000 C 
ATOM    141  H37 UNL A   1      41.830  17.676  48.608  1.00  0.00    +0.000 H 
ATOM    142  H38 UNL A   1      41.886  17.815  50.377  1.00  0.00    +0.000 H 
BRANCH   28   27
ATOM     27  C24 UNL A   1      43.041  16.223  49.594  1.00  0.00    +0.000 C 
ATOM    140  H36 UNL A   1      43.273  16.088  50.630  1.00  0.00    +0.000 H 
ATOM    139  H35 UNL A   1      43.833  16.684  49.042  1.00  0.00    +0.000 H 
BRANCH   27   26
ATOM    137  H33 UNL A   1      41.903  14.428  49.434  1.00  0.00    +0.000 H 
ATOM     26  C23 UNL A   1      42.805  14.820  49.014  1.00  0.00    +0.000 C 
ATOM    138  H34 UNL A   1      42.747  14.926  47.952  1.00  0.00    +0.000 H 
BRANCH   26   25
ATOM     25  C22 UNL A   1      43.935  13.847  49.306  1.00  0.00    +0.000 C 
ATOM    135  H31 UNL A   1      44.871  14.321  49.095  1.00  0.00    +0.000 H 
ATOM    136  H32 UNL A   1      43.890  13.563  50.337  1.00  0.00    +0.000 H 
BRANCH   25   24
ATOM    133  H29 UNL A   1      44.344  11.811  48.913  1.00  0.00    +0.000 H 
ATOM    134  H30 UNL A   1      42.763  12.369  48.373  1.00  0.00    +0.000 H 
ATOM     24  C21 UNL A   1      43.801  12.611  48.454  1.00  0.00    +0.000 C 
BRANCH   24   23
ATOM    132  H28 UNL A   1      43.704  12.656  46.374  1.00  0.00    +0.000 H 
ATOM     23  N1  UNL A   1      44.325  12.830  47.117  1.00  0.00    +0.000 N 
BRANCH   23   21
ATOM     21  C20 UNL A   1      45.588  13.253  46.767  1.00  0.00    +0.000 C 
ATOM     22  O1  UNL A   1      46.519  12.539  47.082  1.00  0.00    +0.000 O 
BRANCH   21   18
ATOM     18  C17 UNL A   1      45.734  14.693  46.255  1.00  0.00    +0.000 C 
BRANCH   18   17
ATOM     17  C16 UNL A   1      44.465  15.542  45.955  1.00  0.00    +0.000 C 
ATOM    124  H20 UNL A   1      43.630  14.873  45.917  1.00  0.00    +0.000 H 
ATOM    125  H21 UNL A   1      44.421  16.268  46.740  1.00  0.00    +0.000 H 
BRANCH   17   16
ATOM      4  C4  UNL A   1      45.596  18.011  40.566  1.00  0.00    +0.000 C 
ATOM      5  C5  UNL A   1      44.519  17.195  40.207  1.00  0.00    +0.000 C 
ATOM      6  C6  UNL A   1      43.776  16.494  41.162  1.00  0.00    +0.000 C 
ATOM      7  C7  UNL A   1      44.139  16.609  42.515  1.00  0.00    +0.000 C 
ATOM      8  C8  UNL A   1      45.164  17.474  42.933  1.00  0.00    +0.000 C 
ATOM      9  C9  UNL A   1      45.883  18.183  41.933  1.00  0.00    +0.000 C 
ATOM     10  C10 UNL A   1      45.273  17.392  44.372  1.00  0.00    +0.000 C 
ATOM    112  H8  UNL A   1      44.267  17.107  39.210  1.00  0.00    +0.000 H 
ATOM    113  H9  UNL A   1      42.977  15.904  40.880  1.00  0.00    +0.000 H 
ATOM    114  H10 UNL A   1      46.631  18.836  42.215  1.00  0.00    +0.000 H 
ATOM     16  C15 UNL A   1      44.469  16.315  44.715  1.00  0.00    +0.000 C 
ATOM     96  N7  UNL A   1      43.645  15.973  43.646  1.00  0.00    +0.000 N 
BRANCH    4    2
ATOM      2  C2  UNL A   1      46.415  18.681  39.474  1.00  0.00    +0.000 C 
ATOM    108  H4  UNL A   1      46.310  19.735  39.626  1.00  0.00    +0.000 H 
BRANCH    2    1
ATOM      1  C1  UNL A   1      47.890  18.305  39.593  1.00  0.00    +0.000 C 
ATOM    106  H2  UNL A   1      48.126  17.550  38.872  1.00  0.00    +0.000 H 
ATOM    107  H3  UNL A   1      48.085  17.932  40.576  1.00  0.00    +0.000 H 
ATOM    105  H1  UNL A   1      48.495  19.169  39.412  1.00  0.00    +0.000 H 
ENDBRANCH    2    1
BRANCH    2    3
ATOM      3  C3  UNL A   1      45.891  18.397  38.061  1.00  0.00    +0.000 C 
ATOM    109  H5  UNL A   1      45.265  19.205  37.744  1.00  0.00    +0.000 H 
ATOM    110  H6  UNL A   1      45.327  17.489  38.066  1.00  0.00    +0.000 H 
ATOM    111  H7  UNL A   1      46.717  18.301  37.388  1.00  0.00    +0.000 H 
ENDBRANCH    2    3
ENDBRANCH    4    2
BRANCH   10   11
ATOM     11  S1  UNL A   1      46.478  18.360  45.274  1.00  0.00    +0.000 S 
ATOM     12  C11 UNL A   1      45.944  19.470  46.696  1.00  0.00    +0.000 C 
ATOM     13  C12 UNL A   1      45.084  20.624  46.168  1.00  0.00    +0.000 C 
ATOM     14  C13 UNL A   1      45.309  18.969  48.017  1.00  0.00    +0.000 C 
ATOM     15  C14 UNL A   1      47.302  20.020  47.217  1.00  0.00    +0.000 C 
ATOM    115  H11 UNL A   1      44.152  20.240  45.811  1.00  0.00    +0.000 H 
ATOM    116  H12 UNL A   1      45.598  21.115  45.368  1.00  0.00    +0.000 H 
ATOM    117  H13 UNL A   1      44.903  21.324  46.957  1.00  0.00    +0.000 H 
ATOM    118  H14 UNL A   1      44.345  18.552  47.814  1.00  0.00    +0.000 H 
ATOM    119  H15 UNL A   1      45.208  19.789  48.698  1.00  0.00    +0.000 H 
ATOM    120  H16 UNL A   1      45.937  18.220  48.452  1.00  0.00    +0.000 H 
ATOM    121  H17 UNL A   1      47.866  20.411  46.397  1.00  0.00    +0.000 H 
ATOM    122  H18 UNL A   1      47.851  19.229  47.685  1.00  0.00    +0.000 H 
ATOM    123  H19 UNL A   1      47.122  20.798  47.930  1.00  0.00    +0.000 H 
ENDBRANCH   10   11
BRANCH   96   97
ATOM     97  C72 UNL A   1      42.345  15.242  43.703  1.00  0.00    +0.000 C 
ATOM    161  H57 UNL A   1      42.022  15.367  44.716  1.00  0.00    +0.000 H 
ATOM    160  H56 UNL A   1      41.715  15.661  42.947  1.00  0.00    +0.000 H 
BRANCH   97   98
ATOM     98  C73 UNL A   1      42.339  13.730  43.501  1.00  0.00    +0.000 C 
ATOM     99  C74 UNL A   1      41.188  13.052  43.049  1.00  0.00    +0.000 C 
ATOM    100  C75 UNL A   1      41.095  11.655  43.098  1.00  0.00    +0.000 C 
ATOM    162  H58 UNL A   1      40.398  13.597  42.672  1.00  0.00    +0.000 H 
ATOM    165  H61 UNL A   1      44.370  13.415  43.998  1.00  0.00    +0.000 H 
ATOM    103  C77 UNL A   1      43.407  11.546  43.763  1.00  0.00    +0.000 C 
ATOM    104  C78 UNL A   1      43.475  12.950  43.779  1.00  0.00    +0.000 C 
ATOM    163  H59 UNL A   1      40.212  11.184  42.848  1.00  0.00    +0.000 H 
ATOM    164  H60 UNL A   1      44.252  10.987  43.958  1.00  0.00    +0.000 H 
ATOM    101  C76 UNL A   1      42.200  10.909  43.486  1.00  0.00    +0.000 C 
ATOM    102 Cl1  UNL A   1      42.056   9.202  43.658  1.00  0.00    +0.000 Cl
ENDBRANCH   97   98
ENDBRANCH   96   97
ENDBRANCH   17   16
ENDBRANCH   18   17
BRANCH   18   19
ATOM     19  C18 UNL A   1      46.480  14.324  44.939  1.00  0.00    +0.000 C 
ATOM    126  H22 UNL A   1      47.127  13.490  45.118  1.00  0.00    +0.000 H 
ATOM    127  H23 UNL A   1      47.062  15.162  44.613  1.00  0.00    +0.000 H 
ATOM    128  H24 UNL A   1      45.767  14.069  44.184  1.00  0.00    +0.000 H 
ENDBRANCH   18   19
BRANCH   18   20
ATOM    129  H25 UNL A   1      46.324  16.579  47.146  1.00  0.00    +0.000 H 
ATOM    130  H26 UNL A   1      47.421  15.264  47.491  1.00  0.00    +0.000 H 
ATOM    131  H27 UNL A   1      45.884  15.357  48.313  1.00  0.00    +0.000 H 
ATOM     20  C19 UNL A   1      46.393  15.539  47.391  1.00  0.00    +0.000 C 
ENDBRANCH   18   20
ENDBRANCH   21   18
ENDBRANCH   23   21
ENDBRANCH   24   23
ENDBRANCH   25   24
ENDBRANCH   26   25
ENDBRANCH   27   26
ENDBRANCH   28   27
ENDBRANCH   29   28
ENDBRANCH   30   29
ENDBRANCH   31   30
ENDBRANCH   33   31
ENDBRANCH   37   36
BRANCH   41   42
ATOM     42  C36 UNL A   1      49.671  11.805  50.312  1.00  0.00    +0.000 C 
ATOM     43  C37 UNL A   1      50.507  12.021  49.199  1.00  0.00    +0.000 C 
ATOM     44  F1  UNL A   1      49.996  12.054  47.959  1.00  0.00    +0.000 F 
ATOM     45  C38 UNL A   1      51.896  12.123  49.330  1.00  0.00    +0.000 C 
ATOM     46  F2  UNL A   1      52.663  12.224  48.236  1.00  0.00    +0.000 F 
ATOM     47  C39 UNL A   1      52.492  12.059  50.577  1.00  0.00    +0.000 C 
ATOM     48  F3  UNL A   1      53.825  12.110  50.699  1.00  0.00    +0.000 F 
ATOM     49  C40 UNL A   1      51.703  11.888  51.694  1.00  0.00    +0.000 C 
ATOM     50  F4  UNL A   1      52.264  11.791  52.908  1.00  0.00    +0.000 F 
ATOM     51  C41 UNL A   1      50.325  11.735  51.562  1.00  0.00    +0.000 C 
ATOM     52  F5  UNL A   1      49.673  11.401  52.683  1.00  0.00    +0.000 F 
ENDBRANCH   41   42
BRANCH   58   59
ATOM     65  F8  UNL A   1      42.388   3.826  51.391  1.00  0.00    +0.000 F 
ATOM     66  C51 UNL A   1      43.280   6.005  51.554  1.00  0.00    +0.000 C 
ATOM     67  F9  UNL A   1      42.048   6.517  51.671  1.00  0.00    +0.000 F 
ATOM     68  C52 UNL A   1      44.385   6.850  51.594  1.00  0.00    +0.000 C 
ATOM     69  F10 UNL A   1      44.182   8.168  51.742  1.00  0.00    +0.000 F 
ATOM     59  C47 UNL A   1      45.692   6.344  51.537  1.00  0.00    +0.000 C 
ATOM     60  C48 UNL A   1      45.844   4.951  51.433  1.00  0.00    +0.000 C 
ATOM     61  F6  UNL A   1      47.061   4.388  51.462  1.00  0.00    +0.000 F 
ATOM     62  C49 UNL A   1      44.734   4.109  51.351  1.00  0.00    +0.000 C 
ATOM     63  F7  UNL A   1      44.902   2.784  51.240  1.00  0.00    +0.000 F 
ATOM     64  C50 UNL A   1      43.454   4.637  51.422  1.00  0.00    +0.000 C 
ENDBRANCH   58   59
BRANCH   73   74
ATOM     74  C56 UNL A   1      46.166   8.427  57.482  1.00  0.00    +0.000 C 
ATOM     75  C57 UNL A   1      46.201   7.204  58.175  1.00  0.00    +0.000 C 
ATOM     76  F11 UNL A   1      45.731   6.089  57.596  1.00  0.00    +0.000 F 
ATOM     77  C58 UNL A   1      46.795   7.091  59.436  1.00  0.00    +0.000 C 
ATOM     78  F12 UNL A   1      46.878   5.893  60.032  1.00  0.00    +0.000 F 
ATOM     79  C59 UNL A   1      47.361   8.199  60.044  1.00  0.00    +0.000 C 
ATOM     80  F13 UNL A   1      47.994   8.079  61.218  1.00  0.00    +0.000 F 
ATOM     81  C60 UNL A   1      47.306   9.426  59.408  1.00  0.00    +0.000 C 
ATOM     82  F14 UNL A   1      47.880  10.498  59.970  1.00  0.00    +0.000 F 
ATOM     83  C61 UNL A   1      46.718   9.538  58.147  1.00  0.00    +0.000 C 
ATOM     84  F15 UNL A   1      46.789  10.734  57.545  1.00  0.00    +0.000 F 
ENDBRANCH   73   74
TORSDOF 25
ENDMDL
MODEL 10
REMARK VINA RESULT:      -7.8     44.861     51.981
ROOT
ATOM    148  H44 UNL A   1      23.497  27.842   1.372  1.00  0.00    +0.000 H 
ATOM    149  H45 UNL A   1      23.182  25.402   2.376  1.00  0.00    +0.000 H 
ATOM    150  H46 UNL A   1      19.569  26.820   1.174  1.00  0.00    +0.000 H 
ATOM    151  H47 UNL A   1      19.907  20.593  -3.799  1.00  0.00    +0.000 H 
ATOM    152  H48 UNL A   1      22.005  21.884  -4.446  1.00  0.00    +0.000 H 
ATOM    153  H49 UNL A   1      20.057  24.111  -1.529  1.00  0.00    +0.000 H 
ATOM    154  H50 UNL A   1      16.830  24.421  -1.178  1.00  0.00    +0.000 H 
ATOM    155  H51 UNL A   1      18.177  25.756   0.568  1.00  0.00    +0.000 H 
ATOM    156  H52 UNL A   1      21.323  29.099  -3.318  1.00  0.00    +0.000 H 
ATOM    157  H53 UNL A   1      21.378  27.042  -4.863  1.00  0.00    +0.000 H 
ATOM     37  C32 UNL A   1      21.998  24.610  -3.472  1.00  0.00    +0.000 C 
ATOM     38  C33 UNL A   1      21.760  25.966  -2.900  1.00  0.00    +0.000 C 
ATOM     39  N3  UNL A   1      21.889  26.345  -1.668  1.00  0.00    +0.000 N 
ATOM     40  C34 UNL A   1      21.521  27.689  -1.645  1.00  0.00    +0.000 C 
ATOM     41  C35 UNL A   1      21.094  28.290  -0.501  1.00  0.00    +0.000 C 
ATOM     53  C42 UNL A   1      21.474  27.541   0.664  1.00  0.00    +0.000 C 
ATOM     54  C43 UNL A   1      22.658  27.247   1.304  1.00  0.00    +0.000 C 
ATOM     55  C44 UNL A   1      22.474  25.943   1.855  1.00  0.00    +0.000 C 
ATOM     56  C45 UNL A   1      21.174  25.526   1.567  1.00  0.00    +0.000 C 
ATOM     57  N4  UNL A   1      20.540  26.662   1.142  1.00  0.00    +0.000 N 
ATOM     58  C46 UNL A   1      20.556  24.219   1.526  1.00  0.00    +0.000 C 
ATOM     70  C53 UNL A   1      19.365  23.931   0.926  1.00  0.00    +0.000 C 
ATOM     71  N5  UNL A   1      19.104  22.650   0.468  1.00  0.00    +0.000 N 
ATOM     72  C54 UNL A   1      18.296  22.821  -0.541  1.00  0.00    +0.000 C 
ATOM     73  C55 UNL A   1      18.322  21.985  -1.764  1.00  0.00    +0.000 C 
ATOM     85  C62 UNL A   1      19.493  22.251  -2.393  1.00  0.00    +0.000 C 
ATOM     86  C63 UNL A   1      20.191  21.510  -3.420  1.00  0.00    +0.000 C 
ATOM     87  C64 UNL A   1      21.275  22.216  -3.798  1.00  0.00    +0.000 C 
ATOM     88  C65 UNL A   1      21.259  23.529  -3.147  1.00  0.00    +0.000 C 
ATOM     89  N6  UNL A   1      20.240  23.436  -2.222  1.00  0.00    +0.000 N 
ATOM     90  C66 UNL A   1      17.626  24.107  -0.599  1.00  0.00    +0.000 C 
ATOM     91  C67 UNL A   1      18.336  24.768   0.317  1.00  0.00    +0.000 C 
ATOM     92  C68 UNL A   1      21.427  28.118  -3.014  1.00  0.00    +0.000 C 
ATOM     93  C69 UNL A   1      21.490  27.071  -3.837  1.00  0.00    +0.000 C 
ENDROOT
BRANCH   37   36
ATOM     33  C28 UNL A   1      25.072  24.537  -6.403  1.00  0.00    +0.000 C 
ATOM     34  C29 UNL A   1      25.351  24.273  -5.062  1.00  0.00    +0.000 C 
ATOM     35  C30 UNL A   1      24.334  24.270  -4.118  1.00  0.00    +0.000 C 
ATOM     36  C31 UNL A   1      23.028  24.572  -4.505  1.00  0.00    +0.000 C 
ATOM    146  H42 UNL A   1      26.322  24.079  -4.769  1.00  0.00    +0.000 H 
ATOM    147  H43 UNL A   1      24.543  24.044  -3.132  1.00  0.00    +0.000 H 
ATOM    158  H54 UNL A   1      21.799  25.249  -6.080  1.00  0.00    +0.000 H 
ATOM    159  H55 UNL A   1      23.556  25.164  -7.737  1.00  0.00    +0.000 H 
ATOM     94  C70 UNL A   1      22.750  24.948  -5.814  1.00  0.00    +0.000 C 
ATOM     95  C71 UNL A   1      23.764  24.911  -6.758  1.00  0.00    +0.000 C 
BRANCH   33   31
ATOM     31  C27 UNL A   1      26.031  24.431  -7.530  1.00  0.00    +0.000 C 
ATOM     32  O2  UNL A   1      25.599  24.458  -8.685  1.00  0.00    +0.000 O 
BRANCH   31   30
ATOM    145  H41 UNL A   1      27.895  24.983  -7.814  1.00  0.00    +0.000 H 
ATOM     30  N2  UNL A   1      27.376  24.258  -7.396  1.00  0.00    +0.000 N 
BRANCH   30   29
ATOM     29  C26 UNL A   1      28.213  23.255  -6.780  1.00  0.00    +0.000 C 
ATOM    143  H39 UNL A   1      27.596  22.439  -6.467  1.00  0.00    +0.000 H 
ATOM    144  H40 UNL A   1      28.937  22.949  -7.507  1.00  0.00    +0.000 H 
BRANCH   29   28
ATOM     28  C25 UNL A   1      28.978  23.783  -5.566  1.00  0.00    +0.000 C 
ATOM    141  H37 UNL A   1      28.719  24.811  -5.423  1.00  0.00    +0.000 H 
ATOM    142  H38 UNL A   1      28.699  23.178  -4.728  1.00  0.00    +0.000 H 
BRANCH   28   27
ATOM     27  C24 UNL A   1      30.502  23.680  -5.716  1.00  0.00    +0.000 C 
ATOM    140  H36 UNL A   1      30.818  22.889  -5.067  1.00  0.00    +0.000 H 
ATOM    139  H35 UNL A   1      30.927  24.628  -5.460  1.00  0.00    +0.000 H 
BRANCH   27   26
ATOM    137  H33 UNL A   1      31.723  22.538  -7.038  1.00  0.00    +0.000 H 
ATOM     26  C23 UNL A   1      30.982  23.304  -7.126  1.00  0.00    +0.000 C 
ATOM    138  H34 UNL A   1      30.123  22.978  -7.673  1.00  0.00    +0.000 H 
BRANCH   26   25
ATOM     25  C22 UNL A   1      31.584  24.471  -7.892  1.00  0.00    +0.000 C 
ATOM    135  H31 UNL A   1      30.963  25.332  -7.766  1.00  0.00    +0.000 H 
ATOM    136  H32 UNL A   1      32.566  24.665  -7.512  1.00  0.00    +0.000 H 
BRANCH   25   24
ATOM    133  H29 UNL A   1      32.045  25.004  -9.884  1.00  0.00    +0.000 H 
ATOM    134  H30 UNL A   1      32.359  23.320  -9.474  1.00  0.00    +0.000 H 
ATOM     24  C21 UNL A   1      31.686  24.143  -9.359  1.00  0.00    +0.000 C 
BRANCH   24   23
ATOM    132  H28 UNL A   1      29.610  24.206  -9.519  1.00  0.00    +0.000 H 
ATOM     23  N1  UNL A   1      30.397  23.760  -9.907  1.00  0.00    +0.000 N 
BRANCH   23   21
ATOM     21  C20 UNL A   1      30.145  22.846 -10.907  1.00  0.00    +0.000 C 
ATOM     22  O1  UNL A   1      31.103  22.274 -11.389  1.00  0.00    +0.000 O 
BRANCH   21   18
ATOM     18  C17 UNL A   1      28.731  22.823 -11.503  1.00  0.00    +0.000 C 
BRANCH   18   17
ATOM     17  C16 UNL A   1      27.509  22.522 -10.588  1.00  0.00    +0.000 C 
ATOM    124  H20 UNL A   1      27.885  22.250  -9.624  1.00  0.00    +0.000 H 
ATOM    125  H21 UNL A   1      26.920  23.416 -10.602  1.00  0.00    +0.000 H 
BRANCH   17   16
ATOM      4  C4  UNL A   1      24.508  18.196 -13.538  1.00  0.00    +0.000 C 
ATOM      5  C5  UNL A   1      25.243  17.390 -12.664  1.00  0.00    +0.000 C 
ATOM      6  C6  UNL A   1      26.018  17.936 -11.635  1.00  0.00    +0.000 C 
ATOM      7  C7  UNL A   1      26.063  19.334 -11.494  1.00  0.00    +0.000 C 
ATOM      8  C8  UNL A   1      25.284  20.182 -12.299  1.00  0.00    +0.000 C 
ATOM      9  C9  UNL A   1      24.495  19.587 -13.321  1.00  0.00    +0.000 C 
ATOM     10  C10 UNL A   1      25.526  21.547 -11.892  1.00  0.00    +0.000 C 
ATOM    112  H8  UNL A   1      25.214  16.365 -12.782  1.00  0.00    +0.000 H 
ATOM    113  H9  UNL A   1      26.546  17.325 -10.992  1.00  0.00    +0.000 H 
ATOM    114  H10 UNL A   1      23.902  20.187 -13.916  1.00  0.00    +0.000 H 
ATOM     16  C15 UNL A   1      26.606  21.460 -11.026  1.00  0.00    +0.000 C 
ATOM     96  N7  UNL A   1      26.801  20.138 -10.636  1.00  0.00    +0.000 N 
BRANCH    4    2
ATOM      2  C2  UNL A   1      23.751  17.547 -14.686  1.00  0.00    +0.000 C 
ATOM    108  H4  UNL A   1      24.056  16.522 -14.704  1.00  0.00    +0.000 H 
BRANCH    2    1
ATOM      1  C1  UNL A   1      22.244  17.614 -14.449  1.00  0.00    +0.000 C 
ATOM    106  H2  UNL A   1      21.980  18.590 -14.097  1.00  0.00    +0.000 H 
ATOM    107  H3  UNL A   1      21.964  16.884 -13.718  1.00  0.00    +0.000 H 
ATOM    105  H1  UNL A   1      21.729  17.416 -15.366  1.00  0.00    +0.000 H 
ENDBRANCH    2    1
BRANCH    2    3
ATOM      3  C3  UNL A   1      24.114  18.127 -16.058  1.00  0.00    +0.000 C 
ATOM    109  H5  UNL A   1      24.430  17.336 -16.707  1.00  0.00    +0.000 H 
ATOM    110  H6  UNL A   1      24.907  18.836 -15.947  1.00  0.00    +0.000 H 
ATOM    111  H7  UNL A   1      23.257  18.612 -16.478  1.00  0.00    +0.000 H 
ENDBRANCH    2    3
ENDBRANCH    4    2
BRANCH   10   11
ATOM     11  S1  UNL A   1      24.703  22.919 -12.692  1.00  0.00    +0.000 S 
ATOM     12  C11 UNL A   1      23.068  23.574 -12.031  1.00  0.00    +0.000 C 
ATOM     13  C12 UNL A   1      21.968  22.522 -12.211  1.00  0.00    +0.000 C 
ATOM     14  C13 UNL A   1      22.877  24.229 -10.639  1.00  0.00    +0.000 C 
ATOM     15  C14 UNL A   1      22.794  24.788 -12.962  1.00  0.00    +0.000 C 
ATOM    115  H11 UNL A   1      22.163  21.689 -11.568  1.00  0.00    +0.000 H 
ATOM    116  H12 UNL A   1      21.954  22.191 -13.228  1.00  0.00    +0.000 H 
ATOM    117  H13 UNL A   1      21.020  22.951 -11.963  1.00  0.00    +0.000 H 
ATOM    118  H14 UNL A   1      23.038  23.497  -9.876  1.00  0.00    +0.000 H 
ATOM    119  H15 UNL A   1      21.882  24.615 -10.560  1.00  0.00    +0.000 H 
ATOM    120  H16 UNL A   1      23.580  25.027 -10.522  1.00  0.00    +0.000 H 
ATOM    121  H17 UNL A   1      22.890  24.484 -13.983  1.00  0.00    +0.000 H 
ATOM    122  H18 UNL A   1      23.499  25.566 -12.753  1.00  0.00    +0.000 H 
ATOM    123  H19 UNL A   1      21.802  25.153 -12.791  1.00  0.00    +0.000 H 
ENDBRANCH   10   11
BRANCH   96   97
ATOM     97  C72 UNL A   1      27.490  19.649  -9.405  1.00  0.00    +0.000 C 
ATOM    161  H57 UNL A   1      27.383  20.457  -8.712  1.00  0.00    +0.000 H 
ATOM    160  H56 UNL A   1      27.028  18.723  -9.133  1.00  0.00    +0.000 H 
BRANCH   97   98
ATOM     98  C73 UNL A   1      28.994  19.401  -9.451  1.00  0.00    +0.000 C 
ATOM     99  C74 UNL A   1      29.864  19.977  -8.502  1.00  0.00    +0.000 C 
ATOM    100  C75 UNL A   1      31.254  19.961  -8.679  1.00  0.00    +0.000 C 
ATOM    162  H58 UNL A   1      29.469  20.420  -7.659  1.00  0.00    +0.000 H 
ATOM    165  H61 UNL A   1      28.968  18.071 -11.094  1.00  0.00    +0.000 H 
ATOM    103  C77 UNL A   1      30.971  18.529 -10.594  1.00  0.00    +0.000 C 
ATOM    104  C78 UNL A   1      29.574  18.605 -10.453  1.00  0.00    +0.000 C 
ATOM    163  H59 UNL A   1      31.867  20.466  -8.021  1.00  0.00    +0.000 H 
ATOM    164  H60 UNL A   1      31.383  17.931 -11.327  1.00  0.00    +0.000 H 
ATOM    101  C76 UNL A   1      31.800  19.259  -9.745  1.00  0.00    +0.000 C 
ATOM    102 Cl1  UNL A   1      33.496  19.330 -10.032  1.00  0.00    +0.000 Cl
ENDBRANCH   97   98
ENDBRANCH   96   97
ENDBRANCH   17   16
ENDBRANCH   18   17
BRANCH   18   19
ATOM     19  C18 UNL A   1      28.988  21.649 -12.491  1.00  0.00    +0.000 C 
ATOM    126  H22 UNL A   1      29.930  21.792 -12.978  1.00  0.00    +0.000 H 
ATOM    127  H23 UNL A   1      28.209  21.622 -13.224  1.00  0.00    +0.000 H 
ATOM    128  H24 UNL A   1      29.003  20.725 -11.952  1.00  0.00    +0.000 H 
ENDBRANCH   18   19
BRANCH   18   20
ATOM    129  H25 UNL A   1      29.169  24.939 -11.678  1.00  0.00    +0.000 H 
ATOM    130  H26 UNL A   1      27.464  24.582 -11.548  1.00  0.00    +0.000 H 
ATOM    131  H27 UNL A   1      28.306  24.283 -13.048  1.00  0.00    +0.000 H 
ATOM     20  C19 UNL A   1      28.390  24.271 -11.982  1.00  0.00    +0.000 C 
ENDBRANCH   18   20
ENDBRANCH   21   18
ENDBRANCH   23   21
ENDBRANCH   24   23
ENDBRANCH   25   24
ENDBRANCH   26   25
ENDBRANCH   27   26
ENDBRANCH   28   27
ENDBRANCH   29   28
ENDBRANCH   30   29
ENDBRANCH   31   30
ENDBRANCH   33   31
ENDBRANCH   37   36
BRANCH   41   42
ATOM     42  C36 UNL A   1      19.988  29.316  -0.463  1.00  0.00    +0.000 C 
ATOM     43  C37 UNL A   1      20.089  30.426   0.399  1.00  0.00    +0.000 C 
ATOM     44  F1  UNL A   1      21.246  30.705   1.018  1.00  0.00    +0.000 F 
ATOM     45  C38 UNL A   1      18.981  31.220   0.710  1.00  0.00    +0.000 C 
ATOM     46  F2  UNL A   1      19.097  32.201   1.615  1.00  0.00    +0.000 F 
ATOM     47  C39 UNL A   1      17.748  30.964   0.137  1.00  0.00    +0.000 C 
ATOM     48  F3  UNL A   1      16.676  31.694   0.469  1.00  0.00    +0.000 F 
ATOM     49  C40 UNL A   1      17.619  29.911  -0.743  1.00  0.00    +0.000 C 
ATOM     50  F4  UNL A   1      16.426  29.625  -1.284  1.00  0.00    +0.000 F 
ATOM     51  C41 UNL A   1      18.709  29.086  -1.015  1.00  0.00    +0.000 C 
ATOM     52  F5  UNL A   1      18.437  27.995  -1.741  1.00  0.00    +0.000 F 
ENDBRANCH   41   42
BRANCH   58   59
ATOM     65  F8  UNL A   1      23.524  19.631   2.984  1.00  0.00    +0.000 F 
ATOM     66  C51 UNL A   1      22.896  21.247   1.381  1.00  0.00    +0.000 C 
ATOM     67  F9  UNL A   1      23.601  20.608   0.439  1.00  0.00    +0.000 F 
ATOM     68  C52 UNL A   1      22.189  22.399   1.052  1.00  0.00    +0.000 C 
ATOM     69  F10 UNL A   1      22.242  22.847  -0.212  1.00  0.00    +0.000 F 
ATOM     59  C47 UNL A   1      21.390  23.060   1.997  1.00  0.00    +0.000 C 
ATOM     60  C48 UNL A   1      21.333  22.517   3.292  1.00  0.00    +0.000 C 
ATOM     61  F6  UNL A   1      20.523  23.040   4.222  1.00  0.00    +0.000 F 
ATOM     62  C49 UNL A   1      22.076  21.384   3.630  1.00  0.00    +0.000 C 
ATOM     63  F7  UNL A   1      22.017  20.889   4.875  1.00  0.00    +0.000 F 
ATOM     64  C50 UNL A   1      22.848  20.746   2.672  1.00  0.00    +0.000 C 
ENDBRANCH   58   59
BRANCH   73   74
ATOM     74  C56 UNL A   1      17.097  21.359  -2.314  1.00  0.00    +0.000 C 
ATOM     75  C57 UNL A   1      16.416  20.360  -1.595  1.00  0.00    +0.000 C 
ATOM     76  F11 UNL A   1      16.996  19.782  -0.532  1.00  0.00    +0.000 F 
ATOM     77  C58 UNL A   1      15.101  20.000  -1.904  1.00  0.00    +0.000 C 
ATOM     78  F12 UNL A   1      14.458  19.099  -1.148  1.00  0.00    +0.000 F 
ATOM     79  C59 UNL A   1      14.432  20.620  -2.947  1.00  0.00    +0.000 C 
ATOM     80  F13 UNL A   1      13.149  20.329  -3.198  1.00  0.00    +0.000 F 
ATOM     81  C60 UNL A   1      15.088  21.577  -3.701  1.00  0.00    +0.000 C 
ATOM     82  F14 UNL A   1      14.441  22.208  -4.690  1.00  0.00    +0.000 F 
ATOM     83  C61 UNL A   1      16.399  21.941  -3.389  1.00  0.00    +0.000 C 
ATOM     84  F15 UNL A   1      16.937  22.945  -4.096  1.00  0.00    +0.000 F 
ENDBRANCH   73   74
TORSDOF 25
ENDMDL
