MODEL 1
REMARK VINA RESULT:     -10.2      0.000      0.000
REMARK  Name = 
REMARK  15 active torsions:
REMARK  status: ('A' for Active; 'I' for Inactive)
REMARK    1  A    between atoms: C_2  and  C_3
REMARK    2  A    between atoms: C_3  and  C_4
REMARK    3  A    between atoms: N_7  and  C_8
REMARK    4  A    between atoms: N_14  and  C_15
REMARK    5  A    between atoms: C_15  and  C_16
REMARK    6  A    between atoms: C_16  and  C_17
REMARK    7  A    between atoms: C_17  and  C_18
REMARK    8  A    between atoms: C_18  and  C_19
REMARK    9  A    between atoms: C_19  and  C_20
REMARK   10  A    between atoms: C_20  and  N_21
REMARK   11  A    between atoms: C_22  and  C_24
REMARK   12  A    between atoms: C_27  and  C_28
REMARK   13  A    between atoms: C_32  and  C_33
REMARK   14  A    between atoms: C_49  and  C_50
REMARK   15  A    between atoms: C_64  and  C_65
REMARK                            x       y       z     vdW  Elec       q    Type
REMARK                         _______ _______ _______ _____ _____    ______ ____
ROOT
ATOM      1  C   UNL A   1      53.235  19.507  11.692  0.00  0.00    +0.000 C 
ATOM      2  C   UNL A   1      54.579  18.868  11.557  0.00  0.00    +0.000 C 
ATOM      3  N   UNL A   1      55.603  18.942  12.364  0.00  0.00    +0.000 NA
ATOM      4  C   UNL A   1      56.594  18.176  11.778  0.00  0.00    +0.000 C 
ATOM      5  C   UNL A   1      57.857  17.970  12.213  0.00  0.00    +0.000 C 
ATOM      6  C   UNL A   1      58.400  18.526  13.420  0.00  0.00    +0.000 A 
ATOM      7  C   UNL A   1      59.687  18.396  13.911  0.00  0.00    +0.000 A 
ATOM      8  C   UNL A   1      59.752  19.045  15.148  0.00  0.00    +0.000 A 
ATOM      9  C   UNL A   1      58.520  19.622  15.405  0.00  0.00    +0.000 A 
ATOM     10  N   UNL A   1      57.691  19.301  14.333  0.00  0.00    +0.000 N 
ATOM     11  C   UNL A   1      58.131  20.391  16.554  0.00  0.00    +0.000 C 
ATOM     12  C   UNL A   1      56.908  20.943  16.719  0.00  0.00    +0.000 C 
ATOM     13  N   UNL A   1      55.828  20.892  15.856  0.00  0.00    +0.000 NA
ATOM     14  C   UNL A   1      54.870  21.561  16.450  0.00  0.00    +0.000 C 
ATOM     15  C   UNL A   1      53.489  21.842  15.967  0.00  0.00    +0.000 C 
ATOM     16  C   UNL A   1      53.086  21.341  14.785  0.00  0.00    +0.000 A 
ATOM     17  C   UNL A   1      51.769  21.569  14.197  0.00  0.00    +0.000 A 
ATOM     18  C   UNL A   1      51.693  20.915  13.029  0.00  0.00    +0.000 A 
ATOM     19  C   UNL A   1      52.964  20.240  12.783  0.00  0.00    +0.000 A 
ATOM     20  N   UNL A   1      53.739  20.543  13.877  0.00  0.00    +0.000 N 
ATOM     21  C   UNL A   1      55.236  22.109  17.762  0.00  0.00    +0.000 C 
ATOM     22  C   UNL A   1      56.497  21.712  17.873  0.00  0.00    +0.000 C 
ATOM     23  C   UNL A   1      56.043  17.622  10.561  0.00  0.00    +0.000 C 
ATOM     24  C   UNL A   1      54.801  18.041  10.365  0.00  0.00    +0.000 C 
ATOM     25  H   UNL A   1      56.712  19.583  14.236  0.00  0.00    +0.000 HD
ATOM     26  H   UNL A   1      54.707  20.227  13.993  0.00  0.00    +0.000 HD
ENDROOT
BRANCH   5  27
ATOM     27  C   UNL A   1      58.736  17.108  11.364  0.00  0.00    +0.000 A 
ATOM     28  C   UNL A   1      59.476  17.656  10.306  0.00  0.00    +0.000 A 
ATOM     29  F   UNL A   1      59.385  18.964  10.026  0.00  0.00    +0.000 F 
ATOM     30  C   UNL A   1      60.295  16.853   9.519  0.00  0.00    +0.000 A 
ATOM     31  F   UNL A   1      60.972  17.389   8.493  0.00  0.00    +0.000 F 
ATOM     32  C   UNL A   1      60.403  15.495   9.784  0.00  0.00    +0.000 A 
ATOM     33  F   UNL A   1      61.181  14.721   9.014  0.00  0.00    +0.000 F 
ATOM     34  C   UNL A   1      59.686  14.937  10.832  0.00  0.00    +0.000 A 
ATOM     35  F   UNL A   1      59.781  13.623  11.082  0.00  0.00    +0.000 F 
ATOM     36  C   UNL A   1      58.854  15.735  11.615  0.00  0.00    +0.000 A 
ATOM     37  F   UNL A   1      58.147  15.166  12.601  0.00  0.00    +0.000 F 
ENDBRANCH   5  27
BRANCH  11  38
ATOM     38  C   UNL A   1      59.129  20.612  17.649  0.00  0.00    +0.000 A 
ATOM     39  C   UNL A   1      59.308  19.664  18.665  0.00  0.00    +0.000 A 
ATOM     40  F   UNL A   1      58.586  18.533  18.665  0.00  0.00    +0.000 F 
ATOM     41  C   UNL A   1      60.219  19.884  19.697  0.00  0.00    +0.000 A 
ATOM     42  F   UNL A   1      60.352  18.980  20.675  0.00  0.00    +0.000 F 
ATOM     43  C   UNL A   1      60.979  21.047  19.723  0.00  0.00    +0.000 A 
ATOM     44  F   UNL A   1      61.845  21.261  20.724  0.00  0.00    +0.000 F 
ATOM     45  C   UNL A   1      60.827  21.989  18.715  0.00  0.00    +0.000 A 
ATOM     46  F   UNL A   1      61.557  23.114  18.739  0.00  0.00    +0.000 F 
ATOM     47  C   UNL A   1      59.911  21.776  17.688  0.00  0.00    +0.000 A 
ATOM     48  F   UNL A   1      59.770  22.711  16.737  0.00  0.00    +0.000 F 
ENDBRANCH  11  38
BRANCH  15  49
ATOM     49  C   UNL A   1      52.551  22.670  16.756  0.00  0.00    +0.000 A 
ATOM     50  C   UNL A   1      52.479  24.055  16.571  0.00  0.00    +0.000 A 
ATOM     51  F   UNL A   1      53.197  24.640  15.602  0.00  0.00    +0.000 F 
ATOM     52  C   UNL A   1      51.670  24.844  17.388  0.00  0.00    +0.000 A 
ATOM     53  F   UNL A   1      51.629  26.170  17.207  0.00  0.00    +0.000 F 
ATOM     54  C   UNL A   1      50.919  24.255  18.395  0.00  0.00    +0.000 A 
ATOM     55  F   UNL A   1      50.150  25.015  19.188  0.00  0.00    +0.000 F 
ATOM     56  C   UNL A   1      50.960  22.880  18.578  0.00  0.00    +0.000 A 
ATOM     57  F   UNL A   1      50.225  22.305  19.539  0.00  0.00    +0.000 F 
ATOM     58  C   UNL A   1      51.769  22.091  17.762  0.00  0.00    +0.000 A 
ATOM     59  F   UNL A   1      51.808  20.764  17.951  0.00  0.00    +0.000 F 
ENDBRANCH  15  49
BRANCH   1  63
ATOM     60  C   UNL A   1      50.467  18.905   8.487  0.00  0.00    +0.000 A 
ATOM     61  C   UNL A   1      51.127  20.134   8.619  0.00  0.00    +0.000 A 
ATOM     62  C   UNL A   1      52.002  20.346   9.688  0.00  0.00    +0.000 A 
ATOM     63  C   UNL A   1      52.219  19.331  10.632  0.00  0.00    +0.000 A 
ATOM     64  C   UNL A   1      51.506  18.130  10.534  0.00  0.00    +0.000 A 
ATOM     65  C   UNL A   1      50.633  17.916   9.464  0.00  0.00    +0.000 A 
BRANCH  60  67
ATOM     66  N   UNL A   1      49.357  19.629   6.449  0.00  0.00    +0.000 N 
ATOM     67  C   UNL A   1      49.609  18.578   7.319  0.00  0.00    +0.000 C 
ATOM     68  O   UNL A   1      49.245  17.416   7.169  0.00  0.00    +0.000 OA
ATOM     69  H   UNL A   1      49.755  20.545   6.634  0.00  0.00    +0.000 HD
BRANCH  66  70
ATOM     70  C   UNL A   1      48.623  19.463   5.200  0.00  0.00    +0.000 C 
BRANCH  70  71
ATOM     71  C   UNL A   1      47.117  19.447   5.431  0.00  0.00    +0.000 C 
BRANCH  71  72
ATOM     72  C   UNL A   1      46.483  18.187   4.836  0.00  0.00    +0.000 C 
BRANCH  72  73
ATOM     73  C   UNL A   1      46.165  17.155   5.919  0.00  0.00    +0.000 C 
BRANCH  73  74
ATOM     74  C   UNL A   1      46.432  15.724   5.440  0.00  0.00    +0.000 C 
BRANCH  74  75
ATOM     75  C   UNL A   1      47.627  15.684   4.489  0.00  0.00    +0.000 C 
BRANCH  75  78
ATOM     76  O   UNL A   1      50.064  14.782   3.337  0.00  0.00    +0.000 OA
ATOM     77  C   UNL A   1      50.020  15.041   4.537  0.00  0.00    +0.000 C 
ATOM     78  N   UNL A   1      48.883  15.473   5.181  0.00  0.00    +0.000 N 
ATOM     79  H   UNL A   1      48.946  15.745   6.152  0.00  0.00    +0.000 HD
BRANCH  77  80
ATOM     80  C   UNL A   1      51.243  14.919   5.448  0.00  0.00    +0.000 C 
BRANCH  80  81
ATOM     81  C   UNL A   1      52.022  16.203   5.598  0.00  0.00    +0.000 A 
ATOM     82  C   UNL A   1      52.961  16.309   6.698  0.00  0.00    +0.000 A 
ATOM     83  C   UNL A   1      53.588  17.468   6.940  0.00  0.00    +0.000 A 
ATOM     84  N   UNL A   1      53.387  18.577   6.142  0.00  0.00    +0.000 N 
ATOM     85  C   UNL A   1      52.527  18.566   5.060  0.00  0.00    +0.000 A 
ATOM     86  O   UNL A   1      52.344  19.521   4.316  0.00  0.00    +0.000 OA
ATOM     87  C   UNL A   1      51.813  17.277   4.815  0.00  0.00    +0.000 A 
BRANCH  84  88
ATOM     88  C   UNL A   1      53.990  19.841   6.460  0.00  0.00    +0.000 C 
ATOM     89  F   UNL A   1      54.474  19.811   7.731  0.00  0.00    +0.000 F 
ATOM     90  F   UNL A   1      55.051  20.107   5.654  0.00  0.00    +0.000 F 
ENDBRANCH  84  88
ENDBRANCH  80  81
ENDBRANCH  77  80
ENDBRANCH  75  78
ENDBRANCH  74  75
ENDBRANCH  73  74
ENDBRANCH  72  73
ENDBRANCH  71  72
ENDBRANCH  70  71
ENDBRANCH  66  70
ENDBRANCH  60  67
ENDBRANCH   1  63
TORSDOF 15
ENDMDL
MODEL 2
REMARK VINA RESULT:     -10.1      5.062      6.526
REMARK  Name = 
REMARK  15 active torsions:
REMARK  status: ('A' for Active; 'I' for Inactive)
REMARK    1  A    between atoms: C_2  and  C_3
REMARK    2  A    between atoms: C_3  and  C_4
REMARK    3  A    between atoms: N_7  and  C_8
REMARK    4  A    between atoms: N_14  and  C_15
REMARK    5  A    between atoms: C_15  and  C_16
REMARK    6  A    between atoms: C_16  and  C_17
REMARK    7  A    between atoms: C_17  and  C_18
REMARK    8  A    between atoms: C_18  and  C_19
REMARK    9  A    between atoms: C_19  and  C_20
REMARK   10  A    between atoms: C_20  and  N_21
REMARK   11  A    between atoms: C_22  and  C_24
REMARK   12  A    between atoms: C_27  and  C_28
REMARK   13  A    between atoms: C_32  and  C_33
REMARK   14  A    between atoms: C_49  and  C_50
REMARK   15  A    between atoms: C_64  and  C_65
REMARK                            x       y       z     vdW  Elec       q    Type
REMARK                         _______ _______ _______ _____ _____    ______ ____
ROOT
ATOM      1  C   UNL A   1      52.935  20.089  11.489  0.00  0.00    +0.000 C 
ATOM      2  C   UNL A   1      54.262  19.441  11.270  0.00  0.00    +0.000 C 
ATOM      3  N   UNL A   1      55.296  19.403  12.069  0.00  0.00    +0.000 NA
ATOM      4  C   UNL A   1      56.264  18.685  11.391  0.00  0.00    +0.000 C 
ATOM      5  C   UNL A   1      57.525  18.407  11.785  0.00  0.00    +0.000 C 
ATOM      6  C   UNL A   1      58.092  18.815  13.040  0.00  0.00    +0.000 A 
ATOM      7  C   UNL A   1      59.380  18.605  13.499  0.00  0.00    +0.000 A 
ATOM      8  C   UNL A   1      59.470  19.113  14.798  0.00  0.00    +0.000 A 
ATOM      9  C   UNL A   1      58.254  19.684  15.131  0.00  0.00    +0.000 A 
ATOM     10  N   UNL A   1      57.409  19.501  14.040  0.00  0.00    +0.000 N 
ATOM     11  C   UNL A   1      57.893  20.331  16.362  0.00  0.00    +0.000 C 
ATOM     12  C   UNL A   1      56.684  20.887  16.601  0.00  0.00    +0.000 C 
ATOM     13  N   UNL A   1      55.595  20.954  15.750  0.00  0.00    +0.000 NA
ATOM     14  C   UNL A   1      54.659  21.573  16.425  0.00  0.00    +0.000 C 
ATOM     15  C   UNL A   1      53.279  21.935  15.991  0.00  0.00    +0.000 C 
ATOM     16  C   UNL A   1      52.854  21.576  14.767  0.00  0.00    +0.000 A 
ATOM     17  C   UNL A   1      51.538  21.894  14.223  0.00  0.00    +0.000 A 
ATOM     18  C   UNL A   1      51.436  21.374  12.990  0.00  0.00    +0.000 A 
ATOM     19  C   UNL A   1      52.689  20.703  12.657  0.00  0.00    +0.000 A 
ATOM     20  N   UNL A   1      53.482  20.868  13.769  0.00  0.00    +0.000 N 
ATOM     21  C   UNL A   1      55.048  21.967  17.785  0.00  0.00    +0.000 C 
ATOM     22  C   UNL A   1      56.301  21.534  17.837  0.00  0.00    +0.000 C 
ATOM     23  C   UNL A   1      55.689  18.280  10.127  0.00  0.00    +0.000 C 
ATOM     24  C   UNL A   1      54.455  18.744   9.992  0.00  0.00    +0.000 C 
ATOM     25  H   UNL A   1      56.436  19.812  13.986  0.00  0.00    +0.000 HD
ATOM     26  H   UNL A   1      54.443  20.521  13.839  0.00  0.00    +0.000 HD
ENDROOT
BRANCH   5  27
ATOM     27  C   UNL A   1      58.378  17.625  10.837  0.00  0.00    +0.000 A 
ATOM     28  C   UNL A   1      58.394  16.224  10.871  0.00  0.00    +0.000 A 
ATOM     29  F   UNL A   1      57.658  15.563  11.777  0.00  0.00    +0.000 F 
ATOM     30  C   UNL A   1      59.185  15.499   9.987  0.00  0.00    +0.000 A 
ATOM     31  F   UNL A   1      59.211  14.159  10.053  0.00  0.00    +0.000 F 
ATOM     32  C   UNL A   1      59.962  16.158   9.044  0.00  0.00    +0.000 A 
ATOM     33  F   UNL A   1      60.736  15.458   8.204  0.00  0.00    +0.000 F 
ATOM     34  C   UNL A   1      59.952  17.544   8.989  0.00  0.00    +0.000 A 
ATOM     35  F   UNL A   1      60.709  18.182   8.085  0.00  0.00    +0.000 F 
ATOM     36  C   UNL A   1      59.170  18.275   9.881  0.00  0.00    +0.000 A 
ATOM     37  F   UNL A   1      59.202  19.614   9.829  0.00  0.00    +0.000 F 
ENDBRANCH   5  27
BRANCH  11  38
ATOM     38  C   UNL A   1      58.906  20.409  17.463  0.00  0.00    +0.000 A 
ATOM     39  C   UNL A   1      59.156  19.310  18.295  0.00  0.00    +0.000 A 
ATOM     40  F   UNL A   1      58.490  18.160  18.108  0.00  0.00    +0.000 F 
ATOM     41  C   UNL A   1      60.080  19.394  19.335  0.00  0.00    +0.000 A 
ATOM     42  F   UNL A   1      60.280  18.340  20.138  0.00  0.00    +0.000 F 
ATOM     43  C   UNL A   1      60.782  20.572  19.552  0.00  0.00    +0.000 A 
ATOM     44  F   UNL A   1      61.661  20.653  20.562  0.00  0.00    +0.000 F 
ATOM     45  C   UNL A   1      60.561  21.666  18.727  0.00  0.00    +0.000 A 
ATOM     46  F   UNL A   1      61.236  22.805  18.937  0.00  0.00    +0.000 F 
ATOM     47  C   UNL A   1      59.632  21.587  17.694  0.00  0.00    +0.000 A 
ATOM     48  F   UNL A   1      59.422  22.665  16.923  0.00  0.00    +0.000 F 
ENDBRANCH  11  38
BRANCH  15  49
ATOM     49  C   UNL A   1      52.367  22.691  16.877  0.00  0.00    +0.000 A 
ATOM     50  C   UNL A   1      52.286  24.086  16.808  0.00  0.00    +0.000 A 
ATOM     51  F   UNL A   1      52.968  24.752  15.867  0.00  0.00    +0.000 F 
ATOM     52  C   UNL A   1      51.504  24.801  17.715  0.00  0.00    +0.000 A 
ATOM     53  F   UNL A   1      51.453  26.138  17.644  0.00  0.00    +0.000 F 
ATOM     54  C   UNL A   1      50.789  24.129  18.695  0.00  0.00    +0.000 A 
ATOM     55  F   UNL A   1      50.046  24.818  19.574  0.00  0.00    +0.000 F 
ATOM     56  C   UNL A   1      50.840  22.743  18.763  0.00  0.00    +0.000 A 
ATOM     57  F   UNL A   1      50.139  22.089  19.699  0.00  0.00    +0.000 F 
ATOM     58  C   UNL A   1      51.622  22.028  17.858  0.00  0.00    +0.000 A 
ATOM     59  F   UNL A   1      51.670  20.690  17.937  0.00  0.00    +0.000 F 
ENDBRANCH  15  49
BRANCH   1  63
ATOM     60  C   UNL A   1      49.800  20.074   8.580  0.00  0.00    +0.000 A 
ATOM     61  C   UNL A   1      50.039  18.932   9.355  0.00  0.00    +0.000 A 
ATOM     62  C   UNL A   1      51.087  18.922  10.278  0.00  0.00    +0.000 A 
ATOM     63  C   UNL A   1      51.905  20.052  10.428  0.00  0.00    +0.000 A 
ATOM     64  C   UNL A   1      51.705  21.166   9.604  0.00  0.00    +0.000 A 
ATOM     65  C   UNL A   1      50.655  21.178   8.682  0.00  0.00    +0.000 A 
BRANCH  60  67
ATOM     66  N   UNL A   1      48.276  19.021   7.005  0.00  0.00    +0.000 N 
ATOM     67  C   UNL A   1      48.639  20.189   7.659  0.00  0.00    +0.000 C 
ATOM     68  O   UNL A   1      48.052  21.265   7.590  0.00  0.00    +0.000 OA
ATOM     69  H   UNL A   1      48.795  18.164   7.176  0.00  0.00    +0.000 HD
BRANCH  66  70
ATOM     70  C   UNL A   1      47.100  18.926   6.148  0.00  0.00    +0.000 C 
BRANCH  70  71
ATOM     71  C   UNL A   1      47.407  19.371   4.722  0.00  0.00    +0.000 C 
BRANCH  71  72
ATOM     72  C   UNL A   1      46.655  18.510   3.704  0.00  0.00    +0.000 C 
BRANCH  72  73
ATOM     73  C   UNL A   1      45.476  19.268   3.092  0.00  0.00    +0.000 C 
BRANCH  73  74
ATOM     74  C   UNL A   1      44.221  18.395   3.002  0.00  0.00    +0.000 C 
BRANCH  74  75
ATOM     75  C   UNL A   1      42.957  19.249   3.104  0.00  0.00    +0.000 C 
BRANCH  75  78
ATOM     76  O   UNL A   1      42.699  21.558   1.466  0.00  0.00    +0.000 OA
ATOM     77  C   UNL A   1      42.180  20.503   1.112  0.00  0.00    +0.000 C 
ATOM     78  N   UNL A   1      42.244  19.339   1.845  0.00  0.00    +0.000 N 
ATOM     79  H   UNL A   1      41.863  18.491   1.449  0.00  0.00    +0.000 HD
BRANCH  77  80
ATOM     80  C   UNL A   1      41.408  20.368  -0.201  0.00  0.00    +0.000 C 
BRANCH  80  81
ATOM     81  C   UNL A   1      40.003  20.918  -0.144  0.00  0.00    +0.000 A 
ATOM     82  C   UNL A   1      39.331  20.948   1.140  0.00  0.00    +0.000 A 
ATOM     83  C   UNL A   1      38.045  21.318   1.220  0.00  0.00    +0.000 A 
ATOM     84  N   UNL A   1      37.337  21.708   0.101  0.00  0.00    +0.000 N 
ATOM     85  C   UNL A   1      37.898  21.731  -1.162  0.00  0.00    +0.000 A 
ATOM     86  O   UNL A   1      37.308  22.095  -2.172  0.00  0.00    +0.000 OA
ATOM     87  C   UNL A   1      39.323  21.291  -1.244  0.00  0.00    +0.000 A 
BRANCH  84  88
ATOM     88  C   UNL A   1      35.936  22.015   0.177  0.00  0.00    +0.000 C 
ATOM     89  F   UNL A   1      35.430  21.557   1.355  0.00  0.00    +0.000 F 
ATOM     90  F   UNL A   1      35.715  23.356   0.164  0.00  0.00    +0.000 F 
ENDBRANCH  84  88
ENDBRANCH  80  81
ENDBRANCH  77  80
ENDBRANCH  75  78
ENDBRANCH  74  75
ENDBRANCH  73  74
ENDBRANCH  72  73
ENDBRANCH  71  72
ENDBRANCH  70  71
ENDBRANCH  66  70
ENDBRANCH  60  67
ENDBRANCH   1  63
TORSDOF 15
ENDMDL
MODEL 3
REMARK VINA RESULT:     -10.1     41.903     49.414
REMARK  Name = 
REMARK  15 active torsions:
REMARK  status: ('A' for Active; 'I' for Inactive)
REMARK    1  A    between atoms: C_2  and  C_3
REMARK    2  A    between atoms: C_3  and  C_4
REMARK    3  A    between atoms: N_7  and  C_8
REMARK    4  A    between atoms: N_14  and  C_15
REMARK    5  A    between atoms: C_15  and  C_16
REMARK    6  A    between atoms: C_16  and  C_17
REMARK    7  A    between atoms: C_17  and  C_18
REMARK    8  A    between atoms: C_18  and  C_19
REMARK    9  A    between atoms: C_19  and  C_20
REMARK   10  A    between atoms: C_20  and  N_21
REMARK   11  A    between atoms: C_22  and  C_24
REMARK   12  A    between atoms: C_27  and  C_28
REMARK   13  A    between atoms: C_32  and  C_33
REMARK   14  A    between atoms: C_49  and  C_50
REMARK   15  A    between atoms: C_64  and  C_65
REMARK                            x       y       z     vdW  Elec       q    Type
REMARK                         _______ _______ _______ _____ _____    ______ ____
ROOT
ATOM      1  C   UNL A   1      23.620  38.202  48.330  0.00  0.00    +0.000 C 
ATOM      2  C   UNL A   1      23.630  36.856  47.683  0.00  0.00    +0.000 C 
ATOM      3  N   UNL A   1      24.604  36.264  47.043  0.00  0.00    +0.000 NA
ATOM      4  C   UNL A   1      24.096  35.042  46.641  0.00  0.00    +0.000 C 
ATOM      5  C   UNL A   1      24.708  34.083  45.913  0.00  0.00    +0.000 C 
ATOM      6  C   UNL A   1      26.055  34.170  45.425  0.00  0.00    +0.000 A 
ATOM      7  C   UNL A   1      26.737  33.254  44.644  0.00  0.00    +0.000 A 
ATOM      8  C   UNL A   1      28.044  33.717  44.466  0.00  0.00    +0.000 A 
ATOM      9  C   UNL A   1      28.164  34.945  45.094  0.00  0.00    +0.000 A 
ATOM     10  N   UNL A   1      26.932  35.221  45.681  0.00  0.00    +0.000 N 
ATOM     11  C   UNL A   1      29.325  35.788  45.164  0.00  0.00    +0.000 C 
ATOM     12  C   UNL A   1      29.352  36.991  45.781  0.00  0.00    +0.000 C 
ATOM     13  N   UNL A   1      28.318  37.636  46.436  0.00  0.00    +0.000 NA
ATOM     14  C   UNL A   1      28.826  38.761  46.875  0.00  0.00    +0.000 C 
ATOM     15  C   UNL A   1      28.157  39.853  47.636  0.00  0.00    +0.000 C 
ATOM     16  C   UNL A   1      26.866  39.720  47.989  0.00  0.00    +0.000 A 
ATOM     17  C   UNL A   1      26.098  40.730  48.711  0.00  0.00    +0.000 A 
ATOM     18  C   UNL A   1      24.854  40.271  48.916  0.00  0.00    +0.000 A 
ATOM     19  C   UNL A   1      24.739  38.942  48.321  0.00  0.00    +0.000 A 
ATOM     20  N   UNL A   1      25.982  38.687  47.790  0.00  0.00    +0.000 N 
ATOM     21  C   UNL A   1      30.245  38.955  46.549  0.00  0.00    +0.000 C 
ATOM     22  C   UNL A   1      30.514  37.848  45.869  0.00  0.00    +0.000 C 
ATOM     23  C   UNL A   1      22.738  34.961  47.131  0.00  0.00    +0.000 C 
ATOM     24  C   UNL A   1      22.391  36.072  47.764  0.00  0.00    +0.000 C 
ATOM     25  H   UNL A   1      26.708  36.059  46.223  0.00  0.00    +0.000 HD
ATOM     26  H   UNL A   1      26.217  37.829  47.282  0.00  0.00    +0.000 HD
ENDROOT
BRANCH   5  27
ATOM     27  C   UNL A   1      23.911  32.857  45.596  0.00  0.00    +0.000 A 
ATOM     28  C   UNL A   1      24.110  31.666  46.307  0.00  0.00    +0.000 A 
ATOM     29  F   UNL A   1      25.039  31.603  47.271  0.00  0.00    +0.000 F 
ATOM     30  C   UNL A   1      23.366  30.528  46.012  0.00  0.00    +0.000 A 
ATOM     31  F   UNL A   1      23.590  29.388  46.683  0.00  0.00    +0.000 F 
ATOM     32  C   UNL A   1      22.402  30.564  45.015  0.00  0.00    +0.000 A 
ATOM     33  F   UNL A   1      21.698  29.461  44.722  0.00  0.00    +0.000 F 
ATOM     34  C   UNL A   1      22.185  31.736  44.306  0.00  0.00    +0.000 A 
ATOM     35  F   UNL A   1      21.261  31.769  43.335  0.00  0.00    +0.000 F 
ATOM     36  C   UNL A   1      22.936  32.875  44.589  0.00  0.00    +0.000 A 
ATOM     37  F   UNL A   1      22.730  33.987  43.869  0.00  0.00    +0.000 F 
ENDBRANCH   5  27
BRANCH  11  38
ATOM     38  C   UNL A   1      30.594  35.328  44.517  0.00  0.00    +0.000 A 
ATOM     39  C   UNL A   1      30.856  35.598  43.166  0.00  0.00    +0.000 A 
ATOM     40  F   UNL A   1      29.967  36.285  42.433  0.00  0.00    +0.000 F 
ATOM     41  C   UNL A   1      32.027  35.146  42.560  0.00  0.00    +0.000 A 
ATOM     42  F   UNL A   1      32.243  35.387  41.260  0.00  0.00    +0.000 F 
ATOM     43  C   UNL A   1      32.964  34.431  43.295  0.00  0.00    +0.000 A 
ATOM     44  F   UNL A   1      34.083  33.987  42.705  0.00  0.00    +0.000 F 
ATOM     45  C   UNL A   1      32.729  34.170  44.638  0.00  0.00    +0.000 A 
ATOM     46  F   UNL A   1      33.631  33.477  45.349  0.00  0.00    +0.000 F 
ATOM     47  C   UNL A   1      31.557  34.612  45.243  0.00  0.00    +0.000 A 
ATOM     48  F   UNL A   1      31.345  34.330  46.538  0.00  0.00    +0.000 F 
ENDBRANCH  11  38
BRANCH  15  49
ATOM     49  C   UNL A   1      28.880  41.090  48.005  0.00  0.00    +0.000 A 
ATOM     50  C   UNL A   1      28.829  42.227  47.190  0.00  0.00    +0.000 A 
ATOM     51  F   UNL A   1      28.040  42.240  46.107  0.00  0.00    +0.000 F 
ATOM     52  C   UNL A   1      29.595  43.353  47.487  0.00  0.00    +0.000 A 
ATOM     53  F   UNL A   1      29.545  44.425  46.685  0.00  0.00    +0.000 F 
ATOM     54  C   UNL A   1      30.415  43.358  48.605  0.00  0.00    +0.000 A 
ATOM     55  F   UNL A   1      31.161  44.438  48.884  0.00  0.00    +0.000 F 
ATOM     56  C   UNL A   1      30.461  42.247  49.437  0.00  0.00    +0.000 A 
ATOM     57  F   UNL A   1      31.241  42.254  50.527  0.00  0.00    +0.000 F 
ATOM     58  C   UNL A   1      29.696  41.121  49.140  0.00  0.00    +0.000 A 
ATOM     59  F   UNL A   1      29.754  40.051  49.946  0.00  0.00    +0.000 F 
ENDBRANCH  15  49
BRANCH   1  63
ATOM     60  C   UNL A   1      19.948  39.461  50.126  0.00  0.00    +0.000 A 
ATOM     61  C   UNL A   1      20.224  39.793  48.793  0.00  0.00    +0.000 A 
ATOM     62  C   UNL A   1      21.439  39.416  48.217  0.00  0.00    +0.000 A 
ATOM     63  C   UNL A   1      22.387  38.709  48.971  0.00  0.00    +0.000 A 
ATOM     64  C   UNL A   1      22.135  38.439  50.322  0.00  0.00    +0.000 A 
ATOM     65  C   UNL A   1      20.919  38.813  50.899  0.00  0.00    +0.000 A 
BRANCH  60  67
ATOM     66  N   UNL A   1      17.530  39.624  49.934  0.00  0.00    +0.000 N 
ATOM     67  C   UNL A   1      18.635  39.737  50.765  0.00  0.00    +0.000 C 
ATOM     68  O   UNL A   1      18.610  39.976  51.968  0.00  0.00    +0.000 OA
ATOM     69  H   UNL A   1      17.654  39.363  48.960  0.00  0.00    +0.000 HD
BRANCH  66  70
ATOM     70  C   UNL A   1      16.160  39.757  50.417  0.00  0.00    +0.000 C 
BRANCH  70  71
ATOM     71  C   UNL A   1      15.341  38.503  50.133  0.00  0.00    +0.000 C 
BRANCH  71  72
ATOM     72  C   UNL A   1      16.093  37.556  49.195  0.00  0.00    +0.000 C 
BRANCH  72  73
ATOM     73  C   UNL A   1      15.177  36.454  48.659  0.00  0.00    +0.000 C 
BRANCH  73  74
ATOM     74  C   UNL A   1      15.377  36.224  47.158  0.00  0.00    +0.000 C 
BRANCH  74  75
ATOM     75  C   UNL A   1      16.612  36.971  46.655  0.00  0.00    +0.000 C 
BRANCH  75  78
ATOM     76  O   UNL A   1      18.956  37.678  45.211  0.00  0.00    +0.000 OA
ATOM     77  C   UNL A   1      18.779  36.510  45.546  0.00  0.00    +0.000 C 
ATOM     78  N   UNL A   1      17.671  36.075  46.237  0.00  0.00    +0.000 N 
ATOM     79  H   UNL A   1      17.637  35.114  46.548  0.00  0.00    +0.000 HD
BRANCH  77  80
ATOM     80  C   UNL A   1      19.792  35.406  45.235  0.00  0.00    +0.000 C 
BRANCH  80  81
ATOM     81  C   UNL A   1      19.161  34.094  44.835  0.00  0.00    +0.000 A 
ATOM     82  C   UNL A   1      19.179  33.005  45.792  0.00  0.00    +0.000 A 
ATOM     83  C   UNL A   1      18.738  31.790  45.439  0.00  0.00    +0.000 A 
ATOM     84  N   UNL A   1      18.229  31.546  44.179  0.00  0.00    +0.000 N 
ATOM     85  C   UNL A   1      18.153  32.525  43.207  0.00  0.00    +0.000 A 
ATOM     86  O   UNL A   1      17.684  32.351  42.089  0.00  0.00    +0.000 OA
ATOM     87  C   UNL A   1      18.672  33.869  43.601  0.00  0.00    +0.000 A 
BRANCH  84  88
ATOM     88  C   UNL A   1      17.842  30.222  43.777  0.00  0.00    +0.000 C 
ATOM     89  F   UNL A   1      18.780  29.326  44.188  0.00  0.00    +0.000 F 
ATOM     90  F   UNL A   1      16.673  29.843  44.357  0.00  0.00    +0.000 F 
ENDBRANCH  84  88
ENDBRANCH  80  81
ENDBRANCH  77  80
ENDBRANCH  75  78
ENDBRANCH  74  75
ENDBRANCH  73  74
ENDBRANCH  72  73
ENDBRANCH  71  72
ENDBRANCH  70  71
ENDBRANCH  66  70
ENDBRANCH  60  67
ENDBRANCH   1  63
TORSDOF 15
ENDMDL
MODEL 4
REMARK VINA RESULT:     -10.1     40.130     47.217
REMARK  Name = 
REMARK  15 active torsions:
REMARK  status: ('A' for Active; 'I' for Inactive)
REMARK    1  A    between atoms: C_2  and  C_3
REMARK    2  A    between atoms: C_3  and  C_4
REMARK    3  A    between atoms: N_7  and  C_8
REMARK    4  A    between atoms: N_14  and  C_15
REMARK    5  A    between atoms: C_15  and  C_16
REMARK    6  A    between atoms: C_16  and  C_17
REMARK    7  A    between atoms: C_17  and  C_18
REMARK    8  A    between atoms: C_18  and  C_19
REMARK    9  A    between atoms: C_19  and  C_20
REMARK   10  A    between atoms: C_20  and  N_21
REMARK   11  A    between atoms: C_22  and  C_24
REMARK   12  A    between atoms: C_27  and  C_28
REMARK   13  A    between atoms: C_32  and  C_33
REMARK   14  A    between atoms: C_49  and  C_50
REMARK   15  A    between atoms: C_64  and  C_65
REMARK                            x       y       z     vdW  Elec       q    Type
REMARK                         _______ _______ _______ _____ _____    ______ ____
ROOT
ATOM      1  C   UNL A   1      25.956  35.462  45.344  0.00  0.00    +0.000 C 
ATOM      2  C   UNL A   1      27.303  35.416  44.700  0.00  0.00    +0.000 C 
ATOM      3  N   UNL A   1      28.301  36.249  44.830  0.00  0.00    +0.000 NA
ATOM      4  C   UNL A   1      29.307  35.754  44.021  0.00  0.00    +0.000 C 
ATOM      5  C   UNL A   1      30.527  36.285  43.788  0.00  0.00    +0.000 C 
ATOM      6  C   UNL A   1      31.011  37.499  44.381  0.00  0.00    +0.000 A 
ATOM      7  C   UNL A   1      32.225  38.126  44.164  0.00  0.00    +0.000 A 
ATOM      8  C   UNL A   1      32.298  39.242  45.004  0.00  0.00    +0.000 A 
ATOM      9  C   UNL A   1      31.110  39.339  45.708  0.00  0.00    +0.000 A 
ATOM     10  N   UNL A   1      30.318  38.263  45.316  0.00  0.00    +0.000 N 
ATOM     11  C   UNL A   1      30.740  40.333  46.677  0.00  0.00    +0.000 C 
ATOM     12  C   UNL A   1      29.544  40.372  47.306  0.00  0.00    +0.000 C 
ATOM     13  N   UNL A   1      28.473  39.509  47.152  0.00  0.00    +0.000 NA
ATOM     14  C   UNL A   1      27.550  39.943  47.974  0.00  0.00    +0.000 C 
ATOM     15  C   UNL A   1      26.181  39.403  48.209  0.00  0.00    +0.000 C 
ATOM     16  C   UNL A   1      25.782  38.299  47.553  0.00  0.00    +0.000 A 
ATOM     17  C   UNL A   1      24.461  37.693  47.682  0.00  0.00    +0.000 A 
ATOM     18  C   UNL A   1      24.402  36.601  46.906  0.00  0.00    +0.000 A 
ATOM     19  C   UNL A   1      25.679  36.445  46.214  0.00  0.00    +0.000 A 
ATOM     20  N   UNL A   1      26.447  37.498  46.656  0.00  0.00    +0.000 N 
ATOM     21  C   UNL A   1      27.934  41.131  48.746  0.00  0.00    +0.000 C 
ATOM     22  C   UNL A   1      29.159  41.359  48.290  0.00  0.00    +0.000 C 
ATOM     23  C   UNL A   1      28.813  34.533  43.423  0.00  0.00    +0.000 C 
ATOM     24  C   UNL A   1      27.564  34.291  43.793  0.00  0.00    +0.000 C 
ATOM     25  H   UNL A   1      29.379  38.060  45.667  0.00  0.00    +0.000 HD
ATOM     26  H   UNL A   1      27.402  37.678  46.334  0.00  0.00    +0.000 HD
ENDROOT
BRANCH   5  27
ATOM     27  C   UNL A   1      31.419  35.548  42.839  0.00  0.00    +0.000 A 
ATOM     28  C   UNL A   1      31.462  35.888  41.480  0.00  0.00    +0.000 A 
ATOM     29  F   UNL A   1      30.681  36.870  41.006  0.00  0.00    +0.000 F 
ATOM     30  C   UNL A   1      32.294  35.204  40.600  0.00  0.00    +0.000 A 
ATOM     31  F   UNL A   1      32.300  35.523  39.298  0.00  0.00    +0.000 F 
ATOM     32  C   UNL A   1      33.108  34.180  41.064  0.00  0.00    +0.000 A 
ATOM     33  F   UNL A   1      33.897  33.512  40.212  0.00  0.00    +0.000 F 
ATOM     34  C   UNL A   1      33.086  33.835  42.408  0.00  0.00    +0.000 A 
ATOM     35  F   UNL A   1      33.865  32.840  42.855  0.00  0.00    +0.000 F 
ATOM     36  C   UNL A   1      32.245  34.510  43.290  0.00  0.00    +0.000 A 
ATOM     37  F   UNL A   1      32.218  34.137  44.577  0.00  0.00    +0.000 F 
ENDBRANCH   5  27
BRANCH  11  38
ATOM     38  C   UNL A   1      31.725  41.407  47.025  0.00  0.00    +0.000 A 
ATOM     39  C   UNL A   1      31.557  42.720  46.564  0.00  0.00    +0.000 A 
ATOM     40  F   UNL A   1      30.497  43.035  45.803  0.00  0.00    +0.000 F 
ATOM     41  C   UNL A   1      32.488  43.710  46.868  0.00  0.00    +0.000 A 
ATOM     42  F   UNL A   1      32.325  44.951  46.390  0.00  0.00    +0.000 F 
ATOM     43  C   UNL A   1      33.596  43.412  47.652  0.00  0.00    +0.000 A 
ATOM     44  F   UNL A   1      34.497  44.365  47.931  0.00  0.00    +0.000 F 
ATOM     45  C   UNL A   1      33.769  42.121  48.132  0.00  0.00    +0.000 A 
ATOM     46  F   UNL A   1      34.839  41.830  48.886  0.00  0.00    +0.000 F 
ATOM     47  C   UNL A   1      32.845  41.128  47.822  0.00  0.00    +0.000 A 
ATOM     48  F   UNL A   1      33.046  39.884  48.283  0.00  0.00    +0.000 F 
ENDBRANCH  11  38
BRANCH  15  49
ATOM     49  C   UNL A   1      25.244  40.062  49.146  0.00  0.00    +0.000 A 
ATOM     50  C   UNL A   1      25.164  39.664  50.486  0.00  0.00    +0.000 A 
ATOM     51  F   UNL A   1      26.009  38.739  50.963  0.00  0.00    +0.000 F 
ATOM     52  C   UNL A   1      24.208  40.215  51.338  0.00  0.00    +0.000 A 
ATOM     53  F   UNL A   1      24.135  39.809  52.612  0.00  0.00    +0.000 F 
ATOM     54  C   UNL A   1      23.327  41.175  50.862  0.00  0.00    +0.000 A 
ATOM     55  F   UNL A   1      22.399  41.697  51.679  0.00  0.00    +0.000 F 
ATOM     56  C   UNL A   1      23.408  41.598  49.542  0.00  0.00    +0.000 A 
ATOM     57  F   UNL A   1      22.568  42.535  49.083  0.00  0.00    +0.000 F 
ATOM     58  C   UNL A   1      24.362  41.046  48.690  0.00  0.00    +0.000 A 
ATOM     59  F   UNL A   1      24.427  41.456  47.415  0.00  0.00    +0.000 F 
ENDBRANCH  15  49
BRANCH   1  63
ATOM     60  C   UNL A   1      22.877  32.596  44.573  0.00  0.00    +0.000 A 
ATOM     61  C   UNL A   1      23.845  32.335  45.553  0.00  0.00    +0.000 A 
ATOM     62  C   UNL A   1      24.874  33.253  45.778  0.00  0.00    +0.000 A 
ATOM     63  C   UNL A   1      24.943  34.433  45.024  0.00  0.00    +0.000 A 
ATOM     64  C   UNL A   1      24.013  34.657  44.001  0.00  0.00    +0.000 A 
ATOM     65  C   UNL A   1      22.982  33.741  43.776  0.00  0.00    +0.000 A 
BRANCH  60  67
ATOM     66  N   UNL A   1      20.516  32.368  44.038  0.00  0.00    +0.000 N 
ATOM     67  C   UNL A   1      21.699  31.716  44.358  0.00  0.00    +0.000 C 
ATOM     68  O   UNL A   1      21.860  30.501  44.410  0.00  0.00    +0.000 OA
ATOM     69  H   UNL A   1      20.501  33.380  43.963  0.00  0.00    +0.000 HD
BRANCH  66  70
ATOM     70  C   UNL A   1      19.290  31.658  43.692  0.00  0.00    +0.000 C 
BRANCH  70  71
ATOM     71  C   UNL A   1      18.453  31.347  44.927  0.00  0.00    +0.000 C 
BRANCH  71  72
ATOM     72  C   UNL A   1      17.057  30.856  44.536  0.00  0.00    +0.000 C 
BRANCH  72  73
ATOM     73  C   UNL A   1      17.074  30.135  43.188  0.00  0.00    +0.000 C 
BRANCH  73  74
ATOM     74  C   UNL A   1      17.188  28.616  43.354  0.00  0.00    +0.000 C 
BRANCH  74  75
ATOM     75  C   UNL A   1      16.177  28.105  44.380  0.00  0.00    +0.000 C 
BRANCH  75  78
ATOM     76  O   UNL A   1      16.448  25.305  43.975  0.00  0.00    +0.000 OA
ATOM     77  C   UNL A   1      15.406  25.867  43.647  0.00  0.00    +0.000 C 
ATOM     78  N   UNL A   1      15.191  27.219  43.796  0.00  0.00    +0.000 N 
ATOM     79  H   UNL A   1      14.278  27.594  43.579  0.00  0.00    +0.000 HD
BRANCH  77  80
ATOM     80  C   UNL A   1      14.222  25.112  43.041  0.00  0.00    +0.000 C 
BRANCH  80  81
ATOM     81  C   UNL A   1      14.403  24.756  41.586  0.00  0.00    +0.000 A 
ATOM     82  C   UNL A   1      14.548  23.357  41.236  0.00  0.00    +0.000 A 
ATOM     83  C   UNL A   1      14.829  23.003  39.974  0.00  0.00    +0.000 A 
ATOM     84  N   UNL A   1      14.956  23.945  38.972  0.00  0.00    +0.000 N 
ATOM     85  C   UNL A   1      14.815  25.300  39.206  0.00  0.00    +0.000 A 
ATOM     86  O   UNL A   1      14.895  26.161  38.338  0.00  0.00    +0.000 OA
ATOM     87  C   UNL A   1      14.530  25.686  40.620  0.00  0.00    +0.000 A 
BRANCH  84  88
ATOM     88  C   UNL A   1      15.345  23.568  37.642  0.00  0.00    +0.000 C 
ATOM     89  F   UNL A   1      15.849  22.304  37.653  0.00  0.00    +0.000 F 
ATOM     90  F   UNL A   1      14.283  23.548  36.795  0.00  0.00    +0.000 F 
ENDBRANCH  84  88
ENDBRANCH  80  81
ENDBRANCH  77  80
ENDBRANCH  75  78
ENDBRANCH  74  75
ENDBRANCH  73  74
ENDBRANCH  72  73
ENDBRANCH  71  72
ENDBRANCH  70  71
ENDBRANCH  66  70
ENDBRANCH  60  67
ENDBRANCH   1  63
TORSDOF 15
ENDMDL
MODEL 5
REMARK VINA RESULT:     -10.0      1.416      7.571
REMARK  Name = 
REMARK  15 active torsions:
REMARK  status: ('A' for Active; 'I' for Inactive)
REMARK    1  A    between atoms: C_2  and  C_3
REMARK    2  A    between atoms: C_3  and  C_4
REMARK    3  A    between atoms: N_7  and  C_8
REMARK    4  A    between atoms: N_14  and  C_15
REMARK    5  A    between atoms: C_15  and  C_16
REMARK    6  A    between atoms: C_16  and  C_17
REMARK    7  A    between atoms: C_17  and  C_18
REMARK    8  A    between atoms: C_18  and  C_19
REMARK    9  A    between atoms: C_19  and  C_20
REMARK   10  A    between atoms: C_20  and  N_21
REMARK   11  A    between atoms: C_22  and  C_24
REMARK   12  A    between atoms: C_27  and  C_28
REMARK   13  A    between atoms: C_32  and  C_33
REMARK   14  A    between atoms: C_49  and  C_50
REMARK   15  A    between atoms: C_64  and  C_65
REMARK                            x       y       z     vdW  Elec       q    Type
REMARK                         _______ _______ _______ _____ _____    ______ ____
ROOT
ATOM      1  C   UNL A   1      53.457  20.159  11.906  0.00  0.00    +0.000 C 
ATOM      2  C   UNL A   1      53.182  20.797  13.228  0.00  0.00    +0.000 C 
ATOM      3  N   UNL A   1      53.955  20.868  14.278  0.00  0.00    +0.000 NA
ATOM      4  C   UNL A   1      53.226  21.555  15.231  0.00  0.00    +0.000 C 
ATOM      5  C   UNL A   1      53.581  21.850  16.501  0.00  0.00    +0.000 C 
ATOM      6  C   UNL A   1      54.839  21.496  17.095  0.00  0.00    +0.000 A 
ATOM      7  C   UNL A   1      55.261  21.726  18.393  0.00  0.00    +0.000 A 
ATOM      8  C   UNL A   1      56.579  21.275  18.511  0.00  0.00    +0.000 A 
ATOM      9  C   UNL A   1      56.963  20.720  17.302  0.00  0.00    +0.000 A 
ATOM     10  N   UNL A   1      55.883  20.856  16.433  0.00  0.00    +0.000 N 
ATOM     11  C   UNL A   1      58.228  20.127  16.968  0.00  0.00    +0.000 C 
ATOM     12  C   UNL A   1      58.517  19.582  15.765  0.00  0.00    +0.000 C 
ATOM     13  N   UNL A   1      57.694  19.479  14.658  0.00  0.00    +0.000 NA
ATOM     14  C   UNL A   1      58.415  18.890  13.736  0.00  0.00    +0.000 C 
ATOM     15  C   UNL A   1      58.027  18.511  12.348  0.00  0.00    +0.000 C 
ATOM     16  C   UNL A   1      56.797  18.817  11.897  0.00  0.00    +0.000 A 
ATOM     17  C   UNL A   1      56.296  18.476  10.569  0.00  0.00    +0.000 A 
ATOM     18  C   UNL A   1      55.045  18.942  10.440  0.00  0.00    +0.000 A 
ATOM     19  C   UNL A   1      54.656  19.597  11.686  0.00  0.00    +0.000 A 
ATOM     20  N   UNL A   1      55.757  19.479  12.502  0.00  0.00    +0.000 N 
ATOM     21  C   UNL A   1      59.782  18.556  14.155  0.00  0.00    +0.000 C 
ATOM     22  C   UNL A   1      59.788  18.991  15.409  0.00  0.00    +0.000 C 
ATOM     23  C   UNL A   1      51.959  21.905  14.629  0.00  0.00    +0.000 C 
ATOM     24  C   UNL A   1      51.870  21.436  13.393  0.00  0.00    +0.000 C 
ATOM     25  H   UNL A   1      55.864  20.543  15.460  0.00  0.00    +0.000 HD
ATOM     26  H   UNL A   1      55.790  19.829  13.464  0.00  0.00    +0.000 HD
ENDROOT
BRANCH   5  27
ATOM     27  C   UNL A   1      52.581  22.589  17.332  0.00  0.00    +0.000 A 
ATOM     28  C   UNL A   1      51.707  21.903  18.187  0.00  0.00    +0.000 A 
ATOM     29  F   UNL A   1      51.742  20.564  18.252  0.00  0.00    +0.000 F 
ATOM     30  C   UNL A   1      50.780  22.592  18.962  0.00  0.00    +0.000 A 
ATOM     31  F   UNL A   1      49.932  21.917  19.751  0.00  0.00    +0.000 F 
ATOM     32  C   UNL A   1      50.720  23.978  18.908  0.00  0.00    +0.000 A 
ATOM     33  F   UNL A   1      49.815  24.639  19.643  0.00  0.00    +0.000 F 
ATOM     34  C   UNL A   1      51.582  24.675  18.075  0.00  0.00    +0.000 A 
ATOM     35  F   UNL A   1      51.518  26.013  18.015  0.00  0.00    +0.000 F 
ATOM     36  C   UNL A   1      52.504  23.988  17.288  0.00  0.00    +0.000 A 
ATOM     37  F   UNL A   1      53.305  24.682  16.467  0.00  0.00    +0.000 F 
ENDBRANCH   5  27
BRANCH  11  38
ATOM     38  C   UNL A   1      59.309  20.096  18.004  0.00  0.00    +0.000 A 
ATOM     39  C   UNL A   1      59.622  18.913  18.688  0.00  0.00    +0.000 A 
ATOM     40  F   UNL A   1      58.954  17.782  18.415  0.00  0.00    +0.000 F 
ATOM     41  C   UNL A   1      60.611  18.894  19.670  0.00  0.00    +0.000 A 
ATOM     42  F   UNL A   1      60.871  17.760  20.334  0.00  0.00    +0.000 F 
ATOM     43  C   UNL A   1      61.316  20.051  19.975  0.00  0.00    +0.000 A 
ATOM     44  F   UNL A   1      62.258  20.031  20.929  0.00  0.00    +0.000 F 
ATOM     45  C   UNL A   1      61.033  21.227  19.295  0.00  0.00    +0.000 A 
ATOM     46  F   UNL A   1      61.710  22.346  19.589  0.00  0.00    +0.000 F 
ATOM     47  C   UNL A   1      60.039  21.251  18.320  0.00  0.00    +0.000 A 
ATOM     48  F   UNL A   1      59.771  22.406  17.692  0.00  0.00    +0.000 F 
ENDBRANCH  11  38
BRANCH  15  49
ATOM     49  C   UNL A   1      58.965  17.795  11.455  0.00  0.00    +0.000 A 
ATOM     50  C   UNL A   1      59.773  18.492  10.549  0.00  0.00    +0.000 A 
ATOM     51  F   UNL A   1      59.776  19.832  10.546  0.00  0.00    +0.000 F 
ATOM     52  C   UNL A   1      60.577  17.808   9.638  0.00  0.00    +0.000 A 
ATOM     53  F   UNL A   1      61.330  18.492   8.767  0.00  0.00    +0.000 F 
ATOM     54  C   UNL A   1      60.588  16.421   9.629  0.00  0.00    +0.000 A 
ATOM     55  F   UNL A   1      61.353  15.763   8.744  0.00  0.00    +0.000 F 
ATOM     56  C   UNL A   1      59.810  15.714  10.535  0.00  0.00    +0.000 A 
ATOM     57  F   UNL A   1      59.829  14.374  10.539  0.00  0.00    +0.000 F 
ATOM     58  C   UNL A   1      59.005  16.397  11.445  0.00  0.00    +0.000 A 
ATOM     59  F   UNL A   1      58.252  15.705  12.312  0.00  0.00    +0.000 F 
ENDBRANCH  15  49
BRANCH   1  63
ATOM     60  C   UNL A   1      50.328  20.291   8.994  0.00  0.00    +0.000 A 
ATOM     61  C   UNL A   1      50.311  19.309   9.993  0.00  0.00    +0.000 A 
ATOM     62  C   UNL A   1      51.353  19.240  10.921  0.00  0.00    +0.000 A 
ATOM     63  C   UNL A   1      52.418  20.151  10.853  0.00  0.00    +0.000 A 
ATOM     64  C   UNL A   1      52.464  21.086   9.812  0.00  0.00    +0.000 A 
ATOM     65  C   UNL A   1      51.421  21.158   8.885  0.00  0.00    +0.000 A 
BRANCH  60  67
ATOM     66  N   UNL A   1      49.562  20.672   6.718  0.00  0.00    +0.000 N 
ATOM     67  C   UNL A   1      49.201  20.486   8.044  0.00  0.00    +0.000 C 
ATOM     68  O   UNL A   1      48.055  20.406   8.474  0.00  0.00    +0.000 OA
ATOM     69  H   UNL A   1      50.544  20.664   6.455  0.00  0.00    +0.000 HD
BRANCH  66  70
ATOM     70  C   UNL A   1      48.587  20.774   5.639  0.00  0.00    +0.000 C 
BRANCH  70  71
ATOM     71  C   UNL A   1      48.273  19.410   5.034  0.00  0.00    +0.000 C 
BRANCH  71  72
ATOM     72  C   UNL A   1      46.763  19.206   4.894  0.00  0.00    +0.000 C 
BRANCH  72  73
ATOM     73  C   UNL A   1      46.418  18.437   3.617  0.00  0.00    +0.000 C 
BRANCH  73  74
ATOM     74  C   UNL A   1      45.312  17.404   3.854  0.00  0.00    +0.000 C 
BRANCH  74  75
ATOM     75  C   UNL A   1      45.892  15.991   3.910  0.00  0.00    +0.000 C 
BRANCH  75  78
ATOM     76  O   UNL A   1      47.685  14.031   4.921  0.00  0.00    +0.000 OA
ATOM     77  C   UNL A   1      48.123  14.974   4.268  0.00  0.00    +0.000 C 
ATOM     78  N   UNL A   1      47.332  15.974   3.748  0.00  0.00    +0.000 N 
ATOM     79  H   UNL A   1      47.755  16.671   3.152  0.00  0.00    +0.000 HD
BRANCH  77  80
ATOM     80  C   UNL A   1      49.611  15.131   3.950  0.00  0.00    +0.000 C 
BRANCH  80  81
ATOM     81  C   UNL A   1      50.457  15.492   5.147  0.00  0.00    +0.000 A 
ATOM     82  C   UNL A   1      50.022  16.590   5.987  0.00  0.00    +0.000 A 
ATOM     83  C   UNL A   1      50.799  17.021   6.990  0.00  0.00    +0.000 A 
ATOM     84  N   UNL A   1      52.009  16.421   7.274  0.00  0.00    +0.000 N 
ATOM     85  C   UNL A   1      52.498  15.355   6.541  0.00  0.00    +0.000 A 
ATOM     86  O   UNL A   1      53.554  14.782   6.780  0.00  0.00    +0.000 OA
ATOM     87  C   UNL A   1      51.637  14.900   5.409  0.00  0.00    +0.000 A 
BRANCH  84  88
ATOM     88  C   UNL A   1      52.879  16.943   8.290  0.00  0.00    +0.000 C 
ATOM     89  F   UNL A   1      52.981  18.294   8.156  0.00  0.00    +0.000 F 
ATOM     90  F   UNL A   1      52.385  16.721   9.536  0.00  0.00    +0.000 F 
ENDBRANCH  84  88
ENDBRANCH  80  81
ENDBRANCH  77  80
ENDBRANCH  75  78
ENDBRANCH  74  75
ENDBRANCH  73  74
ENDBRANCH  72  73
ENDBRANCH  71  72
ENDBRANCH  70  71
ENDBRANCH  66  70
ENDBRANCH  60  67
ENDBRANCH   1  63
TORSDOF 15
ENDMDL
MODEL 6
REMARK VINA RESULT:     -10.0      3.644      5.030
REMARK  Name = 
REMARK  15 active torsions:
REMARK  status: ('A' for Active; 'I' for Inactive)
REMARK    1  A    between atoms: C_2  and  C_3
REMARK    2  A    between atoms: C_3  and  C_4
REMARK    3  A    between atoms: N_7  and  C_8
REMARK    4  A    between atoms: N_14  and  C_15
REMARK    5  A    between atoms: C_15  and  C_16
REMARK    6  A    between atoms: C_16  and  C_17
REMARK    7  A    between atoms: C_17  and  C_18
REMARK    8  A    between atoms: C_18  and  C_19
REMARK    9  A    between atoms: C_19  and  C_20
REMARK   10  A    between atoms: C_20  and  N_21
REMARK   11  A    between atoms: C_22  and  C_24
REMARK   12  A    between atoms: C_27  and  C_28
REMARK   13  A    between atoms: C_32  and  C_33
REMARK   14  A    between atoms: C_49  and  C_50
REMARK   15  A    between atoms: C_64  and  C_65
REMARK                            x       y       z     vdW  Elec       q    Type
REMARK                         _______ _______ _______ _____ _____    ______ ____
ROOT
ATOM      1  C   UNL A   1      52.619  20.782  11.538  0.00  0.00    +0.000 C 
ATOM      2  C   UNL A   1      53.889  20.085  11.176  0.00  0.00    +0.000 C 
ATOM      3  N   UNL A   1      54.960  19.906  11.903  0.00  0.00    +0.000 NA
ATOM      4  C   UNL A   1      55.843  19.207  11.100  0.00  0.00    +0.000 C 
ATOM      5  C   UNL A   1      57.104  18.817  11.389  0.00  0.00    +0.000 C 
ATOM      6  C   UNL A   1      57.762  19.062  12.641  0.00  0.00    +0.000 A 
ATOM      7  C   UNL A   1      59.058  18.732  12.998  0.00  0.00    +0.000 A 
ATOM      8  C   UNL A   1      59.250  19.098  14.334  0.00  0.00    +0.000 A 
ATOM      9  C   UNL A   1      58.092  19.701  14.794  0.00  0.00    +0.000 A 
ATOM     10  N   UNL A   1      57.179  19.680  13.744  0.00  0.00    +0.000 N 
ATOM     11  C   UNL A   1      57.840  20.239  16.103  0.00  0.00    +0.000 C 
ATOM     12  C   UNL A   1      56.684  20.836  16.468  0.00  0.00    +0.000 C 
ATOM     13  N   UNL A   1      55.557  21.052  15.695  0.00  0.00    +0.000 NA
ATOM     14  C   UNL A   1      54.699  21.652  16.483  0.00  0.00    +0.000 C 
ATOM     15  C   UNL A   1      53.324  22.135  16.171  0.00  0.00    +0.000 C 
ATOM     16  C   UNL A   1      52.811  21.928  14.945  0.00  0.00    +0.000 A 
ATOM     17  C   UNL A   1      51.490  22.375  14.515  0.00  0.00    +0.000 A 
ATOM     18  C   UNL A   1      51.289  21.991  13.246  0.00  0.00    +0.000 A 
ATOM     19  C   UNL A   1      52.477  21.287  12.773  0.00  0.00    +0.000 A 
ATOM     20  N   UNL A   1      53.337  21.291  13.846  0.00  0.00    +0.000 N 
ATOM     21  C   UNL A   1      55.186  21.881  17.849  0.00  0.00    +0.000 C 
ATOM     22  C   UNL A   1      56.410  21.373  17.782  0.00  0.00    +0.000 C 
ATOM     23  C   UNL A   1      55.176  18.967   9.840  0.00  0.00    +0.000 C 
ATOM     24  C   UNL A   1      53.969  19.513   9.826  0.00  0.00    +0.000 C 
ATOM     25  H   UNL A   1      56.226  20.050  13.779  0.00  0.00    +0.000 HD
ATOM     26  H   UNL A   1      54.277  20.884  13.823  0.00  0.00    +0.000 HD
ENDROOT
BRANCH   5  27
ATOM     27  C   UNL A   1      57.852  18.089  10.318  0.00  0.00    +0.000 A 
ATOM     28  C   UNL A   1      58.636  18.785   9.387  0.00  0.00    +0.000 A 
ATOM     29  F   UNL A   1      58.706  20.123   9.431  0.00  0.00    +0.000 F 
ATOM     30  C   UNL A   1      59.334  18.105   8.394  0.00  0.00    +0.000 A 
ATOM     31  F   UNL A   1      60.054  18.790   7.493  0.00  0.00    +0.000 F 
ATOM     32  C   UNL A   1      59.273  16.721   8.322  0.00  0.00    +0.000 A 
ATOM     33  F   UNL A   1      59.933  16.070   7.354  0.00  0.00    +0.000 F 
ATOM     34  C   UNL A   1      58.510  16.014   9.240  0.00  0.00    +0.000 A 
ATOM     35  F   UNL A   1      58.443  14.677   9.165  0.00  0.00    +0.000 F 
ATOM     36  C   UNL A   1      57.800  16.692  10.229  0.00  0.00    +0.000 A 
ATOM     37  F   UNL A   1      57.044  15.989  11.084  0.00  0.00    +0.000 F 
ENDBRANCH   5  27
BRANCH  11  38
ATOM     38  C   UNL A   1      58.914  20.145  17.143  0.00  0.00    +0.000 A 
ATOM     39  C   UNL A   1      59.133  18.956  17.851  0.00  0.00    +0.000 A 
ATOM     40  F   UNL A   1      58.381  17.874  17.598  0.00  0.00    +0.000 F 
ATOM     41  C   UNL A   1      60.115  18.880  18.837  0.00  0.00    +0.000 A 
ATOM     42  F   UNL A   1      60.287  17.743  19.523  0.00  0.00    +0.000 F 
ATOM     43  C   UNL A   1      60.907  19.985  19.121  0.00  0.00    +0.000 A 
ATOM     44  F   UNL A   1      61.843  19.912  20.079  0.00  0.00    +0.000 F 
ATOM     45  C   UNL A   1      60.716  21.166  18.417  0.00  0.00    +0.000 A 
ATOM     46  F   UNL A   1      61.478  22.235  18.692  0.00  0.00    +0.000 F 
ATOM     47  C   UNL A   1      59.730  21.247  17.439  0.00  0.00    +0.000 A 
ATOM     48  F   UNL A   1      59.553  22.406  16.787  0.00  0.00    +0.000 F 
ENDBRANCH  11  38
BRANCH  15  49
ATOM     49  C   UNL A   1      52.510  22.847  17.181  0.00  0.00    +0.000 A 
ATOM     50  C   UNL A   1      51.653  22.150  18.040  0.00  0.00    +0.000 A 
ATOM     51  F   UNL A   1      51.629  20.810  18.022  0.00  0.00    +0.000 F 
ATOM     52  C   UNL A   1      50.812  22.832  18.917  0.00  0.00    +0.000 A 
ATOM     53  F   UNL A   1      49.985  22.148  19.719  0.00  0.00    +0.000 F 
ATOM     54  C   UNL A   1      50.824  24.219  18.951  0.00  0.00    +0.000 A 
ATOM     55  F   UNL A   1      50.006  24.876  19.788  0.00  0.00    +0.000 F 
ATOM     56  C   UNL A   1      51.684  24.926  18.123  0.00  0.00    +0.000 A 
ATOM     57  F   UNL A   1      51.710  26.265  18.163  0.00  0.00    +0.000 F 
ATOM     58  C   UNL A   1      52.524  24.244  17.245  0.00  0.00    +0.000 A 
ATOM     59  F   UNL A   1      53.347  24.936  16.443  0.00  0.00    +0.000 F 
ENDBRANCH  15  49
BRANCH   1  63
ATOM     60  C   UNL A   1      49.625  21.063   8.497  0.00  0.00    +0.000 A 
ATOM     61  C   UNL A   1      50.481  22.146   8.737  0.00  0.00    +0.000 A 
ATOM     62  C   UNL A   1      51.434  22.071   9.756  0.00  0.00    +0.000 A 
ATOM     63  C   UNL A   1      51.533  20.913  10.542  0.00  0.00    +0.000 A 
ATOM     64  C   UNL A   1      50.631  19.861  10.343  0.00  0.00    +0.000 A 
ATOM     65  C   UNL A   1      49.680  19.934   9.322  0.00  0.00    +0.000 A 
BRANCH  60  67
ATOM     66  N   UNL A   1      48.652  19.867   6.617  0.00  0.00    +0.000 N 
ATOM     67  C   UNL A   1      48.665  21.037   7.363  0.00  0.00    +0.000 C 
ATOM     68  O   UNL A   1      47.922  22.000   7.204  0.00  0.00    +0.000 OA
ATOM     69  H   UNL A   1      49.271  19.101   6.867  0.00  0.00    +0.000 HD
BRANCH  66  70
ATOM     70  C   UNL A   1      47.702  19.628   5.536  0.00  0.00    +0.000 C 
BRANCH  70  71
ATOM     71  C   UNL A   1      48.168  18.505   4.617  0.00  0.00    +0.000 C 
BRANCH  71  72
ATOM     72  C   UNL A   1      48.516  17.248   5.418  0.00  0.00    +0.000 C 
BRANCH  72  73
ATOM     73  C   UNL A   1      47.299  16.710   6.173  0.00  0.00    +0.000 C 
BRANCH  73  74
ATOM     74  C   UNL A   1      46.625  15.558   5.422  0.00  0.00    +0.000 C 
BRANCH  74  75
ATOM     75  C   UNL A   1      45.118  15.789   5.314  0.00  0.00    +0.000 C 
BRANCH  75  78
ATOM     76  O   UNL A   1      45.200  17.128   2.808  0.00  0.00    +0.000 OA
ATOM     77  C   UNL A   1      44.846  17.741   3.812  0.00  0.00    +0.000 C 
ATOM     78  N   UNL A   1      44.785  17.177   5.066  0.00  0.00    +0.000 N 
ATOM     79  H   UNL A   1      44.405  17.721   5.828  0.00  0.00    +0.000 HD
BRANCH  77  80
ATOM     80  C   UNL A   1      44.418  19.209   3.769  0.00  0.00    +0.000 C 
BRANCH  80  81
ATOM     81  C   UNL A   1      43.269  19.483   2.829  0.00  0.00    +0.000 A 
ATOM     82  C   UNL A   1      43.384  20.600   1.913  0.00  0.00    +0.000 A 
ATOM     83  C   UNL A   1      42.345  20.953   1.144  0.00  0.00    +0.000 A 
ATOM     84  N   UNL A   1      41.155  20.253   1.176  0.00  0.00    +0.000 N 
ATOM     85  C   UNL A   1      40.957  19.163   2.002  0.00  0.00    +0.000 A 
ATOM     86  O   UNL A   1      39.926  18.503   2.037  0.00  0.00    +0.000 OA
ATOM     87  C   UNL A   1      42.112  18.795   2.874  0.00  0.00    +0.000 A 
BRANCH  84  88
ATOM     88  C   UNL A   1      40.015  20.689   0.418  0.00  0.00    +0.000 C 
ATOM     89  F   UNL A   1      39.132  21.317   1.240  0.00  0.00    +0.000 F 
ATOM     90  F   UNL A   1      40.362  21.596  -0.533  0.00  0.00    +0.000 F 
ENDBRANCH  84  88
ENDBRANCH  80  81
ENDBRANCH  77  80
ENDBRANCH  75  78
ENDBRANCH  74  75
ENDBRANCH  73  74
ENDBRANCH  72  73
ENDBRANCH  71  72
ENDBRANCH  70  71
ENDBRANCH  66  70
ENDBRANCH  60  67
ENDBRANCH   1  63
TORSDOF 15
ENDMDL
MODEL 7
REMARK VINA RESULT:     -10.0      1.414      2.336
REMARK  Name = 
REMARK  15 active torsions:
REMARK  status: ('A' for Active; 'I' for Inactive)
REMARK    1  A    between atoms: C_2  and  C_3
REMARK    2  A    between atoms: C_3  and  C_4
REMARK    3  A    between atoms: N_7  and  C_8
REMARK    4  A    between atoms: N_14  and  C_15
REMARK    5  A    between atoms: C_15  and  C_16
REMARK    6  A    between atoms: C_16  and  C_17
REMARK    7  A    between atoms: C_17  and  C_18
REMARK    8  A    between atoms: C_18  and  C_19
REMARK    9  A    between atoms: C_19  and  C_20
REMARK   10  A    between atoms: C_20  and  N_21
REMARK   11  A    between atoms: C_22  and  C_24
REMARK   12  A    between atoms: C_27  and  C_28
REMARK   13  A    between atoms: C_32  and  C_33
REMARK   14  A    between atoms: C_49  and  C_50
REMARK   15  A    between atoms: C_64  and  C_65
REMARK                            x       y       z     vdW  Elec       q    Type
REMARK                         _______ _______ _______ _____ _____    ______ ____
ROOT
ATOM      1  C   UNL A   1      53.061  20.290  11.627  0.00  0.00    +0.000 C 
ATOM      2  C   UNL A   1      54.364  19.612  11.360  0.00  0.00    +0.000 C 
ATOM      3  N   UNL A   1      55.403  19.499  12.143  0.00  0.00    +0.000 NA
ATOM      4  C   UNL A   1      56.340  18.786  11.418  0.00  0.00    +0.000 C 
ATOM      5  C   UNL A   1      57.595  18.446  11.783  0.00  0.00    +0.000 C 
ATOM      6  C   UNL A   1      58.187  18.769  13.051  0.00  0.00    +0.000 A 
ATOM      7  C   UNL A   1      59.473  18.493  13.483  0.00  0.00    +0.000 A 
ATOM      8  C   UNL A   1      59.592  18.929  14.807  0.00  0.00    +0.000 A 
ATOM      9  C   UNL A   1      58.399  19.521  15.183  0.00  0.00    +0.000 A 
ATOM     10  N   UNL A   1      57.537  19.423  14.093  0.00  0.00    +0.000 N 
ATOM     11  C   UNL A   1      58.071  20.113  16.450  0.00  0.00    +0.000 C 
ATOM     12  C   UNL A   1      56.884  20.695  16.731  0.00  0.00    +0.000 C 
ATOM     13  N   UNL A   1      55.789  20.842  15.898  0.00  0.00    +0.000 NA
ATOM     14  C   UNL A   1      54.880  21.455  16.614  0.00  0.00    +0.000 C 
ATOM     15  C   UNL A   1      53.509  21.884  16.216  0.00  0.00    +0.000 C 
ATOM     16  C   UNL A   1      53.061  21.604  14.979  0.00  0.00    +0.000 A 
ATOM     17  C   UNL A   1      51.750  21.993  14.467  0.00  0.00    +0.000 A 
ATOM     18  C   UNL A   1      51.620  21.542  13.211  0.00  0.00    +0.000 A 
ATOM     19  C   UNL A   1      52.847  20.850  12.829  0.00  0.00    +0.000 A 
ATOM     20  N   UNL A   1      53.655  20.930  13.939  0.00  0.00    +0.000 N 
ATOM     21  C   UNL A   1      55.295  21.763  17.989  0.00  0.00    +0.000 C 
ATOM     22  C   UNL A   1      56.534  21.287  18.003  0.00  0.00    +0.000 C 
ATOM     23  C   UNL A   1      55.740  18.467  10.141  0.00  0.00    +0.000 C 
ATOM     24  C   UNL A   1      54.521  18.978  10.044  0.00  0.00    +0.000 C 
ATOM     25  H   UNL A   1      56.574  19.768  14.067  0.00  0.00    +0.000 HD
ATOM     26  H   UNL A   1      54.604  20.549  13.979  0.00  0.00    +0.000 HD
ENDROOT
BRANCH   5  27
ATOM     27  C   UNL A   1      58.413  17.688  10.785  0.00  0.00    +0.000 A 
ATOM     28  C   UNL A   1      59.201  18.360   9.841  0.00  0.00    +0.000 A 
ATOM     29  F   UNL A   1      59.213  19.701   9.805  0.00  0.00    +0.000 F 
ATOM     30  C   UNL A   1      59.962  17.654   8.915  0.00  0.00    +0.000 A 
ATOM     31  F   UNL A   1      60.687  18.314   8.000  0.00  0.00    +0.000 F 
ATOM     32  C   UNL A   1      59.961  16.266   8.927  0.00  0.00    +0.000 A 
ATOM     33  F   UNL A   1      60.683  15.588   8.024  0.00  0.00    +0.000 F 
ATOM     34  C   UNL A   1      59.195  15.583   9.860  0.00  0.00    +0.000 A 
ATOM     35  F   UNL A   1      59.186  14.242   9.865  0.00  0.00    +0.000 F 
ATOM     36  C   UNL A   1      58.421  16.287  10.780  0.00  0.00    +0.000 A 
ATOM     37  F   UNL A   1      57.664  15.605  11.651  0.00  0.00    +0.000 F 
ENDBRANCH   5  27
BRANCH  11  38
ATOM     38  C   UNL A   1      59.096  20.100  17.542  0.00  0.00    +0.000 A 
ATOM     39  C   UNL A   1      59.838  21.248  17.851  0.00  0.00    +0.000 A 
ATOM     40  F   UNL A   1      59.631  22.386  17.170  0.00  0.00    +0.000 F 
ATOM     41  C   UNL A   1      60.809  21.226  18.850  0.00  0.00    +0.000 A 
ATOM     42  F   UNL A   1      61.528  22.326  19.108  0.00  0.00    +0.000 F 
ATOM     43  C   UNL A   1      61.045  20.061  19.569  0.00  0.00    +0.000 A 
ATOM     44  F   UNL A   1      61.990  20.041  20.521  0.00  0.00    +0.000 F 
ATOM     45  C   UNL A   1      60.308  18.920  19.289  0.00  0.00    +0.000 A 
ATOM     46  F   UNL A   1      60.536  17.793  19.980  0.00  0.00    +0.000 F 
ATOM     47  C   UNL A   1      59.344  18.937  18.285  0.00  0.00    +0.000 A 
ATOM     48  F   UNL A   1      58.659  17.814  18.021  0.00  0.00    +0.000 F 
ENDBRANCH  11  38
BRANCH  15  49
ATOM     49  C   UNL A   1      52.631  22.621  17.151  0.00  0.00    +0.000 A 
ATOM     50  C   UNL A   1      51.791  21.941  18.040  0.00  0.00    +0.000 A 
ATOM     51  F   UNL A   1      51.842  20.604  18.122  0.00  0.00    +0.000 F 
ATOM     52  C   UNL A   1      50.890  22.637  18.844  0.00  0.00    +0.000 A 
ATOM     53  F   UNL A   1      50.082  21.968  19.677  0.00  0.00    +0.000 F 
ATOM     54  C   UNL A   1      50.824  24.021  18.774  0.00  0.00    +0.000 A 
ATOM     55  F   UNL A   1      49.949  24.690  19.540  0.00  0.00    +0.000 F 
ATOM     56  C   UNL A   1      51.666  24.713  17.914  0.00  0.00    +0.000 A 
ATOM     57  F   UNL A   1      51.616  26.051  17.854  0.00  0.00    +0.000 F 
ATOM     58  C   UNL A   1      52.566  24.017  17.110  0.00  0.00    +0.000 A 
ATOM     59  F   UNL A   1      53.370  24.694  16.276  0.00  0.00    +0.000 F 
ENDBRANCH  15  49
BRANCH   1  63
ATOM     60  C   UNL A   1      49.921  20.584   8.738  0.00  0.00    +0.000 A 
ATOM     61  C   UNL A   1      49.937  19.517   9.646  0.00  0.00    +0.000 A 
ATOM     62  C   UNL A   1      50.983  19.398  10.564  0.00  0.00    +0.000 A 
ATOM     63  C   UNL A   1      52.020  20.343  10.578  0.00  0.00    +0.000 A 
ATOM     64  C   UNL A   1      52.034  21.369   9.625  0.00  0.00    +0.000 A 
ATOM     65  C   UNL A   1      50.987  21.490   8.707  0.00  0.00    +0.000 A 
BRANCH  60  67
ATOM     66  N   UNL A   1      48.680  19.939   6.749  0.00  0.00    +0.000 N 
ATOM     67  C   UNL A   1      48.787  20.828   7.809  0.00  0.00    +0.000 C 
ATOM     68  O   UNL A   1      48.002  21.734   8.071  0.00  0.00    +0.000 OA
ATOM     69  H   UNL A   1      49.352  19.183   6.653  0.00  0.00    +0.000 HD
BRANCH  66  70
ATOM     70  C   UNL A   1      47.570  19.966   5.803  0.00  0.00    +0.000 C 
BRANCH  70  71
ATOM     71  C   UNL A   1      47.429  18.640   5.065  0.00  0.00    +0.000 C 
BRANCH  71  72
ATOM     72  C   UNL A   1      46.404  17.735   5.753  0.00  0.00    +0.000 C 
BRANCH  72  73
ATOM     73  C   UNL A   1      46.902  16.292   5.845  0.00  0.00    +0.000 C 
BRANCH  73  74
ATOM     74  C   UNL A   1      47.425  15.781   4.498  0.00  0.00    +0.000 C 
BRANCH  74  75
ATOM     75  C   UNL A   1      48.842  15.226   4.641  0.00  0.00    +0.000 C 
BRANCH  75  78
ATOM     76  O   UNL A   1      50.770  17.313   4.554  0.00  0.00    +0.000 OA
ATOM     77  C   UNL A   1      50.465  16.814   5.634  0.00  0.00    +0.000 C 
ATOM     78  N   UNL A   1      49.550  15.794   5.770  0.00  0.00    +0.000 N 
ATOM     79  H   UNL A   1      49.291  15.492   6.699  0.00  0.00    +0.000 HD
BRANCH  77  80
ATOM     80  C   UNL A   1      51.069  17.288   6.957  0.00  0.00    +0.000 C 
BRANCH  80  81
ATOM     81  C   UNL A   1      52.578  17.278   6.977  0.00  0.00    +0.000 A 
ATOM     82  C   UNL A   1      53.276  18.503   6.638  0.00  0.00    +0.000 A 
ATOM     83  C   UNL A   1      54.612  18.510   6.528  0.00  0.00    +0.000 A 
ATOM     84  N   UNL A   1      55.360  17.374   6.763  0.00  0.00    +0.000 N 
ATOM     85  C   UNL A   1      54.786  16.166   7.111  0.00  0.00    +0.000 A 
ATOM     86  O   UNL A   1      55.420  15.146   7.352  0.00  0.00    +0.000 OA
ATOM     87  C   UNL A   1      53.295  16.162   7.204  0.00  0.00    +0.000 A 
BRANCH  84  88
ATOM     88  C   UNL A   1      56.781  17.364   6.556  0.00  0.00    +0.000 C 
ATOM     89  F   UNL A   1      57.050  17.293   5.224  0.00  0.00    +0.000 F 
ATOM     90  F   UNL A   1      57.361  18.510   7.001  0.00  0.00    +0.000 F 
ENDBRANCH  84  88
ENDBRANCH  80  81
ENDBRANCH  77  80
ENDBRANCH  75  78
ENDBRANCH  74  75
ENDBRANCH  73  74
ENDBRANCH  72  73
ENDBRANCH  71  72
ENDBRANCH  70  71
ENDBRANCH  66  70
ENDBRANCH  60  67
ENDBRANCH   1  63
TORSDOF 15
ENDMDL
MODEL 8
REMARK VINA RESULT:     -10.0     42.876     46.642
REMARK  Name = 
REMARK  15 active torsions:
REMARK  status: ('A' for Active; 'I' for Inactive)
REMARK    1  A    between atoms: C_2  and  C_3
REMARK    2  A    between atoms: C_3  and  C_4
REMARK    3  A    between atoms: N_7  and  C_8
REMARK    4  A    between atoms: N_14  and  C_15
REMARK    5  A    between atoms: C_15  and  C_16
REMARK    6  A    between atoms: C_16  and  C_17
REMARK    7  A    between atoms: C_17  and  C_18
REMARK    8  A    between atoms: C_18  and  C_19
REMARK    9  A    between atoms: C_19  and  C_20
REMARK   10  A    between atoms: C_20  and  N_21
REMARK   11  A    between atoms: C_22  and  C_24
REMARK   12  A    between atoms: C_27  and  C_28
REMARK   13  A    between atoms: C_32  and  C_33
REMARK   14  A    between atoms: C_49  and  C_50
REMARK   15  A    between atoms: C_64  and  C_65
REMARK                            x       y       z     vdW  Elec       q    Type
REMARK                         _______ _______ _______ _____ _____    ______ ____
ROOT
ATOM      1  C   UNL A   1      29.182 -13.924  30.550  0.00  0.00    +0.000 C 
ATOM      2  C   UNL A   1      28.983 -14.081  32.022  0.00  0.00    +0.000 C 
ATOM      3  N   UNL A   1      28.022 -13.612  32.772  0.00  0.00    +0.000 NA
ATOM      4  C   UNL A   1      28.309 -14.039  34.055  0.00  0.00    +0.000 C 
ATOM      5  C   UNL A   1      27.630 -13.778  35.193  0.00  0.00    +0.000 C 
ATOM      6  C   UNL A   1      26.432 -12.989  35.260  0.00  0.00    +0.000 A 
ATOM      7  C   UNL A   1      25.704 -12.645  36.386  0.00  0.00    +0.000 A 
ATOM      8  C   UNL A   1      24.576 -11.928  35.974  0.00  0.00    +0.000 A 
ATOM      9  C   UNL A   1      24.626 -11.783  34.598  0.00  0.00    +0.000 A 
ATOM     10  N   UNL A   1      25.776 -12.436  34.164  0.00  0.00    +0.000 N 
ATOM     11  C   UNL A   1      23.682 -11.111  33.749  0.00  0.00    +0.000 C 
ATOM     12  C   UNL A   1      23.817 -10.992  32.409  0.00  0.00    +0.000 C 
ATOM     13  N   UNL A   1      24.846 -11.463  31.613  0.00  0.00    +0.000 NA
ATOM     14  C   UNL A   1      24.531 -11.116  30.389  0.00  0.00    +0.000 C 
ATOM     15  C   UNL A   1      25.290 -11.350  29.128  0.00  0.00    +0.000 C 
ATOM     16  C   UNL A   1      26.445 -12.037  29.167  0.00  0.00    +0.000 A 
ATOM     17  C   UNL A   1      27.287 -12.307  28.005  0.00  0.00    +0.000 A 
ATOM     18  C   UNL A   1      28.350 -13.027  28.393  0.00  0.00    +0.000 A 
ATOM     19  C   UNL A   1      28.267 -13.251  29.833  0.00  0.00    +0.000 A 
ATOM     20  N   UNL A   1      27.103 -12.629  30.218  0.00  0.00    +0.000 N 
ATOM     21  C   UNL A   1      23.262 -10.387  30.272  0.00  0.00    +0.000 C 
ATOM     22  C   UNL A   1      22.872 -10.328  31.539  0.00  0.00    +0.000 C 
ATOM     23  C   UNL A   1      29.519 -14.829  33.982  0.00  0.00    +0.000 C 
ATOM     24  C   UNL A   1      29.992 -14.866  32.745  0.00  0.00    +0.000 C 
ATOM     25  H   UNL A   1      26.086 -12.507  33.192  0.00  0.00    +0.000 HD
ATOM     26  H   UNL A   1      26.772 -12.593  31.187  0.00  0.00    +0.000 HD
ENDROOT
BRANCH   5  27
ATOM     27  C   UNL A   1      28.181 -14.350  36.461  0.00  0.00    +0.000 A 
ATOM     28  C   UNL A   1      29.134 -13.649  37.213  0.00  0.00    +0.000 A 
ATOM     29  F   UNL A   1      29.583 -12.458  36.790  0.00  0.00    +0.000 F 
ATOM     30  C   UNL A   1      29.642 -14.182  38.393  0.00  0.00    +0.000 A 
ATOM     31  F   UNL A   1      30.575 -13.510  39.084  0.00  0.00    +0.000 F 
ATOM     32  C   UNL A   1      29.198 -15.415  38.850  0.00  0.00    +0.000 A 
ATOM     33  F   UNL A   1      29.702 -15.933  39.978  0.00  0.00    +0.000 F 
ATOM     34  C   UNL A   1      28.249 -16.119  38.123  0.00  0.00    +0.000 A 
ATOM     35  F   UNL A   1      27.828 -17.315  38.559  0.00  0.00    +0.000 F 
ATOM     36  C   UNL A   1      27.747 -15.595  36.935  0.00  0.00    +0.000 A 
ATOM     37  F   UNL A   1      26.854 -16.309  36.234  0.00  0.00    +0.000 F 
ENDBRANCH   5  27
BRANCH  11  38
ATOM     38  C   UNL A   1      22.466 -10.492  34.366  0.00  0.00    +0.000 A 
ATOM     39  C   UNL A   1      21.226 -11.146  34.332  0.00  0.00    +0.000 A 
ATOM     40  F   UNL A   1      21.115 -12.348  33.747  0.00  0.00    +0.000 F 
ATOM     41  C   UNL A   1      20.090 -10.556  34.884  0.00  0.00    +0.000 A 
ATOM     42  F   UNL A   1      18.910 -11.184  34.813  0.00  0.00    +0.000 F 
ATOM     43  C   UNL A   1      20.176  -9.311  35.494  0.00  0.00    +0.000 A 
ATOM     44  F   UNL A   1      19.078  -8.741  36.013  0.00  0.00    +0.000 F 
ATOM     45  C   UNL A   1      21.398  -8.657  35.553  0.00  0.00    +0.000 A 
ATOM     46  F   UNL A   1      21.482  -7.454  36.139  0.00  0.00    +0.000 F 
ATOM     47  C   UNL A   1      22.532  -9.240  34.994  0.00  0.00    +0.000 A 
ATOM     48  F   UNL A   1      23.698  -8.578  35.047  0.00  0.00    +0.000 F 
ENDBRANCH  11  38
BRANCH  15  49
ATOM     49  C   UNL A   1      24.803 -10.833  27.830  0.00  0.00    +0.000 A 
ATOM     50  C   UNL A   1      23.871 -11.550  27.071  0.00  0.00    +0.000 A 
ATOM     51  F   UNL A   1      23.332 -12.676  27.560  0.00  0.00    +0.000 F 
ATOM     52  C   UNL A   1      23.495 -11.112  25.802  0.00  0.00    +0.000 A 
ATOM     53  F   UNL A   1      22.614 -11.821  25.084  0.00  0.00    +0.000 F 
ATOM     54  C   UNL A   1      24.040  -9.948  25.281  0.00  0.00    +0.000 A 
ATOM     55  F   UNL A   1      23.687  -9.532  24.056  0.00  0.00    +0.000 F 
ATOM     56  C   UNL A   1      24.949  -9.212  26.029  0.00  0.00    +0.000 A 
ATOM     57  F   UNL A   1      25.468  -8.079  25.536  0.00  0.00    +0.000 F 
ATOM     58  C   UNL A   1      25.326  -9.650  27.297  0.00  0.00    +0.000 A 
ATOM     59  F   UNL A   1      26.211  -8.937  28.008  0.00  0.00    +0.000 F 
ENDBRANCH  15  49
BRANCH   1  63
ATOM     60  C   UNL A   1      32.546 -15.515  28.443  0.00  0.00    +0.000 A 
ATOM     61  C   UNL A   1      31.415 -16.313  28.658  0.00  0.00    +0.000 A 
ATOM     62  C   UNL A   1      30.331 -15.808  29.380  0.00  0.00    +0.000 A 
ATOM     63  C   UNL A   1      30.374 -14.504  29.894  0.00  0.00    +0.000 A 
ATOM     64  C   UNL A   1      31.533 -13.735  29.735  0.00  0.00    +0.000 A 
ATOM     65  C   UNL A   1      32.617 -14.238  29.011  0.00  0.00    +0.000 A 
BRANCH  60  67
ATOM     66  N   UNL A   1      33.907 -15.195  26.454  0.00  0.00    +0.000 N 
ATOM     67  C   UNL A   1      33.686 -15.952  27.595  0.00  0.00    +0.000 C 
ATOM     68  O   UNL A   1      34.378 -16.888  27.984  0.00  0.00    +0.000 OA
ATOM     69  H   UNL A   1      33.308 -14.400  26.251  0.00  0.00    +0.000 HD
BRANCH  66  70
ATOM     70  C   UNL A   1      35.041 -15.417  25.565  0.00  0.00    +0.000 C 
BRANCH  70  71
ATOM     71  C   UNL A   1      35.691 -14.103  25.145  0.00  0.00    +0.000 C 
BRANCH  71  72
ATOM     72  C   UNL A   1      34.898 -12.905  25.673  0.00  0.00    +0.000 C 
BRANCH  72  73
ATOM     73  C   UNL A   1      35.821 -11.844  26.275  0.00  0.00    +0.000 C 
BRANCH  73  74
ATOM     74  C   UNL A   1      35.339 -10.424  25.963  0.00  0.00    +0.000 C 
BRANCH  74  75
ATOM     75  C   UNL A   1      33.819 -10.325  26.092  0.00  0.00    +0.000 C 
BRANCH  75  78
ATOM     76  O   UNL A   1      31.386  -8.871  26.309  0.00  0.00    +0.000 OA
ATOM     77  C   UNL A   1      32.202  -8.829  27.226  0.00  0.00    +0.000 C 
ATOM     78  N   UNL A   1      33.409  -9.491  27.203  0.00  0.00    +0.000 N 
ATOM     79  H   UNL A   1      33.990  -9.474  28.030  0.00  0.00    +0.000 HD
BRANCH  77  80
ATOM     80  C   UNL A   1      31.953  -8.034  28.509  0.00  0.00    +0.000 C 
BRANCH  80  81
ATOM     81  C   UNL A   1      30.649  -8.368  29.191  0.00  0.00    +0.000 A 
ATOM     82  C   UNL A   1      29.498  -7.529  28.920  0.00  0.00    +0.000 A 
ATOM     83  C   UNL A   1      28.354  -7.716  29.591  0.00  0.00    +0.000 A 
ATOM     84  N   UNL A   1      28.223  -8.722  30.528  0.00  0.00    +0.000 N 
ATOM     85  C   UNL A   1      29.258  -9.584  30.840  0.00  0.00    +0.000 A 
ATOM     86  O   UNL A   1      29.170 -10.503  31.645  0.00  0.00    +0.000 OA
ATOM     87  C   UNL A   1      30.537  -9.350  30.106  0.00  0.00    +0.000 A 
BRANCH  84  88
ATOM     88  C   UNL A   1      27.026  -8.860  31.309  0.00  0.00    +0.000 C 
ATOM     89  F   UNL A   1      27.247  -8.405  32.572  0.00  0.00    +0.000 F 
ATOM     90  F   UNL A   1      26.010  -8.111  30.806  0.00  0.00    +0.000 F 
ENDBRANCH  84  88
ENDBRANCH  80  81
ENDBRANCH  77  80
ENDBRANCH  75  78
ENDBRANCH  74  75
ENDBRANCH  73  74
ENDBRANCH  72  73
ENDBRANCH  71  72
ENDBRANCH  70  71
ENDBRANCH  66  70
ENDBRANCH  60  67
ENDBRANCH   1  63
TORSDOF 15
ENDMDL
MODEL 9
REMARK VINA RESULT:     -10.0     40.618     48.109
REMARK  Name = 
REMARK  15 active torsions:
REMARK  status: ('A' for Active; 'I' for Inactive)
REMARK    1  A    between atoms: C_2  and  C_3
REMARK    2  A    between atoms: C_3  and  C_4
REMARK    3  A    between atoms: N_7  and  C_8
REMARK    4  A    between atoms: N_14  and  C_15
REMARK    5  A    between atoms: C_15  and  C_16
REMARK    6  A    between atoms: C_16  and  C_17
REMARK    7  A    between atoms: C_17  and  C_18
REMARK    8  A    between atoms: C_18  and  C_19
REMARK    9  A    between atoms: C_19  and  C_20
REMARK   10  A    between atoms: C_20  and  N_21
REMARK   11  A    between atoms: C_22  and  C_24
REMARK   12  A    between atoms: C_27  and  C_28
REMARK   13  A    between atoms: C_32  and  C_33
REMARK   14  A    between atoms: C_49  and  C_50
REMARK   15  A    between atoms: C_64  and  C_65
REMARK                            x       y       z     vdW  Elec       q    Type
REMARK                         _______ _______ _______ _____ _____    ______ ____
ROOT
ATOM      1  C   UNL A   1      25.809  35.332  45.375  0.00  0.00    +0.000 C 
ATOM      2  C   UNL A   1      27.150  35.311  44.718  0.00  0.00    +0.000 C 
ATOM      3  N   UNL A   1      28.138  36.155  44.850  0.00  0.00    +0.000 NA
ATOM      4  C   UNL A   1      29.143  35.683  44.025  0.00  0.00    +0.000 C 
ATOM      5  C   UNL A   1      30.354  36.232  43.787  0.00  0.00    +0.000 C 
ATOM      6  C   UNL A   1      30.828  37.446  44.391  0.00  0.00    +0.000 A 
ATOM      7  C   UNL A   1      32.032  38.090  44.171  0.00  0.00    +0.000 A 
ATOM      8  C   UNL A   1      32.099  39.197  45.023  0.00  0.00    +0.000 A 
ATOM      9  C   UNL A   1      30.916  39.271  45.739  0.00  0.00    +0.000 A 
ATOM     10  N   UNL A   1      30.134  38.189  45.341  0.00  0.00    +0.000 N 
ATOM     11  C   UNL A   1      30.543  40.248  46.723  0.00  0.00    +0.000 C 
ATOM     12  C   UNL A   1      29.352  40.264  47.363  0.00  0.00    +0.000 C 
ATOM     13  N   UNL A   1      28.291  39.389  47.209  0.00  0.00    +0.000 NA
ATOM     14  C   UNL A   1      27.370  39.802  48.044  0.00  0.00    +0.000 C 
ATOM     15  C   UNL A   1      26.010  39.241  48.286  0.00  0.00    +0.000 C 
ATOM     16  C   UNL A   1      25.619  38.140  47.619  0.00  0.00    +0.000 A 
ATOM     17  C   UNL A   1      24.307  37.516  47.753  0.00  0.00    +0.000 A 
ATOM     18  C   UNL A   1      24.255  36.432  46.964  0.00  0.00    +0.000 A 
ATOM     19  C   UNL A   1      25.527  36.302  46.260  0.00  0.00    +0.000 A 
ATOM     20  N   UNL A   1      26.285  37.358  46.707  0.00  0.00    +0.000 N 
ATOM     21  C   UNL A   1      27.746  40.985  48.828  0.00  0.00    +0.000 C 
ATOM     22  C   UNL A   1      28.964  41.234  48.363  0.00  0.00    +0.000 C 
ATOM     23  C   UNL A   1      28.660  34.463  43.417  0.00  0.00    +0.000 C 
ATOM     24  C   UNL A   1      27.417  34.200  43.795  0.00  0.00    +0.000 C 
ATOM     25  H   UNL A   1      29.201  37.970  45.698  0.00  0.00    +0.000 HD
ATOM     26  H   UNL A   1      27.236  37.554  46.379  0.00  0.00    +0.000 HD
ENDROOT
BRANCH   5  27
ATOM     27  C   UNL A   1      31.247  35.519  42.822  0.00  0.00    +0.000 A 
ATOM     28  C   UNL A   1      32.021  34.424  43.231  0.00  0.00    +0.000 A 
ATOM     29  F   UNL A   1      31.989  34.016  44.508  0.00  0.00    +0.000 F 
ATOM     30  C   UNL A   1      32.849  33.761  42.332  0.00  0.00    +0.000 A 
ATOM     31  F   UNL A   1      33.605  32.735  42.748  0.00  0.00    +0.000 F 
ATOM     32  C   UNL A   1      32.906  34.168  41.006  0.00  0.00    +0.000 A 
ATOM     33  F   UNL A   1      33.716  33.537  40.145  0.00  0.00    +0.000 F 
ATOM     34  C   UNL A   1      32.140  35.243  40.580  0.00  0.00    +0.000 A 
ATOM     35  F   UNL A   1      32.202  35.643  39.302  0.00  0.00    +0.000 F 
ATOM     36  C   UNL A   1      31.319  35.918  41.481  0.00  0.00    +0.000 A 
ATOM     37  F   UNL A   1      30.613  36.974  41.052  0.00  0.00    +0.000 F 
ENDBRANCH   5  27
BRANCH  11  38
ATOM     38  C   UNL A   1      31.517  41.330  47.075  0.00  0.00    +0.000 A 
ATOM     39  C   UNL A   1      32.621  41.068  47.898  0.00  0.00    +0.000 A 
ATOM     40  F   UNL A   1      32.825  39.832  48.378  0.00  0.00    +0.000 F 
ATOM     41  C   UNL A   1      33.512  42.083  48.245  0.00  0.00    +0.000 A 
ATOM     42  F   UNL A   1      34.543  41.818  49.057  0.00  0.00    +0.000 F 
ATOM     43  C   UNL A   1      33.324  43.372  47.764  0.00  0.00    +0.000 A 
ATOM     44  F   UNL A   1      34.176  44.348  48.110  0.00  0.00    +0.000 F 
ATOM     45  C   UNL A   1      32.246  43.646  46.934  0.00  0.00    +0.000 A 
ATOM     46  F   UNL A   1      32.061  44.890  46.471  0.00  0.00    +0.000 F 
ATOM     47  C   UNL A   1      31.350  42.636  46.593  0.00  0.00    +0.000 A 
ATOM     48  F   UNL A   1      30.305  42.932  45.806  0.00  0.00    +0.000 F 
ENDBRANCH  11  38
BRANCH  15  49
ATOM     49  C   UNL A   1      25.074  39.876  49.239  0.00  0.00    +0.000 A 
ATOM     50  C   UNL A   1      24.218  40.906  48.831  0.00  0.00    +0.000 A 
ATOM     51  F   UNL A   1      24.168  41.266  47.542  0.00  0.00    +0.000 F 
ATOM     52  C   UNL A   1      23.413  41.572  49.755  0.00  0.00    +0.000 A 
ATOM     53  F   UNL A   1      22.613  42.567  49.349  0.00  0.00    +0.000 F 
ATOM     54  C   UNL A   1      23.450  41.212  51.093  0.00  0.00    +0.000 A 
ATOM     55  F   UNL A   1      22.684  41.860  51.983  0.00  0.00    +0.000 F 
ATOM     56  C   UNL A   1      24.276  40.177  51.511  0.00  0.00    +0.000 A 
ATOM     57  F   UNL A   1      24.303  39.816  52.801  0.00  0.00    +0.000 F 
ATOM     58  C   UNL A   1      25.081  39.512  50.589  0.00  0.00    +0.000 A 
ATOM     59  F   UNL A   1      25.882  38.519  51.004  0.00  0.00    +0.000 F 
ENDBRANCH  15  49
BRANCH   1  63
ATOM     60  C   UNL A   1      22.767  32.425  44.611  0.00  0.00    +0.000 A 
ATOM     61  C   UNL A   1      23.803  32.132  45.507  0.00  0.00    +0.000 A 
ATOM     62  C   UNL A   1      24.819  33.066  45.728  0.00  0.00    +0.000 A 
ATOM     63  C   UNL A   1      24.806  34.295  45.051  0.00  0.00    +0.000 A 
ATOM     64  C   UNL A   1      23.805  34.554  44.107  0.00  0.00    +0.000 A 
ATOM     65  C   UNL A   1      22.787  33.623  43.887  0.00  0.00    +0.000 A 
BRANCH  60  67
ATOM     66  N   UNL A   1      20.454  32.129  43.921  0.00  0.00    +0.000 N 
ATOM     67  C   UNL A   1      21.602  31.524  44.411  0.00  0.00    +0.000 C 
ATOM     68  O   UNL A   1      21.748  30.324  44.626  0.00  0.00    +0.000 OA
ATOM     69  H   UNL A   1      20.454  33.125  43.720  0.00  0.00    +0.000 HD
BRANCH  66  70
ATOM     70  C   UNL A   1      19.253  31.381  43.568  0.00  0.00    +0.000 C 
BRANCH  70  71
ATOM     71  C   UNL A   1      18.272  31.311  44.733  0.00  0.00    +0.000 C 
BRANCH  71  72
ATOM     72  C   UNL A   1      16.879  30.899  44.253  0.00  0.00    +0.000 C 
BRANCH  72  73
ATOM     73  C   UNL A   1      15.867  32.032  44.432  0.00  0.00    +0.000 C 
BRANCH  73  74
ATOM     74  C   UNL A   1      15.958  33.063  43.303  0.00  0.00    +0.000 C 
BRANCH  74  75
ATOM     75  C   UNL A   1      16.194  34.465  43.866  0.00  0.00    +0.000 C 
BRANCH  75  78
ATOM     76  O   UNL A   1      17.601  34.764  46.318  0.00  0.00    +0.000 OA
ATOM     77  C   UNL A   1      18.202  34.890  45.254  0.00  0.00    +0.000 C 
ATOM     78  N   UNL A   1      17.601  34.773  44.021  0.00  0.00    +0.000 N 
ATOM     79  H   UNL A   1      18.178  34.809  43.192  0.00  0.00    +0.000 HD
BRANCH  77  80
ATOM     80  C   UNL A   1      19.702  35.184  45.190  0.00  0.00    +0.000 C 
BRANCH  80  81
ATOM     81  C   UNL A   1      20.352  35.343  46.542  0.00  0.00    +0.000 A 
ATOM     82  C   UNL A   1      20.937  34.171  47.164  0.00  0.00    +0.000 A 
ATOM     83  C   UNL A   1      21.420  34.239  48.412  0.00  0.00    +0.000 A 
ATOM     84  N   UNL A   1      21.405  35.420  49.127  0.00  0.00    +0.000 N 
ATOM     85  C   UNL A   1      20.886  36.594  48.611  0.00  0.00    +0.000 A 
ATOM     86  O   UNL A   1      20.881  37.664  49.206  0.00  0.00    +0.000 OA
ATOM     87  C   UNL A   1      20.326  36.500  47.230  0.00  0.00    +0.000 A 
BRANCH  84  88
ATOM     88  C   UNL A   1      21.839  35.467  50.495  0.00  0.00    +0.000 C 
ATOM     89  F   UNL A   1      21.272  34.445  51.191  0.00  0.00    +0.000 F 
ATOM     90  F   UNL A   1      23.184  35.300  50.600  0.00  0.00    +0.000 F 
ENDBRANCH  84  88
ENDBRANCH  80  81
ENDBRANCH  77  80
ENDBRANCH  75  78
ENDBRANCH  74  75
ENDBRANCH  73  74
ENDBRANCH  72  73
ENDBRANCH  71  72
ENDBRANCH  70  71
ENDBRANCH  66  70
ENDBRANCH  60  67
ENDBRANCH   1  63
TORSDOF 15
ENDMDL
MODEL 10
REMARK VINA RESULT:     -10.0      3.255      4.678
REMARK  Name = 
REMARK  15 active torsions:
REMARK  status: ('A' for Active; 'I' for Inactive)
REMARK    1  A    between atoms: C_2  and  C_3
REMARK    2  A    between atoms: C_3  and  C_4
REMARK    3  A    between atoms: N_7  and  C_8
REMARK    4  A    between atoms: N_14  and  C_15
REMARK    5  A    between atoms: C_15  and  C_16
REMARK    6  A    between atoms: C_16  and  C_17
REMARK    7  A    between atoms: C_17  and  C_18
REMARK    8  A    between atoms: C_18  and  C_19
REMARK    9  A    between atoms: C_19  and  C_20
REMARK   10  A    between atoms: C_20  and  N_21
REMARK   11  A    between atoms: C_22  and  C_24
REMARK   12  A    between atoms: C_27  and  C_28
REMARK   13  A    between atoms: C_32  and  C_33
REMARK   14  A    between atoms: C_49  and  C_50
REMARK   15  A    between atoms: C_64  and  C_65
REMARK                            x       y       z     vdW  Elec       q    Type
REMARK                         _______ _______ _______ _____ _____    ______ ____
ROOT
ATOM      1  C   UNL A   1      53.311  19.660  11.699  0.00  0.00    +0.000 C 
ATOM      2  C   UNL A   1      54.669  19.055  11.555  0.00  0.00    +0.000 C 
ATOM      3  N   UNL A   1      55.683  19.118  12.376  0.00  0.00    +0.000 NA
ATOM      4  C   UNL A   1      56.696  18.396  11.773  0.00  0.00    +0.000 C 
ATOM      5  C   UNL A   1      57.958  18.199  12.213  0.00  0.00    +0.000 C 
ATOM      6  C   UNL A   1      58.477  18.720  13.447  0.00  0.00    +0.000 A 
ATOM      7  C   UNL A   1      59.761  18.597  13.948  0.00  0.00    +0.000 A 
ATOM      8  C   UNL A   1      59.798  19.199  15.209  0.00  0.00    +0.000 A 
ATOM      9  C   UNL A   1      58.552  19.740  15.474  0.00  0.00    +0.000 A 
ATOM     10  N   UNL A   1      57.742  19.444  14.381  0.00  0.00    +0.000 N 
ATOM     11  C   UNL A   1      58.135  20.457  16.647  0.00  0.00    +0.000 C 
ATOM     12  C   UNL A   1      56.899  20.977  16.819  0.00  0.00    +0.000 C 
ATOM     13  N   UNL A   1      55.829  20.937  15.943  0.00  0.00    +0.000 NA
ATOM     14  C   UNL A   1      54.852  21.562  16.551  0.00  0.00    +0.000 C 
ATOM     15  C   UNL A   1      53.470  21.833  16.063  0.00  0.00    +0.000 C 
ATOM     16  C   UNL A   1      53.090  21.370  14.858  0.00  0.00    +0.000 A 
ATOM     17  C   UNL A   1      51.775  21.593  14.264  0.00  0.00    +0.000 A 
ATOM     18  C   UNL A   1      51.725  20.983  13.071  0.00  0.00    +0.000 A 
ATOM     19  C   UNL A   1      53.013  20.344  12.814  0.00  0.00    +0.000 A 
ATOM     20  N   UNL A   1      53.770  20.621  13.928  0.00  0.00    +0.000 N 
ATOM     21  C   UNL A   1      55.192  22.067  17.887  0.00  0.00    +0.000 C 
ATOM     22  C   UNL A   1      56.460  21.692  17.997  0.00  0.00    +0.000 C 
ATOM     23  C   UNL A   1      56.170  17.878  10.529  0.00  0.00    +0.000 C 
ATOM     24  C   UNL A   1      54.922  18.278  10.335  0.00  0.00    +0.000 C 
ATOM     25  H   UNL A   1      56.759  19.709  14.284  0.00  0.00    +0.000 HD
ATOM     26  H   UNL A   1      54.742  20.321  14.043  0.00  0.00    +0.000 HD
ENDROOT
BRANCH   5  27
ATOM     27  C   UNL A   1      58.865  17.389  11.342  0.00  0.00    +0.000 A 
ATOM     28  C   UNL A   1      59.637  17.998  10.343  0.00  0.00    +0.000 A 
ATOM     29  F   UNL A   1      59.553  19.321  10.139  0.00  0.00    +0.000 F 
ATOM     30  C   UNL A   1      60.481  17.244   9.536  0.00  0.00    +0.000 A 
ATOM     31  F   UNL A   1      61.190  17.839   8.565  0.00  0.00    +0.000 F 
ATOM     32  C   UNL A   1      60.581  15.872   9.722  0.00  0.00    +0.000 A 
ATOM     33  F   UNL A   1      61.384  15.145   8.932  0.00  0.00    +0.000 F 
ATOM     34  C   UNL A   1      59.832  15.253  10.711  0.00  0.00    +0.000 A 
ATOM     35  F   UNL A   1      59.921  13.926  10.885  0.00  0.00    +0.000 F 
ATOM     36  C   UNL A   1      58.975  16.003  11.514  0.00  0.00    +0.000 A 
ATOM     37  F   UNL A   1      58.238  15.377  12.442  0.00  0.00    +0.000 F 
ENDBRANCH   5  27
BRANCH  11  38
ATOM     38  C   UNL A   1      59.116  20.656  17.761  0.00  0.00    +0.000 A 
ATOM     39  C   UNL A   1      59.820  21.860  17.898  0.00  0.00    +0.000 A 
ATOM     40  F   UNL A   1      59.616  22.862  17.028  0.00  0.00    +0.000 F 
ATOM     41  C   UNL A   1      60.751  22.033  18.920  0.00  0.00    +0.000 A 
ATOM     42  F   UNL A   1      61.436  23.181  19.014  0.00  0.00    +0.000 F 
ATOM     43  C   UNL A   1      60.984  21.013  19.833  0.00  0.00    +0.000 A 
ATOM     44  F   UNL A   1      61.891  21.178  20.808  0.00  0.00    +0.000 F 
ATOM     45  C   UNL A   1      60.284  19.820  19.724  0.00  0.00    +0.000 A 
ATOM     46  F   UNL A   1      60.509  18.832  20.603  0.00  0.00    +0.000 F 
ATOM     47  C   UNL A   1      59.360  19.642  18.698  0.00  0.00    +0.000 A 
ATOM     48  F   UNL A   1      58.710  18.472  18.603  0.00  0.00    +0.000 F 
ENDBRANCH  11  38
BRANCH  15  49
ATOM     49  C   UNL A   1      52.506  22.610  16.872  0.00  0.00    +0.000 A 
ATOM     50  C   UNL A   1      52.371  23.993  16.703  0.00  0.00    +0.000 A 
ATOM     51  F   UNL A   1      53.050  24.620  15.732  0.00  0.00    +0.000 F 
ATOM     52  C   UNL A   1      51.539  24.737  17.539  0.00  0.00    +0.000 A 
ATOM     53  F   UNL A   1      51.437  26.062  17.372  0.00  0.00    +0.000 F 
ATOM     54  C   UNL A   1      50.827  24.105  18.548  0.00  0.00    +0.000 A 
ATOM     55  F   UNL A   1      50.035  24.822  19.359  0.00  0.00    +0.000 F 
ATOM     56  C   UNL A   1      50.931  22.731  18.715  0.00  0.00    +0.000 A 
ATOM     57  F   UNL A   1      50.233  22.115  19.679  0.00  0.00    +0.000 F 
ATOM     58  C   UNL A   1      51.763  21.988  17.881  0.00  0.00    +0.000 A 
ATOM     59  F   UNL A   1      51.863  20.662  18.055  0.00  0.00    +0.000 F 
ENDBRANCH  15  49
BRANCH   1  63
ATOM     60  C   UNL A   1      50.585  19.103   8.450  0.00  0.00    +0.000 A 
ATOM     61  C   UNL A   1      51.306  20.299   8.560  0.00  0.00    +0.000 A 
ATOM     62  C   UNL A   1      52.168  20.498   9.642  0.00  0.00    +0.000 A 
ATOM     63  C   UNL A   1      52.310  19.504  10.621  0.00  0.00    +0.000 A 
ATOM     64  C   UNL A   1      51.537  18.339  10.543  0.00  0.00    +0.000 A 
ATOM     65  C   UNL A   1      50.677  18.138   9.460  0.00  0.00    +0.000 A 
BRANCH  60  67
ATOM     66  N   UNL A   1      50.220  17.784   6.440  0.00  0.00    +0.000 N 
ATOM     67  C   UNL A   1      49.737  18.784   7.273  0.00  0.00    +0.000 C 
ATOM     68  O   UNL A   1      48.662  19.364   7.153  0.00  0.00    +0.000 OA
ATOM     69  H   UNL A   1      51.098  17.324   6.660  0.00  0.00    +0.000 HD
BRANCH  66  70
ATOM     70  C   UNL A   1      49.469  17.273   5.300  0.00  0.00    +0.000 C 
BRANCH  70  71
ATOM     71  C   UNL A   1      49.887  15.850   4.944  0.00  0.00    +0.000 C 
BRANCH  71  72
ATOM     72  C   UNL A   1      48.705  15.052   4.391  0.00  0.00    +0.000 C 
BRANCH  72  73
ATOM     73  C   UNL A   1      47.474  15.176   5.291  0.00  0.00    +0.000 C 
BRANCH  73  74
ATOM     74  C   UNL A   1      46.200  14.700   4.586  0.00  0.00    +0.000 C 
BRANCH  74  75
ATOM     75  C   UNL A   1      45.920  15.544   3.344  0.00  0.00    +0.000 C 
BRANCH  75  78
ATOM     76  O   UNL A   1      47.100  18.076   2.817  0.00  0.00    +0.000 OA
ATOM     77  C   UNL A   1      46.002  18.021   3.364  0.00  0.00    +0.000 C 
ATOM     78  N   UNL A   1      45.360  16.841   3.667  0.00  0.00    +0.000 N 
ATOM     79  H   UNL A   1      44.423  16.878   4.043  0.00  0.00    +0.000 HD
BRANCH  77  80
ATOM     80  C   UNL A   1      45.220  19.274   3.761  0.00  0.00    +0.000 C 
BRANCH  80  81
ATOM     81  C   UNL A   1      44.008  19.535   2.901  0.00  0.00    +0.000 A 
ATOM     82  C   UNL A   1      44.029  20.685   2.018  0.00  0.00    +0.000 A 
ATOM     83  C   UNL A   1      42.933  21.023   1.324  0.00  0.00    +0.000 A 
ATOM     84  N   UNL A   1      41.773  20.279   1.402  0.00  0.00    +0.000 N 
ATOM     85  C   UNL A   1      41.663  19.156   2.201  0.00  0.00    +0.000 A 
ATOM     86  O   UNL A   1      40.660  18.457   2.274  0.00  0.00    +0.000 OA
ATOM     87  C   UNL A   1      42.881  18.803   2.990  0.00  0.00    +0.000 A 
BRANCH  84  88
ATOM     88  C   UNL A   1      40.575  20.696   0.728  0.00  0.00    +0.000 C 
ATOM     89  F   UNL A   1      39.997  21.720   1.413  0.00  0.00    +0.000 F 
ATOM     90  F   UNL A   1      40.840  21.172  -0.517  0.00  0.00    +0.000 F 
ENDBRANCH  84  88
ENDBRANCH  80  81
ENDBRANCH  77  80
ENDBRANCH  75  78
ENDBRANCH  74  75
ENDBRANCH  73  74
ENDBRANCH  72  73
ENDBRANCH  71  72
ENDBRANCH  70  71
ENDBRANCH  66  70
ENDBRANCH  60  67
ENDBRANCH   1  63
TORSDOF 15
ENDMDL
