MODEL 1
REMARK VINA RESULT:     -13.1      0.000      0.000
ROOT
ATOM     21  C17 UNL A   1      40.328  28.716  29.589  1.00  0.00    +0.000 C 
ATOM     22  C18 UNL A   1      39.330  29.748  29.934  1.00  0.00    +0.000 C 
ATOM     23  N3  UNL A   1      39.626  30.973  30.226  1.00  0.00    +0.000 N 
ATOM     24  C19 UNL A   1      38.485  31.574  30.707  1.00  0.00    +0.000 C 
ATOM     25  C20 UNL A   1      38.572  32.757  31.384  1.00  0.00    +0.000 C 
ATOM     37  C27 UNL A   1      39.950  33.224  31.478  1.00  0.00    +0.000 C 
ATOM     38  C28 UNL A   1      40.902  33.099  32.477  1.00  0.00    +0.000 C 
ATOM     39  C29 UNL A   1      42.163  33.422  31.929  1.00  0.00    +0.000 C 
ATOM     40  C30 UNL A   1      41.979  33.754  30.599  1.00  0.00    +0.000 C 
ATOM     41  N4  UNL A   1      40.624  33.657  30.342  1.00  0.00    +0.000 N 
ATOM     42  C31 UNL A   1      42.918  34.154  29.566  1.00  0.00    +0.000 C 
ATOM     54  C38 UNL A   1      43.773  33.174  29.156  1.00  0.00    +0.000 C 
ATOM     55  N5  UNL A   1      43.562  31.857  29.466  1.00  0.00    +0.000 N 
ATOM     56  C39 UNL A   1      44.480  31.132  28.892  1.00  0.00    +0.000 C 
ATOM     57  C40 UNL A   1      44.496  29.627  28.925  1.00  0.00    +0.000 C 
ATOM     69  C47 UNL A   1      43.757  29.079  29.932  1.00  0.00    +0.000 C 
ATOM     70  C48 UNL A   1      43.339  29.772  31.138  1.00  0.00    +0.000 C 
ATOM     71  C49 UNL A   1      42.007  29.644  31.222  1.00  0.00    +0.000 C 
ATOM     72  C50 UNL A   1      41.558  28.761  30.149  1.00  0.00    +0.000 C 
ATOM     73  N6  UNL A   1      42.736  28.116  29.683  1.00  0.00    +0.000 N 
ATOM     74  C51 UNL A   1      45.453  31.932  28.154  1.00  0.00    +0.000 C 
ATOM     75  C52 UNL A   1      44.983  33.175  28.355  1.00  0.00    +0.000 C 
ATOM     76  C53 UNL A   1      37.426  30.619  30.464  1.00  0.00    +0.000 C 
ATOM     77  C54 UNL A   1      37.899  29.477  29.953  1.00  0.00    +0.000 C 
ATOM    117  H22 UNL A   1      40.722  32.817  33.453  1.00  0.00    +0.000 H 
ATOM    118  H23 UNL A   1      43.064  33.412  32.432  1.00  0.00    +0.000 H 
ATOM    119  H24 UNL A   1      40.199  33.864  29.479  1.00  0.00    +0.000 H 
ATOM    120  H25 UNL A   1      43.951  30.269  31.804  1.00  0.00    +0.000 H 
ATOM    121  H26 UNL A   1      41.400  30.094  31.925  1.00  0.00    +0.000 H 
ATOM    122  H27 UNL A   1      42.825  27.221  29.283  1.00  0.00    +0.000 H 
ATOM    123  H28 UNL A   1      46.282  31.626  27.621  1.00  0.00    +0.000 H 
ATOM    124  H29 UNL A   1      45.429  34.028  27.985  1.00  0.00    +0.000 H 
ATOM    125  H30 UNL A   1      36.429  30.796  30.659  1.00  0.00    +0.000 H 
ATOM    126  H31 UNL A   1      37.389  28.631  29.655  1.00  0.00    +0.000 H 
ENDROOT
BRANCH   21   20
ATOM     78  C55 UNL A   1      39.442  26.470  29.272  1.00  0.00    +0.000 C 
ATOM     79  C56 UNL A   1      39.374  25.294  28.550  1.00  0.00    +0.000 C 
ATOM     17  C13 UNL A   1      39.980  25.234  27.296  1.00  0.00    +0.000 C 
ATOM     18  C14 UNL A   1      40.376  26.406  26.644  1.00  0.00    +0.000 C 
ATOM     19  C15 UNL A   1      40.371  27.612  27.345  1.00  0.00    +0.000 C 
ATOM    115  H20 UNL A   1      40.667  26.380  25.654  1.00  0.00    +0.000 H 
ATOM    116  H21 UNL A   1      40.636  28.491  26.873  1.00  0.00    +0.000 H 
ATOM     20  C16 UNL A   1      40.004  27.612  28.692  1.00  0.00    +0.000 C 
ATOM    127  H32 UNL A   1      39.078  26.507  30.237  1.00  0.00    +0.000 H 
ATOM    128  H33 UNL A   1      38.883  24.472  28.933  1.00  0.00    +0.000 H 
BRANCH   17   15
ATOM     15  C12 UNL A   1      40.387  23.938  26.701  1.00  0.00    +0.000 C 
ATOM     16  O2  UNL A   1      41.464  23.833  26.142  1.00  0.00    +0.000 O 
BRANCH   15   14
ATOM    114  H19 UNL A   1      39.527  22.490  27.807  1.00  0.00    +0.000 H 
ATOM     14  N2  UNL A   1      39.575  22.832  26.885  1.00  0.00    +0.000 N 
BRANCH   14   13
ATOM    113  H18 UNL A   1      38.511  21.170  26.354  1.00  0.00    +0.000 H 
ATOM     13  C11 UNL A   1      38.782  22.103  25.904  1.00  0.00    +0.000 C 
ATOM    112  H17 UNL A   1      39.372  21.975  25.021  1.00  0.00    +0.000 H 
BRANCH   13   12
ATOM     12  C10 UNL A   1      37.484  22.802  25.518  1.00  0.00    +0.000 C 
ATOM    110  H15 UNL A   1      36.806  22.727  26.342  1.00  0.00    +0.000 H 
ATOM    111  H16 UNL A   1      37.741  23.813  25.280  1.00  0.00    +0.000 H 
BRANCH   12   11
ATOM     11  C9  UNL A   1      36.799  22.220  24.277  1.00  0.00    +0.000 C 
ATOM    108  H13 UNL A   1      37.565  21.876  23.613  1.00  0.00    +0.000 H 
ATOM    109  H14 UNL A   1      36.150  21.452  24.646  1.00  0.00    +0.000 H 
BRANCH   11   10
ATOM     10  C8  UNL A   1      35.887  23.174  23.483  1.00  0.00    +0.000 C 
ATOM    107  H12 UNL A   1      36.279  23.173  22.487  1.00  0.00    +0.000 H 
ATOM    106  H11 UNL A   1      35.911  24.125  23.972  1.00  0.00    +0.000 H 
BRANCH   10    9
ATOM      9  C7  UNL A   1      34.417  22.760  23.340  1.00  0.00    +0.000 C 
ATOM    105  H10 UNL A   1      34.416  21.696  23.222  1.00  0.00    +0.000 H 
ATOM    104  H9  UNL A   1      34.006  23.282  22.501  1.00  0.00    +0.000 H 
BRANCH    9    8
ATOM    102  H7  UNL A   1      32.743  22.339  24.584  1.00  0.00    +0.000 H 
ATOM    103  H8  UNL A   1      34.158  22.989  25.425  1.00  0.00    +0.000 H 
ATOM      8  C6  UNL A   1      33.538  23.053  24.555  1.00  0.00    +0.000 C 
BRANCH    8    7
ATOM    101  H6  UNL A   1      33.526  25.094  24.908  1.00  0.00    +0.000 H 
ATOM      7  N1  UNL A   1      32.966  24.381  24.523  1.00  0.00    +0.000 N 
BRANCH    7    5
ATOM      5  C5  UNL A   1      31.755  24.782  24.033  1.00  0.00    +0.000 C 
ATOM      6  O1  UNL A   1      31.499  24.548  22.850  1.00  0.00    +0.000 O 
BRANCH    5    4
ATOM    100  H5  UNL A   1      30.998  25.256  25.934  1.00  0.00    +0.000 H 
ATOM     99  H4  UNL A   1      29.774  25.241  24.638  1.00  0.00    +0.000 H 
ATOM      4  C4  UNL A   1      30.765  25.525  24.925  1.00  0.00    +0.000 C 
BRANCH    4    3
ATOM    129  H34 UNL A   1      32.505  27.055  26.177  1.00  0.00    +0.000 H 
ATOM      2  C2  UNL A   1      29.996  27.848  24.070  1.00  0.00    +0.000 C 
ATOM      3  C3  UNL A   1      30.869  27.039  24.842  1.00  0.00    +0.000 C 
ATOM    135  H40 UNL A   1      31.417  30.830  24.747  1.00  0.00    +0.000 H 
ATOM     80  C57 UNL A   1      31.893  27.649  25.596  1.00  0.00    +0.000 C 
ATOM     81  C58 UNL A   1      32.105  29.029  25.584  1.00  0.00    +0.000 C 
ATOM     88  C65 UNL A   1      31.262  29.810  24.785  1.00  0.00    +0.000 C 
ATOM     89  C66 UNL A   1      30.210  29.253  24.027  1.00  0.00    +0.000 C 
BRANCH    2    1
ATOM      1  C1  UNL A   1      28.813  27.237  23.348  1.00  0.00    +0.000 C 
ATOM     98  H3  UNL A   1      29.111  26.938  22.366  1.00  0.00    +0.000 H 
ATOM     97  H2  UNL A   1      28.467  26.383  23.892  1.00  0.00    +0.000 H 
ATOM     96  H1  UNL A   1      28.027  27.959  23.278  1.00  0.00    +0.000 H 
ENDBRANCH    2    1
BRANCH   81   82
ATOM    130  H35 UNL A   1      34.544  28.043  26.181  1.00  0.00    +0.000 H 
ATOM    131  H36 UNL A   1      36.271  29.024  27.565  1.00  0.00    +0.000 H 
ATOM    132  H37 UNL A   1      35.917  31.187  28.603  1.00  0.00    +0.000 H 
ATOM    133  H38 UNL A   1      33.834  32.375  28.241  1.00  0.00    +0.000 H 
ATOM    134  H39 UNL A   1      32.107  31.404  26.850  1.00  0.00    +0.000 H 
ATOM     82  C59 UNL A   1      33.171  29.635  26.397  1.00  0.00    +0.000 C 
ATOM     83  C60 UNL A   1      34.386  28.965  26.616  1.00  0.00    +0.000 C 
ATOM     84  C61 UNL A   1      35.385  29.529  27.415  1.00  0.00    +0.000 C 
ATOM     85  C62 UNL A   1      35.182  30.772  28.010  1.00  0.00    +0.000 C 
ATOM     86  C63 UNL A   1      33.985  31.454  27.802  1.00  0.00    +0.000 C 
ATOM     87  C64 UNL A   1      32.989  30.890  27.001  1.00  0.00    +0.000 C 
ENDBRANCH   81   82
BRANCH   89   90
ATOM    136  H41 UNL A   1      28.633  31.273  24.827  1.00  0.00    +0.000 H 
ATOM    137  H42 UNL A   1      27.314  32.799  23.489  1.00  0.00    +0.000 H 
ATOM    138  H43 UNL A   1      27.320  32.610  21.071  1.00  0.00    +0.000 H 
ATOM    139  H44 UNL A   1      28.618  30.865  19.997  1.00  0.00    +0.000 H 
ATOM    140  H45 UNL A   1      29.906  29.308  21.333  1.00  0.00    +0.000 H 
ATOM     90  C67 UNL A   1      29.402  30.169  23.197  1.00  0.00    +0.000 C 
ATOM     91  C68 UNL A   1      28.634  31.181  23.800  1.00  0.00    +0.000 C 
ATOM     92  C69 UNL A   1      27.874  32.064  23.030  1.00  0.00    +0.000 C 
ATOM     93  C70 UNL A   1      27.873  31.951  21.641  1.00  0.00    +0.000 C 
ATOM     94  C71 UNL A   1      28.620  30.949  21.026  1.00  0.00    +0.000 C 
ATOM     95  C72 UNL A   1      29.369  30.058  21.797  1.00  0.00    +0.000 C 
ENDBRANCH   89   90
ENDBRANCH    4    3
ENDBRANCH    5    4
ENDBRANCH    7    5
ENDBRANCH    8    7
ENDBRANCH    9    8
ENDBRANCH   10    9
ENDBRANCH   11   10
ENDBRANCH   12   11
ENDBRANCH   13   12
ENDBRANCH   14   13
ENDBRANCH   15   14
ENDBRANCH   17   15
ENDBRANCH   21   20
BRANCH   25   26
ATOM     33  C25 UNL A   1      36.491  33.935  34.408  1.00  0.00    +0.000 C 
ATOM     34  F4  UNL A   1      36.566  33.889  35.746  1.00  0.00    +0.000 F 
ATOM     35  C26 UNL A   1      37.399  33.203  33.635  1.00  0.00    +0.000 C 
ATOM     36  F5  UNL A   1      38.207  32.359  34.292  1.00  0.00    +0.000 F 
ATOM     26  C21 UNL A   1      37.447  33.308  32.234  1.00  0.00    +0.000 C 
ATOM     27  C22 UNL A   1      36.382  34.035  31.658  1.00  0.00    +0.000 C 
ATOM     28  F1  UNL A   1      36.217  34.109  30.332  1.00  0.00    +0.000 F 
ATOM     29  C23 UNL A   1      35.440  34.723  32.427  1.00  0.00    +0.000 C 
ATOM     30  F2  UNL A   1      34.464  35.416  31.821  1.00  0.00    +0.000 F 
ATOM     31  C24 UNL A   1      35.523  34.711  33.804  1.00  0.00    +0.000 C 
ATOM     32  F3  UNL A   1      34.659  35.422  34.541  1.00  0.00    +0.000 F 
ENDBRANCH   25   26
BRANCH   42   43
ATOM     43  C32 UNL A   1      42.954  35.587  29.114  1.00  0.00    +0.000 C 
ATOM     44  C33 UNL A   1      42.178  36.084  28.055  1.00  0.00    +0.000 C 
ATOM     45  F6  UNL A   1      41.355  35.284  27.362  1.00  0.00    +0.000 F 
ATOM     46  C34 UNL A   1      42.184  37.439  27.710  1.00  0.00    +0.000 C 
ATOM     47  F7  UNL A   1      41.458  37.860  26.665  1.00  0.00    +0.000 F 
ATOM     48  C35 UNL A   1      42.914  38.350  28.452  1.00  0.00    +0.000 C 
ATOM     49  F8  UNL A   1      42.887  39.652  28.141  1.00  0.00    +0.000 F 
ATOM     50  C36 UNL A   1      43.654  37.907  29.530  1.00  0.00    +0.000 C 
ATOM     51  F9  UNL A   1      44.328  38.783  30.286  1.00  0.00    +0.000 F 
ATOM     52  C37 UNL A   1      43.688  36.549  29.845  1.00  0.00    +0.000 C 
ATOM     53  F10 UNL A   1      44.443  36.198  30.896  1.00  0.00    +0.000 F 
ENDBRANCH   42   43
BRANCH   57   58
ATOM     65  C45 UNL A   1      43.560  27.813  25.751  1.00  0.00    +0.000 C 
ATOM     66  F14 UNL A   1      42.619  27.884  24.799  1.00  0.00    +0.000 F 
ATOM     67  C46 UNL A   1      43.703  28.860  26.663  1.00  0.00    +0.000 C 
ATOM     68  F15 UNL A   1      42.881  29.914  26.565  1.00  0.00    +0.000 F 
ATOM     58  C41 UNL A   1      44.613  28.766  27.722  1.00  0.00    +0.000 C 
ATOM     59  C42 UNL A   1      45.433  27.625  27.780  1.00  0.00    +0.000 C 
ATOM     60  F11 UNL A   1      46.322  27.487  28.776  1.00  0.00    +0.000 F 
ATOM     61  C43 UNL A   1      45.280  26.577  26.874  1.00  0.00    +0.000 C 
ATOM     62  F12 UNL A   1      46.014  25.463  27.010  1.00  0.00    +0.000 F 
ATOM     63  C44 UNL A   1      44.327  26.662  25.874  1.00  0.00    +0.000 C 
ATOM     64  F13 UNL A   1      44.123  25.627  25.049  1.00  0.00    +0.000 F 
ENDBRANCH   57   58
TORSDOF 19
ENDMDL
MODEL 2
REMARK VINA RESULT:     -12.6      3.407     10.054
ROOT
ATOM     21  C17 UNL A   1      39.384  30.079  29.340  1.00  0.00    +0.000 C 
ATOM     22  C18 UNL A   1      40.008  28.850  28.812  1.00  0.00    +0.000 C 
ATOM     23  N3  UNL A   1      41.012  28.251  29.366  1.00  0.00    +0.000 N 
ATOM     24  C19 UNL A   1      41.461  27.291  28.489  1.00  0.00    +0.000 C 
ATOM     25  C20 UNL A   1      42.692  26.726  28.667  1.00  0.00    +0.000 C 
ATOM     37  C27 UNL A   1      43.364  27.262  29.845  1.00  0.00    +0.000 C 
ATOM     38  C28 UNL A   1      44.301  28.271  29.995  1.00  0.00    +0.000 C 
ATOM     39  C29 UNL A   1      44.361  28.619  31.363  1.00  0.00    +0.000 C 
ATOM     40  C30 UNL A   1      43.467  27.816  32.048  1.00  0.00    +0.000 C 
ATOM     41  N4  UNL A   1      42.886  26.974  31.119  1.00  0.00    +0.000 N 
ATOM     42  C31 UNL A   1      43.114  27.748  33.455  1.00  0.00    +0.000 C 
ATOM     54  C38 UNL A   1      42.434  28.830  33.930  1.00  0.00    +0.000 C 
ATOM     55  N5  UNL A   1      41.869  29.752  33.090  1.00  0.00    +0.000 N 
ATOM     56  C39 UNL A   1      41.222  30.634  33.798  1.00  0.00    +0.000 C 
ATOM     57  C40 UNL A   1      40.386  31.734  33.199  1.00  0.00    +0.000 C 
ATOM     69  C47 UNL A   1      40.682  32.021  31.900  1.00  0.00    +0.000 C 
ATOM     70  C48 UNL A   1      41.924  31.681  31.227  1.00  0.00    +0.000 C 
ATOM     71  C49 UNL A   1      41.596  30.991  30.125  1.00  0.00    +0.000 C 
ATOM     72  C50 UNL A   1      40.142  30.986  29.997  1.00  0.00    +0.000 C 
ATOM     73  N6  UNL A   1      39.688  32.005  30.877  1.00  0.00    +0.000 N 
ATOM     74  C51 UNL A   1      41.339  30.401  35.234  1.00  0.00    +0.000 C 
ATOM     75  C52 UNL A   1      42.098  29.293  35.263  1.00  0.00    +0.000 C 
ATOM     76  C53 UNL A   1      40.468  27.248  27.438  1.00  0.00    +0.000 C 
ATOM     77  C54 UNL A   1      39.525  28.180  27.612  1.00  0.00    +0.000 C 
ATOM    117  H22 UNL A   1      44.860  28.696  29.239  1.00  0.00    +0.000 H 
ATOM    118  H23 UNL A   1      44.963  29.346  31.778  1.00  0.00    +0.000 H 
ATOM    119  H24 UNL A   1      42.228  26.273  31.328  1.00  0.00    +0.000 H 
ATOM    120  H25 UNL A   1      42.877  31.924  31.539  1.00  0.00    +0.000 H 
ATOM    121  H26 UNL A   1      42.260  30.539  29.476  1.00  0.00    +0.000 H 
ATOM    122  H27 UNL A   1      38.882  32.564  30.800  1.00  0.00    +0.000 H 
ATOM    123  H28 UNL A   1      40.944  30.943  36.019  1.00  0.00    +0.000 H 
ATOM    124  H29 UNL A   1      42.406  28.826  36.131  1.00  0.00    +0.000 H 
ATOM    125  H30 UNL A   1      40.484  26.581  26.650  1.00  0.00    +0.000 H 
ATOM    126  H31 UNL A   1      38.683  28.374  27.048  1.00  0.00    +0.000 H 
ENDROOT
BRANCH   21   20
ATOM     78  C55 UNL A   1      37.052  29.472  29.689  1.00  0.00    +0.000 C 
ATOM     79  C56 UNL A   1      35.727  29.510  29.297  1.00  0.00    +0.000 C 
ATOM     17  C13 UNL A   1      35.352  30.360  28.258  1.00  0.00    +0.000 C 
ATOM     18  C14 UNL A   1      36.215  31.373  27.826  1.00  0.00    +0.000 C 
ATOM     19  C15 UNL A   1      37.533  31.386  28.279  1.00  0.00    +0.000 C 
ATOM    115  H20 UNL A   1      35.879  32.104  27.179  1.00  0.00    +0.000 H 
ATOM    116  H21 UNL A   1      38.177  32.140  27.991  1.00  0.00    +0.000 H 
ATOM     20  C16 UNL A   1      37.970  30.366  29.128  1.00  0.00    +0.000 C 
ATOM    127  H32 UNL A   1      37.364  28.786  30.394  1.00  0.00    +0.000 H 
ATOM    128  H33 UNL A   1      35.025  28.918  29.766  1.00  0.00    +0.000 H 
BRANCH   17   15
ATOM     15  C12 UNL A   1      34.126  30.108  27.464  1.00  0.00    +0.000 C 
ATOM     16  O2  UNL A   1      33.377  31.028  27.186  1.00  0.00    +0.000 O 
BRANCH   15   14
ATOM    114  H19 UNL A   1      33.956  28.107  27.614  1.00  0.00    +0.000 H 
ATOM     14  N2  UNL A   1      33.903  28.839  26.959  1.00  0.00    +0.000 N 
BRANCH   14   13
ATOM    113  H18 UNL A   1      34.019  27.459  25.456  1.00  0.00    +0.000 H 
ATOM     13  C11 UNL A   1      33.602  28.435  25.591  1.00  0.00    +0.000 C 
ATOM    112  H17 UNL A   1      34.026  29.158  24.925  1.00  0.00    +0.000 H 
BRANCH   13   12
ATOM     12  C10 UNL A   1      32.112  28.325  25.295  1.00  0.00    +0.000 C 
ATOM    110  H15 UNL A   1      31.809  27.314  25.474  1.00  0.00    +0.000 H 
ATOM    111  H16 UNL A   1      31.620  29.027  25.936  1.00  0.00    +0.000 H 
BRANCH   12   11
ATOM     11  C9  UNL A   1      31.724  28.696  23.859  1.00  0.00    +0.000 C 
ATOM    108  H13 UNL A   1      31.370  29.706  23.869  1.00  0.00    +0.000 H 
ATOM    109  H14 UNL A   1      32.609  28.539  23.278  1.00  0.00    +0.000 H 
BRANCH   11   10
ATOM     10  C8  UNL A   1      30.641  27.828  23.193  1.00  0.00    +0.000 C 
ATOM    107  H12 UNL A   1      31.155  27.265  22.441  1.00  0.00    +0.000 H 
ATOM    106  H11 UNL A   1      29.883  28.485  22.821  1.00  0.00    +0.000 H 
BRANCH   10    9
ATOM      9  C7  UNL A   1      29.955  26.782  24.082  1.00  0.00    +0.000 C 
ATOM    105  H10 UNL A   1      28.917  27.042  24.101  1.00  0.00    +0.000 H 
ATOM    104  H9  UNL A   1      30.420  26.810  25.045  1.00  0.00    +0.000 H 
BRANCH    9    8
ATOM    102  H7  UNL A   1      29.027  24.966  23.475  1.00  0.00    +0.000 H 
ATOM    103  H8  UNL A   1      30.525  25.366  22.620  1.00  0.00    +0.000 H 
ATOM      8  C6  UNL A   1      30.023  25.345  23.564  1.00  0.00    +0.000 C 
BRANCH    8    7
ATOM    101  H6  UNL A   1      30.242  23.815  24.944  1.00  0.00    +0.000 H 
ATOM      7  N1  UNL A   1      30.774  24.472  24.440  1.00  0.00    +0.000 N 
BRANCH    7    5
ATOM      5  C5  UNL A   1      32.122  24.436  24.663  1.00  0.00    +0.000 C 
ATOM      6  O1  UNL A   1      32.551  24.919  25.714  1.00  0.00    +0.000 O 
BRANCH    5    4
ATOM    100  H5  UNL A   1      33.748  24.620  23.347  1.00  0.00    +0.000 H 
ATOM     99  H4  UNL A   1      32.481  23.494  22.797  1.00  0.00    +0.000 H 
ATOM      4  C4  UNL A   1      33.065  23.843  23.622  1.00  0.00    +0.000 C 
BRANCH    4    3
ATOM    129  H34 UNL A   1      35.485  23.987  24.652  1.00  0.00    +0.000 H 
ATOM      2  C2  UNL A   1      33.487  21.329  24.096  1.00  0.00    +0.000 C 
ATOM      3  C3  UNL A   1      33.906  22.684  24.133  1.00  0.00    +0.000 C 
ATOM    135  H40 UNL A   1      36.197  19.972  25.572  1.00  0.00    +0.000 H 
ATOM     80  C57 UNL A   1      35.177  23.002  24.655  1.00  0.00    +0.000 C 
ATOM     81  C58 UNL A   1      36.032  22.028  25.176  1.00  0.00    +0.000 C 
ATOM     88  C65 UNL A   1      35.587  20.702  25.172  1.00  0.00    +0.000 C 
ATOM     89  C66 UNL A   1      34.334  20.327  24.642  1.00  0.00    +0.000 C 
BRANCH    2    1
ATOM      1  C1  UNL A   1      32.183  20.943  23.430  1.00  0.00    +0.000 C 
ATOM     98  H3  UNL A   1      31.530  20.505  24.154  1.00  0.00    +0.000 H 
ATOM     97  H2  UNL A   1      31.722  21.815  23.016  1.00  0.00    +0.000 H 
ATOM     96  H1  UNL A   1      32.376  20.237  22.650  1.00  0.00    +0.000 H 
ENDBRANCH    2    1
BRANCH   81   82
ATOM    130  H35 UNL A   1      36.866  24.389  26.180  1.00  0.00    +0.000 H 
ATOM    131  H36 UNL A   1      39.068  24.994  26.985  1.00  0.00    +0.000 H 
ATOM    132  H37 UNL A   1      40.860  23.360  26.971  1.00  0.00    +0.000 H 
ATOM    133  H38 UNL A   1      40.440  21.112  26.163  1.00  0.00    +0.000 H 
ATOM    134  H39 UNL A   1      38.239  20.500  25.365  1.00  0.00    +0.000 H 
ATOM     82  C59 UNL A   1      37.359  22.392  25.697  1.00  0.00    +0.000 C 
ATOM     83  C60 UNL A   1      37.622  23.687  26.173  1.00  0.00    +0.000 C 
ATOM     84  C61 UNL A   1      38.892  24.039  26.638  1.00  0.00    +0.000 C 
ATOM     85  C62 UNL A   1      39.921  23.100  26.632  1.00  0.00    +0.000 C 
ATOM     86  C63 UNL A   1      39.679  21.809  26.167  1.00  0.00    +0.000 C 
ATOM     87  C64 UNL A   1      38.409  21.458  25.705  1.00  0.00    +0.000 C 
ENDBRANCH   81   82
BRANCH   89   90
ATOM    136  H41 UNL A   1      32.363  19.200  26.075  1.00  0.00    +0.000 H 
ATOM    137  H42 UNL A   1      31.709  16.873  26.201  1.00  0.00    +0.000 H 
ATOM    138  H43 UNL A   1      32.900  15.205  24.904  1.00  0.00    +0.000 H 
ATOM    139  H44 UNL A   1      34.772  15.866  23.511  1.00  0.00    +0.000 H 
ATOM    140  H45 UNL A   1      35.458  18.187  23.413  1.00  0.00    +0.000 H 
ATOM     90  C67 UNL A   1      33.955  18.902  24.717  1.00  0.00    +0.000 C 
ATOM     91  C68 UNL A   1      32.880  18.495  25.526  1.00  0.00    +0.000 C 
ATOM     92  C69 UNL A   1      32.499  17.154  25.599  1.00  0.00    +0.000 C 
ATOM     93  C70 UNL A   1      33.187  16.196  24.859  1.00  0.00    +0.000 C 
ATOM     94  C71 UNL A   1      34.262  16.576  24.058  1.00  0.00    +0.000 C 
ATOM     95  C72 UNL A   1      34.650  17.917  23.996  1.00  0.00    +0.000 C 
ENDBRANCH   89   90
ENDBRANCH    4    3
ENDBRANCH    5    4
ENDBRANCH    7    5
ENDBRANCH    8    7
ENDBRANCH    9    8
ENDBRANCH   10    9
ENDBRANCH   11   10
ENDBRANCH   12   11
ENDBRANCH   13   12
ENDBRANCH   14   13
ENDBRANCH   15   14
ENDBRANCH   17   15
ENDBRANCH   21   20
BRANCH   25   26
ATOM     33  C25 UNL A   1      43.702  23.907  26.238  1.00  0.00    +0.000 C 
ATOM     34  F4  UNL A   1      43.410  22.614  26.039  1.00  0.00    +0.000 F 
ATOM     35  C26 UNL A   1      43.236  24.557  27.387  1.00  0.00    +0.000 C 
ATOM     36  F5  UNL A   1      42.645  23.790  28.315  1.00  0.00    +0.000 F 
ATOM     26  C21 UNL A   1      43.405  25.937  27.590  1.00  0.00    +0.000 C 
ATOM     27  C22 UNL A   1      44.258  26.571  26.661  1.00  0.00    +0.000 C 
ATOM     28  F1  UNL A   1      44.622  27.852  26.799  1.00  0.00    +0.000 F 
ATOM     29  C23 UNL A   1      44.771  25.912  25.540  1.00  0.00    +0.000 C 
ATOM     30  F2  UNL A   1      45.558  26.575  24.680  1.00  0.00    +0.000 F 
ATOM     31  C24 UNL A   1      44.454  24.591  25.305  1.00  0.00    +0.000 C 
ATOM     32  F3  UNL A   1      44.892  23.975  24.198  1.00  0.00    +0.000 F 
ENDBRANCH   25   26
BRANCH   42   43
ATOM     43  C32 UNL A   1      43.593  26.588  34.282  1.00  0.00    +0.000 C 
ATOM     44  C33 UNL A   1      44.948  26.332  34.546  1.00  0.00    +0.000 C 
ATOM     45  F6  UNL A   1      45.912  27.120  34.048  1.00  0.00    +0.000 F 
ATOM     46  C34 UNL A   1      45.352  25.286  35.379  1.00  0.00    +0.000 C 
ATOM     47  F7  UNL A   1      46.659  25.055  35.569  1.00  0.00    +0.000 F 
ATOM     48  C35 UNL A   1      44.414  24.501  36.027  1.00  0.00    +0.000 C 
ATOM     49  F8  UNL A   1      44.806  23.524  36.854  1.00  0.00    +0.000 F 
ATOM     50  C36 UNL A   1      43.071  24.750  35.830  1.00  0.00    +0.000 C 
ATOM     51  F9  UNL A   1      42.152  24.030  36.487  1.00  0.00    +0.000 F 
ATOM     52  C37 UNL A   1      42.667  25.763  34.960  1.00  0.00    +0.000 C 
ATOM     53  F10 UNL A   1      41.345  25.930  34.811  1.00  0.00    +0.000 F 
ENDBRANCH   42   43
BRANCH   57   58
ATOM     65  C45 UNL A   1      36.613  31.633  33.164  1.00  0.00    +0.000 C 
ATOM     66  F14 UNL A   1      35.639  30.847  32.685  1.00  0.00    +0.000 F 
ATOM     67  C46 UNL A   1      37.933  31.175  33.170  1.00  0.00    +0.000 C 
ATOM     68  F15 UNL A   1      38.191  29.953  32.683  1.00  0.00    +0.000 F 
ATOM     58  C41 UNL A   1      38.978  32.012  33.576  1.00  0.00    +0.000 C 
ATOM     59  C42 UNL A   1      38.643  33.290  34.058  1.00  0.00    +0.000 C 
ATOM     60  F11 UNL A   1      39.609  34.131  34.460  1.00  0.00    +0.000 F 
ATOM     61  C43 UNL A   1      37.327  33.748  34.041  1.00  0.00    +0.000 C 
ATOM     62  F12 UNL A   1      37.050  35.003  34.421  1.00  0.00    +0.000 F 
ATOM     63  C44 UNL A   1      36.316  32.926  33.571  1.00  0.00    +0.000 C 
ATOM     64  F13 UNL A   1      35.062  33.388  33.481  1.00  0.00    +0.000 F 
ENDBRANCH   57   58
TORSDOF 19
ENDMDL
MODEL 3
REMARK VINA RESULT:     -12.4     33.084     40.200
ROOT
ATOM     21  C17 UNL A   1       9.545   3.756  27.063  1.00  0.00    +0.000 C 
ATOM     22  C18 UNL A   1       8.688   4.498  26.116  1.00  0.00    +0.000 C 
ATOM     23  N3  UNL A   1       8.403   5.755  26.229  1.00  0.00    +0.000 N 
ATOM     24  C19 UNL A   1       7.416   6.042  25.314  1.00  0.00    +0.000 C 
ATOM     25  C20 UNL A   1       6.702   7.201  25.423  1.00  0.00    +0.000 C 
ATOM     37  C27 UNL A   1       7.144   8.001  26.558  1.00  0.00    +0.000 C 
ATOM     38  C28 UNL A   1       6.664   8.110  27.854  1.00  0.00    +0.000 C 
ATOM     39  C29 UNL A   1       7.651   8.749  28.638  1.00  0.00    +0.000 C 
ATOM     40  C30 UNL A   1       8.728   9.038  27.818  1.00  0.00    +0.000 C 
ATOM     41  N4  UNL A   1       8.397   8.603  26.549  1.00  0.00    +0.000 N 
ATOM     42  C31 UNL A   1      10.004   9.673  28.092  1.00  0.00    +0.000 C 
ATOM     54  C38 UNL A   1      10.853   8.947  28.874  1.00  0.00    +0.000 C 
ATOM     55  N5  UNL A   1      10.644   7.617  29.121  1.00  0.00    +0.000 N 
ATOM     56  C39 UNL A   1      11.635   7.154  29.828  1.00  0.00    +0.000 C 
ATOM     57  C40 UNL A   1      11.794   5.702  30.193  1.00  0.00    +0.000 C 
ATOM     69  C47 UNL A   1      10.643   4.974  30.116  1.00  0.00    +0.000 C 
ATOM     70  C48 UNL A   1       9.300   5.525  30.127  1.00  0.00    +0.000 C 
ATOM     71  C49 UNL A   1       8.677   5.063  29.034  1.00  0.00    +0.000 C 
ATOM     72  C50 UNL A   1       9.557   4.106  28.369  1.00  0.00    +0.000 C 
ATOM     73  N6  UNL A   1      10.552   3.786  29.333  1.00  0.00    +0.000 N 
ATOM     74  C51 UNL A   1      12.612   8.183  30.173  1.00  0.00    +0.000 C 
ATOM     75  C52 UNL A   1      12.083   9.263  29.574  1.00  0.00    +0.000 C 
ATOM     76  C53 UNL A   1       7.302   4.852  24.498  1.00  0.00    +0.000 C 
ATOM     77  C54 UNL A   1       8.099   3.873  24.940  1.00  0.00    +0.000 C 
ATOM    117  H22 UNL A   1       5.746   7.782  28.189  1.00  0.00    +0.000 H 
ATOM    118  H23 UNL A   1       7.582   8.962  29.644  1.00  0.00    +0.000 H 
ATOM    119  H24 UNL A   1       8.967   8.704  25.753  1.00  0.00    +0.000 H 
ATOM    120  H25 UNL A   1       8.901   6.154  30.842  1.00  0.00    +0.000 H 
ATOM    121  H26 UNL A   1       7.734   5.337  28.715  1.00  0.00    +0.000 H 
ATOM    122  H27 UNL A   1      11.056   2.947  29.434  1.00  0.00    +0.000 H 
ATOM    123  H28 UNL A   1      13.479   8.102  30.728  1.00  0.00    +0.000 H 
ATOM    124  H29 UNL A   1      12.502  10.206  29.609  1.00  0.00    +0.000 H 
ATOM    125  H30 UNL A   1       6.683   4.769  23.677  1.00  0.00    +0.000 H 
ATOM    126  H31 UNL A   1       8.253   2.929  24.554  1.00  0.00    +0.000 H 
ENDROOT
BRANCH   21   20
ATOM     78  C55 UNL A   1      11.391   2.224  27.476  1.00  0.00    +0.000 C 
ATOM     79  C56 UNL A   1      12.360   1.354  27.013  1.00  0.00    +0.000 C 
ATOM     17  C13 UNL A   1      12.346   0.979  25.670  1.00  0.00    +0.000 C 
ATOM     18  C14 UNL A   1      11.217   1.218  24.880  1.00  0.00    +0.000 C 
ATOM     19  C15 UNL A   1      10.198   2.032  25.373  1.00  0.00    +0.000 C 
ATOM    115  H20 UNL A   1      11.138   0.796  23.941  1.00  0.00    +0.000 H 
ATOM    116  H21 UNL A   1       9.346   2.199  24.815  1.00  0.00    +0.000 H 
ATOM     20  C16 UNL A   1      10.346   2.617  26.633  1.00  0.00    +0.000 C 
ATOM    127  H32 UNL A   1      11.437   2.582  28.443  1.00  0.00    +0.000 H 
ATOM    128  H33 UNL A   1      13.083   0.988  27.650  1.00  0.00    +0.000 H 
BRANCH   17   15
ATOM     15  C12 UNL A   1      13.573   0.491  24.997  1.00  0.00    +0.000 C 
ATOM     16  O2  UNL A   1      14.452   1.274  24.682  1.00  0.00    +0.000 O 
BRANCH   15   14
ATOM    114  H19 UNL A   1      14.538  -1.255  25.278  1.00  0.00    +0.000 H 
ATOM     14  N2  UNL A   1      13.749  -0.873  24.831  1.00  0.00    +0.000 N 
BRANCH   14   13
ATOM    113  H18 UNL A   1      12.183  -2.183  24.764  1.00  0.00    +0.000 H 
ATOM     13  C11 UNL A   1      12.929  -1.820  24.088  1.00  0.00    +0.000 C 
ATOM    112  H17 UNL A   1      13.563  -2.600  23.720  1.00  0.00    +0.000 H 
BRANCH   13   12
ATOM     12  C10 UNL A   1      12.192  -1.203  22.906  1.00  0.00    +0.000 C 
ATOM    110  H15 UNL A   1      11.411  -0.578  23.288  1.00  0.00    +0.000 H 
ATOM    111  H16 UNL A   1      12.921  -0.660  22.341  1.00  0.00    +0.000 H 
BRANCH   12   11
ATOM     11  C9  UNL A   1      11.566  -2.224  21.949  1.00  0.00    +0.000 C 
ATOM    108  H13 UNL A   1      10.525  -1.991  21.862  1.00  0.00    +0.000 H 
ATOM    109  H14 UNL A   1      12.120  -2.134  21.038  1.00  0.00    +0.000 H 
BRANCH   11   10
ATOM     10  C8  UNL A   1      11.681  -3.705  22.351  1.00  0.00    +0.000 C 
ATOM    107  H12 UNL A   1      10.889  -3.869  23.051  1.00  0.00    +0.000 H 
ATOM    106  H11 UNL A   1      12.664  -3.858  22.745  1.00  0.00    +0.000 H 
BRANCH   10    9
ATOM      9  C7  UNL A   1      11.459  -4.739  21.240  1.00  0.00    +0.000 C 
ATOM    105  H10 UNL A   1      10.601  -5.309  21.529  1.00  0.00    +0.000 H 
ATOM    104  H9  UNL A   1      12.350  -5.326  21.151  1.00  0.00    +0.000 H 
BRANCH    9    8
ATOM    102  H7  UNL A   1      11.718  -3.268  19.724  1.00  0.00    +0.000 H 
ATOM    103  H8  UNL A   1      11.374  -4.901  19.134  1.00  0.00    +0.000 H 
ATOM      8  C6  UNL A   1      11.138  -4.155  19.864  1.00  0.00    +0.000 C 
BRANCH    8    7
ATOM    101  H6  UNL A   1       9.551  -2.968  19.262  1.00  0.00    +0.000 H 
ATOM      7  N1  UNL A   1       9.738  -3.823  19.713  1.00  0.00    +0.000 N 
BRANCH    7    5
ATOM      5  C5  UNL A   1       8.640  -4.532  20.112  1.00  0.00    +0.000 C 
ATOM      6  O1  UNL A   1       8.415  -5.613  19.563  1.00  0.00    +0.000 O 
BRANCH    5    4
ATOM    100  H5  UNL A   1       6.746  -4.418  21.011  1.00  0.00    +0.000 H 
ATOM     99  H4  UNL A   1       7.696  -2.913  21.103  1.00  0.00    +0.000 H 
ATOM      4  C4  UNL A   1       7.707  -3.979  21.184  1.00  0.00    +0.000 C 
BRANCH    4    3
ATOM    129  H34 UNL A   1       7.972  -6.407  22.169  1.00  0.00    +0.000 H 
ATOM      2  C2  UNL A   1       8.371  -3.391  23.620  1.00  0.00    +0.000 C 
ATOM      3  C3  UNL A   1       8.105  -4.345  22.604  1.00  0.00    +0.000 C 
ATOM    135  H40 UNL A   1       9.176  -5.551  26.079  1.00  0.00    +0.000 H 
ATOM     80  C57 UNL A   1       8.195  -5.720  22.906  1.00  0.00    +0.000 C 
ATOM     81  C58 UNL A   1       8.574  -6.182  24.168  1.00  0.00    +0.000 C 
ATOM     88  C65 UNL A   1       8.874  -5.228  25.147  1.00  0.00    +0.000 C 
ATOM     89  C66 UNL A   1       8.780  -3.841  24.904  1.00  0.00    +0.000 C 
BRANCH    2    1
ATOM      1  C1  UNL A   1       8.165  -1.913  23.362  1.00  0.00    +0.000 C 
ATOM     98  H3  UNL A   1       7.522  -1.785  22.517  1.00  0.00    +0.000 H 
ATOM     97  H2  UNL A   1       7.718  -1.460  24.223  1.00  0.00    +0.000 H 
ATOM     96  H1  UNL A   1       9.109  -1.450  23.165  1.00  0.00    +0.000 H 
ENDBRANCH    2    1
BRANCH   81   82
ATOM    130  H35 UNL A   1       7.374  -8.220  22.870  1.00  0.00    +0.000 H 
ATOM    131  H36 UNL A   1       7.445 -10.586  23.381  1.00  0.00    +0.000 H 
ATOM    132  H37 UNL A   1       8.743 -11.385  25.267  1.00  0.00    +0.000 H 
ATOM    133  H38 UNL A   1       9.984  -9.812  26.634  1.00  0.00    +0.000 H 
ATOM    134  H39 UNL A   1       9.924  -7.447  26.122  1.00  0.00    +0.000 H 
ATOM     82  C59 UNL A   1       8.639  -7.624  24.454  1.00  0.00    +0.000 C 
ATOM     83  C60 UNL A   1       7.931  -8.551  23.673  1.00  0.00    +0.000 C 
ATOM     84  C61 UNL A   1       7.970  -9.918  23.965  1.00  0.00    +0.000 C 
ATOM     85  C62 UNL A   1       8.717 -10.377  25.048  1.00  0.00    +0.000 C 
ATOM     86  C63 UNL A   1       9.429  -9.473  25.832  1.00  0.00    +0.000 C 
ATOM     87  C64 UNL A   1       9.392  -8.108  25.537  1.00  0.00    +0.000 C 
ENDBRANCH   81   82
BRANCH   89   90
ATOM    136  H41 UNL A   1      11.221  -3.337  25.903  1.00  0.00    +0.000 H 
ATOM    137  H42 UNL A   1      11.856  -1.830  27.686  1.00  0.00    +0.000 H 
ATOM    138  H43 UNL A   1      10.166  -0.514  28.824  1.00  0.00    +0.000 H 
ATOM    139  H44 UNL A   1       7.833  -0.740  28.198  1.00  0.00    +0.000 H 
ATOM    140  H45 UNL A   1       7.187  -2.278  26.444  1.00  0.00    +0.000 H 
ATOM     90  C67 UNL A   1       9.150  -2.925  26.002  1.00  0.00    +0.000 C 
ATOM     91  C68 UNL A   1      10.495  -2.787  26.387  1.00  0.00    +0.000 C 
ATOM     92  C69 UNL A   1      10.864  -1.917  27.415  1.00  0.00    +0.000 C 
ATOM     93  C70 UNL A   1       9.893  -1.166  28.072  1.00  0.00    +0.000 C 
ATOM     94  C71 UNL A   1       8.554  -1.295  27.711  1.00  0.00    +0.000 C 
ATOM     95  C72 UNL A   1       8.183  -2.177  26.692  1.00  0.00    +0.000 C 
ENDBRANCH   89   90
ENDBRANCH    4    3
ENDBRANCH    5    4
ENDBRANCH    7    5
ENDBRANCH    8    7
ENDBRANCH    9    8
ENDBRANCH   10    9
ENDBRANCH   11   10
ENDBRANCH   12   11
ENDBRANCH   13   12
ENDBRANCH   14   13
ENDBRANCH   15   14
ENDBRANCH   17   15
ENDBRANCH   21   20
BRANCH   25   26
ATOM     33  C25 UNL A   1       3.032   8.109  24.662  1.00  0.00    +0.000 C 
ATOM     34  F4  UNL A   1       1.917   8.396  25.348  1.00  0.00    +0.000 F 
ATOM     35  C26 UNL A   1       4.164   7.640  25.340  1.00  0.00    +0.000 C 
ATOM     36  F5  UNL A   1       4.011   7.353  26.641  1.00  0.00    +0.000 F 
ATOM     26  C21 UNL A   1       5.396   7.440  24.695  1.00  0.00    +0.000 C 
ATOM     27  C22 UNL A   1       5.350   7.539  23.287  1.00  0.00    +0.000 C 
ATOM     28  F1  UNL A   1       6.410   7.244  22.525  1.00  0.00    +0.000 F 
ATOM     29  C23 UNL A   1       4.205   7.954  22.601  1.00  0.00    +0.000 C 
ATOM     30  F2  UNL A   1       4.230   8.052  21.263  1.00  0.00    +0.000 F 
ATOM     31  C24 UNL A   1       3.060   8.284  23.294  1.00  0.00    +0.000 C 
ATOM     32  F3  UNL A   1       1.982   8.743  22.643  1.00  0.00    +0.000 F 
ENDBRANCH   25   26
BRANCH   42   43
ATOM     43  C32 UNL A   1      10.252  11.073  27.604  1.00  0.00    +0.000 C 
ATOM     44  C33 UNL A   1       9.714  12.215  28.219  1.00  0.00    +0.000 C 
ATOM     45  F6  UNL A   1       8.917  12.114  29.293  1.00  0.00    +0.000 F 
ATOM     46  C34 UNL A   1      10.025  13.504  27.780  1.00  0.00    +0.000 C 
ATOM     47  F7  UNL A   1       9.455  14.563  28.373  1.00  0.00    +0.000 F 
ATOM     48  C35 UNL A   1      10.934  13.698  26.755  1.00  0.00    +0.000 C 
ATOM     49  F8  UNL A   1      11.258  14.937  26.363  1.00  0.00    +0.000 F 
ATOM     50  C36 UNL A   1      11.520  12.602  26.155  1.00  0.00    +0.000 C 
ATOM     51  F9  UNL A   1      12.437  12.775  25.193  1.00  0.00    +0.000 F 
ATOM     52  C37 UNL A   1      11.173  11.313  26.559  1.00  0.00    +0.000 C 
ATOM     53  F10 UNL A   1      11.775  10.303  25.914  1.00  0.00    +0.000 F 
ENDBRANCH   42   43
BRANCH   57   58
ATOM     65  C45 UNL A   1      14.457   3.724  28.392  1.00  0.00    +0.000 C 
ATOM     66  F14 UNL A   1      14.893   3.548  27.137  1.00  0.00    +0.000 F 
ATOM     67  C46 UNL A   1      13.571   4.766  28.677  1.00  0.00    +0.000 C 
ATOM     68  F15 UNL A   1      13.172   5.562  27.675  1.00  0.00    +0.000 F 
ATOM     58  C41 UNL A   1      13.028   4.911  29.958  1.00  0.00    +0.000 C 
ATOM     59  C42 UNL A   1      13.472   4.031  30.960  1.00  0.00    +0.000 C 
ATOM     60  F11 UNL A   1      12.982   4.130  32.207  1.00  0.00    +0.000 F 
ATOM     61  C43 UNL A   1      14.348   2.987  30.670  1.00  0.00    +0.000 C 
ATOM     62  F12 UNL A   1      14.682   2.109  31.627  1.00  0.00    +0.000 F 
ATOM     63  C44 UNL A   1      14.821   2.820  29.380  1.00  0.00    +0.000 C 
ATOM     64  F13 UNL A   1      15.601   1.774  29.079  1.00  0.00    +0.000 F 
ENDBRANCH   57   58
TORSDOF 19
ENDMDL
MODEL 4
REMARK VINA RESULT:     -12.3     33.144     39.432
ROOT
ATOM     21  C17 UNL A   1       8.802   3.492  27.039  1.00  0.00    +0.000 C 
ATOM     22  C18 UNL A   1       8.034   4.321  26.088  1.00  0.00    +0.000 C 
ATOM     23  N3  UNL A   1       7.985   5.613  26.129  1.00  0.00    +0.000 N 
ATOM     24  C19 UNL A   1       7.010   6.021  25.248  1.00  0.00    +0.000 C 
ATOM     25  C20 UNL A   1       6.523   7.295  25.313  1.00  0.00    +0.000 C 
ATOM     37  C27 UNL A   1       7.170   8.066  26.368  1.00  0.00    +0.000 C 
ATOM     38  C28 UNL A   1       6.799   8.335  27.676  1.00  0.00    +0.000 C 
ATOM     39  C29 UNL A   1       7.930   8.828  28.363  1.00  0.00    +0.000 C 
ATOM     40  C30 UNL A   1       8.988   8.868  27.473  1.00  0.00    +0.000 C 
ATOM     41  N4  UNL A   1       8.507   8.428  26.254  1.00  0.00    +0.000 N 
ATOM     42  C31 UNL A   1      10.372   9.276  27.638  1.00  0.00    +0.000 C 
ATOM     54  C38 UNL A   1      11.124   8.454  28.424  1.00  0.00    +0.000 C 
ATOM     55  N5  UNL A   1      10.697   7.200  28.771  1.00  0.00    +0.000 N 
ATOM     56  C39 UNL A   1      11.632   6.606  29.457  1.00  0.00    +0.000 C 
ATOM     57  C40 UNL A   1      11.551   5.173  29.911  1.00  0.00    +0.000 C 
ATOM     69  C47 UNL A   1      10.287   4.664  29.942  1.00  0.00    +0.000 C 
ATOM     70  C48 UNL A   1       9.067   5.450  29.984  1.00  0.00    +0.000 C 
ATOM     71  C49 UNL A   1       8.305   5.046  28.957  1.00  0.00    +0.000 C 
ATOM     72  C50 UNL A   1       8.957   3.908  28.316  1.00  0.00    +0.000 C 
ATOM     73  N6  UNL A   1       9.937   3.469  29.247  1.00  0.00    +0.000 N 
ATOM     74  C51 UNL A   1      12.797   7.458  29.681  1.00  0.00    +0.000 C 
ATOM     75  C52 UNL A   1      12.432   8.581  29.038  1.00  0.00    +0.000 C 
ATOM     76  C53 UNL A   1       6.636   4.827  24.522  1.00  0.00    +0.000 C 
ATOM     77  C54 UNL A   1       7.271   3.746  24.989  1.00  0.00    +0.000 C 
ATOM    117  H22 UNL A   1       5.859   8.199  28.079  1.00  0.00    +0.000 H 
ATOM    118  H23 UNL A   1       7.962   9.108  29.356  1.00  0.00    +0.000 H 
ATOM    119  H24 UNL A   1       9.036   8.378  25.426  1.00  0.00    +0.000 H 
ATOM    120  H25 UNL A   1       8.831   6.181  30.673  1.00  0.00    +0.000 H 
ATOM    121  H26 UNL A   1       7.408   5.468  28.668  1.00  0.00    +0.000 H 
ATOM    122  H27 UNL A   1      10.289   2.560  29.380  1.00  0.00    +0.000 H 
ATOM    123  H28 UNL A   1      13.668   7.254  30.195  1.00  0.00    +0.000 H 
ATOM    124  H29 UNL A   1      13.013   9.432  28.987  1.00  0.00    +0.000 H 
ATOM    125  H30 UNL A   1       5.962   4.810  23.741  1.00  0.00    +0.000 H 
ATOM    126  H31 UNL A   1       7.230   2.769  24.660  1.00  0.00    +0.000 H 
ENDROOT
BRANCH   21   20
ATOM     78  C55 UNL A   1       9.028   1.102  27.444  1.00  0.00    +0.000 C 
ATOM     79  C56 UNL A   1       9.734  -0.080  27.314  1.00  0.00    +0.000 C 
ATOM     17  C13 UNL A   1      10.845  -0.115  26.473  1.00  0.00    +0.000 C 
ATOM     18  C14 UNL A   1      11.066   0.911  25.548  1.00  0.00    +0.000 C 
ATOM     19  C15 UNL A   1      10.303   2.075  25.625  1.00  0.00    +0.000 C 
ATOM    115  H20 UNL A   1      11.786   0.807  24.816  1.00  0.00    +0.000 H 
ATOM    116  H21 UNL A   1      10.435   2.833  24.936  1.00  0.00    +0.000 H 
ATOM     20  C16 UNL A   1       9.359   2.202  26.647  1.00  0.00    +0.000 C 
ATOM    127  H32 UNL A   1       8.259   1.172  28.128  1.00  0.00    +0.000 H 
ATOM    128  H33 UNL A   1       9.443  -0.923  27.831  1.00  0.00    +0.000 H 
BRANCH   17   15
ATOM     15  C12 UNL A   1      11.912  -1.128  26.654  1.00  0.00    +0.000 C 
ATOM     16  O2  UNL A   1      11.655  -2.203  27.166  1.00  0.00    +0.000 O 
BRANCH   15   14
ATOM    114  H19 UNL A   1      13.729  -0.259  26.664  1.00  0.00    +0.000 H 
ATOM     14  N2  UNL A   1      13.172  -0.875  26.137  1.00  0.00    +0.000 N 
BRANCH   14   13
ATOM    113  H18 UNL A   1      13.906  -2.448  25.060  1.00  0.00    +0.000 H 
ATOM     13  C11 UNL A   1      13.787  -1.394  24.922  1.00  0.00    +0.000 C 
ATOM    112  H17 UNL A   1      14.721  -0.892  24.776  1.00  0.00    +0.000 H 
BRANCH   13   12
ATOM     12  C10 UNL A   1      12.938  -1.203  23.672  1.00  0.00    +0.000 C 
ATOM    110  H15 UNL A   1      12.054  -0.666  23.946  1.00  0.00    +0.000 H 
ATOM    111  H16 UNL A   1      13.546  -0.675  22.967  1.00  0.00    +0.000 H 
BRANCH   12   11
ATOM     11  C9  UNL A   1      12.513  -2.510  22.992  1.00  0.00    +0.000 C 
ATOM    108  H13 UNL A   1      12.106  -2.260  22.034  1.00  0.00    +0.000 H 
ATOM    109  H14 UNL A   1      13.398  -3.111  22.957  1.00  0.00    +0.000 H 
BRANCH   11   10
ATOM     10  C8  UNL A   1      11.471  -3.365  23.734  1.00  0.00    +0.000 C 
ATOM    107  H12 UNL A   1      10.690  -2.685  24.005  1.00  0.00    +0.000 H 
ATOM    106  H11 UNL A   1      11.964  -3.831  24.561  1.00  0.00    +0.000 H 
BRANCH   10    9
ATOM      9  C7  UNL A   1      10.782  -4.469  22.921  1.00  0.00    +0.000 C 
ATOM    105  H10 UNL A   1       9.733  -4.259  22.962  1.00  0.00    +0.000 H 
ATOM    104  H9  UNL A   1      11.045  -5.412  23.354  1.00  0.00    +0.000 H 
BRANCH    9    8
ATOM    102  H7  UNL A   1      11.872  -3.746  21.243  1.00  0.00    +0.000 H 
ATOM    103  H8  UNL A   1      11.538  -5.485  21.229  1.00  0.00    +0.000 H 
ATOM      8  C6  UNL A   1      11.150  -4.510  21.439  1.00  0.00    +0.000 C 
BRANCH    8    7
ATOM    101  H6  UNL A   1       9.504  -5.109  20.331  1.00  0.00    +0.000 H 
ATOM      7  N1  UNL A   1      10.009  -4.300  20.575  1.00  0.00    +0.000 N 
BRANCH    7    5
ATOM      5  C5  UNL A   1       9.536  -3.130  20.049  1.00  0.00    +0.000 C 
ATOM      6  O1  UNL A   1       8.520  -3.174  19.352  1.00  0.00    +0.000 O 
BRANCH    5    4
ATOM    100  H5  UNL A   1      10.375  -1.339  19.342  1.00  0.00    +0.000 H 
ATOM     99  H4  UNL A   1      11.211  -2.037  20.753  1.00  0.00    +0.000 H 
ATOM      4  C4  UNL A   1      10.270  -1.816  20.295  1.00  0.00    +0.000 C 
BRANCH    4    3
ATOM    129  H34 UNL A   1       9.101  -2.368  22.589  1.00  0.00    +0.000 H 
ATOM      2  C2  UNL A   1       9.330   0.528  20.879  1.00  0.00    +0.000 C 
ATOM      3  C3  UNL A   1       9.521  -0.843  21.190  1.00  0.00    +0.000 C 
ATOM    135  H40 UNL A   1       7.664   1.405  23.675  1.00  0.00    +0.000 H 
ATOM     80  C57 UNL A   1       8.983  -1.363  22.385  1.00  0.00    +0.000 C 
ATOM     81  C58 UNL A   1       8.294  -0.564  23.301  1.00  0.00    +0.000 C 
ATOM     88  C65 UNL A   1       8.151   0.795  23.000  1.00  0.00    +0.000 C 
ATOM     89  C66 UNL A   1       8.652   1.362  21.809  1.00  0.00    +0.000 C 
BRANCH    2    1
ATOM      1  C1  UNL A   1       9.788   1.088  19.548  1.00  0.00    +0.000 C 
ATOM     98  H3  UNL A   1       9.555   2.131  19.502  1.00  0.00    +0.000 H 
ATOM     97  H2  UNL A   1      10.845   0.954  19.450  1.00  0.00    +0.000 H 
ATOM     96  H1  UNL A   1       9.287   0.575  18.755  1.00  0.00    +0.000 H 
ENDBRANCH    2    1
BRANCH   81   82
ATOM    130  H35 UNL A   1       8.982  -2.844  24.568  1.00  0.00    +0.000 H 
ATOM    131  H36 UNL A   1       8.010  -3.816  26.561  1.00  0.00    +0.000 H 
ATOM    132  H37 UNL A   1       6.182  -2.696  27.695  1.00  0.00    +0.000 H 
ATOM    133  H38 UNL A   1       5.338  -0.590  26.837  1.00  0.00    +0.000 H 
ATOM    134  H39 UNL A   1       6.312   0.391  24.850  1.00  0.00    +0.000 H 
ATOM     82  C59 UNL A   1       7.729  -1.143  24.530  1.00  0.00    +0.000 C 
ATOM     83  C60 UNL A   1       8.206  -2.359  25.045  1.00  0.00    +0.000 C 
ATOM     84  C61 UNL A   1       7.647  -2.923  26.196  1.00  0.00    +0.000 C 
ATOM     85  C62 UNL A   1       6.599  -2.278  26.848  1.00  0.00    +0.000 C 
ATOM     86  C63 UNL A   1       6.114  -1.069  26.354  1.00  0.00    +0.000 C 
ATOM     87  C64 UNL A   1       6.676  -0.506  25.206  1.00  0.00    +0.000 C 
ENDBRANCH   81   82
BRANCH   89   90
ATOM    136  H41 UNL A   1      10.328   3.356  22.459  1.00  0.00    +0.000 H 
ATOM    137  H42 UNL A   1      10.063   5.739  22.127  1.00  0.00    +0.000 H 
ATOM    138  H43 UNL A   1       8.060   6.602  21.066  1.00  0.00    +0.000 H 
ATOM    139  H44 UNL A   1       6.306   5.077  20.372  1.00  0.00    +0.000 H 
ATOM    140  H45 UNL A   1       6.547   2.695  20.740  1.00  0.00    +0.000 H 
ATOM     90  C67 UNL A   1       8.470   2.814  21.610  1.00  0.00    +0.000 C 
ATOM     91  C68 UNL A   1       9.470   3.716  22.014  1.00  0.00    +0.000 C 
ATOM     92  C69 UNL A   1       9.320   5.091  21.822  1.00  0.00    +0.000 C 
ATOM     93  C70 UNL A   1       8.167   5.586  21.218  1.00  0.00    +0.000 C 
ATOM     94  C71 UNL A   1       7.161   4.710  20.819  1.00  0.00    +0.000 C 
ATOM     95  C72 UNL A   1       7.305   3.335  21.024  1.00  0.00    +0.000 C 
ENDBRANCH   89   90
ENDBRANCH    4    3
ENDBRANCH    5    4
ENDBRANCH    7    5
ENDBRANCH    8    7
ENDBRANCH    9    8
ENDBRANCH   10    9
ENDBRANCH   11   10
ENDBRANCH   12   11
ENDBRANCH   13   12
ENDBRANCH   14   13
ENDBRANCH   15   14
ENDBRANCH   17   15
ENDBRANCH   21   20
BRANCH   25   26
ATOM     33  C25 UNL A   1       2.913   8.515  24.722  1.00  0.00    +0.000 C 
ATOM     34  F4  UNL A   1       1.808   8.739  25.447  1.00  0.00    +0.000 F 
ATOM     35  C26 UNL A   1       4.012   7.877  25.309  1.00  0.00    +0.000 C 
ATOM     36  F5  UNL A   1       3.833   7.379  26.540  1.00  0.00    +0.000 F 
ATOM     26  C21 UNL A   1       5.238   7.725  24.638  1.00  0.00    +0.000 C 
ATOM     27  C22 UNL A   1       5.209   8.067  23.268  1.00  0.00    +0.000 C 
ATOM     28  F1  UNL A   1       6.259   7.851  22.467  1.00  0.00    +0.000 F 
ATOM     29  C23 UNL A   1       4.094   8.654  22.664  1.00  0.00    +0.000 C 
ATOM     30  F2  UNL A   1       4.136   8.980  21.364  1.00  0.00    +0.000 F 
ATOM     31  C24 UNL A   1       2.962   8.921  23.404  1.00  0.00    +0.000 C 
ATOM     32  F3  UNL A   1       1.915   9.542  22.842  1.00  0.00    +0.000 F 
ENDBRANCH   25   26
BRANCH   42   43
ATOM     43  C32 UNL A   1      10.835  10.577  27.044  1.00  0.00    +0.000 C 
ATOM     44  C33 UNL A   1      11.386  10.689  25.758  1.00  0.00    +0.000 C 
ATOM     45  F6  UNL A   1      11.549   9.611  24.977  1.00  0.00    +0.000 F 
ATOM     46  C34 UNL A   1      11.739  11.926  25.212  1.00  0.00    +0.000 C 
ATOM     47  F7  UNL A   1      12.299  11.979  23.996  1.00  0.00    +0.000 F 
ATOM     48  C35 UNL A   1      11.491  13.096  25.907  1.00  0.00    +0.000 C 
ATOM     49  F8  UNL A   1      11.795  14.282  25.364  1.00  0.00    +0.000 F 
ATOM     50  C36 UNL A   1      10.908  13.032  27.156  1.00  0.00    +0.000 C 
ATOM     51  F9  UNL A   1      10.619  14.159  27.820  1.00  0.00    +0.000 F 
ATOM     52  C37 UNL A   1      10.601  11.795  27.722  1.00  0.00    +0.000 C 
ATOM     53  F10 UNL A   1      10.051  11.818  28.946  1.00  0.00    +0.000 F 
ENDBRANCH   42   43
BRANCH   57   58
ATOM     65  C45 UNL A   1      14.490   2.887  30.529  1.00  0.00    +0.000 C 
ATOM     66  F14 UNL A   1      15.137   2.350  31.573  1.00  0.00    +0.000 F 
ATOM     67  C46 UNL A   1      13.256   3.509  30.724  1.00  0.00    +0.000 C 
ATOM     68  F15 UNL A   1      12.752   3.561  31.966  1.00  0.00    +0.000 F 
ATOM     58  C41 UNL A   1      12.608   4.160  29.668  1.00  0.00    +0.000 C 
ATOM     59  C42 UNL A   1      13.199   4.086  28.395  1.00  0.00    +0.000 C 
ATOM     60  F11 UNL A   1      12.616   4.692  27.348  1.00  0.00    +0.000 F 
ATOM     61  C43 UNL A   1      14.436   3.473  28.205  1.00  0.00    +0.000 C 
ATOM     62  F12 UNL A   1      15.017   3.498  26.997  1.00  0.00    +0.000 F 
ATOM     63  C44 UNL A   1      15.091   2.895  29.278  1.00  0.00    +0.000 C 
ATOM     64  F13 UNL A   1      16.315   2.372  29.116  1.00  0.00    +0.000 F 
ENDBRANCH   57   58
TORSDOF 19
ENDMDL
MODEL 5
REMARK VINA RESULT:     -12.2      3.812     10.063
ROOT
ATOM     21  C17 UNL A   1      40.603  28.049  28.955  1.00  0.00    +0.000 C 
ATOM     22  C18 UNL A   1      41.021  26.730  28.437  1.00  0.00    +0.000 C 
ATOM     23  N3  UNL A   1      42.038  26.066  28.881  1.00  0.00    +0.000 N 
ATOM     24  C19 UNL A   1      42.254  25.011  28.025  1.00  0.00    +0.000 C 
ATOM     25  C20 UNL A   1      43.439  24.334  28.063  1.00  0.00    +0.000 C 
ATOM     37  C27 UNL A   1      44.332  24.868  29.084  1.00  0.00    +0.000 C 
ATOM     38  C28 UNL A   1      45.371  25.782  29.016  1.00  0.00    +0.000 C 
ATOM     39  C29 UNL A   1      45.674  26.206  30.329  1.00  0.00    +0.000 C 
ATOM     40  C30 UNL A   1      44.825  25.545  31.198  1.00  0.00    +0.000 C 
ATOM     41  N4  UNL A   1      44.031  24.712  30.433  1.00  0.00    +0.000 N 
ATOM     42  C31 UNL A   1      44.689  25.602  32.643  1.00  0.00    +0.000 C 
ATOM     54  C38 UNL A   1      44.195  26.777  33.128  1.00  0.00    +0.000 C 
ATOM     55  N5  UNL A   1      43.596  27.698  32.311  1.00  0.00    +0.000 N 
ATOM     56  C39 UNL A   1      43.152  28.685  33.036  1.00  0.00    +0.000 C 
ATOM     57  C40 UNL A   1      42.340  29.827  32.484  1.00  0.00    +0.000 C 
ATOM     69  C47 UNL A   1      42.458  30.000  31.137  1.00  0.00    +0.000 C 
ATOM     70  C48 UNL A   1      43.543  29.491  30.317  1.00  0.00    +0.000 C 
ATOM     71  C49 UNL A   1      42.986  28.772  29.332  1.00  0.00    +0.000 C 
ATOM     72  C50 UNL A   1      41.536  28.910  29.420  1.00  0.00    +0.000 C 
ATOM     73  N6  UNL A   1      41.321  30.024  30.277  1.00  0.00    +0.000 N 
ATOM     74  C51 UNL A   1      43.467  28.531  34.454  1.00  0.00    +0.000 C 
ATOM     75  C52 UNL A   1      44.114  27.354  34.456  1.00  0.00    +0.000 C 
ATOM     76  C53 UNL A   1      41.110  25.007  27.138  1.00  0.00    +0.000 C 
ATOM     77  C54 UNL A   1      40.297  26.042  27.377  1.00  0.00    +0.000 C 
ATOM    117  H22 UNL A   1      45.844  26.098  28.155  1.00  0.00    +0.000 H 
ATOM    118  H23 UNL A   1      46.399  26.890  30.593  1.00  0.00    +0.000 H 
ATOM    119  H24 UNL A   1      43.351  24.097  30.790  1.00  0.00    +0.000 H 
ATOM    120  H25 UNL A   1      44.551  29.653  30.465  1.00  0.00    +0.000 H 
ATOM    121  H26 UNL A   1      43.496  28.214  28.629  1.00  0.00    +0.000 H 
ATOM    122  H27 UNL A   1      40.568  30.659  30.276  1.00  0.00    +0.000 H 
ATOM    123  H28 UNL A   1      43.250  29.159  35.244  1.00  0.00    +0.000 H 
ATOM    124  H29 UNL A   1      44.507  26.912  35.302  1.00  0.00    +0.000 H 
ATOM    125  H30 UNL A   1      40.942  24.294  26.411  1.00  0.00    +0.000 H 
ATOM    126  H31 UNL A   1      39.400  26.287  26.930  1.00  0.00    +0.000 H 
ENDROOT
BRANCH   21   20
ATOM     78  C55 UNL A   1      38.791  29.219  27.827  1.00  0.00    +0.000 C 
ATOM     79  C56 UNL A   1      37.582  29.889  27.866  1.00  0.00    +0.000 C 
ATOM     17  C13 UNL A   1      36.855  29.904  29.055  1.00  0.00    +0.000 C 
ATOM     18  C14 UNL A   1      37.170  29.017  30.089  1.00  0.00    +0.000 C 
ATOM     19  C15 UNL A   1      38.351  28.278  30.019  1.00  0.00    +0.000 C 
ATOM    115  H20 UNL A   1      36.536  28.909  30.896  1.00  0.00    +0.000 H 
ATOM    116  H21 UNL A   1      38.588  27.600  30.760  1.00  0.00    +0.000 H 
ATOM     20  C16 UNL A   1      39.207  28.469  28.932  1.00  0.00    +0.000 C 
ATOM    127  H32 UNL A   1      39.385  29.271  26.985  1.00  0.00    +0.000 H 
ATOM    128  H33 UNL A   1      37.224  30.372  27.028  1.00  0.00    +0.000 H 
BRANCH   17   15
ATOM     15  C12 UNL A   1      35.859  30.966  29.332  1.00  0.00    +0.000 C 
ATOM     16  O2  UNL A   1      35.709  31.384  30.466  1.00  0.00    +0.000 O 
BRANCH   15   14
ATOM    114  H19 UNL A   1      35.624  32.327  27.865  1.00  0.00    +0.000 H 
ATOM     14  N2  UNL A   1      35.184  31.546  28.271  1.00  0.00    +0.000 N 
BRANCH   14   13
ATOM    113  H18 UNL A   1      33.849  31.663  26.729  1.00  0.00    +0.000 H 
ATOM     13  C11 UNL A   1      33.914  31.159  27.670  1.00  0.00    +0.000 C 
ATOM    112  H17 UNL A   1      33.126  31.438  28.339  1.00  0.00    +0.000 H 
BRANCH   13   12
ATOM     12  C10 UNL A   1      33.796  29.668  27.384  1.00  0.00    +0.000 C 
ATOM    110  H15 UNL A   1      34.225  29.477  26.423  1.00  0.00    +0.000 H 
ATOM    111  H16 UNL A   1      34.307  29.163  28.177  1.00  0.00    +0.000 H 
BRANCH   12   11
ATOM     11  C9  UNL A   1      32.357  29.137  27.381  1.00  0.00    +0.000 C 
ATOM    108  H13 UNL A   1      32.201  28.618  28.304  1.00  0.00    +0.000 H 
ATOM    109  H14 UNL A   1      31.738  29.999  27.244  1.00  0.00    +0.000 H 
BRANCH   11   10
ATOM     10  C8  UNL A   1      31.980  28.179  26.237  1.00  0.00    +0.000 C 
ATOM    107  H12 UNL A   1      30.971  28.429  25.982  1.00  0.00    +0.000 H 
ATOM    106  H11 UNL A   1      32.116  27.180  26.593  1.00  0.00    +0.000 H 
BRANCH   10    9
ATOM      9  C7  UNL A   1      32.773  28.321  24.931  1.00  0.00    +0.000 C 
ATOM    105  H10 UNL A   1      32.937  27.326  24.572  1.00  0.00    +0.000 H 
ATOM    104  H9  UNL A   1      33.678  28.850  25.149  1.00  0.00    +0.000 H 
BRANCH    9    8
ATOM    102  H7  UNL A   1      30.998  28.893  23.907  1.00  0.00    +0.000 H 
ATOM    103  H8  UNL A   1      32.292  30.102  23.899  1.00  0.00    +0.000 H 
ATOM      8  C6  UNL A   1      32.049  29.063  23.808  1.00  0.00    +0.000 C 
BRANCH    8    7
ATOM    101  H6  UNL A   1      31.907  28.940  21.745  1.00  0.00    +0.000 H 
ATOM      7  N1  UNL A   1      32.467  28.631  22.493  1.00  0.00    +0.000 N 
BRANCH    7    5
ATOM      5  C5  UNL A   1      33.533  27.849  22.146  1.00  0.00    +0.000 C 
ATOM      6  O1  UNL A   1      34.651  28.368  22.118  1.00  0.00    +0.000 O 
BRANCH    5    4
ATOM    100  H5  UNL A   1      34.181  26.096  21.189  1.00  0.00    +0.000 H 
ATOM     99  H4  UNL A   1      32.410  26.295  21.239  1.00  0.00    +0.000 H 
ATOM      4  C4  UNL A   1      33.332  26.383  21.774  1.00  0.00    +0.000 C 
BRANCH    4    3
ATOM    129  H34 UNL A   1      35.349  25.036  22.799  1.00  0.00    +0.000 H 
ATOM      2  C2  UNL A   1      32.098  25.139  23.685  1.00  0.00    +0.000 C 
ATOM      3  C3  UNL A   1      33.283  25.440  22.965  1.00  0.00    +0.000 C 
ATOM    135  H40 UNL A   1      33.468  23.092  25.986  1.00  0.00    +0.000 H 
ATOM     80  C57 UNL A   1      34.498  24.834  23.346  1.00  0.00    +0.000 C 
ATOM     81  C58 UNL A   1      34.587  23.967  24.438  1.00  0.00    +0.000 C 
ATOM     88  C65 UNL A   1      33.418  23.713  25.163  1.00  0.00    +0.000 C 
ATOM     89  C66 UNL A   1      32.173  24.277  24.812  1.00  0.00    +0.000 C 
BRANCH    2    1
ATOM      1  C1  UNL A   1      30.759  25.677  23.225  1.00  0.00    +0.000 C 
ATOM     98  H3  UNL A   1      29.975  25.172  23.747  1.00  0.00    +0.000 H 
ATOM     97  H2  UNL A   1      30.707  26.726  23.431  1.00  0.00    +0.000 H 
ATOM     96  H1  UNL A   1      30.651  25.514  22.173  1.00  0.00    +0.000 H 
ENDBRANCH    2    1
BRANCH   81   82
ATOM    130  H35 UNL A   1      35.615  21.623  23.587  1.00  0.00    +0.000 H 
ATOM    131  H36 UNL A   1      37.699  20.569  24.225  1.00  0.00    +0.000 H 
ATOM    132  H37 UNL A   1      39.176  21.653  25.814  1.00  0.00    +0.000 H 
ATOM    133  H38 UNL A   1      38.569  23.806  26.753  1.00  0.00    +0.000 H 
ATOM    134  H39 UNL A   1      36.491  24.869  26.112  1.00  0.00    +0.000 H 
ATOM     82  C59 UNL A   1      35.867  23.337  24.797  1.00  0.00    +0.000 C 
ATOM     83  C60 UNL A   1      36.238  22.093  24.262  1.00  0.00    +0.000 C 
ATOM     84  C61 UNL A   1      37.441  21.482  24.628  1.00  0.00    +0.000 C 
ATOM     85  C62 UNL A   1      38.290  22.106  25.540  1.00  0.00    +0.000 C 
ATOM     86  C63 UNL A   1      37.940  23.342  26.079  1.00  0.00    +0.000 C 
ATOM     87  C64 UNL A   1      36.740  23.952  25.709  1.00  0.00    +0.000 C 
ENDBRANCH   81   82
BRANCH   89   90
ATOM    136  H41 UNL A   1      31.373  21.881  25.720  1.00  0.00    +0.000 H 
ATOM    137  H42 UNL A   1      29.486  21.340  27.136  1.00  0.00    +0.000 H 
ATOM    138  H43 UNL A   1      28.022  23.101  27.934  1.00  0.00    +0.000 H 
ATOM    139  H44 UNL A   1      28.429  25.401  27.281  1.00  0.00    +0.000 H 
ATOM    140  H45 UNL A   1      30.291  25.944  25.831  1.00  0.00    +0.000 H 
ATOM     90  C67 UNL A   1      31.010  23.963  25.667  1.00  0.00    +0.000 C 
ATOM     91  C68 UNL A   1      30.750  22.635  26.049  1.00  0.00    +0.000 C 
ATOM     92  C69 UNL A   1      29.663  22.320  26.867  1.00  0.00    +0.000 C 
ATOM     93  C70 UNL A   1      28.820  23.331  27.321  1.00  0.00    +0.000 C 
ATOM     94  C71 UNL A   1      29.054  24.652  26.946  1.00  0.00    +0.000 C 
ATOM     95  C72 UNL A   1      30.134  24.964  26.116  1.00  0.00    +0.000 C 
ENDBRANCH   89   90
ENDBRANCH    4    3
ENDBRANCH    5    4
ENDBRANCH    7    5
ENDBRANCH    8    7
ENDBRANCH    9    8
ENDBRANCH   10    9
ENDBRANCH   11   10
ENDBRANCH   12   11
ENDBRANCH   13   12
ENDBRANCH   14   13
ENDBRANCH   15   14
ENDBRANCH   17   15
ENDBRANCH   21   20
BRANCH   25   26
ATOM     33  C25 UNL A   1      43.665  21.367  25.610  1.00  0.00    +0.000 C 
ATOM     34  F4  UNL A   1      43.082  20.172  25.439  1.00  0.00    +0.000 F 
ATOM     35  C26 UNL A   1      43.417  22.101  26.776  1.00  0.00    +0.000 C 
ATOM     36  F5  UNL A   1      42.722  21.482  27.741  1.00  0.00    +0.000 F 
ATOM     26  C21 UNL A   1      43.899  23.409  26.957  1.00  0.00    +0.000 C 
ATOM     27  C22 UNL A   1      44.821  23.840  25.978  1.00  0.00    +0.000 C 
ATOM     28  F1  UNL A   1      45.467  25.007  26.086  1.00  0.00    +0.000 F 
ATOM     29  C23 UNL A   1      45.114  23.086  24.838  1.00  0.00    +0.000 C 
ATOM     30  F2  UNL A   1      45.981  23.560  23.931  1.00  0.00    +0.000 F 
ATOM     31  C24 UNL A   1      44.499  21.869  24.632  1.00  0.00    +0.000 C 
ATOM     32  F3  UNL A   1      44.730  21.174  23.509  1.00  0.00    +0.000 F 
ENDBRANCH   25   26
BRANCH   42   43
ATOM     43  C32 UNL A   1      45.179  24.452  33.478  1.00  0.00    +0.000 C 
ATOM     44  C33 UNL A   1      44.445  23.274  33.681  1.00  0.00    +0.000 C 
ATOM     45  F6  UNL A   1      43.228  23.113  33.141  1.00  0.00    +0.000 F 
ATOM     46  C34 UNL A   1      44.964  22.197  34.404  1.00  0.00    +0.000 C 
ATOM     47  F7  UNL A   1      44.209  21.108  34.606  1.00  0.00    +0.000 F 
ATOM     48  C35 UNL A   1      46.258  22.237  34.892  1.00  0.00    +0.000 C 
ATOM     49  F8  UNL A   1      46.765  21.187  35.552  1.00  0.00    +0.000 F 
ATOM     50  C36 UNL A   1      47.029  23.360  34.674  1.00  0.00    +0.000 C 
ATOM     51  F9  UNL A   1      48.299  23.394  35.099  1.00  0.00    +0.000 F 
ATOM     52  C37 UNL A   1      46.495  24.455  33.995  1.00  0.00    +0.000 C 
ATOM     53  F10 UNL A   1      47.304  25.513  33.838  1.00  0.00    +0.000 F 
ENDBRANCH   42   43
BRANCH   57   58
ATOM     65  C45 UNL A   1      38.654  29.885  33.292  1.00  0.00    +0.000 C 
ATOM     66  F14 UNL A   1      37.622  29.030  33.317  1.00  0.00    +0.000 F 
ATOM     67  C46 UNL A   1      39.956  29.397  33.165  1.00  0.00    +0.000 C 
ATOM     68  F15 UNL A   1      40.138  28.073  33.060  1.00  0.00    +0.000 F 
ATOM     58  C41 UNL A   1      41.040  30.273  33.042  1.00  0.00    +0.000 C 
ATOM     59  C42 UNL A   1      40.779  31.652  33.140  1.00  0.00    +0.000 C 
ATOM     60  F11 UNL A   1      41.785  32.535  33.029  1.00  0.00    +0.000 F 
ATOM     61  C43 UNL A   1      39.478  32.137  33.257  1.00  0.00    +0.000 C 
ATOM     62  F12 UNL A   1      39.254  33.458  33.256  1.00  0.00    +0.000 F 
ATOM     63  C44 UNL A   1      38.414  31.252  33.309  1.00  0.00    +0.000 C 
ATOM     64  F13 UNL A   1      37.157  31.714  33.343  1.00  0.00    +0.000 F 
ENDBRANCH   57   58
TORSDOF 19
ENDMDL
MODEL 6
REMARK VINA RESULT:     -12.2      2.275      4.763
ROOT
ATOM     21  C17 UNL A   1      39.822  29.136  29.140  1.00  0.00    +0.000 C 
ATOM     22  C18 UNL A   1      38.762  30.154  28.991  1.00  0.00    +0.000 C 
ATOM     23  N3  UNL A   1      38.908  31.402  29.297  1.00  0.00    +0.000 N 
ATOM     24  C19 UNL A   1      37.665  31.992  29.244  1.00  0.00    +0.000 C 
ATOM     25  C20 UNL A   1      37.466  33.213  29.821  1.00  0.00    +0.000 C 
ATOM     37  C27 UNL A   1      38.688  33.729  30.426  1.00  0.00    +0.000 C 
ATOM     38  C28 UNL A   1      39.162  33.691  31.728  1.00  0.00    +0.000 C 
ATOM     39  C29 UNL A   1      40.534  34.024  31.708  1.00  0.00    +0.000 C 
ATOM     40  C30 UNL A   1      40.895  34.274  30.396  1.00  0.00    +0.000 C 
ATOM     41  N4  UNL A   1      39.757  34.119  29.627  1.00  0.00    +0.000 N 
ATOM     42  C31 UNL A   1      42.166  34.646  29.800  1.00  0.00    +0.000 C 
ATOM     54  C38 UNL A   1      43.121  33.673  29.829  1.00  0.00    +0.000 C 
ATOM     55  N5  UNL A   1      42.813  32.369  30.113  1.00  0.00    +0.000 N 
ATOM     56  C39 UNL A   1      43.889  31.643  30.000  1.00  0.00    +0.000 C 
ATOM     57  C40 UNL A   1      43.901  30.143  30.135  1.00  0.00    +0.000 C 
ATOM     69  C47 UNL A   1      42.825  29.630  30.797  1.00  0.00    +0.000 C 
ATOM     70  C48 UNL A   1      41.954  30.375  31.689  1.00  0.00    +0.000 C 
ATOM     71  C49 UNL A   1      40.701  30.209  31.242  1.00  0.00    +0.000 C 
ATOM     72  C50 UNL A   1      40.725  29.253  30.140  1.00  0.00    +0.000 C 
ATOM     73  N6  UNL A   1      41.996  28.621  30.224  1.00  0.00    +0.000 N 
ATOM     74  C51 UNL A   1      45.070  32.431  29.662  1.00  0.00    +0.000 C 
ATOM     75  C52 UNL A   1      44.550  33.668  29.578  1.00  0.00    +0.000 C 
ATOM     76  C53 UNL A   1      36.799  30.991  28.660  1.00  0.00    +0.000 C 
ATOM     77  C54 UNL A   1      37.445  29.838  28.455  1.00  0.00    +0.000 C 
ATOM    117  H22 UNL A   1      38.608  33.459  32.567  1.00  0.00    +0.000 H 
ATOM    118  H23 UNL A   1      41.159  34.071  32.528  1.00  0.00    +0.000 H 
ATOM    119  H24 UNL A   1      39.711  34.263  28.655  1.00  0.00    +0.000 H 
ATOM    120  H25 UNL A   1      42.246  30.928  32.510  1.00  0.00    +0.000 H 
ATOM    121  H26 UNL A   1      39.860  30.678  31.615  1.00  0.00    +0.000 H 
ATOM    122  H27 UNL A   1      42.243  27.709  29.951  1.00  0.00    +0.000 H 
ATOM    123  H28 UNL A   1      46.046  32.123  29.524  1.00  0.00    +0.000 H 
ATOM    124  H29 UNL A   1      45.101  34.513  29.362  1.00  0.00    +0.000 H 
ATOM    125  H30 UNL A   1      35.805  31.147  28.430  1.00  0.00    +0.000 H 
ATOM    126  H31 UNL A   1      37.103  28.961  28.034  1.00  0.00    +0.000 H 
ENDROOT
BRANCH   21   20
ATOM     78  C55 UNL A   1      39.479  26.750  28.798  1.00  0.00    +0.000 C 
ATOM     79  C56 UNL A   1      39.780  25.574  28.138  1.00  0.00    +0.000 C 
ATOM     17  C13 UNL A   1      40.597  25.620  27.010  1.00  0.00    +0.000 C 
ATOM     18  C14 UNL A   1      40.855  26.838  26.372  1.00  0.00    +0.000 C 
ATOM     19  C15 UNL A   1      40.483  28.028  26.997  1.00  0.00    +0.000 C 
ATOM    115  H20 UNL A   1      41.316  26.857  25.448  1.00  0.00    +0.000 H 
ATOM    116  H21 UNL A   1      40.642  28.935  26.531  1.00  0.00    +0.000 H 
ATOM     20  C16 UNL A   1      39.891  27.974  28.261  1.00  0.00    +0.000 C 
ATOM    127  H32 UNL A   1      38.952  26.727  29.684  1.00  0.00    +0.000 H 
ATOM    128  H33 UNL A   1      39.407  24.674  28.476  1.00  0.00    +0.000 H 
BRANCH   17   15
ATOM     15  C12 UNL A   1      41.357  24.428  26.562  1.00  0.00    +0.000 C 
ATOM     16  O2  UNL A   1      42.027  24.476  25.546  1.00  0.00    +0.000 O 
BRANCH   15   14
ATOM    114  H19 UNL A   1      40.494  22.967  27.647  1.00  0.00    +0.000 H 
ATOM     14  N2  UNL A   1      41.375  23.303  27.369  1.00  0.00    +0.000 N 
BRANCH   14   13
ATOM    113  H18 UNL A   1      42.634  22.799  28.898  1.00  0.00    +0.000 H 
ATOM     13  C11 UNL A   1      42.520  22.548  27.864  1.00  0.00    +0.000 C 
ATOM    112  H17 UNL A   1      43.377  22.814  27.281  1.00  0.00    +0.000 H 
BRANCH   13   12
ATOM     12  C10 UNL A   1      42.339  21.038  27.792  1.00  0.00    +0.000 C 
ATOM    110  H15 UNL A   1      43.126  20.579  28.354  1.00  0.00    +0.000 H 
ATOM    111  H16 UNL A   1      41.367  20.827  28.187  1.00  0.00    +0.000 H 
BRANCH   12   11
ATOM     11  C9  UNL A   1      42.368  20.465  26.370  1.00  0.00    +0.000 C 
ATOM    108  H13 UNL A   1      42.424  21.289  25.690  1.00  0.00    +0.000 H 
ATOM    109  H14 UNL A   1      43.213  19.809  26.347  1.00  0.00    +0.000 H 
BRANCH   11   10
ATOM     10  C8  UNL A   1      41.168  19.596  25.954  1.00  0.00    +0.000 C 
ATOM    107  H12 UNL A   1      41.270  18.689  26.512  1.00  0.00    +0.000 H 
ATOM    106  H11 UNL A   1      41.209  19.475  24.892  1.00  0.00    +0.000 H 
BRANCH   10    9
ATOM      9  C7  UNL A   1      39.774  20.133  26.307  1.00  0.00    +0.000 C 
ATOM    105  H10 UNL A   1      39.804  20.378  27.349  1.00  0.00    +0.000 H 
ATOM    104  H9  UNL A   1      39.057  19.375  26.068  1.00  0.00    +0.000 H 
BRANCH    9    8
ATOM    102  H7  UNL A   1      40.032  22.200  25.875  1.00  0.00    +0.000 H 
ATOM    103  H8  UNL A   1      39.425  21.222  24.530  1.00  0.00    +0.000 H 
ATOM      8  C6  UNL A   1      39.368  21.415  25.581  1.00  0.00    +0.000 C 
BRANCH    8    7
ATOM    101  H6  UNL A   1      37.407  21.099  26.168  1.00  0.00    +0.000 H 
ATOM      7  N1  UNL A   1      38.012  21.819  25.878  1.00  0.00    +0.000 N 
BRANCH    7    5
ATOM      5  C5  UNL A   1      37.455  23.066  25.812  1.00  0.00    +0.000 C 
ATOM      6  O1  UNL A   1      38.038  23.930  25.153  1.00  0.00    +0.000 O 
BRANCH    5    4
ATOM    100  H5  UNL A   1      36.183  24.427  26.780  1.00  0.00    +0.000 H 
ATOM     99  H4  UNL A   1      36.129  22.773  27.441  1.00  0.00    +0.000 H 
ATOM      4  C4  UNL A   1      36.164  23.379  26.561  1.00  0.00    +0.000 C 
BRANCH    4    3
ATOM    129  H34 UNL A   1      35.407  21.090  25.501  1.00  0.00    +0.000 H 
ATOM      2  C2  UNL A   1      33.947  24.129  25.445  1.00  0.00    +0.000 C 
ATOM      3  C3  UNL A   1      34.900  23.124  25.756  1.00  0.00    +0.000 C 
ATOM    135  H40 UNL A   1      31.755  22.179  23.784  1.00  0.00    +0.000 H 
ATOM     80  C57 UNL A   1      34.695  21.808  25.294  1.00  0.00    +0.000 C 
ATOM     81  C58 UNL A   1      33.560  21.443  24.566  1.00  0.00    +0.000 C 
ATOM     88  C65 UNL A   1      32.609  22.435  24.303  1.00  0.00    +0.000 C 
ATOM     89  C66 UNL A   1      32.775  23.772  24.724  1.00  0.00    +0.000 C 
BRANCH    2    1
ATOM      1  C1  UNL A   1      34.199  25.574  25.820  1.00  0.00    +0.000 C 
ATOM     98  H3  UNL A   1      34.752  26.053  25.041  1.00  0.00    +0.000 H 
ATOM     97  H2  UNL A   1      33.264  26.075  25.955  1.00  0.00    +0.000 H 
ATOM     96  H1  UNL A   1      34.760  25.613  26.731  1.00  0.00    +0.000 H 
ENDBRANCH    2    1
BRANCH   81   82
ATOM    130  H35 UNL A   1      31.765  20.484  22.796  1.00  0.00    +0.000 H 
ATOM    131  H36 UNL A   1      31.453  18.202  22.048  1.00  0.00    +0.000 H 
ATOM    132  H37 UNL A   1      32.883  16.437  22.896  1.00  0.00    +0.000 H 
ATOM    133  H38 UNL A   1      34.638  16.962  24.486  1.00  0.00    +0.000 H 
ATOM    134  H39 UNL A   1      34.960  19.243  25.230  1.00  0.00    +0.000 H 
ATOM     82  C59 UNL A   1      33.387  20.064  24.083  1.00  0.00    +0.000 C 
ATOM     83  C60 UNL A   1      32.379  19.740  23.160  1.00  0.00    +0.000 C 
ATOM     84  C61 UNL A   1      32.197  18.423  22.726  1.00  0.00    +0.000 C 
ATOM     85  C62 UNL A   1      33.020  17.410  23.213  1.00  0.00    +0.000 C 
ATOM     86  C63 UNL A   1      34.027  17.712  24.126  1.00  0.00    +0.000 C 
ATOM     87  C64 UNL A   1      34.210  19.029  24.556  1.00  0.00    +0.000 C 
ENDBRANCH   81   82
BRANCH   89   90
ATOM    136  H41 UNL A   1      32.410  25.210  22.487  1.00  0.00    +0.000 H 
ATOM    137  H42 UNL A   1      30.638  26.769  21.949  1.00  0.00    +0.000 H 
ATOM    138  H43 UNL A   1      28.866  27.192  23.551  1.00  0.00    +0.000 H 
ATOM    139  H44 UNL A   1      28.893  26.081  25.706  1.00  0.00    +0.000 H 
ATOM    140  H45 UNL A   1      30.686  24.553  26.267  1.00  0.00    +0.000 H 
ATOM     90  C67 UNL A   1      31.693  24.728  24.416  1.00  0.00    +0.000 C 
ATOM     91  C68 UNL A   1      31.665  25.391  23.176  1.00  0.00    +0.000 C 
ATOM     92  C69 UNL A   1      30.642  26.289  22.863  1.00  0.00    +0.000 C 
ATOM     93  C70 UNL A   1      29.628  26.536  23.785  1.00  0.00    +0.000 C 
ATOM     94  C71 UNL A   1      29.644  25.898  25.023  1.00  0.00    +0.000 C 
ATOM     95  C72 UNL A   1      30.675  25.009  25.341  1.00  0.00    +0.000 C 
ENDBRANCH   89   90
ENDBRANCH    4    3
ENDBRANCH    5    4
ENDBRANCH    7    5
ENDBRANCH    8    7
ENDBRANCH    9    8
ENDBRANCH   10    9
ENDBRANCH   11   10
ENDBRANCH   12   11
ENDBRANCH   13   12
ENDBRANCH   14   13
ENDBRANCH   15   14
ENDBRANCH   17   15
ENDBRANCH   21   20
BRANCH   25   26
ATOM     33  C25 UNL A   1      34.416  34.686  31.664  1.00  0.00    +0.000 C 
ATOM     34  F4  UNL A   1      34.030  34.908  32.929  1.00  0.00    +0.000 F 
ATOM     35  C26 UNL A   1      35.570  33.937  31.410  1.00  0.00    +0.000 C 
ATOM     36  F5  UNL A   1      36.146  33.342  32.465  1.00  0.00    +0.000 F 
ATOM     26  C21 UNL A   1      36.091  33.775  30.115  1.00  0.00    +0.000 C 
ATOM     27  C22 UNL A   1      35.252  34.239  29.078  1.00  0.00    +0.000 C 
ATOM     28  F1  UNL A   1      35.549  34.036  27.789  1.00  0.00    +0.000 F 
ATOM     29  C23 UNL A   1      34.070  34.941  29.326  1.00  0.00    +0.000 C 
ATOM     30  F2  UNL A   1      33.327  35.378  28.298  1.00  0.00    +0.000 F 
ATOM     31  C24 UNL A   1      33.676  35.205  30.621  1.00  0.00    +0.000 C 
ATOM     32  F3  UNL A   1      32.576  35.933  30.860  1.00  0.00    +0.000 F 
ENDBRANCH   25   26
BRANCH   42   43
ATOM     43  C32 UNL A   1      42.369  36.051  29.308  1.00  0.00    +0.000 C 
ATOM     44  C33 UNL A   1      43.177  36.993  29.965  1.00  0.00    +0.000 C 
ATOM     45  F6  UNL A   1      43.814  36.686  31.104  1.00  0.00    +0.000 F 
ATOM     46  C34 UNL A   1      43.399  38.268  29.439  1.00  0.00    +0.000 C 
ATOM     47  F7  UNL A   1      44.145  39.148  30.122  1.00  0.00    +0.000 F 
ATOM     48  C35 UNL A   1      42.874  38.622  28.208  1.00  0.00    +0.000 C 
ATOM     49  F8  UNL A   1      43.121  39.832  27.690  1.00  0.00    +0.000 F 
ATOM     50  C36 UNL A   1      42.113  37.708  27.509  1.00  0.00    +0.000 C 
ATOM     51  F9  UNL A   1      41.638  38.019  26.296  1.00  0.00    +0.000 F 
ATOM     52  C37 UNL A   1      41.849  36.452  28.056  1.00  0.00    +0.000 C 
ATOM     53  F10 UNL A   1      41.087  35.628  27.321  1.00  0.00    +0.000 F 
ENDBRANCH   42   43
BRANCH   57   58
ATOM     65  C45 UNL A   1      44.288  28.060  27.011  1.00  0.00    +0.000 C 
ATOM     66  F14 UNL A   1      43.757  27.993  25.782  1.00  0.00    +0.000 F 
ATOM     67  C46 UNL A   1      44.032  29.171  27.817  1.00  0.00    +0.000 C 
ATOM     68  F15 UNL A   1      43.246  30.145  27.336  1.00  0.00    +0.000 F 
ATOM     58  C41 UNL A   1      44.495  29.220  29.136  1.00  0.00    +0.000 C 
ATOM     59  C42 UNL A   1      45.298  28.157  29.587  1.00  0.00    +0.000 C 
ATOM     60  F11 UNL A   1      45.768  28.157  30.844  1.00  0.00    +0.000 F 
ATOM     61  C43 UNL A   1      45.543  27.045  28.784  1.00  0.00    +0.000 C 
ATOM     62  F12 UNL A   1      46.236  26.006  29.274  1.00  0.00    +0.000 F 
ATOM     63  C44 UNL A   1      45.018  26.987  27.505  1.00  0.00    +0.000 C 
ATOM     64  F13 UNL A   1      45.186  25.888  26.758  1.00  0.00    +0.000 F 
ENDBRANCH   57   58
TORSDOF 19
ENDMDL
MODEL 7
REMARK VINA RESULT:     -12.0     36.676     42.998
ROOT
ATOM     21  C17 UNL A   1       6.659  31.304   1.232  1.00  0.00    +0.000 C 
ATOM     22  C18 UNL A   1       8.028  31.575   0.747  1.00  0.00    +0.000 C 
ATOM     23  N3  UNL A   1       8.998  30.721   0.802  1.00  0.00    +0.000 N 
ATOM     24  C19 UNL A   1      10.158  31.386   0.476  1.00  0.00    +0.000 C 
ATOM     25  C20 UNL A   1      11.369  30.822   0.758  1.00  0.00    +0.000 C 
ATOM     37  C27 UNL A   1      11.221  29.514   1.386  1.00  0.00    +0.000 C 
ATOM     38  C28 UNL A   1      11.233  29.121   2.715  1.00  0.00    +0.000 C 
ATOM     39  C29 UNL A   1      10.705  27.813   2.793  1.00  0.00    +0.000 C 
ATOM     40  C30 UNL A   1      10.381  27.405   1.511  1.00  0.00    +0.000 C 
ATOM     41  N4  UNL A   1      10.724  28.438   0.659  1.00  0.00    +0.000 N 
ATOM     42  C31 UNL A   1       9.803  26.171   1.009  1.00  0.00    +0.000 C 
ATOM     54  C38 UNL A   1       8.501  25.963   1.355  1.00  0.00    +0.000 C 
ATOM     55  N5  UNL A   1       7.722  26.967   1.866  1.00  0.00    +0.000 N 
ATOM     56  C39 UNL A   1       6.510  26.520   2.038  1.00  0.00    +0.000 C 
ATOM     57  C40 UNL A   1       5.358  27.382   2.482  1.00  0.00    +0.000 C 
ATOM     69  C47 UNL A   1       5.728  28.539   3.101  1.00  0.00    +0.000 C 
ATOM     70  C48 UNL A   1       7.025  28.790   3.706  1.00  0.00    +0.000 C 
ATOM     71  C49 UNL A   1       7.504  29.915   3.155  1.00  0.00    +0.000 C 
ATOM     72  C50 UNL A   1       6.474  30.479   2.287  1.00  0.00    +0.000 C 
ATOM     73  N6  UNL A   1       5.273  29.814   2.654  1.00  0.00    +0.000 N 
ATOM     74  C51 UNL A   1       6.373  25.109   1.689  1.00  0.00    +0.000 C 
ATOM     75  C52 UNL A   1       7.621  24.812   1.287  1.00  0.00    +0.000 C 
ATOM     76  C53 UNL A   1       9.727  32.687   0.013  1.00  0.00    +0.000 C 
ATOM     77  C54 UNL A   1       8.404  32.841   0.133  1.00  0.00    +0.000 C 
ATOM    117  H22 UNL A   1      11.568  29.686   3.510  1.00  0.00    +0.000 H 
ATOM    118  H23 UNL A   1      10.582  27.259   3.654  1.00  0.00    +0.000 H 
ATOM    119  H24 UNL A   1      10.631  28.415  -0.320  1.00  0.00    +0.000 H 
ATOM    120  H25 UNL A   1       7.490  28.211   4.423  1.00  0.00    +0.000 H 
ATOM    121  H26 UNL A   1       8.441  30.315   3.317  1.00  0.00    +0.000 H 
ATOM    122  H27 UNL A   1       4.350  30.152   2.610  1.00  0.00    +0.000 H 
ATOM    123  H28 UNL A   1       5.540  24.501   1.738  1.00  0.00    +0.000 H 
ATOM    124  H29 UNL A   1       7.918  23.877   0.968  1.00  0.00    +0.000 H 
ATOM    125  H30 UNL A   1      10.362  33.409  -0.363  1.00  0.00    +0.000 H 
ATOM    126  H31 UNL A   1       7.809  33.641  -0.135  1.00  0.00    +0.000 H 
ENDROOT
BRANCH   21   20
ATOM     78  C55 UNL A   1       4.883  32.963   1.368  1.00  0.00    +0.000 C 
ATOM     79  C56 UNL A   1       3.628  33.416   1.005  1.00  0.00    +0.000 C 
ATOM     17  C13 UNL A   1       2.944  32.765  -0.021  1.00  0.00    +0.000 C 
ATOM     18  C14 UNL A   1       3.617  31.882  -0.872  1.00  0.00    +0.000 C 
ATOM     19  C15 UNL A   1       4.914  31.481  -0.552  1.00  0.00    +0.000 C 
ATOM    115  H20 UNL A   1       3.159  31.530  -1.727  1.00  0.00    +0.000 H 
ATOM    116  H21 UNL A   1       5.436  30.850  -1.180  1.00  0.00    +0.000 H 
ATOM     20  C16 UNL A   1       5.497  31.947   0.629  1.00  0.00    +0.000 C 
ATOM    127  H32 UNL A   1       5.366  33.375   2.182  1.00  0.00    +0.000 H 
ATOM    128  H33 UNL A   1       3.204  34.224   1.485  1.00  0.00    +0.000 H 
BRANCH   17   15
ATOM     15  C12 UNL A   1       1.468  32.842  -0.128  1.00  0.00    +0.000 C 
ATOM     16  O2  UNL A   1       0.950  33.664  -0.863  1.00  0.00    +0.000 O 
BRANCH   15   14
ATOM    114  H19 UNL A   1       0.179  32.240   1.298  1.00  0.00    +0.000 H 
ATOM     14  N2  UNL A   1       0.697  31.901   0.534  1.00  0.00    +0.000 N 
BRANCH   14   13
ATOM    113  H18 UNL A   1      -0.110  30.084   1.002  1.00  0.00    +0.000 H 
ATOM     13  C11 UNL A   1       0.547  30.479   0.255  1.00  0.00    +0.000 C 
ATOM    112  H17 UNL A   1       1.516  30.025   0.282  1.00  0.00    +0.000 H 
BRANCH   13   12
ATOM     12  C10 UNL A   1      -0.087  30.179  -1.097  1.00  0.00    +0.000 C 
ATOM    110  H15 UNL A   1      -0.763  29.358  -0.975  1.00  0.00    +0.000 H 
ATOM    111  H16 UNL A   1      -0.576  31.078  -1.411  1.00  0.00    +0.000 H 
BRANCH   12   11
ATOM     11  C9  UNL A   1       0.915  29.816  -2.198  1.00  0.00    +0.000 C 
ATOM    108  H13 UNL A   1       1.883  29.749  -1.747  1.00  0.00    +0.000 H 
ATOM    109  H14 UNL A   1       0.554  28.901  -2.619  1.00  0.00    +0.000 H 
BRANCH   11   10
ATOM     10  C8  UNL A   1       1.019  30.794  -3.383  1.00  0.00    +0.000 C 
ATOM    107  H12 UNL A   1       0.871  31.766  -2.959  1.00  0.00    +0.000 H 
ATOM    106  H11 UNL A   1       0.286  30.505  -4.106  1.00  0.00    +0.000 H 
BRANCH   10    9
ATOM      9  C7  UNL A   1       2.375  30.867  -4.097  1.00  0.00    +0.000 C 
ATOM    105  H10 UNL A   1       2.880  31.720  -3.692  1.00  0.00    +0.000 H 
ATOM    104  H9  UNL A   1       2.192  30.940  -5.149  1.00  0.00    +0.000 H 
BRANCH    9    8
ATOM    102  H7  UNL A   1       3.137  29.305  -2.869  1.00  0.00    +0.000 H 
ATOM    103  H8  UNL A   1       3.070  28.936  -4.600  1.00  0.00    +0.000 H 
ATOM      8  C6  UNL A   1       3.300  29.674  -3.860  1.00  0.00    +0.000 C 
BRANCH    8    7
ATOM    101  H6  UNL A   1       4.885  30.860  -4.471  1.00  0.00    +0.000 H 
ATOM      7  N1  UNL A   1       4.699  30.015  -4.002  1.00  0.00    +0.000 N 
BRANCH    7    5
ATOM      5  C5  UNL A   1       5.797  29.323  -3.575  1.00  0.00    +0.000 C 
ATOM      6  O1  UNL A   1       5.992  28.197  -4.038  1.00  0.00    +0.000 O 
BRANCH    5    4
ATOM    100  H5  UNL A   1       7.384  29.133  -2.213  1.00  0.00    +0.000 H 
ATOM     99  H4  UNL A   1       6.140  30.315  -1.732  1.00  0.00    +0.000 H 
ATOM      4  C4  UNL A   1       6.734  29.922  -2.531  1.00  0.00    +0.000 C 
BRANCH    4    3
ATOM    129  H34 UNL A   1       5.949  32.268  -3.432  1.00  0.00    +0.000 H 
ATOM      2  C2  UNL A   1       9.035  30.939  -3.155  1.00  0.00    +0.000 C 
ATOM      3  C3  UNL A   1       7.622  31.036  -3.058  1.00  0.00    +0.000 C 
ATOM    135  H40 UNL A   1       9.625  34.038  -4.345  1.00  0.00    +0.000 H 
ATOM     80  C57 UNL A   1       6.979  32.218  -3.480  1.00  0.00    +0.000 C 
ATOM     81  C58 UNL A   1       7.688  33.321  -3.961  1.00  0.00    +0.000 C 
ATOM     88  C65 UNL A   1       9.083  33.225  -4.011  1.00  0.00    +0.000 C 
ATOM     89  C66 UNL A   1       9.775  32.059  -3.621  1.00  0.00    +0.000 C 
BRANCH    2    1
ATOM      1  C1  UNL A   1       9.743  29.642  -2.827  1.00  0.00    +0.000 C 
ATOM     98  H3  UNL A   1       9.184  28.821  -3.222  1.00  0.00    +0.000 H 
ATOM     97  H2  UNL A   1      10.721  29.650  -3.261  1.00  0.00    +0.000 H 
ATOM     96  H1  UNL A   1       9.825  29.540  -1.765  1.00  0.00    +0.000 H 
ENDBRANCH    2    1
BRANCH   81   82
ATOM    130  H35 UNL A   1       8.607  35.852  -4.122  1.00  0.00    +0.000 H 
ATOM    131  H36 UNL A   1       7.422  37.847  -4.812  1.00  0.00    +0.000 H 
ATOM    132  H37 UNL A   1       5.101  37.707  -5.501  1.00  0.00    +0.000 H 
ATOM    133  H38 UNL A   1       3.970  35.561  -5.512  1.00  0.00    +0.000 H 
ATOM    134  H39 UNL A   1       5.153  33.562  -4.831  1.00  0.00    +0.000 H 
ATOM     82  C59 UNL A   1       6.983  34.531  -4.410  1.00  0.00    +0.000 C 
ATOM     83  C60 UNL A   1       7.620  35.782  -4.415  1.00  0.00    +0.000 C 
ATOM     84  C61 UNL A   1       6.938  36.936  -4.814  1.00  0.00    +0.000 C 
ATOM     85  C62 UNL A   1       5.606  36.855  -5.211  1.00  0.00    +0.000 C 
ATOM     86  C63 UNL A   1       4.957  35.623  -5.217  1.00  0.00    +0.000 C 
ATOM     87  C64 UNL A   1       5.641  34.470  -4.821  1.00  0.00    +0.000 C 
ENDBRANCH   81   82
BRANCH   89   90
ATOM    136  H41 UNL A   1      11.380  30.819  -5.380  1.00  0.00    +0.000 H 
ATOM    137  H42 UNL A   1      13.796  30.853  -5.525  1.00  0.00    +0.000 H 
ATOM    138  H43 UNL A   1      15.091  32.149  -3.934  1.00  0.00    +0.000 H 
ATOM    139  H44 UNL A   1      13.963  33.380  -2.175  1.00  0.00    +0.000 H 
ATOM    140  H45 UNL A   1      11.548  33.316  -1.999  1.00  0.00    +0.000 H 
ATOM     90  C67 UNL A   1      11.250  32.081  -3.689  1.00  0.00    +0.000 C 
ATOM     91  C68 UNL A   1      11.924  31.366  -4.695  1.00  0.00    +0.000 C 
ATOM     92  C69 UNL A   1      13.318  31.386  -4.782  1.00  0.00    +0.000 C 
ATOM     93  C70 UNL A   1      14.061  32.125  -3.865  1.00  0.00    +0.000 C 
ATOM     94  C71 UNL A   1      13.413  32.833  -2.855  1.00  0.00    +0.000 C 
ATOM     95  C72 UNL A   1      12.019  32.802  -2.760  1.00  0.00    +0.000 C 
ENDBRANCH   89   90
ENDBRANCH    4    3
ENDBRANCH    5    4
ENDBRANCH    7    5
ENDBRANCH    8    7
ENDBRANCH    9    8
ENDBRANCH   10    9
ENDBRANCH   11   10
ENDBRANCH   12   11
ENDBRANCH   13   12
ENDBRANCH   14   13
ENDBRANCH   15   14
ENDBRANCH   17   15
ENDBRANCH   21   20
BRANCH   25   26
ATOM     33  C25 UNL A   1      14.109  33.392   1.628  1.00  0.00    +0.000 C 
ATOM     34  F4  UNL A   1      14.234  34.497   2.377  1.00  0.00    +0.000 F 
ATOM     35  C26 UNL A   1      12.844  32.825   1.430  1.00  0.00    +0.000 C 
ATOM     36  F5  UNL A   1      11.793  33.524   1.882  1.00  0.00    +0.000 F 
ATOM     26  C21 UNL A   1      12.666  31.603   0.759  1.00  0.00    +0.000 C 
ATOM     27  C22 UNL A   1      13.822  31.105   0.120  1.00  0.00    +0.000 C 
ATOM     28  F1  UNL A   1      13.780  30.023  -0.668  1.00  0.00    +0.000 F 
ATOM     29  C23 UNL A   1      15.078  31.699   0.269  1.00  0.00    +0.000 C 
ATOM     30  F2  UNL A   1      16.144  31.165  -0.344  1.00  0.00    +0.000 F 
ATOM     31  C24 UNL A   1      15.229  32.817   1.063  1.00  0.00    +0.000 C 
ATOM     32  F3  UNL A   1      16.443  33.350   1.259  1.00  0.00    +0.000 F 
ENDBRANCH   25   26
BRANCH   42   43
ATOM     43  C32 UNL A   1      10.673  25.198   0.264  1.00  0.00    +0.000 C 
ATOM     44  C33 UNL A   1      10.642  25.042  -1.131  1.00  0.00    +0.000 C 
ATOM     45  F6  UNL A   1       9.802  25.760  -1.891  1.00  0.00    +0.000 F 
ATOM     46  C34 UNL A   1      11.517  24.178  -1.796  1.00  0.00    +0.000 C 
ATOM     47  F7  UNL A   1      11.423  24.033  -3.125  1.00  0.00    +0.000 F 
ATOM     48  C35 UNL A   1      12.493  23.492  -1.096  1.00  0.00    +0.000 C 
ATOM     49  F8  UNL A   1      13.354  22.695  -1.742  1.00  0.00    +0.000 F 
ATOM     50  C36 UNL A   1      12.586  23.653   0.271  1.00  0.00    +0.000 C 
ATOM     51  F9  UNL A   1      13.556  23.032   0.955  1.00  0.00    +0.000 F 
ATOM     52  C37 UNL A   1      11.682  24.476   0.942  1.00  0.00    +0.000 C 
ATOM     53  F10 UNL A   1      11.830  24.567   2.272  1.00  0.00    +0.000 F 
ENDBRANCH   42   43
BRANCH   57   58
ATOM     65  C45 UNL A   1       1.732  26.763   1.640  1.00  0.00    +0.000 C 
ATOM     66  F14 UNL A   1       0.628  26.308   2.249  1.00  0.00    +0.000 F 
ATOM     67  C46 UNL A   1       2.862  27.076   2.398  1.00  0.00    +0.000 C 
ATOM     68  F15 UNL A   1       2.813  26.901   3.726  1.00  0.00    +0.000 F 
ATOM     58  C41 UNL A   1       4.055  27.462   1.777  1.00  0.00    +0.000 C 
ATOM     59  C42 UNL A   1       4.046  27.607   0.379  1.00  0.00    +0.000 C 
ATOM     60  F11 UNL A   1       5.165  27.976  -0.265  1.00  0.00    +0.000 F 
ATOM     61  C43 UNL A   1       2.920  27.284  -0.376  1.00  0.00    +0.000 C 
ATOM     62  F12 UNL A   1       2.972  27.346  -1.714  1.00  0.00    +0.000 F 
ATOM     63  C44 UNL A   1       1.771  26.840   0.255  1.00  0.00    +0.000 C 
ATOM     64  F13 UNL A   1       0.712  26.455  -0.470  1.00  0.00    +0.000 F 
ENDBRANCH   57   58
TORSDOF 19
ENDMDL
MODEL 8
REMARK VINA RESULT:     -11.9     19.765     27.073
ROOT
ATOM     21  C17 UNL A   1      22.791  36.578  49.087  1.00  0.00    +0.000 C 
ATOM     22  C18 UNL A   1      21.341  36.446  49.335  1.00  0.00    +0.000 C 
ATOM     23  N3  UNL A   1      20.490  36.032  48.454  1.00  0.00    +0.000 N 
ATOM     24  C19 UNL A   1      19.228  36.254  48.957  1.00  0.00    +0.000 C 
ATOM     25  C20 UNL A   1      18.146  36.210  48.125  1.00  0.00    +0.000 C 
ATOM     37  C27 UNL A   1      18.533  35.900  46.754  1.00  0.00    +0.000 C 
ATOM     38  C28 UNL A   1      18.779  36.712  45.658  1.00  0.00    +0.000 C 
ATOM     39  C29 UNL A   1      19.449  35.943  44.680  1.00  0.00    +0.000 C 
ATOM     40  C30 UNL A   1      19.603  34.661  45.176  1.00  0.00    +0.000 C 
ATOM     41  N4  UNL A   1      19.018  34.639  46.428  1.00  0.00    +0.000 N 
ATOM     42  C31 UNL A   1      20.221  33.476  44.609  1.00  0.00    +0.000 C 
ATOM     54  C38 UNL A   1      21.577  33.539  44.479  1.00  0.00    +0.000 C 
ATOM     55  N5  UNL A   1      22.316  34.505  45.109  1.00  0.00    +0.000 N 
ATOM     56  C39 UNL A   1      23.581  34.291  44.879  1.00  0.00    +0.000 C 
ATOM     57  C40 UNL A   1      24.690  35.094  45.505  1.00  0.00    +0.000 C 
ATOM     69  C47 UNL A   1      24.303  36.312  45.981  1.00  0.00    +0.000 C 
ATOM     70  C48 UNL A   1      23.102  37.025  45.583  1.00  0.00    +0.000 C 
ATOM     71  C49 UNL A   1      22.423  37.306  46.704  1.00  0.00    +0.000 C 
ATOM     72  C50 UNL A   1      23.231  36.898  47.849  1.00  0.00    +0.000 C 
ATOM     73  N6  UNL A   1      24.541  36.706  47.330  1.00  0.00    +0.000 N 
ATOM     74  C51 UNL A   1      23.810  33.147  44.002  1.00  0.00    +0.000 C 
ATOM     75  C52 UNL A   1      22.553  32.728  43.777  1.00  0.00    +0.000 C 
ATOM     76  C53 UNL A   1      19.436  36.653  50.332  1.00  0.00    +0.000 C 
ATOM     77  C54 UNL A   1      20.737  36.757  50.624  1.00  0.00    +0.000 C 
ATOM    117  H22 UNL A   1      18.518  37.706  45.570  1.00  0.00    +0.000 H 
ATOM    118  H23 UNL A   1      19.769  36.279  43.759  1.00  0.00    +0.000 H 
ATOM    119  H24 UNL A   1      18.953  33.845  47.005  1.00  0.00    +0.000 H 
ATOM    120  H25 UNL A   1      22.824  37.269  44.619  1.00  0.00    +0.000 H 
ATOM    121  H26 UNL A   1      21.486  37.737  46.751  1.00  0.00    +0.000 H 
ATOM    122  H27 UNL A   1      25.403  36.818  47.791  1.00  0.00    +0.000 H 
ATOM    123  H28 UNL A   1      24.700  32.762  43.647  1.00  0.00    +0.000 H 
ATOM    124  H29 UNL A   1      22.310  31.925  43.176  1.00  0.00    +0.000 H 
ATOM    125  H30 UNL A   1      18.675  36.836  51.004  1.00  0.00    +0.000 H 
ATOM    126  H31 UNL A   1      21.191  36.994  51.520  1.00  0.00    +0.000 H 
ENDROOT
BRANCH   21   20
ATOM     78  C55 UNL A   1      24.242  37.589  50.760  1.00  0.00    +0.000 C 
ATOM     79  C56 UNL A   1      25.360  37.540  51.571  1.00  0.00    +0.000 C 
ATOM     17  C13 UNL A   1      26.065  36.343  51.680  1.00  0.00    +0.000 C 
ATOM     18  C14 UNL A   1      25.497  35.143  51.240  1.00  0.00    +0.000 C 
ATOM     19  C15 UNL A   1      24.324  35.181  50.486  1.00  0.00    +0.000 C 
ATOM    115  H20 UNL A   1      25.939  34.240  51.469  1.00  0.00    +0.000 H 
ATOM    116  H21 UNL A   1      23.876  34.305  50.173  1.00  0.00    +0.000 H 
ATOM     20  C16 UNL A   1      23.765  36.419  50.161  1.00  0.00    +0.000 C 
ATOM    127  H32 UNL A   1      23.761  38.487  50.596  1.00  0.00    +0.000 H 
ATOM    128  H33 UNL A   1      25.670  38.377  52.088  1.00  0.00    +0.000 H 
BRANCH   17   15
ATOM     15  C12 UNL A   1      27.490  36.325  52.091  1.00  0.00    +0.000 C 
ATOM     16  O2  UNL A   1      27.837  35.690  53.070  1.00  0.00    +0.000 O 
BRANCH   15   14
ATOM    114  H19 UNL A   1      28.435  37.934  51.332  1.00  0.00    +0.000 H 
ATOM     14  N2  UNL A   1      28.427  36.951  51.286  1.00  0.00    +0.000 N 
BRANCH   14   13
ATOM    113  H18 UNL A   1      29.132  35.328  50.264  1.00  0.00    +0.000 H 
ATOM     13  C11 UNL A   1      29.403  36.357  50.382  1.00  0.00    +0.000 C 
ATOM    112  H17 UNL A   1      30.377  36.478  50.810  1.00  0.00    +0.000 H 
BRANCH   13   12
ATOM     12  C10 UNL A   1      29.410  36.975  48.990  1.00  0.00    +0.000 C 
ATOM    110  H15 UNL A   1      28.534  36.645  48.473  1.00  0.00    +0.000 H 
ATOM    111  H16 UNL A   1      29.439  38.037  49.127  1.00  0.00    +0.000 H 
BRANCH   12   11
ATOM     11  C9  UNL A   1      30.634  36.609  48.142  1.00  0.00    +0.000 C 
ATOM    108  H13 UNL A   1      30.958  35.635  48.444  1.00  0.00    +0.000 H 
ATOM    109  H14 UNL A   1      30.304  36.675  47.126  1.00  0.00    +0.000 H 
BRANCH   11   10
ATOM     10  C8  UNL A   1      31.845  37.555  48.238  1.00  0.00    +0.000 C 
ATOM    107  H12 UNL A   1      32.144  37.732  47.226  1.00  0.00    +0.000 H 
ATOM    106  H11 UNL A   1      32.584  37.074  48.845  1.00  0.00    +0.000 H 
BRANCH   10    9
ATOM      9  C7  UNL A   1      31.587  38.945  48.833  1.00  0.00    +0.000 C 
ATOM    105  H10 UNL A   1      31.221  38.782  49.826  1.00  0.00    +0.000 H 
ATOM    104  H9  UNL A   1      30.890  39.453  48.199  1.00  0.00    +0.000 H 
BRANCH    9    8
ATOM    102  H7  UNL A   1      32.946  40.085  50.010  1.00  0.00    +0.000 H 
ATOM    103  H8  UNL A   1      33.663  39.276  48.607  1.00  0.00    +0.000 H 
ATOM      8  C6  UNL A   1      32.825  39.830  48.978  1.00  0.00    +0.000 C 
BRANCH    8    7
ATOM    101  H6  UNL A   1      32.287  41.804  48.657  1.00  0.00    +0.000 H 
ATOM      7  N1  UNL A   1      32.732  41.050  48.207  1.00  0.00    +0.000 N 
BRANCH    7    5
ATOM      5  C5  UNL A   1      33.177  41.299  46.939  1.00  0.00    +0.000 C 
ATOM      6  O1  UNL A   1      34.393  41.307  46.739  1.00  0.00    +0.000 O 
BRANCH    5    4
ATOM    100  H5  UNL A   1      32.738  41.522  44.898  1.00  0.00    +0.000 H 
ATOM     99  H4  UNL A   1      31.770  42.561  45.975  1.00  0.00    +0.000 H 
ATOM      4  C4  UNL A   1      32.189  41.589  45.814  1.00  0.00    +0.000 C 
BRANCH    4    3
ATOM    129  H34 UNL A   1      32.274  39.209  44.691  1.00  0.00    +0.000 H 
ATOM      2  C2  UNL A   1      29.741  40.834  46.212  1.00  0.00    +0.000 C 
ATOM      3  C3  UNL A   1      31.047  40.590  45.714  1.00  0.00    +0.000 C 
ATOM    135  H40 UNL A   1      28.384  37.855  45.405  1.00  0.00    +0.000 H 
ATOM     80  C57 UNL A   1      31.328  39.366  45.074  1.00  0.00    +0.000 C 
ATOM     81  C58 UNL A   1      30.370  38.358  44.942  1.00  0.00    +0.000 C 
ATOM     88  C65 UNL A   1      29.099  38.596  45.475  1.00  0.00    +0.000 C 
ATOM     89  C66 UNL A   1      28.759  39.811  46.106  1.00  0.00    +0.000 C 
BRANCH    2    1
ATOM      1  C1  UNL A   1      29.375  42.183  46.793  1.00  0.00    +0.000 C 
ATOM     98  H3  UNL A   1      28.382  42.442  46.494  1.00  0.00    +0.000 H 
ATOM     97  H2  UNL A   1      29.427  42.137  47.860  1.00  0.00    +0.000 H 
ATOM     96  H1  UNL A   1      30.060  42.923  46.433  1.00  0.00    +0.000 H 
ENDBRANCH    2    1
BRANCH   81   82
ATOM    130  H35 UNL A   1      28.926  37.025  43.094  1.00  0.00    +0.000 H 
ATOM    131  H36 UNL A   1      29.440  34.926  42.003  1.00  0.00    +0.000 H 
ATOM    132  H37 UNL A   1      31.501  33.758  42.520  1.00  0.00    +0.000 H 
ATOM    133  H38 UNL A   1      33.057  34.704  44.122  1.00  0.00    +0.000 H 
ATOM    134  H39 UNL A   1      32.553  36.808  45.209  1.00  0.00    +0.000 H 
ATOM     82  C59 UNL A   1      30.692  37.099  44.252  1.00  0.00    +0.000 C 
ATOM     83  C60 UNL A   1      29.806  36.537  43.318  1.00  0.00    +0.000 C 
ATOM     84  C61 UNL A   1      30.100  35.325  42.687  1.00  0.00    +0.000 C 
ATOM     85  C62 UNL A   1      31.285  34.655  42.983  1.00  0.00    +0.000 C 
ATOM     86  C63 UNL A   1      32.178  35.199  43.903  1.00  0.00    +0.000 C 
ATOM     87  C64 UNL A   1      31.885  36.412  44.531  1.00  0.00    +0.000 C 
ENDBRANCH   81   82
BRANCH   89   90
ATOM    136  H41 UNL A   1      27.958  39.524  48.653  1.00  0.00    +0.000 H 
ATOM    137  H42 UNL A   1      25.736  39.749  49.586  1.00  0.00    +0.000 H 
ATOM    138  H43 UNL A   1      23.867  40.319  48.149  1.00  0.00    +0.000 H 
ATOM    139  H44 UNL A   1      24.221  40.624  45.769  1.00  0.00    +0.000 H 
ATOM    140  H45 UNL A   1      26.433  40.358  44.822  1.00  0.00    +0.000 H 
ATOM     90  C67 UNL A   1      27.395  39.941  46.658  1.00  0.00    +0.000 C 
ATOM     91  C68 UNL A   1      27.167  39.758  48.033  1.00  0.00    +0.000 C 
ATOM     92  C69 UNL A   1      25.886  39.890  48.575  1.00  0.00    +0.000 C 
ATOM     93  C70 UNL A   1      24.812  40.211  47.748  1.00  0.00    +0.000 C 
ATOM     94  C71 UNL A   1      25.016  40.387  46.382  1.00  0.00    +0.000 C 
ATOM     95  C72 UNL A   1      26.295  40.242  45.839  1.00  0.00    +0.000 C 
ENDBRANCH   89   90
ENDBRANCH    4    3
ENDBRANCH    5    4
ENDBRANCH    7    5
ENDBRANCH    8    7
ENDBRANCH    9    8
ENDBRANCH   10    9
ENDBRANCH   11   10
ENDBRANCH   12   11
ENDBRANCH   13   12
ENDBRANCH   14   13
ENDBRANCH   15   14
ENDBRANCH   17   15
ENDBRANCH   21   20
BRANCH   25   26
ATOM     33  C25 UNL A   1      14.340  36.616  48.593  1.00  0.00    +0.000 C 
ATOM     34  F4  UNL A   1      13.218  35.999  48.195  1.00  0.00    +0.000 F 
ATOM     35  C26 UNL A   1      15.571  36.248  48.036  1.00  0.00    +0.000 C 
ATOM     36  F5  UNL A   1      15.533  35.393  47.005  1.00  0.00    +0.000 F 
ATOM     26  C21 UNL A   1      16.790  36.770  48.500  1.00  0.00    +0.000 C 
ATOM     27  C22 UNL A   1      16.667  37.841  49.412  1.00  0.00    +0.000 C 
ATOM     28  F1  UNL A   1      17.734  38.527  49.840  1.00  0.00    +0.000 F 
ATOM     29  C23 UNL A   1      15.435  38.248  49.930  1.00  0.00    +0.000 C 
ATOM     30  F2  UNL A   1      15.384  39.257  50.813  1.00  0.00    +0.000 F 
ATOM     31  C24 UNL A   1      14.275  37.604  49.555  1.00  0.00    +0.000 C 
ATOM     32  F3  UNL A   1      13.100  37.951  50.099  1.00  0.00    +0.000 F 
ENDBRANCH   25   26
BRANCH   42   43
ATOM     43  C32 UNL A   1      19.352  32.349  44.125  1.00  0.00    +0.000 C 
ATOM     44  C33 UNL A   1      19.389  31.054  44.667  1.00  0.00    +0.000 C 
ATOM     45  F6  UNL A   1      20.234  30.742  45.659  1.00  0.00    +0.000 F 
ATOM     46  C34 UNL A   1      18.514  30.052  44.239  1.00  0.00    +0.000 C 
ATOM     47  F7  UNL A   1      18.614  28.819  44.757  1.00  0.00    +0.000 F 
ATOM     48  C35 UNL A   1      17.533  30.327  43.305  1.00  0.00    +0.000 C 
ATOM     49  F8  UNL A   1      16.672  29.373  42.926  1.00  0.00    +0.000 F 
ATOM     50  C36 UNL A   1      17.434  31.600  42.782  1.00  0.00    +0.000 C 
ATOM     51  F9  UNL A   1      16.458  31.894  41.911  1.00  0.00    +0.000 F 
ATOM     52  C37 UNL A   1      18.337  32.589  43.170  1.00  0.00    +0.000 C 
ATOM     53  F10 UNL A   1      18.183  33.795  42.604  1.00  0.00    +0.000 F 
ENDBRANCH   42   43
BRANCH   57   58
ATOM     65  C45 UNL A   1      28.238  34.083  46.301  1.00  0.00    +0.000 C 
ATOM     66  F14 UNL A   1      29.482  34.434  45.944  1.00  0.00    +0.000 F 
ATOM     67  C46 UNL A   1      27.160  34.896  45.946  1.00  0.00    +0.000 C 
ATOM     68  F15 UNL A   1      27.401  36.012  45.243  1.00  0.00    +0.000 F 
ATOM     58  C41 UNL A   1      25.846  34.502  46.223  1.00  0.00    +0.000 C 
ATOM     59  C42 UNL A   1      25.660  33.311  46.946  1.00  0.00    +0.000 C 
ATOM     60  F11 UNL A   1      24.419  32.889  47.238  1.00  0.00    +0.000 F 
ATOM     61  C43 UNL A   1      26.737  32.496  47.289  1.00  0.00    +0.000 C 
ATOM     62  F12 UNL A   1      26.520  31.321  47.897  1.00  0.00    +0.000 F 
ATOM     63  C44 UNL A   1      28.024  32.872  46.945  1.00  0.00    +0.000 C 
ATOM     64  F13 UNL A   1      29.055  32.057  47.204  1.00  0.00    +0.000 F 
ENDBRANCH   57   58
TORSDOF 19
ENDMDL
MODEL 9
REMARK VINA RESULT:     -11.9     34.411     40.219
ROOT
ATOM     21  C17 UNL A   1      11.381  49.457   4.543  1.00  0.00    +0.000 C 
ATOM     22  C18 UNL A   1      10.149  49.335   5.348  1.00  0.00    +0.000 C 
ATOM     23  N3  UNL A   1      10.072  48.679   6.460  1.00  0.00    +0.000 N 
ATOM     24  C19 UNL A   1       8.742  48.593   6.803  1.00  0.00    +0.000 C 
ATOM     25  C20 UNL A   1       8.338  47.695   7.748  1.00  0.00    +0.000 C 
ATOM     37  C27 UNL A   1       9.461  46.934   8.283  1.00  0.00    +0.000 C 
ATOM     38  C28 UNL A   1       9.969  45.686   7.959  1.00  0.00    +0.000 C 
ATOM     39  C29 UNL A   1      11.257  45.573   8.529  1.00  0.00    +0.000 C 
ATOM     40  C30 UNL A   1      11.530  46.746   9.208  1.00  0.00    +0.000 C 
ATOM     41  N4  UNL A   1      10.419  47.558   9.074  1.00  0.00    +0.000 N 
ATOM     42  C31 UNL A   1      12.695  47.176   9.961  1.00  0.00    +0.000 C 
ATOM     54  C38 UNL A   1      13.812  47.403   9.213  1.00  0.00    +0.000 C 
ATOM     55  N5  UNL A   1      13.755  47.514   7.849  1.00  0.00    +0.000 N 
ATOM     56  C39 UNL A   1      14.942  47.803   7.396  1.00  0.00    +0.000 C 
ATOM     57  C40 UNL A   1      15.232  48.106   5.950  1.00  0.00    +0.000 C 
ATOM     69  C47 UNL A   1      14.287  47.648   5.079  1.00  0.00    +0.000 C 
ATOM     70  C48 UNL A   1      13.320  46.603   5.364  1.00  0.00    +0.000 C 
ATOM     71  C49 UNL A   1      12.106  47.112   5.107  1.00  0.00    +0.000 C 
ATOM     72  C50 UNL A   1      12.275  48.442   4.530  1.00  0.00    +0.000 C 
ATOM     73  N6  UNL A   1      13.641  48.509   4.145  1.00  0.00    +0.000 N 
ATOM     74  C51 UNL A   1      15.950  47.868   8.450  1.00  0.00    +0.000 C 
ATOM     75  C52 UNL A   1      15.210  47.606   9.541  1.00  0.00    +0.000 C 
ATOM     76  C53 UNL A   1       8.057  49.463   5.871  1.00  0.00    +0.000 C 
ATOM     77  C54 UNL A   1       8.897  49.974   4.964  1.00  0.00    +0.000 C 
ATOM    117  H22 UNL A   1       9.491  44.964   7.398  1.00  0.00    +0.000 H 
ATOM    118  H23 UNL A   1      11.885  44.758   8.451  1.00  0.00    +0.000 H 
ATOM    119  H24 UNL A   1      10.320  48.448   9.481  1.00  0.00    +0.000 H 
ATOM    120  H25 UNL A   1      13.527  45.650   5.701  1.00  0.00    +0.000 H 
ATOM    121  H26 UNL A   1      11.204  46.643   5.287  1.00  0.00    +0.000 H 
ATOM    122  H27 UNL A   1      14.044  49.026   3.410  1.00  0.00    +0.000 H 
ATOM    123  H28 UNL A   1      16.961  48.062   8.378  1.00  0.00    +0.000 H 
ATOM    124  H29 UNL A   1      15.591  47.555  10.499  1.00  0.00    +0.000 H 
ATOM    125  H30 UNL A   1       7.046  49.665   5.902  1.00  0.00    +0.000 H 
ATOM    126  H31 UNL A   1       8.710  50.639   4.198  1.00  0.00    +0.000 H 
ENDROOT
BRANCH   21   20
ATOM     78  C55 UNL A   1      12.284  51.708   4.332  1.00  0.00    +0.000 C 
ATOM     79  C56 UNL A   1      12.305  52.943   3.712  1.00  0.00    +0.000 C 
ATOM     17  C13 UNL A   1      11.573  53.124   2.539  1.00  0.00    +0.000 C 
ATOM     18  C14 UNL A   1      11.084  52.021   1.832  1.00  0.00    +0.000 C 
ATOM     19  C15 UNL A   1      11.132  50.758   2.421  1.00  0.00    +0.000 C 
ATOM    115  H20 UNL A   1      10.692  52.140   0.885  1.00  0.00    +0.000 H 
ATOM    116  H21 UNL A   1      10.798  49.928   1.905  1.00  0.00    +0.000 H 
ATOM     20  C16 UNL A   1      11.637  50.631   3.716  1.00  0.00    +0.000 C 
ATOM    127  H32 UNL A   1      12.745  51.580   5.246  1.00  0.00    +0.000 H 
ATOM    128  H33 UNL A   1      12.852  53.721   4.111  1.00  0.00    +0.000 H 
BRANCH   17   15
ATOM     15  C12 UNL A   1      11.139  54.474   2.106  1.00  0.00    +0.000 C 
ATOM     16  O2  UNL A   1      11.964  55.346   1.902  1.00  0.00    +0.000 O 
BRANCH   15   14
ATOM    114  H19 UNL A   1       9.545  54.655   0.888  1.00  0.00    +0.000 H 
ATOM     14  N2  UNL A   1       9.798  54.693   1.838  1.00  0.00    +0.000 N 
BRANCH   14   13
ATOM    113  H18 UNL A   1       8.084  55.704   2.303  1.00  0.00    +0.000 H 
ATOM     13  C11 UNL A   1       8.710  54.970   2.767  1.00  0.00    +0.000 C 
ATOM    112  H17 UNL A   1       9.132  55.315   3.688  1.00  0.00    +0.000 H 
BRANCH   13   12
ATOM     12  C10 UNL A   1       7.830  53.762   3.064  1.00  0.00    +0.000 C 
ATOM    110  H15 UNL A   1       6.810  54.045   2.909  1.00  0.00    +0.000 H 
ATOM    111  H16 UNL A   1       8.152  52.981   2.407  1.00  0.00    +0.000 H 
BRANCH   12   11
ATOM     11  C9  UNL A   1       7.965  53.218   4.491  1.00  0.00    +0.000 C 
ATOM    108  H13 UNL A   1       7.052  53.428   5.007  1.00  0.00    +0.000 H 
ATOM    109  H14 UNL A   1       8.185  52.177   4.377  1.00  0.00    +0.000 H 
BRANCH   11   10
ATOM     10  C8  UNL A   1       9.120  53.785   5.337  1.00  0.00    +0.000 C 
ATOM    107  H12 UNL A   1       8.745  54.701   5.747  1.00  0.00    +0.000 H 
ATOM    106  H11 UNL A   1       9.967  53.897   4.695  1.00  0.00    +0.000 H 
BRANCH   10    9
ATOM      9  C7  UNL A   1       9.560  52.951   6.548  1.00  0.00    +0.000 C 
ATOM    105  H10 UNL A   1      10.375  53.482   6.994  1.00  0.00    +0.000 H 
ATOM    104  H9  UNL A   1       9.827  51.975   6.198  1.00  0.00    +0.000 H 
BRANCH    9    8
ATOM    102  H7  UNL A   1       8.278  53.755   8.044  1.00  0.00    +0.000 H 
ATOM    103  H8  UNL A   1       7.647  52.332   7.200  1.00  0.00    +0.000 H 
ATOM      8  C6  UNL A   1       8.507  52.790   7.643  1.00  0.00    +0.000 C 
BRANCH    8    7
ATOM    101  H6  UNL A   1       8.240  51.444   9.195  1.00  0.00    +0.000 H 
ATOM      7  N1  UNL A   1       8.950  51.935   8.722  1.00  0.00    +0.000 N 
BRANCH    7    5
ATOM      5  C5  UNL A   1      10.221  51.716   9.176  1.00  0.00    +0.000 C 
ATOM      6  O1  UNL A   1      10.744  50.625   8.940  1.00  0.00    +0.000 O 
BRANCH    5    4
ATOM    100  H5  UNL A   1      11.090  52.391  10.965  1.00  0.00    +0.000 H 
ATOM     99  H4  UNL A   1      10.361  53.678   9.970  1.00  0.00    +0.000 H 
ATOM      4  C4  UNL A   1      10.952  52.787   9.979  1.00  0.00    +0.000 C 
BRANCH    4    3
ATOM    129  H34 UNL A   1      13.200  51.526  10.521  1.00  0.00    +0.000 H 
ATOM      2  C2  UNL A   1      12.601  54.219   8.583  1.00  0.00    +0.000 C 
ATOM      3  C3  UNL A   1      12.335  53.127   9.449  1.00  0.00    +0.000 C 
ATOM    135  H40 UNL A   1      15.909  53.699   8.194  1.00  0.00    +0.000 H 
ATOM     80  C57 UNL A   1      13.398  52.301   9.868  1.00  0.00    +0.000 C 
ATOM     81  C58 UNL A   1      14.710  52.497   9.431  1.00  0.00    +0.000 C 
ATOM     88  C65 UNL A   1      14.949  53.552   8.544  1.00  0.00    +0.000 C 
ATOM     89  C66 UNL A   1      13.926  54.421   8.109  1.00  0.00    +0.000 C 
BRANCH    2    1
ATOM      1  C1  UNL A   1      11.504  55.196   8.214  1.00  0.00    +0.000 C 
ATOM     98  H3  UNL A   1      11.218  55.041   7.195  1.00  0.00    +0.000 H 
ATOM     97  H2  UNL A   1      10.658  55.038   8.850  1.00  0.00    +0.000 H 
ATOM     96  H1  UNL A   1      11.862  56.196   8.337  1.00  0.00    +0.000 H 
ENDBRANCH    2    1
BRANCH   81   82
ATOM    130  H35 UNL A   1      15.098  51.454  11.888  1.00  0.00    +0.000 H 
ATOM    131  H36 UNL A   1      16.923  50.067  12.669  1.00  0.00    +0.000 H 
ATOM    132  H37 UNL A   1      18.702  49.428  11.150  1.00  0.00    +0.000 H 
ATOM    133  H38 UNL A   1      18.644  50.168   8.841  1.00  0.00    +0.000 H 
ATOM    134  H39 UNL A   1      16.818  51.547   8.053  1.00  0.00    +0.000 H 
ATOM     82  C59 UNL A   1      15.799  51.627   9.903  1.00  0.00    +0.000 C 
ATOM     83  C60 UNL A   1      15.849  51.185  11.235  1.00  0.00    +0.000 C 
ATOM     84  C61 UNL A   1      16.901  50.384  11.688  1.00  0.00    +0.000 C 
ATOM     85  C62 UNL A   1      17.923  50.016  10.815  1.00  0.00    +0.000 C 
ATOM     86  C63 UNL A   1      17.889  50.441   9.490  1.00  0.00    +0.000 C 
ATOM     87  C64 UNL A   1      16.835  51.239   9.037  1.00  0.00    +0.000 C 
ENDBRANCH   81   82
BRANCH   89   90
ATOM    136  H41 UNL A   1      12.962  54.830   5.637  1.00  0.00    +0.000 H 
ATOM    137  H42 UNL A   1      13.523  56.570   4.052  1.00  0.00    +0.000 H 
ATOM    138  H43 UNL A   1      15.162  58.261   4.634  1.00  0.00    +0.000 H 
ATOM    139  H44 UNL A   1      16.266  58.183   6.792  1.00  0.00    +0.000 H 
ATOM    140  H45 UNL A   1      15.741  56.419   8.365  1.00  0.00    +0.000 H 
ATOM     90  C67 UNL A   1      14.288  55.483   7.149  1.00  0.00    +0.000 C 
ATOM     91  C68 UNL A   1      13.667  55.540   5.889  1.00  0.00    +0.000 C 
ATOM     92  C69 UNL A   1      13.987  56.545   4.973  1.00  0.00    +0.000 C 
ATOM     93  C70 UNL A   1      14.932  57.512   5.306  1.00  0.00    +0.000 C 
ATOM     94  C71 UNL A   1      15.565  57.467   6.545  1.00  0.00    +0.000 C 
ATOM     95  C72 UNL A   1      15.254  56.454   7.456  1.00  0.00    +0.000 C 
ENDBRANCH   89   90
ENDBRANCH    4    3
ENDBRANCH    5    4
ENDBRANCH    7    5
ENDBRANCH    8    7
ENDBRANCH    9    8
ENDBRANCH   10    9
ENDBRANCH   11   10
ENDBRANCH   12   11
ENDBRANCH   13   12
ENDBRANCH   14   13
ENDBRANCH   15   14
ENDBRANCH   17   15
ENDBRANCH   21   20
BRANCH   25   26
ATOM     33  C25 UNL A   1       4.606  47.742   8.717  1.00  0.00    +0.000 C 
ATOM     34  F4  UNL A   1       3.773  48.514   9.429  1.00  0.00    +0.000 F 
ATOM     35  C26 UNL A   1       5.984  47.983   8.757  1.00  0.00    +0.000 C 
ATOM     36  F5  UNL A   1       6.411  48.892   9.645  1.00  0.00    +0.000 F 
ATOM     26  C21 UNL A   1       6.892  47.288   7.940  1.00  0.00    +0.000 C 
ATOM     27  C22 UNL A   1       6.340  46.193   7.241  1.00  0.00    +0.000 C 
ATOM     28  F1  UNL A   1       7.104  45.356   6.528  1.00  0.00    +0.000 F 
ATOM     29  C23 UNL A   1       4.971  45.914   7.241  1.00  0.00    +0.000 C 
ATOM     30  F2  UNL A   1       4.503  44.872   6.538  1.00  0.00    +0.000 F 
ATOM     31  C24 UNL A   1       4.098  46.718   7.943  1.00  0.00    +0.000 C 
ATOM     32  F3  UNL A   1       2.778  46.491   7.893  1.00  0.00    +0.000 F 
ENDBRANCH   25   26
BRANCH   42   43
ATOM     43  C32 UNL A   1      12.623  47.237  11.461  1.00  0.00    +0.000 C 
ATOM     44  C33 UNL A   1      12.618  48.438  12.188  1.00  0.00    +0.000 C 
ATOM     45  F6  UNL A   1      12.694  49.624  11.569  1.00  0.00    +0.000 F 
ATOM     46  C34 UNL A   1      12.478  48.457  13.579  1.00  0.00    +0.000 C 
ATOM     47  F7  UNL A   1      12.519  49.625  14.234  1.00  0.00    +0.000 F 
ATOM     48  C35 UNL A   1      12.274  47.282  14.280  1.00  0.00    +0.000 C 
ATOM     49  F8  UNL A   1      12.101  47.309  15.608  1.00  0.00    +0.000 F 
ATOM     50  C36 UNL A   1      12.226  46.084  13.596  1.00  0.00    +0.000 C 
ATOM     51  F9  UNL A   1      11.982  44.944  14.256  1.00  0.00    +0.000 F 
ATOM     52  C37 UNL A   1      12.416  46.059  12.215  1.00  0.00    +0.000 C 
ATOM     53  F10 UNL A   1      12.371  44.854  11.628  1.00  0.00    +0.000 F 
ENDBRANCH   42   43
BRANCH   57   58
ATOM     65  C45 UNL A   1      15.915  51.690   4.985  1.00  0.00    +0.000 C 
ATOM     66  F14 UNL A   1      15.383  52.902   5.199  1.00  0.00    +0.000 F 
ATOM     67  C46 UNL A   1      15.487  50.601   5.747  1.00  0.00    +0.000 C 
ATOM     68  F15 UNL A   1      14.540  50.799   6.675  1.00  0.00    +0.000 F 
ATOM     58  C41 UNL A   1      15.958  49.311   5.478  1.00  0.00    +0.000 C 
ATOM     59  C42 UNL A   1      16.936  49.168   4.479  1.00  0.00    +0.000 C 
ATOM     60  F11 UNL A   1      17.421  47.951   4.182  1.00  0.00    +0.000 F 
ATOM     61  C43 UNL A   1      17.353  50.255   3.712  1.00  0.00    +0.000 C 
ATOM     62  F12 UNL A   1      18.220  50.071   2.706  1.00  0.00    +0.000 F 
ATOM     63  C44 UNL A   1      16.824  51.511   3.951  1.00  0.00    +0.000 C 
ATOM     64  F13 UNL A   1      17.163  52.544   3.168  1.00  0.00    +0.000 F 
ENDBRANCH   57   58
TORSDOF 19
ENDMDL
MODEL 10
REMARK VINA RESULT:     -11.9     35.526     42.051
ROOT
ATOM     21  C17 UNL A   1       3.061   9.902  39.930  1.00  0.00    +0.000 C 
ATOM     22  C18 UNL A   1       3.083  11.317  40.351  1.00  0.00    +0.000 C 
ATOM     23  N3  UNL A   1       4.027  12.148  40.051  1.00  0.00    +0.000 N 
ATOM     24  C19 UNL A   1       3.829  13.291  40.791  1.00  0.00    +0.000 C 
ATOM     25  C20 UNL A   1       4.836  14.204  40.918  1.00  0.00    +0.000 C 
ATOM     37  C27 UNL A   1       6.029  13.796  40.186  1.00  0.00    +0.000 C 
ATOM     38  C28 UNL A   1       7.180  13.138  40.589  1.00  0.00    +0.000 C 
ATOM     39  C29 UNL A   1       7.857  12.685  39.434  1.00  0.00    +0.000 C 
ATOM     40  C30 UNL A   1       7.123  13.074  38.328  1.00  0.00    +0.000 C 
ATOM     41  N4  UNL A   1       6.027  13.773  38.796  1.00  0.00    +0.000 N 
ATOM     42  C31 UNL A   1       7.342  12.871  36.907  1.00  0.00    +0.000 C 
ATOM     54  C38 UNL A   1       7.212  11.582  36.482  1.00  0.00    +0.000 C 
ATOM     55  N5  UNL A   1       6.628  10.622  37.265  1.00  0.00    +0.000 N 
ATOM     56  C39 UNL A   1       6.565   9.506  36.595  1.00  0.00    +0.000 C 
ATOM     57  C40 UNL A   1       5.884   8.264  37.104  1.00  0.00    +0.000 C 
ATOM     69  C47 UNL A   1       5.714   8.230  38.456  1.00  0.00    +0.000 C 
ATOM     70  C48 UNL A   1       6.459   9.028  39.415  1.00  0.00    +0.000 C 
ATOM     71  C49 UNL A   1       5.559   9.686  40.160  1.00  0.00    +0.000 C 
ATOM     72  C50 UNL A   1       4.225   9.229  39.786  1.00  0.00    +0.000 C 
ATOM     73  N6  UNL A   1       4.435   8.029  39.053  1.00  0.00    +0.000 N 
ATOM     74  C51 UNL A   1       7.166   9.609  35.268  1.00  0.00    +0.000 C 
ATOM     75  C52 UNL A   1       7.556  10.895  35.252  1.00  0.00    +0.000 C 
ATOM     76  C53 UNL A   1       2.532  13.118  41.408  1.00  0.00    +0.000 C 
ATOM     77  C54 UNL A   1       2.012  11.916  41.137  1.00  0.00    +0.000 C 
ATOM    117  H22 UNL A   1       7.491  13.003  41.563  1.00  0.00    +0.000 H 
ATOM    118  H23 UNL A   1       8.742  12.155  39.419  1.00  0.00    +0.000 H 
ATOM    119  H24 UNL A   1       5.343  14.194  38.227  1.00  0.00    +0.000 H 
ATOM    120  H25 UNL A   1       7.486   9.077  39.506  1.00  0.00    +0.000 H 
ATOM    121  H26 UNL A   1       5.774  10.397  40.878  1.00  0.00    +0.000 H 
ATOM    122  H27 UNL A   1       3.840   7.249  38.976  1.00  0.00    +0.000 H 
ATOM    123  H28 UNL A   1       7.266   8.888  34.537  1.00  0.00    +0.000 H 
ATOM    124  H29 UNL A   1       8.043  11.342  34.459  1.00  0.00    +0.000 H 
ATOM    125  H30 UNL A   1       2.064  13.834  41.986  1.00  0.00    +0.000 H 
ATOM    126  H31 UNL A   1       1.101  11.518  41.412  1.00  0.00    +0.000 H 
ENDROOT
BRANCH   21   20
ATOM     78  C55 UNL A   1       1.510   8.145  40.589  1.00  0.00    +0.000 C 
ATOM     79  C56 UNL A   1       0.501   7.252  40.281  1.00  0.00    +0.000 C 
ATOM     17  C13 UNL A   1      -0.124   7.340  39.038  1.00  0.00    +0.000 C 
ATOM     18  C14 UNL A   1       0.036   8.481  38.244  1.00  0.00    +0.000 C 
ATOM     19  C15 UNL A   1       1.000   9.425  38.594  1.00  0.00    +0.000 C 
ATOM    115  H20 UNL A   1      -0.553   8.622  37.408  1.00  0.00    +0.000 H 
ATOM    116  H21 UNL A   1       1.116  10.285  38.034  1.00  0.00    +0.000 H 
ATOM     20  C16 UNL A   1       1.805   9.193  39.711  1.00  0.00    +0.000 C 
ATOM    127  H32 UNL A   1       2.044   8.040  41.466  1.00  0.00    +0.000 H 
ATOM    128  H33 UNL A   1       0.214   6.530  40.960  1.00  0.00    +0.000 H 
BRANCH   17   15
ATOM     15  C12 UNL A   1      -0.820   6.173  38.444  1.00  0.00    +0.000 C 
ATOM     16  O2  UNL A   1      -1.041   5.184  39.119  1.00  0.00    +0.000 O 
BRANCH   15   14
ATOM    114  H19 UNL A   1      -0.620   6.373  36.450  1.00  0.00    +0.000 H 
ATOM     14  N2  UNL A   1      -1.303   6.269  37.150  1.00  0.00    +0.000 N 
BRANCH   14   13
ATOM    113  H18 UNL A   1      -3.306   6.390  37.538  1.00  0.00    +0.000 H 
ATOM     13  C11 UNL A   1      -2.683   6.236  36.682  1.00  0.00    +0.000 C 
ATOM    112  H17 UNL A   1      -2.857   5.289  36.213  1.00  0.00    +0.000 H 
BRANCH   13   12
ATOM     12  C10 UNL A   1      -3.021   7.335  35.683  1.00  0.00    +0.000 C 
ATOM    110  H15 UNL A   1      -3.646   6.916  34.923  1.00  0.00    +0.000 H 
ATOM    111  H16 UNL A   1      -3.503   8.114  36.238  1.00  0.00    +0.000 H 
BRANCH   12   11
ATOM     11  C9  UNL A   1      -1.801   7.970  35.005  1.00  0.00    +0.000 C 
ATOM    108  H13 UNL A   1      -1.103   8.232  35.773  1.00  0.00    +0.000 H 
ATOM    109  H14 UNL A   1      -1.448   7.234  34.313  1.00  0.00    +0.000 H 
BRANCH   11   10
ATOM     10  C8  UNL A   1      -2.061   9.230  34.161  1.00  0.00    +0.000 C 
ATOM    107  H12 UNL A   1      -3.000   9.611  34.505  1.00  0.00    +0.000 H 
ATOM    106  H11 UNL A   1      -2.048   8.939  33.131  1.00  0.00    +0.000 H 
BRANCH   10    9
ATOM      9  C7  UNL A   1      -1.069  10.389  34.329  1.00  0.00    +0.000 C 
ATOM    105  H10 UNL A   1      -0.346  10.278  33.548  1.00  0.00    +0.000 H 
ATOM    104  H9  UNL A   1      -0.648  10.324  35.311  1.00  0.00    +0.000 H 
BRANCH    9    8
ATOM    102  H7  UNL A   1      -1.170  12.453  34.833  1.00  0.00    +0.000 H 
ATOM    103  H8  UNL A   1      -1.528  12.075  33.141  1.00  0.00    +0.000 H 
ATOM      8  C6  UNL A   1      -1.667  11.785  34.161  1.00  0.00    +0.000 C 
BRANCH    8    7
ATOM    101  H6  UNL A   1      -3.674  11.665  33.663  1.00  0.00    +0.000 H 
ATOM      7  N1  UNL A   1      -3.086  11.822  34.437  1.00  0.00    +0.000 N 
BRANCH    7    5
ATOM      5  C5  UNL A   1      -3.723  12.045  35.626  1.00  0.00    +0.000 C 
ATOM      6  O1  UNL A   1      -4.256  13.143  35.803  1.00  0.00    +0.000 O 
BRANCH    5    4
ATOM    100  H5  UNL A   1      -3.374  10.074  36.259  1.00  0.00    +0.000 H 
ATOM     99  H4  UNL A   1      -4.743  10.876  37.072  1.00  0.00    +0.000 H 
ATOM      4  C4  UNL A   1      -3.741  10.973  36.710  1.00  0.00    +0.000 C 
BRANCH    4    3
ATOM    129  H34 UNL A   1      -1.608  12.517  36.711  1.00  0.00    +0.000 H 
ATOM      2  C2  UNL A   1      -3.017  10.713  39.186  1.00  0.00    +0.000 C 
ATOM      3  C3  UNL A   1      -2.834  11.269  37.894  1.00  0.00    +0.000 C 
ATOM    135  H40 UNL A   1      -0.444  12.261  40.718  1.00  0.00    +0.000 H 
ATOM     80  C57 UNL A   1      -1.749  12.140  37.661  1.00  0.00    +0.000 C 
ATOM     81  C58 UNL A   1      -0.860  12.507  38.674  1.00  0.00    +0.000 C 
ATOM     88  C65 UNL A   1      -1.078  11.984  39.953  1.00  0.00    +0.000 C 
ATOM     89  C66 UNL A   1      -2.136  11.093  40.234  1.00  0.00    +0.000 C 
BRANCH    2    1
ATOM      1  C1  UNL A   1      -4.097   9.681  39.436  1.00  0.00    +0.000 C 
ATOM     98  H3  UNL A   1      -4.611   9.917  40.343  1.00  0.00    +0.000 H 
ATOM     97  H2  UNL A   1      -4.790   9.686  38.621  1.00  0.00    +0.000 H 
ATOM     96  H1  UNL A   1      -3.651   8.712  39.520  1.00  0.00    +0.000 H 
ENDBRANCH    2    1
BRANCH   81   82
ATOM    130  H35 UNL A   1       1.322  12.050  37.155  1.00  0.00    +0.000 H 
ATOM    131  H36 UNL A   1       3.207  13.513  36.741  1.00  0.00    +0.000 H 
ATOM    132  H37 UNL A   1       3.274  15.723  37.738  1.00  0.00    +0.000 H 
ATOM    133  H38 UNL A   1       1.442  16.473  39.139  1.00  0.00    +0.000 H 
ATOM    134  H39 UNL A   1      -0.449  15.019  39.548  1.00  0.00    +0.000 H 
ATOM     82  C59 UNL A   1       0.272  13.403  38.392  1.00  0.00    +0.000 C 
ATOM     83  C60 UNL A   1       1.341  12.990  37.581  1.00  0.00    +0.000 C 
ATOM     84  C61 UNL A   1       2.430  13.832  37.340  1.00  0.00    +0.000 C 
ATOM     85  C62 UNL A   1       2.468  15.102  37.911  1.00  0.00    +0.000 C 
ATOM     86  C63 UNL A   1       1.416  15.532  38.716  1.00  0.00    +0.000 C 
ATOM     87  C64 UNL A   1       0.327  14.691  38.953  1.00  0.00    +0.000 C 
ENDBRANCH   81   82
BRANCH   89   90
ATOM    136  H41 UNL A   1      -0.775   9.157  41.501  1.00  0.00    +0.000 H 
ATOM    137  H42 UNL A   1      -0.991   8.385  43.785  1.00  0.00    +0.000 H 
ATOM    138  H43 UNL A   1      -2.616   9.412  45.264  1.00  0.00    +0.000 H 
ATOM    139  H44 UNL A   1      -4.051  11.185  44.441  1.00  0.00    +0.000 H 
ATOM    140  H45 UNL A   1      -3.868  11.932  42.145  1.00  0.00    +0.000 H 
ATOM     90  C67 UNL A   1      -2.289  10.627  41.627  1.00  0.00    +0.000 C 
ATOM     91  C68 UNL A   1      -1.474   9.592  42.121  1.00  0.00    +0.000 C 
ATOM     92  C69 UNL A   1      -1.596   9.147  43.439  1.00  0.00    +0.000 C 
ATOM     93  C70 UNL A   1      -2.533   9.733  44.287  1.00  0.00    +0.000 C 
ATOM     94  C71 UNL A   1      -3.356  10.752  43.814  1.00  0.00    +0.000 C 
ATOM     95  C72 UNL A   1      -3.243  11.188  42.491  1.00  0.00    +0.000 C 
ENDBRANCH   89   90
ENDBRANCH    4    3
ENDBRANCH    5    4
ENDBRANCH    7    5
ENDBRANCH    8    7
ENDBRANCH    9    8
ENDBRANCH   10    9
ENDBRANCH   11   10
ENDBRANCH   12   11
ENDBRANCH   13   12
ENDBRANCH   14   13
ENDBRANCH   15   14
ENDBRANCH   17   15
ENDBRANCH   21   20
BRANCH   25   26
ATOM     33  C25 UNL A   1       3.943  17.370  42.930  1.00  0.00    +0.000 C 
ATOM     34  F4  UNL A   1       3.159  18.449  42.790  1.00  0.00    +0.000 F 
ATOM     35  C26 UNL A   1       4.130  16.502  41.848  1.00  0.00    +0.000 C 
ATOM     36  F5  UNL A   1       3.629  16.893  40.668  1.00  0.00    +0.000 F 
ATOM     26  C21 UNL A   1       4.838  15.294  41.969  1.00  0.00    +0.000 C 
ATOM     27  C22 UNL A   1       5.522  15.129  43.194  1.00  0.00    +0.000 C 
ATOM     28  F1  UNL A   1       6.345  14.095  43.406  1.00  0.00    +0.000 F 
ATOM     29  C23 UNL A   1       5.382  16.023  44.258  1.00  0.00    +0.000 C 
ATOM     30  F2  UNL A   1       6.039  15.799  45.406  1.00  0.00    +0.000 F 
ATOM     31  C24 UNL A   1       4.554  17.120  44.142  1.00  0.00    +0.000 C 
ATOM     32  F3  UNL A   1       4.368  17.943  45.183  1.00  0.00    +0.000 F 
ENDBRANCH   25   26
BRANCH   42   43
ATOM     43  C32 UNL A   1       7.782  14.028  36.055  1.00  0.00    +0.000 C 
ATOM     44  C33 UNL A   1       8.973  14.739  36.268  1.00  0.00    +0.000 C 
ATOM     45  F6  UNL A   1       9.796  14.426  37.280  1.00  0.00    +0.000 F 
ATOM     46  C34 UNL A   1       9.384  15.764  35.411  1.00  0.00    +0.000 C 
ATOM     47  F7  UNL A   1      10.510  16.441  35.679  1.00  0.00    +0.000 F 
ATOM     48  C35 UNL A   1       8.652  16.068  34.278  1.00  0.00    +0.000 C 
ATOM     49  F8  UNL A   1       9.070  17.024  33.439  1.00  0.00    +0.000 F 
ATOM     50  C36 UNL A   1       7.498  15.360  34.007  1.00  0.00    +0.000 C 
ATOM     51  F9  UNL A   1       6.805  15.611  32.889  1.00  0.00    +0.000 F 
ATOM     52  C37 UNL A   1       7.061  14.372  34.888  1.00  0.00    +0.000 C 
ATOM     53  F10 UNL A   1       5.922  13.742  34.561  1.00  0.00    +0.000 F 
ENDBRANCH   42   43
BRANCH   57   58
ATOM     65  C45 UNL A   1       2.519   7.180  35.780  1.00  0.00    +0.000 C 
ATOM     66  F14 UNL A   1       1.285   7.686  35.654  1.00  0.00    +0.000 F 
ATOM     67  C46 UNL A   1       3.582   8.022  36.115  1.00  0.00    +0.000 C 
ATOM     68  F15 UNL A   1       3.333   9.324  36.312  1.00  0.00    +0.000 F 
ATOM     58  C41 UNL A   1       4.861   7.502  36.346  1.00  0.00    +0.000 C 
ATOM     59  C42 UNL A   1       5.052   6.124  36.142  1.00  0.00    +0.000 C 
ATOM     60  F11 UNL A   1       6.260   5.576  36.349  1.00  0.00    +0.000 F 
ATOM     61  C43 UNL A   1       3.988   5.285  35.818  1.00  0.00    +0.000 C 
ATOM     62  F12 UNL A   1       4.184   3.962  35.719  1.00  0.00    +0.000 F 
ATOM     63  C44 UNL A   1       2.717   5.812  35.660  1.00  0.00    +0.000 C 
ATOM     64  F13 UNL A   1       1.677   5.000  35.425  1.00  0.00    +0.000 F 
ENDBRANCH   57   58
TORSDOF 19
ENDMDL
