MODEL 1
REMARK VINA RESULT:      -9.2      0.000      0.000
ROOT
ATOM    129  H32 UNL A   1      13.200  46.372   2.883  1.00  0.00    +0.000 H 
ATOM    130  H33 UNL A   1      14.914  46.609   0.935  1.00  0.00    +0.000 H 
ATOM    131  H34 UNL A   1      14.573  50.278   2.829  1.00  0.00    +0.000 H 
ATOM    132  H35 UNL A   1      16.003  56.457   3.239  1.00  0.00    +0.000 H 
ATOM    133  H36 UNL A   1      14.647  56.147   5.362  1.00  0.00    +0.000 H 
ATOM    134  H37 UNL A   1      14.727  52.507   3.356  1.00  0.00    +0.000 H 
ATOM    135  H38 UNL A   1      18.047  53.193  -0.426  1.00  0.00    +0.000 H 
ATOM    136  H39 UNL A   1      17.701  50.737  -1.057  1.00  0.00    +0.000 H 
ATOM    137  H40 UNL A   1      11.303  49.683   6.615  1.00  0.00    +0.000 H 
ATOM    138  H41 UNL A   1      11.472  52.184   7.131  1.00  0.00    +0.000 H 
ATOM     31  C26 UNL A   1      13.515  53.543   5.662  1.00  0.00    +0.000 C 
ATOM     32  C27 UNL A   1      13.062  52.101   5.518  1.00  0.00    +0.000 C 
ATOM     33  N4  UNL A   1      13.478  51.174   4.687  1.00  0.00    +0.000 N 
ATOM     34  C28 UNL A   1      12.770  50.020   5.010  1.00  0.00    +0.000 C 
ATOM     35  C29 UNL A   1      12.816  48.795   4.429  1.00  0.00    +0.000 C 
ATOM     47  C36 UNL A   1      13.617  48.451   3.282  1.00  0.00    +0.000 C 
ATOM     48  C37 UNL A   1      13.712  47.231   2.632  1.00  0.00    +0.000 C 
ATOM     49  C38 UNL A   1      14.621  47.361   1.577  1.00  0.00    +0.000 C 
ATOM     50  C39 UNL A   1      15.057  48.674   1.542  1.00  0.00    +0.000 C 
ATOM     51  N5  UNL A   1      14.443  49.330   2.598  1.00  0.00    +0.000 N 
ATOM     52  C40 UNL A   1      15.974  49.292   0.620  1.00  0.00    +0.000 C 
ATOM     64  C47 UNL A   1      16.316  50.602   0.647  1.00  0.00    +0.000 C 
ATOM     65  N6  UNL A   1      15.885  51.591   1.522  1.00  0.00    +0.000 N 
ATOM     66  C48 UNL A   1      16.510  52.685   1.164  1.00  0.00    +0.000 C 
ATOM     67  C49 UNL A   1      16.428  54.066   1.756  1.00  0.00    +0.000 C 
ATOM     79  C56 UNL A   1      15.677  54.291   2.854  1.00  0.00    +0.000 C 
ATOM     80  C57 UNL A   1      15.575  55.571   3.551  1.00  0.00    +0.000 C 
ATOM     81  C58 UNL A   1      14.834  55.415   4.659  1.00  0.00    +0.000 C 
ATOM     82  C59 UNL A   1      14.335  54.042   4.713  1.00  0.00    +0.000 C 
ATOM     83  N7  UNL A   1      14.886  53.448   3.598  1.00  0.00    +0.000 N 
ATOM     84  C60 UNL A   1      17.425  52.503   0.025  1.00  0.00    +0.000 C 
ATOM     85  C61 UNL A   1      17.242  51.224  -0.272  1.00  0.00    +0.000 C 
ATOM     86  C62 UNL A   1      11.911  50.357   6.124  1.00  0.00    +0.000 C 
ATOM     87  C63 UNL A   1      12.005  51.643   6.431  1.00  0.00    +0.000 C 
ENDROOT
BRANCH   31   30
ATOM    139  H42 UNL A   1      10.970  54.268   6.303  1.00  0.00    +0.000 H 
ATOM    140  H43 UNL A   1      10.233  55.949   7.890  1.00  0.00    +0.000 H 
ATOM     88  C64 UNL A   1      11.661  54.727   6.917  1.00  0.00    +0.000 C 
ATOM     89  C65 UNL A   1      11.231  55.684   7.851  1.00  0.00    +0.000 C 
ATOM     27  C22 UNL A   1      12.143  56.280   8.724  1.00  0.00    +0.000 C 
ATOM     28  C23 UNL A   1      13.458  55.822   8.740  1.00  0.00    +0.000 C 
ATOM     29  C24 UNL A   1      13.901  54.922   7.759  1.00  0.00    +0.000 C 
ATOM     30  C25 UNL A   1      13.020  54.385   6.805  1.00  0.00    +0.000 C 
ATOM    127  H30 UNL A   1      14.107  56.146   9.473  1.00  0.00    +0.000 H 
ATOM    128  H31 UNL A   1      14.896  54.648   7.738  1.00  0.00    +0.000 H 
BRANCH   27   25
ATOM     25  C21 UNL A   1      11.680  57.364   9.626  1.00  0.00    +0.000 C 
ATOM     26  O2  UNL A   1      12.059  58.514   9.413  1.00  0.00    +0.000 O 
BRANCH   25   24
ATOM    126  H29 UNL A   1      10.053  57.619  10.774  1.00  0.00    +0.000 H 
ATOM     24  N3  UNL A   1      10.885  57.095  10.723  1.00  0.00    +0.000 N 
BRANCH   24   23
ATOM    124  H27 UNL A   1      12.113  56.230  12.122  1.00  0.00    +0.000 H 
ATOM    125  H28 UNL A   1      10.394  56.435  12.577  1.00  0.00    +0.000 H 
ATOM     23  C20 UNL A   1      11.091  56.158  11.814  1.00  0.00    +0.000 C 
BRANCH   23   22
ATOM    122  H25 UNL A   1      10.043  54.358  12.163  1.00  0.00    +0.000 H 
ATOM    123  H26 UNL A   1      10.517  54.706  10.449  1.00  0.00    +0.000 H 
ATOM     22  C19 UNL A   1      10.797  54.694  11.482  1.00  0.00    +0.000 C 
BRANCH   22   21
ATOM    121  H24 UNL A   1      11.722  53.089  12.404  1.00  0.00    +0.000 H 
ATOM     21  C18 UNL A   1      11.954  53.696  11.554  1.00  0.00    +0.000 C 
ATOM    120  H23 UNL A   1      12.859  54.266  11.612  1.00  0.00    +0.000 H 
BRANCH   21   20
ATOM     20  C17 UNL A   1      12.130  52.689  10.412  1.00  0.00    +0.000 C 
ATOM    118  H21 UNL A   1      11.565  51.820  10.676  1.00  0.00    +0.000 H 
ATOM    119  H22 UNL A   1      11.812  53.234   9.548  1.00  0.00    +0.000 H 
BRANCH   20   19
ATOM     19  C16 UNL A   1      13.533  52.208  10.033  1.00  0.00    +0.000 C 
ATOM    116  H19 UNL A   1      13.547  51.147  10.175  1.00  0.00    +0.000 H 
ATOM    117  H20 UNL A   1      13.657  52.568   9.033  1.00  0.00    +0.000 H 
BRANCH   19   18
ATOM     18  C15 UNL A   1      14.749  52.768  10.764  1.00  0.00    +0.000 C 
ATOM    115  H18 UNL A   1      14.352  53.264  11.626  1.00  0.00    +0.000 H 
ATOM    114  H17 UNL A   1      15.274  53.402  10.081  1.00  0.00    +0.000 H 
BRANCH   18   17
ATOM     17  N2  UNL A   1      15.693  51.817  11.285  1.00  0.00    +0.000 N 
ATOM    113  H16 UNL A   1      15.669  51.715  12.264  1.00  0.00    +0.000 H 
BRANCH   17   15
ATOM     15  C14 UNL A   1      16.624  51.022  10.654  1.00  0.00    +0.000 C 
ATOM     16  O1  UNL A   1      17.674  50.844  11.281  1.00  0.00    +0.000 O 
BRANCH   15   14
ATOM      9  C8  UNL A   1      15.660  49.213   8.982  1.00  0.00    +0.000 C 
ATOM     10  C9  UNL A   1      15.560  48.849   7.613  1.00  0.00    +0.000 C 
ATOM     11  C10 UNL A   1      16.282  49.491   6.613  1.00  0.00    +0.000 C 
ATOM     12  C11 UNL A   1      17.123  50.533   6.958  1.00  0.00    +0.000 C 
ATOM    109  H12 UNL A   1      14.928  48.076   7.349  1.00  0.00    +0.000 H 
ATOM     14  C13 UNL A   1      16.481  50.305   9.338  1.00  0.00    +0.000 C 
ATOM     13  C12 UNL A   1      17.205  50.940   8.294  1.00  0.00    +0.000 C 
ATOM    110  H13 UNL A   1      16.191  49.195   5.629  1.00  0.00    +0.000 H 
ATOM    112  H15 UNL A   1      17.817  51.737   8.531  1.00  0.00    +0.000 H 
ATOM    111  H14 UNL A   1      17.687  51.006   6.235  1.00  0.00    +0.000 H 
BRANCH    9    8
ATOM    108  H11 UNL A   1      15.508  47.532  10.189  1.00  0.00    +0.000 H 
ATOM      8  N1  UNL A   1      15.015  48.327   9.881  1.00  0.00    +0.000 N 
BRANCH    8    7
ATOM      1  C1  UNL A   1      10.830  50.860  13.715  1.00  0.00    +0.000 C 
ATOM      2  C2  UNL A   1      12.002  49.860  13.608  1.00  0.00    +0.000 C 
ATOM      3  C3  UNL A   1      13.246  50.607  14.137  1.00  0.00    +0.000 C 
ATOM      4  C4  UNL A   1      11.700  48.655  14.520  1.00  0.00    +0.000 C 
ATOM      5  C5  UNL A   1      12.202  49.311  12.191  1.00  0.00    +0.000 C 
ATOM      6  C6  UNL A   1      13.483  49.191  11.594  1.00  0.00    +0.000 C 
ATOM      7  C7  UNL A   1      13.686  48.528  10.365  1.00  0.00    +0.000 C 
ATOM    141  H44 UNL A   1      12.674  47.642   8.733  1.00  0.00    +0.000 H 
ATOM    142  H45 UNL A   1       8.386  48.978  10.444  1.00  0.00    +0.000 H 
ATOM    143  H46 UNL A   1       8.507  47.376  11.144  1.00  0.00    +0.000 H 
ATOM     90  C66 UNL A   1      12.562  48.077   9.661  1.00  0.00    +0.000 C 
ATOM     91  C67 UNL A   1      11.301  48.216  10.215  1.00  0.00    +0.000 C 
ATOM     92  C68 UNL A   1      11.135  48.794  11.457  1.00  0.00    +0.000 C 
ATOM     93  O3  UNL A   1       9.838  48.758  11.892  1.00  0.00    +0.000 O 
ATOM     94  C69 UNL A   1       9.060  48.226  10.799  1.00  0.00    +0.000 C 
ATOM     95  C70 UNL A   1       9.989  47.791   9.649  1.00  0.00    +0.000 C 
ATOM     98  H1  UNL A   1      10.745  51.204  14.725  1.00  0.00    +0.000 H 
ATOM     99  H2  UNL A   1       9.920  50.376  13.425  1.00  0.00    +0.000 H 
ATOM    100  H3  UNL A   1      11.012  51.694  13.069  1.00  0.00    +0.000 H 
ATOM    101  H4  UNL A   1      13.052  50.967  15.126  1.00  0.00    +0.000 H 
ATOM    102  H5  UNL A   1      13.468  51.432  13.493  1.00  0.00    +0.000 H 
ATOM    103  H6  UNL A   1      14.081  49.937  14.160  1.00  0.00    +0.000 H 
ATOM    104  H7  UNL A   1      11.553  48.995  15.524  1.00  0.00    +0.000 H 
ATOM    105  H8  UNL A   1      12.524  47.972  14.493  1.00  0.00    +0.000 H 
ATOM    106  H9  UNL A   1      10.816  48.161  14.178  1.00  0.00    +0.000 H 
ATOM    107  H10 UNL A   1      14.296  49.604  12.076  1.00  0.00    +0.000 H 
BRANCH   95   96
ATOM    145  H48 UNL A   1      10.575  48.990   7.976  1.00  0.00    +0.000 H 
ATOM    146  H49 UNL A   1       8.968  49.331   8.569  1.00  0.00    +0.000 H 
ATOM    144  H47 UNL A   1       9.267  47.884   7.636  1.00  0.00    +0.000 H 
ATOM     96  C71 UNL A   1       9.676  48.557   8.361  1.00  0.00    +0.000 C 
ENDBRANCH   95   96
BRANCH   95   97
ATOM     97  C72 UNL A   1       9.917  46.280   9.411  1.00  0.00    +0.000 C 
ATOM    147  H50 UNL A   1       8.938  46.021   9.065  1.00  0.00    +0.000 H 
ATOM    148  H51 UNL A   1      10.121  45.764  10.325  1.00  0.00    +0.000 H 
ATOM    149  H52 UNL A   1      10.641  46.001   8.673  1.00  0.00    +0.000 H 
ENDBRANCH   95   97
ENDBRANCH    8    7
ENDBRANCH    9    8
ENDBRANCH   15   14
ENDBRANCH   17   15
ENDBRANCH   18   17
ENDBRANCH   19   18
ENDBRANCH   20   19
ENDBRANCH   21   20
ENDBRANCH   22   21
ENDBRANCH   23   22
ENDBRANCH   24   23
ENDBRANCH   25   24
ENDBRANCH   27   25
ENDBRANCH   31   30
BRANCH   35   36
ATOM     36  C30 UNL A   1      11.970  47.704   5.023  1.00  0.00    +0.000 C 
ATOM     37  C31 UNL A   1      10.627  47.533   4.660  1.00  0.00    +0.000 C 
ATOM     38  F1  UNL A   1      10.036  48.407   3.833  1.00  0.00    +0.000 F 
ATOM     39  C32 UNL A   1       9.879  46.472   5.164  1.00  0.00    +0.000 C 
ATOM     40  F2  UNL A   1       8.588  46.346   4.829  1.00  0.00    +0.000 F 
ATOM     41  C33 UNL A   1      10.466  45.546   6.015  1.00  0.00    +0.000 C 
ATOM     42  F3  UNL A   1       9.749  44.515   6.484  1.00  0.00    +0.000 F 
ATOM     43  C34 UNL A   1      11.795  45.690   6.380  1.00  0.00    +0.000 C 
ATOM     44  F4  UNL A   1      12.370  44.787   7.187  1.00  0.00    +0.000 F 
ATOM     45  C35 UNL A   1      12.538  46.765   5.899  1.00  0.00    +0.000 C 
ATOM     46  F5  UNL A   1      13.824  46.876   6.269  1.00  0.00    +0.000 F 
ENDBRANCH   35   36
BRANCH   52   53
ATOM     53  C41 UNL A   1      16.577  48.431  -0.452  1.00  0.00    +0.000 C 
ATOM     54  C42 UNL A   1      17.855  47.871  -0.310  1.00  0.00    +0.000 C 
ATOM     55  F6  UNL A   1      18.600  48.156   0.768  1.00  0.00    +0.000 F 
ATOM     56  C43 UNL A   1      18.384  47.033  -1.289  1.00  0.00    +0.000 C 
ATOM     57  F7  UNL A   1      19.621  46.536  -1.148  1.00  0.00    +0.000 F 
ATOM     58  C44 UNL A   1      17.636  46.718  -2.415  1.00  0.00    +0.000 C 
ATOM     59  F8  UNL A   1      18.141  45.903  -3.351  1.00  0.00    +0.000 F 
ATOM     60  C45 UNL A   1      16.367  47.252  -2.572  1.00  0.00    +0.000 C 
ATOM     61  F9  UNL A   1      15.638  46.940  -3.653  1.00  0.00    +0.000 F 
ATOM     62  C46 UNL A   1      15.845  48.110  -1.606  1.00  0.00    +0.000 C 
ATOM     63  F10 UNL A   1      14.615  48.613  -1.788  1.00  0.00    +0.000 F 
ENDBRANCH   52   53
BRANCH   67   68
ATOM     68  C50 UNL A   1      17.184  55.189   1.138  1.00  0.00    +0.000 C 
ATOM     69  C51 UNL A   1      16.621  55.946   0.102  1.00  0.00    +0.000 C 
ATOM     70  F11 UNL A   1      15.402  55.640  -0.366  1.00  0.00    +0.000 F 
ATOM     71  C52 UNL A   1      17.322  56.999  -0.483  1.00  0.00    +0.000 C 
ATOM     72  F12 UNL A   1      16.775  57.684  -1.497  1.00  0.00    +0.000 F 
ATOM     73  C53 UNL A   1      18.588  57.330  -0.025  1.00  0.00    +0.000 C 
ATOM     74  F13 UNL A   1      19.257  58.351  -0.579  1.00  0.00    +0.000 F 
ATOM     75  C54 UNL A   1      19.164  56.597   1.002  1.00  0.00    +0.000 C 
ATOM     76  F14 UNL A   1      20.382  56.923   1.456  1.00  0.00    +0.000 F 
ATOM     77  C55 UNL A   1      18.476  55.527   1.567  1.00  0.00    +0.000 C 
ATOM     78  F15 UNL A   1      19.062  54.826   2.548  1.00  0.00    +0.000 F 
ENDBRANCH   67   68
TORSDOF 19
ENDMDL
MODEL 2
REMARK VINA RESULT:      -9.1      2.985      7.787
ROOT
ATOM    129  H32 UNL A   1      16.132  57.645   3.081  1.00  0.00    +0.000 H 
ATOM    130  H33 UNL A   1      17.707  57.335   1.028  1.00  0.00    +0.000 H 
ATOM    131  H34 UNL A   1      15.869  53.709   1.825  1.00  0.00    +0.000 H 
ATOM    132  H35 UNL A   1      15.109  47.506   0.662  1.00  0.00    +0.000 H 
ATOM    133  H36 UNL A   1      13.295  47.885   2.396  1.00  0.00    +0.000 H 
ATOM    134  H37 UNL A   1      15.294  51.486   1.834  1.00  0.00    +0.000 H 
ATOM    135  H38 UNL A   1      18.348  50.658  -2.138  1.00  0.00    +0.000 H 
ATOM    136  H39 UNL A   1      19.066  53.110  -1.985  1.00  0.00    +0.000 H 
ATOM    137  H40 UNL A   1      12.799  54.444   5.752  1.00  0.00    +0.000 H 
ATOM    138  H41 UNL A   1      12.228  51.950   5.751  1.00  0.00    +0.000 H 
ATOM     31  C26 UNL A   1      13.254  50.519   3.498  1.00  0.00    +0.000 C 
ATOM     32  C27 UNL A   1      13.502  51.967   3.876  1.00  0.00    +0.000 C 
ATOM     33  N4  UNL A   1      14.248  52.870   3.283  1.00  0.00    +0.000 N 
ATOM     34  C28 UNL A   1      14.084  54.045   4.010  1.00  0.00    +0.000 C 
ATOM     35  C29 UNL A   1      14.660  55.259   3.821  1.00  0.00    +0.000 C 
ATOM     47  C36 UNL A   1      15.634  55.564   2.804  1.00  0.00    +0.000 C 
ATOM     48  C37 UNL A   1      16.269  56.770   2.552  1.00  0.00    +0.000 C 
ATOM     49  C38 UNL A   1      17.124  56.601   1.460  1.00  0.00    +0.000 C 
ATOM     50  C39 UNL A   1      17.057  55.278   1.059  1.00  0.00    +0.000 C 
ATOM     51  N5  UNL A   1      16.132  54.655   1.884  1.00  0.00    +0.000 N 
ATOM     52  C40 UNL A   1      17.776  54.623  -0.003  1.00  0.00    +0.000 C 
ATOM     64  C47 UNL A   1      17.665  53.306  -0.299  1.00  0.00    +0.000 C 
ATOM     65  N6  UNL A   1      16.878  52.342   0.319  1.00  0.00    +0.000 N 
ATOM     66  C48 UNL A   1      17.094  51.229  -0.336  1.00  0.00    +0.000 C 
ATOM     67  C49 UNL A   1      16.511  49.860  -0.104  1.00  0.00    +0.000 C 
ATOM     79  C56 UNL A   1      15.578  49.672   0.851  1.00  0.00    +0.000 C 
ATOM     80  C57 UNL A   1      14.898  48.407   1.120  1.00  0.00    +0.000 C 
ATOM     81  C58 UNL A   1      13.958  48.600   2.058  1.00  0.00    +0.000 C 
ATOM     82  C59 UNL A   1      14.019  49.984   2.522  1.00  0.00    +0.000 C 
ATOM     83  N7  UNL A   1      15.013  50.545   1.749  1.00  0.00    +0.000 N 
ATOM     84  C60 UNL A   1      18.036  51.369  -1.459  1.00  0.00    +0.000 C 
ATOM     85  C61 UNL A   1      18.379  52.647  -1.370  1.00  0.00    +0.000 C 
ATOM     86  C62 UNL A   1      13.154  53.748   5.078  1.00  0.00    +0.000 C 
ATOM     87  C63 UNL A   1      12.818  52.465   5.079  1.00  0.00    +0.000 C 
ENDROOT
BRANCH   31   30
ATOM    139  H42 UNL A   1      13.525  48.943   5.702  1.00  0.00    +0.000 H 
ATOM    140  H43 UNL A   1      11.954  47.333   6.609  1.00  0.00    +0.000 H 
ATOM     88  C64 UNL A   1      12.575  48.878   5.303  1.00  0.00    +0.000 C 
ATOM     89  C65 UNL A   1      11.659  47.961   5.844  1.00  0.00    +0.000 C 
ATOM     27  C22 UNL A   1      10.353  47.893   5.352  1.00  0.00    +0.000 C 
ATOM     28  C23 UNL A   1       9.940  48.828   4.407  1.00  0.00    +0.000 C 
ATOM     29  C24 UNL A   1      10.875  49.692   3.817  1.00  0.00    +0.000 C 
ATOM     30  C25 UNL A   1      12.219  49.708   4.227  1.00  0.00    +0.000 C 
ATOM    127  H30 UNL A   1       8.945  48.885   4.141  1.00  0.00    +0.000 H 
ATOM    128  H31 UNL A   1      10.568  50.330   3.066  1.00  0.00    +0.000 H 
BRANCH   27   25
ATOM     25  C21 UNL A   1       9.440  46.842   5.867  1.00  0.00    +0.000 C 
ATOM     26  O2  UNL A   1       9.139  45.905   5.131  1.00  0.00    +0.000 O 
BRANCH   25   24
ATOM    126  H29 UNL A   1       8.304  47.714   7.275  1.00  0.00    +0.000 H 
ATOM     24  N3  UNL A   1       8.883  46.932   7.128  1.00  0.00    +0.000 N 
BRANCH   24   23
ATOM    124  H27 UNL A   1       8.161  46.172   8.894  1.00  0.00    +0.000 H 
ATOM    125  H28 UNL A   1       9.121  45.059   7.871  1.00  0.00    +0.000 H 
ATOM     23  C20 UNL A   1       9.023  46.047   8.272  1.00  0.00    +0.000 C 
BRANCH   23   22
ATOM    122  H25 UNL A   1      10.426  47.338   9.178  1.00  0.00    +0.000 H 
ATOM    123  H26 UNL A   1      10.041  45.804  10.063  1.00  0.00    +0.000 H 
ATOM     22  C19 UNL A   1      10.266  46.281   9.131  1.00  0.00    +0.000 C 
BRANCH   22   21
ATOM    121  H24 UNL A   1      11.541  45.688   7.613  1.00  0.00    +0.000 H 
ATOM     21  C18 UNL A   1      11.581  45.641   8.681  1.00  0.00    +0.000 C 
ATOM    120  H23 UNL A   1      11.617  44.661   9.111  1.00  0.00    +0.000 H 
BRANCH   21   20
ATOM     20  C17 UNL A   1      12.899  46.337   9.037  1.00  0.00    +0.000 C 
ATOM    118  H21 UNL A   1      13.284  45.846   9.905  1.00  0.00    +0.000 H 
ATOM    119  H22 UNL A   1      13.472  46.260   8.138  1.00  0.00    +0.000 H 
BRANCH   20   19
ATOM     19  C16 UNL A   1      12.906  47.839   9.337  1.00  0.00    +0.000 C 
ATOM    116  H19 UNL A   1      13.215  48.333   8.440  1.00  0.00    +0.000 H 
ATOM    117  H20 UNL A   1      11.910  48.029   9.681  1.00  0.00    +0.000 H 
BRANCH   19   18
ATOM     18  C15 UNL A   1      13.780  48.382  10.464  1.00  0.00    +0.000 C 
ATOM    115  H18 UNL A   1      13.818  47.596  11.190  1.00  0.00    +0.000 H 
ATOM    114  H17 UNL A   1      13.335  49.293  10.808  1.00  0.00    +0.000 H 
BRANCH   18   17
ATOM     17  N2  UNL A   1      15.153  48.663  10.147  1.00  0.00    +0.000 N 
ATOM    113  H16 UNL A   1      15.626  49.194  10.829  1.00  0.00    +0.000 H 
BRANCH   17   15
ATOM     15  C14 UNL A   1      15.923  48.321   9.059  1.00  0.00    +0.000 C 
ATOM     16  O1  UNL A   1      16.553  47.263   9.172  1.00  0.00    +0.000 O 
BRANCH   15   14
ATOM      9  C8  UNL A   1      16.284  50.406   7.472  1.00  0.00    +0.000 C 
ATOM     10  C9  UNL A   1      16.536  50.803   6.131  1.00  0.00    +0.000 C 
ATOM     11  C10 UNL A   1      16.489  49.911   5.065  1.00  0.00    +0.000 C 
ATOM     12  C11 UNL A   1      16.195  48.583   5.316  1.00  0.00    +0.000 C 
ATOM    109  H12 UNL A   1      16.763  51.792   5.940  1.00  0.00    +0.000 H 
ATOM     14  C13 UNL A   1      16.029  49.045   7.743  1.00  0.00    +0.000 C 
ATOM     13  C12 UNL A   1      15.987  48.159   6.633  1.00  0.00    +0.000 C 
ATOM    110  H13 UNL A   1      16.670  50.235   4.103  1.00  0.00    +0.000 H 
ATOM    112  H15 UNL A   1      15.796  47.159   6.806  1.00  0.00    +0.000 H 
ATOM    111  H14 UNL A   1      16.131  47.910   4.537  1.00  0.00    +0.000 H 
BRANCH    9    8
ATOM    108  H11 UNL A   1      16.951  52.067   8.522  1.00  0.00    +0.000 H 
ATOM      8  N1  UNL A   1      16.174  51.476   8.396  1.00  0.00    +0.000 N 
BRANCH    8    7
ATOM      1  C1  UNL A   1      13.159  53.260  13.531  1.00  0.00    +0.000 C 
ATOM      2  C2  UNL A   1      14.044  52.159  12.904  1.00  0.00    +0.000 C 
ATOM      3  C3  UNL A   1      15.480  52.434  13.400  1.00  0.00    +0.000 C 
ATOM      4  C4  UNL A   1      13.570  50.792  13.433  1.00  0.00    +0.000 C 
ATOM      5  C5  UNL A   1      13.949  52.105  11.374  1.00  0.00    +0.000 C 
ATOM      6  C6  UNL A   1      15.090  51.964  10.544  1.00  0.00    +0.000 C 
ATOM      7  C7  UNL A   1      14.993  51.740   9.155  1.00  0.00    +0.000 C 
ATOM    141  H44 UNL A   1      13.624  51.674   7.543  1.00  0.00    +0.000 H 
ATOM    142  H45 UNL A   1       9.991  53.106  10.345  1.00  0.00    +0.000 H 
ATOM    143  H46 UNL A   1       9.809  51.369  10.475  1.00  0.00    +0.000 H 
ATOM     90  C66 UNL A   1      13.723  51.775   8.565  1.00  0.00    +0.000 C 
ATOM     91  C67 UNL A   1      12.600  51.945   9.357  1.00  0.00    +0.000 C 
ATOM     92  C68 UNL A   1      12.715  52.080  10.726  1.00  0.00    +0.000 C 
ATOM     93  O3  UNL A   1      11.503  52.137  11.358  1.00  0.00    +0.000 O 
ATOM     94  C69 UNL A   1      10.504  52.167  10.317  1.00  0.00    +0.000 C 
ATOM     95  C70 UNL A   1      11.170  51.992   8.939  1.00  0.00    +0.000 C 
ATOM     98  H1  UNL A   1      13.272  53.244  14.596  1.00  0.00    +0.000 H 
ATOM     99  H2  UNL A   1      12.135  53.082  13.278  1.00  0.00    +0.000 H 
ATOM    100  H3  UNL A   1      13.460  54.216  13.156  1.00  0.00    +0.000 H 
ATOM    101  H4  UNL A   1      15.488  52.461  14.470  1.00  0.00    +0.000 H 
ATOM    102  H5  UNL A   1      15.816  53.375  13.017  1.00  0.00    +0.000 H 
ATOM    103  H6  UNL A   1      16.130  51.656  13.059  1.00  0.00    +0.000 H 
ATOM    104  H7  UNL A   1      13.621  50.786  14.502  1.00  0.00    +0.000 H 
ATOM    105  H8  UNL A   1      14.201  50.020  13.043  1.00  0.00    +0.000 H 
ATOM    106  H9  UNL A   1      12.561  50.619  13.123  1.00  0.00    +0.000 H 
ATOM    107  H10 UNL A   1      16.027  52.028  10.973  1.00  0.00    +0.000 H 
BRANCH   95   96
ATOM    145  H48 UNL A   1      10.185  52.934   7.289  1.00  0.00    +0.000 H 
ATOM    146  H49 UNL A   1      11.817  53.496   7.560  1.00  0.00    +0.000 H 
ATOM    144  H47 UNL A   1      10.527  54.009   8.623  1.00  0.00    +0.000 H 
ATOM     96  C71 UNL A   1      10.905  53.198   8.034  1.00  0.00    +0.000 C 
ENDBRANCH   95   96
BRANCH   95   97
ATOM     97  C72 UNL A   1      10.718  50.697   8.258  1.00  0.00    +0.000 C 
ATOM    147  H50 UNL A   1      10.231  50.931   7.335  1.00  0.00    +0.000 H 
ATOM    148  H51 UNL A   1      10.037  50.177   8.897  1.00  0.00    +0.000 H 
ATOM    149  H52 UNL A   1      11.570  50.079   8.065  1.00  0.00    +0.000 H 
ENDBRANCH   95   97
ENDBRANCH    8    7
ENDBRANCH    9    8
ENDBRANCH   15   14
ENDBRANCH   17   15
ENDBRANCH   18   17
ENDBRANCH   19   18
ENDBRANCH   20   19
ENDBRANCH   21   20
ENDBRANCH   22   21
ENDBRANCH   23   22
ENDBRANCH   24   23
ENDBRANCH   25   24
ENDBRANCH   27   25
ENDBRANCH   31   30
BRANCH   35   36
ATOM     36  C30 UNL A   1      14.256  56.380   4.737  1.00  0.00    +0.000 C 
ATOM     37  C31 UNL A   1      15.057  56.770   5.820  1.00  0.00    +0.000 C 
ATOM     38  F1  UNL A   1      16.170  56.084   6.118  1.00  0.00    +0.000 F 
ATOM     39  C32 UNL A   1      14.704  57.858   6.615  1.00  0.00    +0.000 C 
ATOM     40  F2  UNL A   1      15.467  58.194   7.663  1.00  0.00    +0.000 F 
ATOM     41  C33 UNL A   1      13.563  58.593   6.325  1.00  0.00    +0.000 C 
ATOM     42  F3  UNL A   1      13.235  59.651   7.081  1.00  0.00    +0.000 F 
ATOM     43  C34 UNL A   1      12.762  58.231   5.254  1.00  0.00    +0.000 C 
ATOM     44  F4  UNL A   1      11.669  58.950   4.962  1.00  0.00    +0.000 F 
ATOM     45  C35 UNL A   1      13.097  57.127   4.474  1.00  0.00    +0.000 C 
ATOM     46  F5  UNL A   1      12.302  56.802   3.442  1.00  0.00    +0.000 F 
ENDBRANCH   35   36
BRANCH   52   53
ATOM     53  C41 UNL A   1      18.720  55.451  -0.825  1.00  0.00    +0.000 C 
ATOM     54  C42 UNL A   1      18.397  55.855  -2.129  1.00  0.00    +0.000 C 
ATOM     55  F6  UNL A   1      17.255  55.443  -2.699  1.00  0.00    +0.000 F 
ATOM     56  C43 UNL A   1      19.261  56.665  -2.863  1.00  0.00    +0.000 C 
ATOM     57  F7  UNL A   1      18.946  57.011  -4.119  1.00  0.00    +0.000 F 
ATOM     58  C44 UNL A   1      20.449  57.107  -2.300  1.00  0.00    +0.000 C 
ATOM     59  F8  UNL A   1      21.273  57.896  -3.003  1.00  0.00    +0.000 F 
ATOM     60  C45 UNL A   1      20.784  56.729  -1.010  1.00  0.00    +0.000 C 
ATOM     61  F9  UNL A   1      21.926  57.166  -0.459  1.00  0.00    +0.000 F 
ATOM     62  C46 UNL A   1      19.935  55.899  -0.281  1.00  0.00    +0.000 C 
ATOM     63  F10 UNL A   1      20.288  55.548   0.964  1.00  0.00    +0.000 F 
ENDBRANCH   52   53
BRANCH   67   68
ATOM     68  C50 UNL A   1      16.956  48.710  -0.937  1.00  0.00    +0.000 C 
ATOM     69  C51 UNL A   1      16.243  48.339  -2.085  1.00  0.00    +0.000 C 
ATOM     70  F11 UNL A   1      15.127  49.001  -2.424  1.00  0.00    +0.000 F 
ATOM     71  C52 UNL A   1      16.653  47.263  -2.870  1.00  0.00    +0.000 C 
ATOM     72  F12 UNL A   1      15.933  46.907  -3.942  1.00  0.00    +0.000 F 
ATOM     73  C53 UNL A   1      17.797  46.555  -2.536  1.00  0.00    +0.000 C 
ATOM     74  F13 UNL A   1      18.200  45.529  -3.299  1.00  0.00    +0.000 F 
ATOM     75  C54 UNL A   1      18.522  46.907  -1.407  1.00  0.00    +0.000 C 
ATOM     76  F14 UNL A   1      19.636  46.234  -1.089  1.00  0.00    +0.000 F 
ATOM     77  C55 UNL A   1      18.096  47.964  -0.606  1.00  0.00    +0.000 C 
ATOM     78  F15 UNL A   1      18.807  48.272   0.488  1.00  0.00    +0.000 F 
ENDBRANCH   67   68
TORSDOF 19
ENDMDL
MODEL 3
REMARK VINA RESULT:      -9.1      2.863      7.141
ROOT
ATOM    129  H32 UNL A   1      18.488  50.765  -1.906  1.00  0.00    +0.000 H 
ATOM    130  H33 UNL A   1      19.014  53.280  -1.469  1.00  0.00    +0.000 H 
ATOM    131  H34 UNL A   1      16.108  52.067   1.223  1.00  0.00    +0.000 H 
ATOM    132  H35 UNL A   1      11.985  53.360   5.884  1.00  0.00    +0.000 H 
ATOM    133  H36 UNL A   1      11.746  50.838   5.732  1.00  0.00    +0.000 H 
ATOM    134  H37 UNL A   1      14.464  52.039   2.826  1.00  0.00    +0.000 H 
ATOM    135  H38 UNL A   1      15.299  56.954   3.796  1.00  0.00    +0.000 H 
ATOM    136  H39 UNL A   1      17.002  56.951   1.885  1.00  0.00    +0.000 H 
ATOM    137  H40 UNL A   1      15.229  47.185   0.341  1.00  0.00    +0.000 H 
ATOM    138  H41 UNL A   1      13.372  47.219   2.102  1.00  0.00    +0.000 H 
ATOM     31  C26 UNL A   1      13.244  49.642   3.616  1.00  0.00    +0.000 C 
ATOM     32  C27 UNL A   1      14.131  49.330   2.424  1.00  0.00    +0.000 C 
ATOM     33  N4  UNL A   1      15.007  50.093   1.813  1.00  0.00    +0.000 N 
ATOM     34  C28 UNL A   1      15.579  49.305   0.818  1.00  0.00    +0.000 C 
ATOM     35  C29 UNL A   1      16.517  49.634  -0.104  1.00  0.00    +0.000 C 
ATOM     47  C36 UNL A   1      17.099  50.943  -0.264  1.00  0.00    +0.000 C 
ATOM     48  C37 UNL A   1      18.052  51.356  -1.181  1.00  0.00    +0.000 C 
ATOM     49  C38 UNL A   1      18.325  52.709  -0.956  1.00  0.00    +0.000 C 
ATOM     50  C39 UNL A   1      17.508  53.149   0.070  1.00  0.00    +0.000 C 
ATOM     51  N5  UNL A   1      16.769  52.055   0.494  1.00  0.00    +0.000 N 
ATOM     52  C40 UNL A   1      17.408  54.470   0.634  1.00  0.00    +0.000 C 
ATOM     64  C47 UNL A   1      16.549  54.814   1.623  1.00  0.00    +0.000 C 
ATOM     65  N6  UNL A   1      15.620  54.016   2.280  1.00  0.00    +0.000 N 
ATOM     66  C48 UNL A   1      15.045  54.789   3.167  1.00  0.00    +0.000 C 
ATOM     67  C49 UNL A   1      13.961  54.459   4.157  1.00  0.00    +0.000 C 
ATOM     79  C56 UNL A   1      13.498  53.197   4.262  1.00  0.00    +0.000 C 
ATOM     80  C57 UNL A   1      12.498  52.749   5.229  1.00  0.00    +0.000 C 
ATOM     81  C58 UNL A   1      12.350  51.419   5.130  1.00  0.00    +0.000 C 
ATOM     82  C59 UNL A   1      13.182  50.923   4.035  1.00  0.00    +0.000 C 
ATOM     83  N7  UNL A   1      13.827  52.052   3.576  1.00  0.00    +0.000 N 
ATOM     84  C60 UNL A   1      15.562  56.168   3.181  1.00  0.00    +0.000 C 
ATOM     85  C61 UNL A   1      16.451  56.137   2.198  1.00  0.00    +0.000 C 
ATOM     86  C62 UNL A   1      14.965  47.998   0.919  1.00  0.00    +0.000 C 
ATOM     87  C63 UNL A   1      14.020  47.982   1.848  1.00  0.00    +0.000 C 
ENDROOT
BRANCH   31   30
ATOM    139  H42 UNL A   1      10.708  48.813   3.075  1.00  0.00    +0.000 H 
ATOM    140  H43 UNL A   1       9.282  47.356   4.390  1.00  0.00    +0.000 H 
ATOM     88  C64 UNL A   1      11.095  48.334   3.903  1.00  0.00    +0.000 C 
ATOM     89  C65 UNL A   1      10.274  47.474   4.652  1.00  0.00    +0.000 C 
ATOM     27  C22 UNL A   1      10.793  46.778   5.746  1.00  0.00    +0.000 C 
ATOM     28  C23 UNL A   1      12.158  46.855   6.008  1.00  0.00    +0.000 C 
ATOM     29  C24 UNL A   1      12.958  47.770   5.307  1.00  0.00    +0.000 C 
ATOM     30  C25 UNL A   1      12.434  48.555   4.266  1.00  0.00    +0.000 C 
ATOM    127  H30 UNL A   1      12.581  46.238   6.718  1.00  0.00    +0.000 H 
ATOM    128  H31 UNL A   1      13.953  47.868   5.562  1.00  0.00    +0.000 H 
BRANCH   27   25
ATOM     25  C21 UNL A   1       9.879  45.961   6.583  1.00  0.00    +0.000 C 
ATOM     26  O2  UNL A   1       9.846  44.745   6.410  1.00  0.00    +0.000 O 
BRANCH   25   24
ATOM    126  H29 UNL A   1       8.368  47.168   7.124  1.00  0.00    +0.000 H 
ATOM     24  N3  UNL A   1       9.032  46.547   7.504  1.00  0.00    +0.000 N 
BRANCH   24   23
ATOM    124  H27 UNL A   1       8.164  46.987   9.312  1.00  0.00    +0.000 H 
ATOM    125  H28 UNL A   1       8.844  45.341   9.124  1.00  0.00    +0.000 H 
ATOM     23  C20 UNL A   1       8.973  46.389   8.946  1.00  0.00    +0.000 C 
BRANCH   23   22
ATOM    122  H25 UNL A   1      10.511  47.774   9.366  1.00  0.00    +0.000 H 
ATOM    123  H26 UNL A   1       9.974  46.713  10.734  1.00  0.00    +0.000 H 
ATOM     22  C19 UNL A   1      10.241  46.794   9.700  1.00  0.00    +0.000 C 
BRANCH   22   21
ATOM    121  H24 UNL A   1      11.383  45.487   8.574  1.00  0.00    +0.000 H 
ATOM     21  C18 UNL A   1      11.478  45.906   9.553  1.00  0.00    +0.000 C 
ATOM    120  H23 UNL A   1      11.466  45.211  10.368  1.00  0.00    +0.000 H 
BRANCH   21   20
ATOM     20  C17 UNL A   1      12.861  46.565   9.545  1.00  0.00    +0.000 C 
ATOM    118  H21 UNL A   1      13.579  45.781   9.435  1.00  0.00    +0.000 H 
ATOM    119  H22 UNL A   1      12.792  47.279   8.751  1.00  0.00    +0.000 H 
BRANCH   20   19
ATOM     19  C16 UNL A   1      13.307  47.408  10.744  1.00  0.00    +0.000 C 
ATOM    116  H19 UNL A   1      12.419  47.799  11.195  1.00  0.00    +0.000 H 
ATOM    117  H20 UNL A   1      13.890  46.724  11.325  1.00  0.00    +0.000 H 
BRANCH   19   18
ATOM     18  C15 UNL A   1      14.251  48.587  10.531  1.00  0.00    +0.000 C 
ATOM    115  H18 UNL A   1      14.408  48.999  11.507  1.00  0.00    +0.000 H 
ATOM    114  H17 UNL A   1      13.788  49.251   9.831  1.00  0.00    +0.000 H 
BRANCH   18   17
ATOM     17  N2  UNL A   1      15.568  48.288  10.038  1.00  0.00    +0.000 N 
ATOM    113  H16 UNL A   1      15.877  47.374  10.235  1.00  0.00    +0.000 H 
BRANCH   17   15
ATOM     15  C14 UNL A   1      16.472  49.055   9.339  1.00  0.00    +0.000 C 
ATOM     16  O1  UNL A   1      17.533  49.287   9.930  1.00  0.00    +0.000 O 
BRANCH   15   14
ATOM      9  C8  UNL A   1      16.214  50.901   7.462  1.00  0.00    +0.000 C 
ATOM     10  C9  UNL A   1      16.313  51.146   6.066  1.00  0.00    +0.000 C 
ATOM     11  C10 UNL A   1      16.478  50.124   5.137  1.00  0.00    +0.000 C 
ATOM     12  C11 UNL A   1      16.561  48.819   5.586  1.00  0.00    +0.000 C 
ATOM    109  H12 UNL A   1      16.259  52.120   5.728  1.00  0.00    +0.000 H 
ATOM     14  C13 UNL A   1      16.343  49.576   7.932  1.00  0.00    +0.000 C 
ATOM     13  C12 UNL A   1      16.511  48.555   6.959  1.00  0.00    +0.000 C 
ATOM    110  H13 UNL A   1      16.539  50.337   4.130  1.00  0.00    +0.000 H 
ATOM    112  H15 UNL A   1      16.601  47.578   7.278  1.00  0.00    +0.000 H 
ATOM    111  H14 UNL A   1      16.658  48.044   4.911  1.00  0.00    +0.000 H 
BRANCH    9    8
ATOM    108  H11 UNL A   1      16.404  52.839   8.180  1.00  0.00    +0.000 H 
ATOM      8  N1  UNL A   1      15.846  52.029   8.238  1.00  0.00    +0.000 N 
BRANCH    8    7
ATOM      1  C1  UNL A   1      13.014  53.081  13.670  1.00  0.00    +0.000 C 
ATOM      2  C2  UNL A   1      14.022  52.178  12.925  1.00  0.00    +0.000 C 
ATOM      3  C3  UNL A   1      15.424  52.693  13.319  1.00  0.00    +0.000 C 
ATOM      4  C4  UNL A   1      13.846  50.732  13.427  1.00  0.00    +0.000 C 
ATOM      5  C5  UNL A   1      13.808  52.155  11.407  1.00  0.00    +0.000 C 
ATOM      6  C6  UNL A   1      14.881  52.248  10.485  1.00  0.00    +0.000 C 
ATOM      7  C7  UNL A   1      14.706  52.052   9.098  1.00  0.00    +0.000 C 
ATOM    141  H44 UNL A   1      13.238  51.790   7.598  1.00  0.00    +0.000 H 
ATOM    142  H45 UNL A   1       9.662  52.456  10.740  1.00  0.00    +0.000 H 
ATOM    143  H46 UNL A   1       9.803  50.711  10.805  1.00  0.00    +0.000 H 
ATOM     90  C66 UNL A   1      13.404  51.875   8.613  1.00  0.00    +0.000 C 
ATOM     91  C67 UNL A   1      12.341  51.816   9.497  1.00  0.00    +0.000 C 
ATOM     92  C68 UNL A   1      12.547  51.927  10.858  1.00  0.00    +0.000 C 
ATOM     93  O3  UNL A   1      11.403  51.745  11.586  1.00  0.00    +0.000 O 
ATOM     94  C69 UNL A   1      10.329  51.626  10.629  1.00  0.00    +0.000 C 
ATOM     95  C70 UNL A   1      10.895  51.616   9.196  1.00  0.00    +0.000 C 
ATOM     98  H1  UNL A   1      13.218  53.053  14.720  1.00  0.00    +0.000 H 
ATOM     99  H2  UNL A   1      12.020  52.730  13.490  1.00  0.00    +0.000 H 
ATOM    100  H3  UNL A   1      13.107  54.087  13.316  1.00  0.00    +0.000 H 
ATOM    101  H4  UNL A   1      15.519  52.688  14.385  1.00  0.00    +0.000 H 
ATOM    102  H5  UNL A   1      15.554  53.690  12.954  1.00  0.00    +0.000 H 
ATOM    103  H6  UNL A   1      16.171  52.055  12.893  1.00  0.00    +0.000 H 
ATOM    104  H7  UNL A   1      13.988  50.702  14.488  1.00  0.00    +0.000 H 
ATOM    105  H8  UNL A   1      14.568  50.100  12.954  1.00  0.00    +0.000 H 
ATOM    106  H9  UNL A   1      12.861  50.389  13.190  1.00  0.00    +0.000 H 
ATOM    107  H10 UNL A   1      15.824  52.467  10.840  1.00  0.00    +0.000 H 
BRANCH   95   96
ATOM    145  H48 UNL A   1      11.082  53.104   7.668  1.00  0.00    +0.000 H 
ATOM    146  H49 UNL A   1      10.094  53.594   9.023  1.00  0.00    +0.000 H 
ATOM    144  H47 UNL A   1       9.467  52.464   7.846  1.00  0.00    +0.000 H 
ATOM     96  C71 UNL A   1      10.343  52.782   8.371  1.00  0.00    +0.000 C 
ENDBRANCH   95   96
BRANCH   95   97
ATOM     97  C72 UNL A   1      10.623  50.283   8.495  1.00  0.00    +0.000 C 
ATOM    147  H50 UNL A   1      10.999  50.323   7.494  1.00  0.00    +0.000 H 
ATOM    148  H51 UNL A   1       9.570  50.100   8.472  1.00  0.00    +0.000 H 
ATOM    149  H52 UNL A   1      11.112  49.493   9.027  1.00  0.00    +0.000 H 
ENDBRANCH   95   97
ENDBRANCH    8    7
ENDBRANCH    9    8
ENDBRANCH   15   14
ENDBRANCH   17   15
ENDBRANCH   18   17
ENDBRANCH   19   18
ENDBRANCH   20   19
ENDBRANCH   21   20
ENDBRANCH   22   21
ENDBRANCH   23   22
ENDBRANCH   24   23
ENDBRANCH   25   24
ENDBRANCH   27   25
ENDBRANCH   31   30
BRANCH   35   36
ATOM     36  C30 UNL A   1      16.996  48.556  -1.036  1.00  0.00    +0.000 C 
ATOM     37  C31 UNL A   1      16.370  48.315  -2.267  1.00  0.00    +0.000 C 
ATOM     38  F1  UNL A   1      15.261  48.990  -2.603  1.00  0.00    +0.000 F 
ATOM     39  C32 UNL A   1      16.871  47.362  -3.150  1.00  0.00    +0.000 C 
ATOM     40  F2  UNL A   1      16.239  47.126  -4.307  1.00  0.00    +0.000 F 
ATOM     41  C33 UNL A   1      18.022  46.655  -2.834  1.00  0.00    +0.000 C 
ATOM     42  F3  UNL A   1      18.514  45.752  -3.694  1.00  0.00    +0.000 F 
ATOM     43  C34 UNL A   1      18.663  46.883  -1.627  1.00  0.00    +0.000 C 
ATOM     44  F4  UNL A   1      19.786  46.214  -1.327  1.00  0.00    +0.000 F 
ATOM     45  C35 UNL A   1      18.149  47.815  -0.729  1.00  0.00    +0.000 C 
ATOM     46  F5  UNL A   1      18.793  48.016   0.431  1.00  0.00    +0.000 F 
ENDBRANCH   35   36
BRANCH   52   53
ATOM     53  C41 UNL A   1      18.305  55.539   0.081  1.00  0.00    +0.000 C 
ATOM     54  C42 UNL A   1      19.515  55.877   0.704  1.00  0.00    +0.000 C 
ATOM     55  F6  UNL A   1      19.864  55.293   1.861  1.00  0.00    +0.000 F 
ATOM     56  C43 UNL A   1      20.363  56.835   0.153  1.00  0.00    +0.000 C 
ATOM     57  F7  UNL A   1      21.498  57.166   0.785  1.00  0.00    +0.000 F 
ATOM     58  C44 UNL A   1      20.030  57.455  -1.042  1.00  0.00    +0.000 C 
ATOM     59  F8  UNL A   1      20.852  58.368  -1.578  1.00  0.00    +0.000 F 
ATOM     60  C45 UNL A   1      18.844  57.130  -1.682  1.00  0.00    +0.000 C 
ATOM     61  F9  UNL A   1      18.527  57.718  -2.844  1.00  0.00    +0.000 F 
ATOM     62  C46 UNL A   1      17.983  56.190  -1.121  1.00  0.00    +0.000 C 
ATOM     63  F10 UNL A   1      16.841  55.899  -1.761  1.00  0.00    +0.000 F 
ENDBRANCH   52   53
BRANCH   67   68
ATOM     68  C50 UNL A   1      13.403  55.524   5.033  1.00  0.00    +0.000 C 
ATOM     69  C51 UNL A   1      12.467  56.442   4.537  1.00  0.00    +0.000 C 
ATOM     70  F11 UNL A   1      12.092  56.387   3.251  1.00  0.00    +0.000 F 
ATOM     71  C52 UNL A   1      11.938  57.442   5.351  1.00  0.00    +0.000 C 
ATOM     72  F12 UNL A   1      11.073  58.329   4.841  1.00  0.00    +0.000 F 
ATOM     73  C53 UNL A   1      12.317  57.528   6.682  1.00  0.00    +0.000 C 
ATOM     74  F13 UNL A   1      11.799  58.482   7.468  1.00  0.00    +0.000 F 
ATOM     75  C54 UNL A   1      13.238  56.628   7.196  1.00  0.00    +0.000 C 
ATOM     76  F14 UNL A   1      13.597  56.700   8.485  1.00  0.00    +0.000 F 
ATOM     77  C55 UNL A   1      13.788  55.646   6.376  1.00  0.00    +0.000 C 
ATOM     78  F15 UNL A   1      14.688  54.799   6.896  1.00  0.00    +0.000 F 
ENDBRANCH   67   68
TORSDOF 19
ENDMDL
MODEL 4
REMARK VINA RESULT:      -9.0      1.022      2.514
ROOT
ATOM    129  H32 UNL A   1      13.355  46.371   2.614  1.00  0.00    +0.000 H 
ATOM    130  H33 UNL A   1      15.029  46.673   0.640  1.00  0.00    +0.000 H 
ATOM    131  H34 UNL A   1      14.761  50.265   2.687  1.00  0.00    +0.000 H 
ATOM    132  H35 UNL A   1      16.255  56.411   3.314  1.00  0.00    +0.000 H 
ATOM    133  H36 UNL A   1      14.941  56.026   5.452  1.00  0.00    +0.000 H 
ATOM    134  H37 UNL A   1      14.946  52.470   3.300  1.00  0.00    +0.000 H 
ATOM    135  H38 UNL A   1      18.190  53.281  -0.522  1.00  0.00    +0.000 H 
ATOM    136  H39 UNL A   1      17.809  50.856  -1.245  1.00  0.00    +0.000 H 
ATOM    137  H40 UNL A   1      11.568  49.544   6.517  1.00  0.00    +0.000 H 
ATOM    138  H41 UNL A   1      11.770  52.020   7.129  1.00  0.00    +0.000 H 
ATOM     31  C26 UNL A   1      13.793  53.421   5.672  1.00  0.00    +0.000 C 
ATOM     32  C27 UNL A   1      13.324  51.990   5.480  1.00  0.00    +0.000 C 
ATOM     33  N4  UNL A   1      13.714  51.094   4.604  1.00  0.00    +0.000 N 
ATOM     34  C28 UNL A   1      13.003  49.934   4.894  1.00  0.00    +0.000 C 
ATOM     35  C29 UNL A   1      13.025  48.733   4.264  1.00  0.00    +0.000 C 
ATOM     47  C36 UNL A   1      13.798  48.429   3.087  1.00  0.00    +0.000 C 
ATOM     48  C37 UNL A   1      13.869  47.235   2.386  1.00  0.00    +0.000 C 
ATOM     49  C38 UNL A   1      14.756  47.401   1.318  1.00  0.00    +0.000 C 
ATOM     50  C39 UNL A   1      15.203  48.711   1.327  1.00  0.00    +0.000 C 
ATOM     51  N5  UNL A   1      14.617  49.328   2.422  1.00  0.00    +0.000 N 
ATOM     52  C40 UNL A   1      16.105  49.358   0.410  1.00  0.00    +0.000 C 
ATOM     64  C47 UNL A   1      16.460  50.663   0.483  1.00  0.00    +0.000 C 
ATOM     65  N6  UNL A   1      16.056  51.620   1.406  1.00  0.00    +0.000 N 
ATOM     66  C48 UNL A   1      16.683  52.722   1.079  1.00  0.00    +0.000 C 
ATOM     67  C49 UNL A   1      16.626  54.078   1.728  1.00  0.00    +0.000 C 
ATOM     79  C56 UNL A   1      15.901  54.265   2.850  1.00  0.00    +0.000 C 
ATOM     80  C57 UNL A   1      15.825  55.517   3.600  1.00  0.00    +0.000 C 
ATOM     81  C58 UNL A   1      15.107  55.321   4.716  1.00  0.00    +0.000 C 
ATOM     82  C59 UNL A   1      14.597  53.952   4.726  1.00  0.00    +0.000 C 
ATOM     83  N7  UNL A   1      15.119  53.399   3.576  1.00  0.00    +0.000 N 
ATOM     84  C60 UNL A   1      17.572  52.579  -0.087  1.00  0.00    +0.000 C 
ATOM     85  C61 UNL A   1      17.371  51.314  -0.431  1.00  0.00    +0.000 C 
ATOM     86  C62 UNL A   1      12.171  50.232   6.040  1.00  0.00    +0.000 C 
ATOM     87  C63 UNL A   1      12.282  51.504   6.396  1.00  0.00    +0.000 C 
ENDROOT
BRANCH   31   30
ATOM    139  H42 UNL A   1      15.014  53.824   8.072  1.00  0.00    +0.000 H 
ATOM    140  H43 UNL A   1      14.077  54.761  10.104  1.00  0.00    +0.000 H 
ATOM     88  C64 UNL A   1      14.067  54.234   8.054  1.00  0.00    +0.000 C 
ATOM     89  C65 UNL A   1      13.534  54.796   9.226  1.00  0.00    +0.000 C 
ATOM     27  C22 UNL A   1      12.275  55.401   9.211  1.00  0.00    +0.000 C 
ATOM     28  C23 UNL A   1      11.612  55.547   7.995  1.00  0.00    +0.000 C 
ATOM     29  C24 UNL A   1      12.111  54.920   6.843  1.00  0.00    +0.000 C 
ATOM     30  C25 UNL A   1      13.330  54.220   6.858  1.00  0.00    +0.000 C 
ATOM    127  H30 UNL A   1      10.754  56.116   7.942  1.00  0.00    +0.000 H 
ATOM    128  H31 UNL A   1      11.571  54.976   5.965  1.00  0.00    +0.000 H 
BRANCH   27   25
ATOM     25  C21 UNL A   1      11.691  55.890  10.485  1.00  0.00    +0.000 C 
ATOM     26  O2  UNL A   1      11.250  57.035  10.534  1.00  0.00    +0.000 O 
BRANCH   25   24
ATOM    126  H29 UNL A   1      11.768  54.136  11.460  1.00  0.00    +0.000 H 
ATOM     24  N3  UNL A   1      11.689  55.104  11.622  1.00  0.00    +0.000 N 
BRANCH   24   23
ATOM    124  H27 UNL A   1      11.914  56.503  13.107  1.00  0.00    +0.000 H 
ATOM    125  H28 UNL A   1      10.558  55.348  13.288  1.00  0.00    +0.000 H 
ATOM     23  C20 UNL A   1      11.584  55.489  13.018  1.00  0.00    +0.000 C 
BRANCH   23   22
ATOM    122  H25 UNL A   1      12.927  55.310  14.638  1.00  0.00    +0.000 H 
ATOM    123  H26 UNL A   1      11.676  54.010  14.469  1.00  0.00    +0.000 H 
ATOM     22  C19 UNL A   1      12.400  54.638  13.993  1.00  0.00    +0.000 C 
BRANCH   22   21
ATOM    121  H24 UNL A   1      14.338  53.916  13.915  1.00  0.00    +0.000 H 
ATOM     21  C18 UNL A   1      13.428  53.666  13.411  1.00  0.00    +0.000 C 
ATOM    120  H23 UNL A   1      13.423  53.801  12.349  1.00  0.00    +0.000 H 
BRANCH   21   20
ATOM     20  C17 UNL A   1      13.255  52.167  13.675  1.00  0.00    +0.000 C 
ATOM    118  H21 UNL A   1      13.063  52.056  14.721  1.00  0.00    +0.000 H 
ATOM    119  H22 UNL A   1      12.472  51.884  13.003  1.00  0.00    +0.000 H 
BRANCH   20   19
ATOM     19  C16 UNL A   1      14.389  51.198  13.327  1.00  0.00    +0.000 C 
ATOM    116  H19 UNL A   1      14.736  50.783  14.250  1.00  0.00    +0.000 H 
ATOM    117  H20 UNL A   1      13.936  50.526  12.628  1.00  0.00    +0.000 H 
BRANCH   19   18
ATOM     18  C15 UNL A   1      15.618  51.708  12.582  1.00  0.00    +0.000 C 
ATOM    115  H18 UNL A   1      16.345  50.928  12.675  1.00  0.00    +0.000 H 
ATOM    114  H17 UNL A   1      15.900  52.642  13.023  1.00  0.00    +0.000 H 
BRANCH   18   17
ATOM     17  N2  UNL A   1      15.481  51.923  11.167  1.00  0.00    +0.000 N 
ATOM    113  H16 UNL A   1      15.973  52.704  10.825  1.00  0.00    +0.000 H 
BRANCH   17   15
ATOM     15  C14 UNL A   1      14.783  51.226  10.206  1.00  0.00    +0.000 C 
ATOM     16  O1  UNL A   1      13.555  51.362  10.247  1.00  0.00    +0.000 O 
BRANCH   15   14
ATOM      9  C8  UNL A   1      15.278  48.991   8.881  1.00  0.00    +0.000 C 
ATOM     10  C9  UNL A   1      15.716  48.463   7.637  1.00  0.00    +0.000 C 
ATOM     11  C10 UNL A   1      16.258  49.260   6.635  1.00  0.00    +0.000 C 
ATOM     12  C11 UNL A   1      16.367  50.622   6.849  1.00  0.00    +0.000 C 
ATOM    109  H12 UNL A   1      15.629  47.448   7.470  1.00  0.00    +0.000 H 
ATOM     14  C13 UNL A   1      15.343  50.386   9.090  1.00  0.00    +0.000 C 
ATOM     13  C12 UNL A   1      15.902  51.173   8.048  1.00  0.00    +0.000 C 
ATOM    110  H13 UNL A   1      16.573  48.842   5.746  1.00  0.00    +0.000 H 
ATOM    112  H15 UNL A   1      15.966  52.194   8.180  1.00  0.00    +0.000 H 
ATOM    111  H14 UNL A   1      16.789  51.228   6.128  1.00  0.00    +0.000 H 
BRANCH    9    8
ATOM    108  H11 UNL A   1      15.643  47.383  10.141  1.00  0.00    +0.000 H 
ATOM      8  N1  UNL A   1      14.945  48.016   9.856  1.00  0.00    +0.000 N 
BRANCH    8    7
ATOM      1  C1  UNL A   1       8.740  47.758   9.607  1.00  0.00    +0.000 C 
ATOM      2  C2  UNL A   1       9.974  48.667   9.419  1.00  0.00    +0.000 C 
ATOM      3  C3  UNL A   1      10.241  48.712   7.898  1.00  0.00    +0.000 C 
ATOM      4  C4  UNL A   1       9.620  50.080   9.921  1.00  0.00    +0.000 C 
ATOM      5  C5  UNL A   1      11.197  48.201  10.219  1.00  0.00    +0.000 C 
ATOM      6  C6  UNL A   1      12.502  48.167   9.665  1.00  0.00    +0.000 C 
ATOM      7  C7  UNL A   1      13.648  47.907  10.445  1.00  0.00    +0.000 C 
ATOM    141  H44 UNL A   1      14.284  47.302  12.370  1.00  0.00    +0.000 H 
ATOM    142  H45 UNL A   1       9.764  46.539  13.812  1.00  0.00    +0.000 H 
ATOM    143  H46 UNL A   1       9.976  48.195  14.342  1.00  0.00    +0.000 H 
ATOM     90  C66 UNL A   1      13.470  47.556  11.790  1.00  0.00    +0.000 C 
ATOM     91  C67 UNL A   1      12.199  47.551  12.337  1.00  0.00    +0.000 C 
ATOM     92  C68 UNL A   1      11.100  47.890  11.574  1.00  0.00    +0.000 C 
ATOM     93  O3  UNL A   1       9.940  47.931  12.300  1.00  0.00    +0.000 O 
ATOM     94  C69 UNL A   1      10.275  47.461  13.623  1.00  0.00    +0.000 C 
ATOM     95  C70 UNL A   1      11.794  47.232  13.736  1.00  0.00    +0.000 C 
ATOM     98  H1  UNL A   1       7.925  48.137   9.024  1.00  0.00    +0.000 H 
ATOM     99  H2  UNL A   1       8.462  47.742  10.640  1.00  0.00    +0.000 H 
ATOM    100  H3  UNL A   1       8.976  46.765   9.285  1.00  0.00    +0.000 H 
ATOM    101  H4  UNL A   1       9.358  49.042   7.392  1.00  0.00    +0.000 H 
ATOM    102  H5  UNL A   1      10.505  47.734   7.554  1.00  0.00    +0.000 H 
ATOM    103  H6  UNL A   1      11.043  49.391   7.697  1.00  0.00    +0.000 H 
ATOM    104  H7  UNL A   1       8.769  50.446   9.386  1.00  0.00    +0.000 H 
ATOM    105  H8  UNL A   1      10.451  50.735   9.756  1.00  0.00    +0.000 H 
ATOM    106  H9  UNL A   1       9.396  50.043  10.965  1.00  0.00    +0.000 H 
ATOM    107  H10 UNL A   1      12.617  48.339   8.654  1.00  0.00    +0.000 H 
BRANCH   95   96
ATOM    145  H48 UNL A   1      12.357  45.242  13.181  1.00  0.00    +0.000 H 
ATOM    146  H49 UNL A   1      11.262  45.321  14.540  1.00  0.00    +0.000 H 
ATOM    144  H47 UNL A   1      12.946  45.739  14.749  1.00  0.00    +0.000 H 
ATOM     96  C71 UNL A   1      12.114  45.774  14.077  1.00  0.00    +0.000 C 
ENDBRANCH   95   96
BRANCH   95   97
ATOM     97  C72 UNL A   1      12.430  48.177  14.759  1.00  0.00    +0.000 C 
ATOM    147  H50 UNL A   1      12.836  47.606  15.567  1.00  0.00    +0.000 H 
ATOM    148  H51 UNL A   1      11.686  48.848  15.135  1.00  0.00    +0.000 H 
ATOM    149  H52 UNL A   1      13.212  48.737  14.290  1.00  0.00    +0.000 H 
ENDBRANCH   95   97
ENDBRANCH    8    7
ENDBRANCH    9    8
ENDBRANCH   15   14
ENDBRANCH   17   15
ENDBRANCH   18   17
ENDBRANCH   19   18
ENDBRANCH   20   19
ENDBRANCH   21   20
ENDBRANCH   22   21
ENDBRANCH   23   22
ENDBRANCH   24   23
ENDBRANCH   25   24
ENDBRANCH   27   25
ENDBRANCH   31   30
BRANCH   35   36
ATOM     36  C30 UNL A   1      12.183  47.625   4.832  1.00  0.00    +0.000 C 
ATOM     37  C31 UNL A   1      12.678  46.750   5.809  1.00  0.00    +0.000 C 
ATOM     38  F1  UNL A   1      13.959  46.827   6.196  1.00  0.00    +0.000 F 
ATOM     39  C32 UNL A   1      11.860  45.775   6.376  1.00  0.00    +0.000 C 
ATOM     40  F2  UNL A   1      12.362  44.929   7.285  1.00  0.00    +0.000 F 
ATOM     41  C33 UNL A   1      10.528  45.677   6.002  1.00  0.00    +0.000 C 
ATOM     42  F3  UNL A   1       9.738  44.751   6.563  1.00  0.00    +0.000 F 
ATOM     43  C34 UNL A   1      10.014  46.539   5.045  1.00  0.00    +0.000 C 
ATOM     44  F4  UNL A   1       8.723  46.458   4.694  1.00  0.00    +0.000 F 
ATOM     45  C35 UNL A   1      10.836  47.496   4.455  1.00  0.00    +0.000 C 
ATOM     46  F5  UNL A   1      10.310  48.317   3.533  1.00  0.00    +0.000 F 
ENDBRANCH   35   36
BRANCH   52   53
ATOM     53  C41 UNL A   1      16.677  48.536  -0.708  1.00  0.00    +0.000 C 
ATOM     54  C42 UNL A   1      17.944  47.942  -0.608  1.00  0.00    +0.000 C 
ATOM     55  F6  UNL A   1      18.707  48.159   0.474  1.00  0.00    +0.000 F 
ATOM     56  C43 UNL A   1      18.443  47.141  -1.632  1.00  0.00    +0.000 C 
ATOM     57  F7  UNL A   1      19.670  46.611  -1.529  1.00  0.00    +0.000 F 
ATOM     58  C44 UNL A   1      17.677  46.897  -2.762  1.00  0.00    +0.000 C 
ATOM     59  F8  UNL A   1      18.154  46.116  -3.742  1.00  0.00    +0.000 F 
ATOM     60  C45 UNL A   1      16.418  47.465  -2.879  1.00  0.00    +0.000 C 
ATOM     61  F9  UNL A   1      15.671  47.220  -3.965  1.00  0.00    +0.000 F 
ATOM     62  C46 UNL A   1      15.926  48.287  -1.868  1.00  0.00    +0.000 C 
ATOM     63  F10 UNL A   1      14.706  48.824  -2.011  1.00  0.00    +0.000 F 
ENDBRANCH   52   53
BRANCH   67   68
ATOM     68  C50 UNL A   1      17.379  55.219   1.139  1.00  0.00    +0.000 C 
ATOM     69  C51 UNL A   1      18.661  55.546   1.602  1.00  0.00    +0.000 C 
ATOM     70  F11 UNL A   1      19.207  54.850   2.609  1.00  0.00    +0.000 F 
ATOM     71  C52 UNL A   1      19.373  56.612   1.055  1.00  0.00    +0.000 C 
ATOM     72  F12 UNL A   1      20.581  56.927   1.541  1.00  0.00    +0.000 F 
ATOM     73  C53 UNL A   1      18.826  57.355   0.020  1.00  0.00    +0.000 C 
ATOM     74  F13 UNL A   1      19.516  58.372  -0.515  1.00  0.00    +0.000 F 
ATOM     75  C54 UNL A   1      17.561  57.047  -0.458  1.00  0.00    +0.000 C 
ATOM     76  F14 UNL A   1      17.035  57.754  -1.467  1.00  0.00    +0.000 F 
ATOM     77  C55 UNL A   1      16.837  55.999   0.107  1.00  0.00    +0.000 C 
ATOM     78  F15 UNL A   1      15.611  55.733  -0.364  1.00  0.00    +0.000 F 
ENDBRANCH   67   68
TORSDOF 19
ENDMDL
MODEL 5
REMARK VINA RESULT:      -9.0      1.404      4.148
ROOT
ATOM    129  H32 UNL A   1      12.994  46.419   3.315  1.00  0.00    +0.000 H 
ATOM    130  H33 UNL A   1      14.652  46.686   1.322  1.00  0.00    +0.000 H 
ATOM    131  H34 UNL A   1      14.426  50.304   3.328  1.00  0.00    +0.000 H 
ATOM    132  H35 UNL A   1      15.964  56.447   3.869  1.00  0.00    +0.000 H 
ATOM    133  H36 UNL A   1      14.668  56.096   6.022  1.00  0.00    +0.000 H 
ATOM    134  H37 UNL A   1      14.631  52.515   3.913  1.00  0.00    +0.000 H 
ATOM    135  H38 UNL A   1      17.845  53.259   0.053  1.00  0.00    +0.000 H 
ATOM    136  H39 UNL A   1      17.442  50.828  -0.637  1.00  0.00    +0.000 H 
ATOM    137  H40 UNL A   1      11.263  49.649   7.195  1.00  0.00    +0.000 H 
ATOM    138  H41 UNL A   1      11.486  52.132   7.775  1.00  0.00    +0.000 H 
ATOM     31  C26 UNL A   1      13.505  53.502   6.283  1.00  0.00    +0.000 C 
ATOM     32  C27 UNL A   1      13.025  52.072   6.113  1.00  0.00    +0.000 C 
ATOM     33  N4  UNL A   1      13.402  51.163   5.244  1.00  0.00    +0.000 N 
ATOM     34  C28 UNL A   1      12.686  50.011   5.555  1.00  0.00    +0.000 C 
ATOM     35  C29 UNL A   1      12.695  48.802   4.939  1.00  0.00    +0.000 C 
ATOM     47  C36 UNL A   1      13.455  48.480   3.759  1.00  0.00    +0.000 C 
ATOM     48  C37 UNL A   1      13.512  47.277   3.072  1.00  0.00    +0.000 C 
ATOM     49  C38 UNL A   1      14.390  47.424   1.994  1.00  0.00    +0.000 C 
ATOM     50  C39 UNL A   1      14.846  48.731   1.983  1.00  0.00    +0.000 C 
ATOM     51  N5  UNL A   1      14.274  49.365   3.076  1.00  0.00    +0.000 N 
ATOM     52  C40 UNL A   1      15.743  49.361   1.051  1.00  0.00    +0.000 C 
ATOM     64  C47 UNL A   1      16.107  50.665   1.105  1.00  0.00    +0.000 C 
ATOM     65  N6  UNL A   1      15.718  51.635   2.020  1.00  0.00    +0.000 N 
ATOM     66  C48 UNL A   1      16.350  52.729   1.674  1.00  0.00    +0.000 C 
ATOM     67  C49 UNL A   1      16.307  54.094   2.307  1.00  0.00    +0.000 C 
ATOM     79  C56 UNL A   1      15.593  54.298   3.433  1.00  0.00    +0.000 C 
ATOM     80  C57 UNL A   1      15.531  55.559   4.169  1.00  0.00    +0.000 C 
ATOM     81  C58 UNL A   1      14.822  55.382   5.294  1.00  0.00    +0.000 C 
ATOM     82  C59 UNL A   1      14.303  54.016   5.325  1.00  0.00    +0.000 C 
ATOM     83  N7  UNL A   1      14.812  53.446   4.177  1.00  0.00    +0.000 N 
ATOM     84  C60 UNL A   1      17.226  52.567   0.502  1.00  0.00    +0.000 C 
ATOM     85  C61 UNL A   1      17.015  51.299   0.175  1.00  0.00    +0.000 C 
ATOM     86  C62 UNL A   1      11.865  50.328   6.705  1.00  0.00    +0.000 C 
ATOM     87  C63 UNL A   1      11.989  51.604   7.045  1.00  0.00    +0.000 C 
ENDROOT
BRANCH   31   30
ATOM    139  H42 UNL A   1      14.437  53.503   8.842  1.00  0.00    +0.000 H 
ATOM    140  H43 UNL A   1      13.442  54.511  10.811  1.00  0.00    +0.000 H 
ATOM     88  C64 UNL A   1      13.607  54.108   8.740  1.00  0.00    +0.000 C 
ATOM     89  C65 UNL A   1      13.045  54.709   9.878  1.00  0.00    +0.000 C 
ATOM     27  C22 UNL A   1      11.954  55.572   9.756  1.00  0.00    +0.000 C 
ATOM     28  C23 UNL A   1      11.512  55.923   8.483  1.00  0.00    +0.000 C 
ATOM     29  C24 UNL A   1      12.025  55.265   7.354  1.00  0.00    +0.000 C 
ATOM     30  C25 UNL A   1      13.057  54.318   7.464  1.00  0.00    +0.000 C 
ATOM    127  H30 UNL A   1      10.806  56.666   8.370  1.00  0.00    +0.000 H 
ATOM    128  H31 UNL A   1      11.636  55.483   6.424  1.00  0.00    +0.000 H 
BRANCH   27   25
ATOM     25  C21 UNL A   1      11.313  56.108  10.983  1.00  0.00    +0.000 C 
ATOM     26  O2  UNL A   1      10.933  57.276  10.992  1.00  0.00    +0.000 O 
BRANCH   25   24
ATOM    126  H29 UNL A   1      12.042  55.056  12.530  1.00  0.00    +0.000 H 
ATOM     24  N3  UNL A   1      11.191  55.337  12.124  1.00  0.00    +0.000 N 
BRANCH   24   23
ATOM    124  H27 UNL A   1      10.232  54.780  13.851  1.00  0.00    +0.000 H 
ATOM    125  H28 UNL A   1       9.240  55.606  12.610  1.00  0.00    +0.000 H 
ATOM     23  C20 UNL A   1       9.998  54.877  12.812  1.00  0.00    +0.000 C 
BRANCH   23   22
ATOM    122  H25 UNL A   1      10.162  52.787  12.560  1.00  0.00    +0.000 H 
ATOM    123  H26 UNL A   1       8.496  53.446  12.825  1.00  0.00    +0.000 H 
ATOM     22  C19 UNL A   1       9.438  53.538  12.326  1.00  0.00    +0.000 C 
BRANCH   22   21
ATOM    121  H24 UNL A   1       9.189  54.394  10.459  1.00  0.00    +0.000 H 
ATOM     21  C18 UNL A   1       9.100  53.399  10.840  1.00  0.00    +0.000 C 
ATOM    120  H23 UNL A   1       8.128  52.954  10.779  1.00  0.00    +0.000 H 
BRANCH   21   20
ATOM     20  C17 UNL A   1      10.031  52.571   9.948  1.00  0.00    +0.000 C 
ATOM    118  H21 UNL A   1       9.573  52.521   8.983  1.00  0.00    +0.000 H 
ATOM    119  H22 UNL A   1      10.966  53.087  10.017  1.00  0.00    +0.000 H 
BRANCH   20   19
ATOM     19  C16 UNL A   1      10.386  51.136  10.346  1.00  0.00    +0.000 C 
ATOM    116  H19 UNL A   1      10.911  50.705   9.520  1.00  0.00    +0.000 H 
ATOM    117  H20 UNL A   1      10.930  51.259  11.260  1.00  0.00    +0.000 H 
BRANCH   19   18
ATOM     18  C15 UNL A   1       9.277  50.158  10.724  1.00  0.00    +0.000 C 
ATOM    115  H18 UNL A   1       9.214  49.477   9.900  1.00  0.00    +0.000 H 
ATOM    114  H17 UNL A   1       8.390  50.729  10.906  1.00  0.00    +0.000 H 
BRANCH   18   17
ATOM     17  N2  UNL A   1       9.502  49.330  11.876  1.00  0.00    +0.000 N 
ATOM    113  H16 UNL A   1       9.718  49.827  12.698  1.00  0.00    +0.000 H 
BRANCH   17   15
ATOM     15  C14 UNL A   1       9.468  47.962  12.032  1.00  0.00    +0.000 C 
ATOM     16  O1  UNL A   1       8.443  47.411  11.615  1.00  0.00    +0.000 O 
BRANCH   15   14
ATOM      9  C8  UNL A   1      11.908  46.958  12.220  1.00  0.00    +0.000 C 
ATOM     10  C9  UNL A   1      12.775  46.183  13.035  1.00  0.00    +0.000 C 
ATOM     11  C10 UNL A   1      12.326  45.485  14.152  1.00  0.00    +0.000 C 
ATOM     12  C11 UNL A   1      10.987  45.555  14.491  1.00  0.00    +0.000 C 
ATOM    109  H12 UNL A   1      13.776  46.134  12.790  1.00  0.00    +0.000 H 
ATOM     14  C13 UNL A   1      10.549  47.072  12.585  1.00  0.00    +0.000 C 
ATOM     13  C12 UNL A   1      10.121  46.348  13.729  1.00  0.00    +0.000 C 
ATOM    110  H13 UNL A   1      12.982  44.925  14.718  1.00  0.00    +0.000 H 
ATOM    112  H15 UNL A   1       9.131  46.410  14.012  1.00  0.00    +0.000 H 
ATOM    111  H14 UNL A   1      10.629  45.025  15.301  1.00  0.00    +0.000 H 
BRANCH    9    8
ATOM    108  H11 UNL A   1      12.347  46.913  10.192  1.00  0.00    +0.000 H 
ATOM      8  N1  UNL A   1      12.491  47.431  11.017  1.00  0.00    +0.000 N 
BRANCH    8    7
ATOM      1  C1  UNL A   1      16.082  51.527   8.023  1.00  0.00    +0.000 C 
ATOM      2  C2  UNL A   1      16.007  50.093   8.594  1.00  0.00    +0.000 C 
ATOM      3  C3  UNL A   1      15.696  49.173   7.393  1.00  0.00    +0.000 C 
ATOM      4  C4  UNL A   1      17.386  49.728   9.177  1.00  0.00    +0.000 C 
ATOM      5  C5  UNL A   1      14.987  49.947   9.729  1.00  0.00    +0.000 C 
ATOM      6  C6  UNL A   1      14.090  48.851   9.811  1.00  0.00    +0.000 C 
ATOM      7  C7  UNL A   1      13.275  48.623  10.940  1.00  0.00    +0.000 C 
ATOM    141  H44 UNL A   1      12.643  49.474  12.770  1.00  0.00    +0.000 H 
ATOM    142  H45 UNL A   1      15.006  53.564  11.883  1.00  0.00    +0.000 H 
ATOM    143  H46 UNL A   1      16.228  52.697  12.792  1.00  0.00    +0.000 H 
ATOM     90  C66 UNL A   1      13.273  49.582  11.960  1.00  0.00    +0.000 C 
ATOM     91  C67 UNL A   1      14.117  50.676  11.880  1.00  0.00    +0.000 C 
ATOM     92  C68 UNL A   1      14.967  50.834  10.804  1.00  0.00    +0.000 C 
ATOM     93  O3  UNL A   1      15.800  51.912  10.937  1.00  0.00    +0.000 O 
ATOM     94  C69 UNL A   1      15.386  52.596  12.139  1.00  0.00    +0.000 C 
ATOM     95  C70 UNL A   1      14.285  51.790  12.855  1.00  0.00    +0.000 C 
ATOM     98  H1  UNL A   1      16.809  51.560   7.237  1.00  0.00    +0.000 H 
ATOM     99  H2  UNL A   1      16.365  52.206   8.799  1.00  0.00    +0.000 H 
ATOM    100  H3  UNL A   1      15.125  51.806   7.634  1.00  0.00    +0.000 H 
ATOM    101  H4  UNL A   1      16.436  49.317   6.633  1.00  0.00    +0.000 H 
ATOM    102  H5  UNL A   1      14.731  49.415   6.999  1.00  0.00    +0.000 H 
ATOM    103  H6  UNL A   1      15.707  48.153   7.713  1.00  0.00    +0.000 H 
ATOM    104  H7  UNL A   1      18.131  49.816   8.415  1.00  0.00    +0.000 H 
ATOM    105  H8  UNL A   1      17.364  48.720   9.537  1.00  0.00    +0.000 H 
ATOM    106  H9  UNL A   1      17.620  50.390   9.983  1.00  0.00    +0.000 H 
ATOM    107  H10 UNL A   1      14.033  48.196   9.015  1.00  0.00    +0.000 H 
BRANCH   95   96
ATOM    145  H48 UNL A   1      12.251  52.017  13.481  1.00  0.00    +0.000 H 
ATOM    146  H49 UNL A   1      12.643  52.870  12.008  1.00  0.00    +0.000 H 
ATOM    144  H47 UNL A   1      13.186  53.491  13.549  1.00  0.00    +0.000 H 
ATOM     96  C71 UNL A   1      12.994  52.603  12.983  1.00  0.00    +0.000 C 
ENDBRANCH   95   96
BRANCH   95   97
ATOM     97  C72 UNL A   1      14.753  51.300  14.228  1.00  0.00    +0.000 C 
ATOM    147  H50 UNL A   1      15.738  51.669  14.422  1.00  0.00    +0.000 H 
ATOM    148  H51 UNL A   1      14.764  50.231  14.241  1.00  0.00    +0.000 H 
ATOM    149  H52 UNL A   1      14.083  51.659  14.982  1.00  0.00    +0.000 H 
ENDBRANCH   95   97
ENDBRANCH    8    7
ENDBRANCH    9    8
ENDBRANCH   15   14
ENDBRANCH   17   15
ENDBRANCH   18   17
ENDBRANCH   19   18
ENDBRANCH   20   19
ENDBRANCH   21   20
ENDBRANCH   22   21
ENDBRANCH   23   22
ENDBRANCH   24   23
ENDBRANCH   25   24
ENDBRANCH   27   25
ENDBRANCH   31   30
BRANCH   35   36
ATOM     36  C30 UNL A   1      11.850  47.707   5.528  1.00  0.00    +0.000 C 
ATOM     37  C31 UNL A   1      12.359  46.818   6.485  1.00  0.00    +0.000 C 
ATOM     38  F1  UNL A   1      13.652  46.871   6.834  1.00  0.00    +0.000 F 
ATOM     39  C32 UNL A   1      11.542  45.856   7.073  1.00  0.00    +0.000 C 
ATOM     40  F2  UNL A   1      12.056  44.996   7.963  1.00  0.00    +0.000 F 
ATOM     41  C33 UNL A   1      10.197  45.783   6.739  1.00  0.00    +0.000 C 
ATOM     42  F3  UNL A   1       9.408  44.868   7.320  1.00  0.00    +0.000 F 
ATOM     43  C34 UNL A   1       9.670  46.658   5.802  1.00  0.00    +0.000 C 
ATOM     44  F4  UNL A   1       8.368  46.601   5.490  1.00  0.00    +0.000 F 
ATOM     45  C35 UNL A   1      10.491  47.603   5.191  1.00  0.00    +0.000 C 
ATOM     46  F5  UNL A   1       9.951  48.438   4.289  1.00  0.00    +0.000 F 
ENDBRANCH   35   36
BRANCH   52   53
ATOM     53  C41 UNL A   1      16.301  48.522  -0.063  1.00  0.00    +0.000 C 
ATOM     54  C42 UNL A   1      15.525  48.177  -1.179  1.00  0.00    +0.000 C 
ATOM     55  F6  UNL A   1      14.234  48.534  -1.241  1.00  0.00    +0.000 F 
ATOM     56  C43 UNL A   1      16.069  47.440  -2.229  1.00  0.00    +0.000 C 
ATOM     57  F7  UNL A   1      15.300  47.093  -3.271  1.00  0.00    +0.000 F 
ATOM     58  C44 UNL A   1      17.402  47.058  -2.196  1.00  0.00    +0.000 C 
ATOM     59  F8  UNL A   1      17.927  46.360  -3.212  1.00  0.00    +0.000 F 
ATOM     60  C45 UNL A   1      18.190  47.396  -1.107  1.00  0.00    +0.000 C 
ATOM     61  F9  UNL A   1      19.481  47.039  -1.078  1.00  0.00    +0.000 F 
ATOM     62  C46 UNL A   1      17.643  48.112  -0.044  1.00  0.00    +0.000 C 
ATOM     63  F10 UNL A   1      18.430  48.421   0.997  1.00  0.00    +0.000 F 
ENDBRANCH   52   53
BRANCH   67   68
ATOM     68  C50 UNL A   1      17.061  55.222   1.698  1.00  0.00    +0.000 C 
ATOM     69  C51 UNL A   1      18.389  55.478   2.067  1.00  0.00    +0.000 C 
ATOM     70  F11 UNL A   1      18.981  54.723   3.005  1.00  0.00    +0.000 F 
ATOM     71  C52 UNL A   1      19.103  56.532   1.501  1.00  0.00    +0.000 C 
ATOM     72  F12 UNL A   1      20.359  56.778   1.899  1.00  0.00    +0.000 F 
ATOM     73  C53 UNL A   1      18.511  57.335   0.538  1.00  0.00    +0.000 C 
ATOM     74  F13 UNL A   1      19.202  58.341  -0.017  1.00  0.00    +0.000 F 
ATOM     75  C54 UNL A   1      17.200  57.098   0.153  1.00  0.00    +0.000 C 
ATOM     76  F14 UNL A   1      16.629  57.862  -0.788  1.00  0.00    +0.000 F 
ATOM     77  C55 UNL A   1      16.476  56.062   0.739  1.00  0.00    +0.000 C 
ATOM     78  F15 UNL A   1      15.206  55.865   0.359  1.00  0.00    +0.000 F 
ENDBRANCH   67   68
TORSDOF 19
ENDMDL
MODEL 6
REMARK VINA RESULT:      -8.9      1.462      7.738
ROOT
ATOM    129  H32 UNL A   1      18.432  53.409  -1.072  1.00  0.00    +0.000 H 
ATOM    130  H33 UNL A   1      18.023  50.889  -1.595  1.00  0.00    +0.000 H 
ATOM    131  H34 UNL A   1      15.859  51.888   1.793  1.00  0.00    +0.000 H 
ATOM    132  H35 UNL A   1      12.101  50.253   6.651  1.00  0.00    +0.000 H 
ATOM    133  H36 UNL A   1      12.177  52.773   6.944  1.00  0.00    +0.000 H 
ATOM    134  H37 UNL A   1      14.586  51.791   3.702  1.00  0.00    +0.000 H 
ATOM    135  H38 UNL A   1      13.708  46.856   2.892  1.00  0.00    +0.000 H 
ATOM    136  H39 UNL A   1      15.270  47.000   0.870  1.00  0.00    +0.000 H 
ATOM    137  H40 UNL A   1      16.660  56.786   2.662  1.00  0.00    +0.000 H 
ATOM    138  H41 UNL A   1      15.274  56.614   4.807  1.00  0.00    +0.000 H 
ATOM     31  C26 UNL A   1      13.923  54.114   5.126  1.00  0.00    +0.000 C 
ATOM     32  C27 UNL A   1      14.916  54.509   4.048  1.00  0.00    +0.000 C 
ATOM     33  N4  UNL A   1      15.390  53.801   3.050  1.00  0.00    +0.000 N 
ATOM     34  C28 UNL A   1      16.225  54.653   2.334  1.00  0.00    +0.000 C 
ATOM     35  C29 UNL A   1      16.973  54.396   1.232  1.00  0.00    +0.000 C 
ATOM     47  C36 UNL A   1      17.084  53.112   0.587  1.00  0.00    +0.000 C 
ATOM     48  C37 UNL A   1      17.828  52.771  -0.532  1.00  0.00    +0.000 C 
ATOM     49  C38 UNL A   1      17.620  51.415  -0.804  1.00  0.00    +0.000 C 
ATOM     50  C39 UNL A   1      16.783  50.902   0.171  1.00  0.00    +0.000 C 
ATOM     51  N5  UNL A   1      16.453  51.954   1.011  1.00  0.00    +0.000 N 
ATOM     52  C40 UNL A   1      16.308  49.551   0.326  1.00  0.00    +0.000 C 
ATOM     64  C47 UNL A   1      15.512  49.136   1.340  1.00  0.00    +0.000 C 
ATOM     65  N6  UNL A   1      15.001  49.875   2.399  1.00  0.00    +0.000 N 
ATOM     66  C48 UNL A   1      14.272  49.043   3.100  1.00  0.00    +0.000 C 
ATOM     67  C49 UNL A   1      13.483  49.294   4.357  1.00  0.00    +0.000 C 
ATOM     79  C56 UNL A   1      13.407  50.537   4.875  1.00  0.00    +0.000 C 
ATOM     80  C57 UNL A   1      12.621  50.910   6.049  1.00  0.00    +0.000 C 
ATOM     81  C58 UNL A   1      12.684  52.239   6.221  1.00  0.00    +0.000 C 
ATOM     82  C59 UNL A   1      13.583  52.811   5.221  1.00  0.00    +0.000 C 
ATOM     83  N7  UNL A   1      13.967  51.724   4.465  1.00  0.00    +0.000 N 
ATOM     84  C60 UNL A   1      14.227  47.679   2.548  1.00  0.00    +0.000 C 
ATOM     85  C61 UNL A   1      15.026  47.783   1.496  1.00  0.00    +0.000 C 
ATOM     86  C62 UNL A   1      16.179  55.937   2.999  1.00  0.00    +0.000 C 
ATOM     87  C63 UNL A   1      15.439  55.882   4.098  1.00  0.00    +0.000 C 
ENDROOT
BRANCH   31   30
ATOM    139  H42 UNL A   1      14.982  55.042   7.457  1.00  0.00    +0.000 H 
ATOM    140  H43 UNL A   1      13.913  56.385   9.171  1.00  0.00    +0.000 H 
ATOM     88  C64 UNL A   1      14.039  55.427   7.289  1.00  0.00    +0.000 C 
ATOM     89  C65 UNL A   1      13.430  56.223   8.273  1.00  0.00    +0.000 C 
ATOM     27  C22 UNL A   1      12.177  56.795   8.044  1.00  0.00    +0.000 C 
ATOM     28  C23 UNL A   1      11.598  56.666   6.784  1.00  0.00    +0.000 C 
ATOM     29  C24 UNL A   1      12.171  55.811   5.831  1.00  0.00    +0.000 C 
ATOM     30  C25 UNL A   1      13.384  55.145   6.078  1.00  0.00    +0.000 C 
ATOM    127  H30 UNL A   1      10.746  57.200   6.553  1.00  0.00    +0.000 H 
ATOM    128  H31 UNL A   1      11.691  55.669   4.928  1.00  0.00    +0.000 H 
BRANCH   27   25
ATOM     25  C21 UNL A   1      11.510  57.541   9.140  1.00  0.00    +0.000 C 
ATOM     26  O2  UNL A   1      11.830  58.710   9.341  1.00  0.00    +0.000 O 
BRANCH   25   24
ATOM    126  H29 UNL A   1       9.653  56.989   9.665  1.00  0.00    +0.000 H 
ATOM     24  N3  UNL A   1      10.587  56.929   9.967  1.00  0.00    +0.000 N 
BRANCH   24   23
ATOM    124  H27 UNL A   1      11.412  56.815  11.844  1.00  0.00    +0.000 H 
ATOM    125  H28 UNL A   1       9.811  56.045  11.619  1.00  0.00    +0.000 H 
ATOM     23  C20 UNL A   1      10.787  56.214  11.216  1.00  0.00    +0.000 C 
BRANCH   23   22
ATOM    122  H25 UNL A   1      12.330  54.958  10.508  1.00  0.00    +0.000 H 
ATOM    123  H26 UNL A   1      11.574  54.507  12.092  1.00  0.00    +0.000 H 
ATOM     22  C19 UNL A   1      11.436  54.835  11.082  1.00  0.00    +0.000 C 
BRANCH   22   21
ATOM    121  H24 UNL A   1       9.604  54.007  10.593  1.00  0.00    +0.000 H 
ATOM     21  C18 UNL A   1      10.620  53.720  10.425  1.00  0.00    +0.000 C 
ATOM    120  H23 UNL A   1      10.932  52.797  10.870  1.00  0.00    +0.000 H 
BRANCH   21   20
ATOM     20  C17 UNL A   1      10.712  53.539   8.905  1.00  0.00    +0.000 C 
ATOM    118  H21 UNL A   1      11.265  54.372   8.527  1.00  0.00    +0.000 H 
ATOM    119  H22 UNL A   1      11.152  52.571   8.796  1.00  0.00    +0.000 H 
BRANCH   20   19
ATOM     19  C16 UNL A   1       9.429  53.444   8.074  1.00  0.00    +0.000 C 
ATOM    116  H19 UNL A   1       8.775  54.216   8.423  1.00  0.00    +0.000 H 
ATOM    117  H20 UNL A   1       9.780  53.522   7.066  1.00  0.00    +0.000 H 
BRANCH   19   18
ATOM     18  C15 UNL A   1       8.623  52.149   8.070  1.00  0.00    +0.000 C 
ATOM    115  H18 UNL A   1       7.602  52.456   7.982  1.00  0.00    +0.000 H 
ATOM    114  H17 UNL A   1       8.859  51.618   8.969  1.00  0.00    +0.000 H 
BRANCH   18   17
ATOM     17  N2  UNL A   1       8.838  51.251   6.968  1.00  0.00    +0.000 N 
ATOM    113  H16 UNL A   1       8.906  51.693   6.091  1.00  0.00    +0.000 H 
BRANCH   17   15
ATOM     15  C14 UNL A   1       8.965  49.881   6.925  1.00  0.00    +0.000 C 
ATOM     16  O1  UNL A   1       8.674  49.360   5.841  1.00  0.00    +0.000 O 
BRANCH   15   14
ATOM      9  C8  UNL A   1      10.400  49.216   9.045  1.00  0.00    +0.000 C 
ATOM     10  C9  UNL A   1      10.559  48.244  10.069  1.00  0.00    +0.000 C 
ATOM     11  C10 UNL A   1       9.877  47.032  10.063  1.00  0.00    +0.000 C 
ATOM     12  C11 UNL A   1       9.000  46.763   9.028  1.00  0.00    +0.000 C 
ATOM    109  H12 UNL A   1      11.207  48.444  10.847  1.00  0.00    +0.000 H 
ATOM     14  C13 UNL A   1       9.473  48.969   8.009  1.00  0.00    +0.000 C 
ATOM     13  C12 UNL A   1       8.792  47.722   8.031  1.00  0.00    +0.000 C 
ATOM    110  H13 UNL A   1      10.023  46.345  10.819  1.00  0.00    +0.000 H 
ATOM    112  H15 UNL A   1       8.114  47.516   7.281  1.00  0.00    +0.000 H 
ATOM    111  H14 UNL A   1       8.503  45.859   8.991  1.00  0.00    +0.000 H 
BRANCH    9    8
ATOM    108  H11 UNL A   1      11.100  51.122   8.614  1.00  0.00    +0.000 H 
ATOM      8  N1  UNL A   1      11.318  50.295   9.103  1.00  0.00    +0.000 N 
BRANCH    8    7
ATOM      1  C1  UNL A   1      14.703  50.786  14.292  1.00  0.00    +0.000 C 
ATOM      2  C2  UNL A   1      13.888  51.566  13.238  1.00  0.00    +0.000 C 
ATOM      3  C3  UNL A   1      12.501  51.812  13.872  1.00  0.00    +0.000 C 
ATOM      4  C4  UNL A   1      14.584  52.917  12.985  1.00  0.00    +0.000 C 
ATOM      5  C5  UNL A   1      13.800  50.847  11.887  1.00  0.00    +0.000 C 
ATOM      6  C6  UNL A   1      12.590  50.750  11.152  1.00  0.00    +0.000 C 
ATOM      7  C7  UNL A   1      12.543  50.245   9.836  1.00  0.00    +0.000 C 
ATOM    141  H44 UNL A   1      13.701  49.285   8.349  1.00  0.00    +0.000 H 
ATOM    142  H45 UNL A   1      17.452  48.831  11.319  1.00  0.00    +0.000 H 
ATOM    143  H46 UNL A   1      17.856  50.352  10.549  1.00  0.00    +0.000 H 
ATOM     90  C66 UNL A   1      13.718  49.716   9.286  1.00  0.00    +0.000 C 
ATOM     91  C67 UNL A   1      14.900  49.772  10.003  1.00  0.00    +0.000 C 
ATOM     92  C68 UNL A   1      14.939  50.347  11.258  1.00  0.00    +0.000 C 
ATOM     93  O3  UNL A   1      16.203  50.407  11.776  1.00  0.00    +0.000 O 
ATOM     94  C69 UNL A   1      17.056  49.706  10.847  1.00  0.00    +0.000 C 
ATOM     95  C70 UNL A   1      16.252  49.291   9.600  1.00  0.00    +0.000 C 
ATOM     98  H1  UNL A   1      14.725  51.339  15.208  1.00  0.00    +0.000 H 
ATOM     99  H2  UNL A   1      15.703  50.644  13.937  1.00  0.00    +0.000 H 
ATOM    100  H3  UNL A   1      14.247  49.833  14.463  1.00  0.00    +0.000 H 
ATOM    101  H4  UNL A   1      12.621  52.314  14.809  1.00  0.00    +0.000 H 
ATOM    102  H5  UNL A   1      12.009  50.875  14.030  1.00  0.00    +0.000 H 
ATOM    103  H6  UNL A   1      11.912  52.418  13.215  1.00  0.00    +0.000 H 
ATOM    104  H7  UNL A   1      14.666  53.455  13.907  1.00  0.00    +0.000 H 
ATOM    105  H8  UNL A   1      14.007  53.491  12.289  1.00  0.00    +0.000 H 
ATOM    106  H9  UNL A   1      15.560  52.747  12.584  1.00  0.00    +0.000 H 
ATOM    107  H10 UNL A   1      11.713  51.060  11.598  1.00  0.00    +0.000 H 
BRANCH   95   96
ATOM    145  H48 UNL A   1      15.640  47.511   8.580  1.00  0.00    +0.000 H 
ATOM    146  H49 UNL A   1      15.878  47.302  10.298  1.00  0.00    +0.000 H 
ATOM    144  H47 UNL A   1      17.258  47.438   9.235  1.00  0.00    +0.000 H 
ATOM     96  C71 UNL A   1      16.257  47.771   9.414  1.00  0.00    +0.000 C 
ENDBRANCH   95   96
BRANCH   95   97
ATOM     97  C72 UNL A   1      16.770  49.991   8.340  1.00  0.00    +0.000 C 
ATOM    147  H50 UNL A   1      15.990  50.029   7.608  1.00  0.00    +0.000 H 
ATOM    148  H51 UNL A   1      17.602  49.447   7.946  1.00  0.00    +0.000 H 
ATOM    149  H52 UNL A   1      17.077  50.986   8.586  1.00  0.00    +0.000 H 
ENDBRANCH   95   97
ENDBRANCH    8    7
ENDBRANCH    9    8
ENDBRANCH   15   14
ENDBRANCH   17   15
ENDBRANCH   18   17
ENDBRANCH   19   18
ENDBRANCH   20   19
ENDBRANCH   21   20
ENDBRANCH   22   21
ENDBRANCH   23   22
ENDBRANCH   24   23
ENDBRANCH   25   24
ENDBRANCH   27   25
ENDBRANCH   31   30
BRANCH   35   36
ATOM     36  C30 UNL A   1      17.750  55.532   0.628  1.00  0.00    +0.000 C 
ATOM     37  C31 UNL A   1      17.206  56.346  -0.376  1.00  0.00    +0.000 C 
ATOM     38  F1  UNL A   1      15.998  56.067  -0.888  1.00  0.00    +0.000 F 
ATOM     39  C32 UNL A   1      17.911  57.439  -0.872  1.00  0.00    +0.000 C 
ATOM     40  F2  UNL A   1      17.385  58.184  -1.853  1.00  0.00    +0.000 F 
ATOM     41  C33 UNL A   1      19.159  57.757  -0.355  1.00  0.00    +0.000 C 
ATOM     42  F3  UNL A   1      19.828  58.821  -0.821  1.00  0.00    +0.000 F 
ATOM     43  C34 UNL A   1      19.713  56.972   0.644  1.00  0.00    +0.000 C 
ATOM     44  F4  UNL A   1      20.910  57.288   1.158  1.00  0.00    +0.000 F 
ATOM     45  C35 UNL A   1      19.022  55.862   1.123  1.00  0.00    +0.000 C 
ATOM     46  F5  UNL A   1      19.583  55.123   2.093  1.00  0.00    +0.000 F 
ENDBRANCH   35   36
BRANCH   52   53
ATOM     53  C41 UNL A   1      16.737  48.535  -0.692  1.00  0.00    +0.000 C 
ATOM     54  C42 UNL A   1      17.956  47.852  -0.579  1.00  0.00    +0.000 C 
ATOM     55  F6  UNL A   1      18.806  48.149   0.416  1.00  0.00    +0.000 F 
ATOM     56  C43 UNL A   1      18.320  46.875  -1.503  1.00  0.00    +0.000 C 
ATOM     57  F7  UNL A   1      19.505  46.259  -1.393  1.00  0.00    +0.000 F 
ATOM     58  C44 UNL A   1      17.462  46.545  -2.542  1.00  0.00    +0.000 C 
ATOM     59  F8  UNL A   1      17.807  45.597  -3.424  1.00  0.00    +0.000 F 
ATOM     60  C45 UNL A   1      16.247  47.200  -2.668  1.00  0.00    +0.000 C 
ATOM     61  F9  UNL A   1      15.411  46.874  -3.664  1.00  0.00    +0.000 F 
ATOM     62  C46 UNL A   1      15.891  48.195  -1.760  1.00  0.00    +0.000 C 
ATOM     63  F10 UNL A   1      14.711  48.813  -1.911  1.00  0.00    +0.000 F 
ENDBRANCH   52   53
BRANCH   67   68
ATOM     68  C50 UNL A   1      12.775  48.172   5.030  1.00  0.00    +0.000 C 
ATOM     69  C51 UNL A   1      13.315  47.568   6.174  1.00  0.00    +0.000 C 
ATOM     70  F11 UNL A   1      14.498  47.978   6.654  1.00  0.00    +0.000 F 
ATOM     71  C52 UNL A   1      12.658  46.516   6.810  1.00  0.00    +0.000 C 
ATOM     72  F12 UNL A   1      13.213  45.933   7.881  1.00  0.00    +0.000 F 
ATOM     73  C53 UNL A   1      11.438  46.065   6.329  1.00  0.00    +0.000 C 
ATOM     74  F13 UNL A   1      10.800  45.063   6.948  1.00  0.00    +0.000 F 
ATOM     75  C54 UNL A   1      10.883  46.650   5.201  1.00  0.00    +0.000 C 
ATOM     76  F14 UNL A   1       9.698  46.226   4.740  1.00  0.00    +0.000 F 
ATOM     77  C55 UNL A   1      11.553  47.682   4.547  1.00  0.00    +0.000 C 
ATOM     78  F15 UNL A   1      11.000  48.219   3.450  1.00  0.00    +0.000 F 
ENDBRANCH   67   68
TORSDOF 19
ENDMDL
MODEL 7
REMARK VINA RESULT:      -8.8     64.605     70.124
ROOT
ATOM    129  H32 UNL A   1      22.902 -10.258  29.163  1.00  0.00    +0.000 H 
ATOM    130  H33 UNL A   1      22.038  -9.816  31.582  1.00  0.00    +0.000 H 
ATOM    131  H34 UNL A   1      25.459 -12.140  31.821  1.00  0.00    +0.000 H 
ATOM    132  H35 UNL A   1      29.668 -15.473  35.223  1.00  0.00    +0.000 H 
ATOM    133  H36 UNL A   1      30.732 -15.583  32.921  1.00  0.00    +0.000 H 
ATOM    134  H37 UNL A   1      27.163 -13.480  32.578  1.00  0.00    +0.000 H 
ATOM    135  H38 UNL A   1      25.610 -12.787  37.363  1.00  0.00    +0.000 H 
ATOM    136  H39 UNL A   1      23.642 -11.440  36.436  1.00  0.00    +0.000 H 
ATOM    137  H40 UNL A   1      27.082 -12.864  27.106  1.00  0.00    +0.000 H 
ATOM    138  H41 UNL A   1      28.934 -14.389  27.996  1.00  0.00    +0.000 H 
ATOM     31  C26 UNL A   1      29.167 -14.401  30.846  1.00  0.00    +0.000 C 
ATOM     32  C27 UNL A   1      28.112 -13.714  29.998  1.00  0.00    +0.000 C 
ATOM     33  N4  UNL A   1      27.074 -13.003  30.370  1.00  0.00    +0.000 N 
ATOM     34  C28 UNL A   1      26.465 -12.565  29.198  1.00  0.00    +0.000 C 
ATOM     35  C29 UNL A   1      25.343 -11.819  29.040  1.00  0.00    +0.000 C 
ATOM     47  C36 UNL A   1      24.501 -11.353  30.113  1.00  0.00    +0.000 C 
ATOM     48  C37 UNL A   1      23.342 -10.597  30.032  1.00  0.00    +0.000 C 
ATOM     49  C38 UNL A   1      22.869 -10.372  31.329  1.00  0.00    +0.000 C 
ATOM     50  C39 UNL A   1      23.709 -11.026  32.214  1.00  0.00    +0.000 C 
ATOM     51  N5  UNL A   1      24.710 -11.615  31.458  1.00  0.00    +0.000 N 
ATOM     52  C40 UNL A   1      23.614 -11.106  33.648  1.00  0.00    +0.000 C 
ATOM     64  C47 UNL A   1      24.472 -11.803  34.431  1.00  0.00    +0.000 C 
ATOM     65  N6  UNL A   1      25.576 -12.555  34.050  1.00  0.00    +0.000 N 
ATOM     66  C48 UNL A   1      26.098 -13.015  35.159  1.00  0.00    +0.000 C 
ATOM     67  C49 UNL A   1      27.307 -13.892  35.351  1.00  0.00    +0.000 C 
ATOM     79  C56 UNL A   1      28.058 -14.254  34.292  1.00  0.00    +0.000 C 
ATOM     80  C57 UNL A   1      29.285 -15.045  34.366  1.00  0.00    +0.000 C 
ATOM     81  C58 UNL A   1      29.833 -15.127  33.144  1.00  0.00    +0.000 C 
ATOM     82  C59 UNL A   1      28.957 -14.467  32.178  1.00  0.00    +0.000 C 
ATOM     83  N7  UNL A   1      27.925 -13.979  32.951  1.00  0.00    +0.000 N 
ATOM     84  C60 UNL A   1      25.387 -12.588  36.375  1.00  0.00    +0.000 C 
ATOM     85  C61 UNL A   1      24.386 -11.879  35.872  1.00  0.00    +0.000 C 
ATOM     86  C62 UNL A   1      27.261 -13.073  28.101  1.00  0.00    +0.000 C 
ATOM     87  C63 UNL A   1      28.247 -13.842  28.539  1.00  0.00    +0.000 C 
ENDROOT
BRANCH   31   30
ATOM    139  H42 UNL A   1      29.376 -16.710  29.419  1.00  0.00    +0.000 H 
ATOM    140  H43 UNL A   1      31.384 -17.895  28.749  1.00  0.00    +0.000 H 
ATOM     88  C64 UNL A   1      30.299 -16.278  29.579  1.00  0.00    +0.000 C 
ATOM     89  C65 UNL A   1      31.461 -16.955  29.171  1.00  0.00    +0.000 C 
ATOM     27  C22 UNL A   1      32.716 -16.365  29.332  1.00  0.00    +0.000 C 
ATOM     28  C23 UNL A   1      32.790 -15.052  29.788  1.00  0.00    +0.000 C 
ATOM     29  C24 UNL A   1      31.638 -14.407  30.263  1.00  0.00    +0.000 C 
ATOM     30  C25 UNL A   1      30.375 -15.021  30.202  1.00  0.00    +0.000 C 
ATOM    127  H30 UNL A   1      33.693 -14.553  29.776  1.00  0.00    +0.000 H 
ATOM    128  H31 UNL A   1      31.720 -13.460  30.666  1.00  0.00    +0.000 H 
BRANCH   27   25
ATOM     25  C21 UNL A   1      33.932 -17.146  28.992  1.00  0.00    +0.000 C 
ATOM     26  O2  UNL A   1      34.396 -17.915  29.831  1.00  0.00    +0.000 O 
BRANCH   25   24
ATOM    126  H29 UNL A   1      35.555 -16.896  27.837  1.00  0.00    +0.000 H 
ATOM     24  N3  UNL A   1      34.576 -16.981  27.781  1.00  0.00    +0.000 N 
BRANCH   24   23
ATOM    124  H27 UNL A   1      34.799 -17.187  25.751  1.00  0.00    +0.000 H 
ATOM    125  H28 UNL A   1      33.188 -17.576  26.426  1.00  0.00    +0.000 H 
ATOM     23  C20 UNL A   1      34.027 -16.911  26.438  1.00  0.00    +0.000 C 
BRANCH   23   22
ATOM    122  H25 UNL A   1      33.674 -14.867  26.832  1.00  0.00    +0.000 H 
ATOM    123  H26 UNL A   1      34.000 -15.320  25.108  1.00  0.00    +0.000 H 
ATOM     22  C19 UNL A   1      33.489 -15.541  26.022  1.00  0.00    +0.000 C 
BRANCH   22   21
ATOM    121  H24 UNL A   1      31.596 -16.375  25.961  1.00  0.00    +0.000 H 
ATOM     21  C18 UNL A   1      32.004 -15.431  25.667  1.00  0.00    +0.000 C 
ATOM    120  H23 UNL A   1      31.946 -15.193  24.625  1.00  0.00    +0.000 H 
BRANCH   21   20
ATOM     20  C17 UNL A   1      31.144 -14.404  26.412  1.00  0.00    +0.000 C 
ATOM    118  H21 UNL A   1      30.163 -14.456  25.989  1.00  0.00    +0.000 H 
ATOM    119  H22 UNL A   1      31.249 -14.689  27.437  1.00  0.00    +0.000 H 
BRANCH   20   19
ATOM     19  C16 UNL A   1      31.551 -12.928  26.408  1.00  0.00    +0.000 C 
ATOM    116  H19 UNL A   1      32.427 -12.849  25.799  1.00  0.00    +0.000 H 
ATOM    117  H20 UNL A   1      30.670 -12.428  26.062  1.00  0.00    +0.000 H 
BRANCH   19   18
ATOM     18  C15 UNL A   1      31.863 -12.225  27.726  1.00  0.00    +0.000 C 
ATOM    115  H18 UNL A   1      32.461 -11.379  27.455  1.00  0.00    +0.000 H 
ATOM    114  H17 UNL A   1      32.347 -12.934  28.364  1.00  0.00    +0.000 H 
BRANCH   18   17
ATOM     17  N2  UNL A   1      30.750 -11.677  28.452  1.00  0.00    +0.000 N 
ATOM    113  H16 UNL A   1      29.871 -12.016  28.164  1.00  0.00    +0.000 H 
BRANCH   17   15
ATOM     15  C14 UNL A   1      30.697 -10.764  29.480  1.00  0.00    +0.000 C 
ATOM     16  O1  UNL A   1      31.642 -10.814  30.277  1.00  0.00    +0.000 O 
BRANCH   15   14
ATOM      9  C8  UNL A   1      29.478  -8.461  29.024  1.00  0.00    +0.000 C 
ATOM     10  C9  UNL A   1      28.305  -7.706  29.293  1.00  0.00    +0.000 C 
ATOM     11  C10 UNL A   1      27.364  -8.097  30.239  1.00  0.00    +0.000 C 
ATOM     12  C11 UNL A   1      27.568  -9.273  30.940  1.00  0.00    +0.000 C 
ATOM    109  H12 UNL A   1      28.145  -6.832  28.767  1.00  0.00    +0.000 H 
ATOM     14  C13 UNL A   1      29.671  -9.685  29.701  1.00  0.00    +0.000 C 
ATOM     13  C12 UNL A   1      28.693 -10.057  30.661  1.00  0.00    +0.000 C 
ATOM    110  H13 UNL A   1      26.527  -7.521  30.415  1.00  0.00    +0.000 H 
ATOM    112  H15 UNL A   1      28.815 -10.944  31.174  1.00  0.00    +0.000 H 
ATOM    111  H14 UNL A   1      26.895  -9.568  31.664  1.00  0.00    +0.000 H 
BRANCH    9    8
ATOM    108  H11 UNL A   1      30.880  -7.014  28.526  1.00  0.00    +0.000 H 
ATOM      8  N1  UNL A   1      30.420  -7.815  28.183  1.00  0.00    +0.000 N 
BRANCH    8    7
ATOM      1  C1  UNL A   1      33.904 -10.903  24.066  1.00  0.00    +0.000 C 
ATOM      2  C2  UNL A   1      33.848  -9.680  25.007  1.00  0.00    +0.000 C 
ATOM      3  C3  UNL A   1      34.621 -10.088  26.280  1.00  0.00    +0.000 C 
ATOM      4  C4  UNL A   1      34.570  -8.504  24.322  1.00  0.00    +0.000 C 
ATOM      5  C5  UNL A   1      32.419  -9.213  25.309  1.00  0.00    +0.000 C 
ATOM      6  C6  UNL A   1      31.992  -8.860  26.615  1.00  0.00    +0.000 C 
ATOM      7  C7  UNL A   1      30.737  -8.267  26.866  1.00  0.00    +0.000 C 
ATOM    141  H44 UNL A   1      28.894  -7.759  25.962  1.00  0.00    +0.000 H 
ATOM    142  H45 UNL A   1      30.141  -9.874  21.830  1.00  0.00    +0.000 H 
ATOM    143  H46 UNL A   1      30.669  -8.236  21.505  1.00  0.00    +0.000 H 
ATOM     90  C66 UNL A   1      29.841  -8.134  25.798  1.00  0.00    +0.000 C 
ATOM     91  C67 UNL A   1      30.229  -8.505  24.522  1.00  0.00    +0.000 C 
ATOM     92  C68 UNL A   1      31.494  -9.006  24.287  1.00  0.00    +0.000 C 
ATOM     93  O3  UNL A   1      31.740  -9.225  22.959  1.00  0.00    +0.000 O 
ATOM     94  C69 UNL A   1      30.499  -8.966  22.269  1.00  0.00    +0.000 C 
ATOM     95  C70 UNL A   1      29.446  -8.428  23.257  1.00  0.00    +0.000 C 
ATOM     98  H1  UNL A   1      34.925 -11.177  23.897  1.00  0.00    +0.000 H 
ATOM     99  H2  UNL A   1      33.441 -10.658  23.133  1.00  0.00    +0.000 H 
ATOM    100  H3  UNL A   1      33.385 -11.724  24.517  1.00  0.00    +0.000 H 
ATOM    101  H4  UNL A   1      35.608 -10.404  26.012  1.00  0.00    +0.000 H 
ATOM    102  H5  UNL A   1      34.109 -10.892  26.766  1.00  0.00    +0.000 H 
ATOM    103  H6  UNL A   1      34.683  -9.250  26.943  1.00  0.00    +0.000 H 
ATOM    104  H7  UNL A   1      35.576  -8.788  24.093  1.00  0.00    +0.000 H 
ATOM    105  H8  UNL A   1      34.580  -7.660  24.980  1.00  0.00    +0.000 H 
ATOM    106  H9  UNL A   1      34.058  -8.247  23.419  1.00  0.00    +0.000 H 
ATOM    107  H10 UNL A   1      32.624  -9.043  27.410  1.00  0.00    +0.000 H 
BRANCH   95   96
ATOM    145  H48 UNL A   1      27.381  -8.792  23.683  1.00  0.00    +0.000 H 
ATOM    146  H49 UNL A   1      28.420 -10.166  23.971  1.00  0.00    +0.000 H 
ATOM    144  H47 UNL A   1      28.003  -9.712  22.335  1.00  0.00    +0.000 H 
ATOM     96  C71 UNL A   1      28.220  -9.343  23.316  1.00  0.00    +0.000 C 
ENDBRANCH   95   96
BRANCH   95   97
ATOM     97  C72 UNL A   1      29.034  -6.995  22.911  1.00  0.00    +0.000 C 
ATOM    147  H50 UNL A   1      29.153  -6.372  23.772  1.00  0.00    +0.000 H 
ATOM    148  H51 UNL A   1      28.010  -6.982  22.601  1.00  0.00    +0.000 H 
ATOM    149  H52 UNL A   1      29.651  -6.627  22.117  1.00  0.00    +0.000 H 
ENDBRANCH   95   97
ENDBRANCH    8    7
ENDBRANCH    9    8
ENDBRANCH   15   14
ENDBRANCH   17   15
ENDBRANCH   18   17
ENDBRANCH   19   18
ENDBRANCH   20   19
ENDBRANCH   21   20
ENDBRANCH   22   21
ENDBRANCH   23   22
ENDBRANCH   24   23
ENDBRANCH   25   24
ENDBRANCH   27   25
ENDBRANCH   31   30
BRANCH   35   36
ATOM     36  C30 UNL A   1      24.938 -11.444  27.643  1.00  0.00    +0.000 C 
ATOM     37  C31 UNL A   1      23.955 -12.158  26.943  1.00  0.00    +0.000 C 
ATOM     38  F1  UNL A   1      23.412 -13.260  27.480  1.00  0.00    +0.000 F 
ATOM     39  C32 UNL A   1      23.540 -11.752  25.677  1.00  0.00    +0.000 C 
ATOM     40  F2  UNL A   1      22.622 -12.467  25.014  1.00  0.00    +0.000 F 
ATOM     41  C33 UNL A   1      24.077 -10.610  25.100  1.00  0.00    +0.000 C 
ATOM     42  F3  UNL A   1      23.662 -10.211  23.889  1.00  0.00    +0.000 F 
ATOM     43  C34 UNL A   1      25.043  -9.883  25.777  1.00  0.00    +0.000 C 
ATOM     44  F4  UNL A   1      25.550  -8.769  25.229  1.00  0.00    +0.000 F 
ATOM     45  C35 UNL A   1      25.480 -10.302  27.031  1.00  0.00    +0.000 C 
ATOM     46  F5  UNL A   1      26.416  -9.576  27.663  1.00  0.00    +0.000 F 
ENDBRANCH   35   36
BRANCH   52   53
ATOM     53  C41 UNL A   1      22.482 -10.383  34.318  1.00  0.00    +0.000 C 
ATOM     54  C42 UNL A   1      22.664  -9.126  34.913  1.00  0.00    +0.000 C 
ATOM     55  F6  UNL A   1      23.885  -8.571  34.957  1.00  0.00    +0.000 F 
ATOM     56  C43 UNL A   1      21.594  -8.443  35.487  1.00  0.00    +0.000 C 
ATOM     57  F7  UNL A   1      21.799  -7.257  36.079  1.00  0.00    +0.000 F 
ATOM     58  C44 UNL A   1      20.320  -8.990  35.456  1.00  0.00    +0.000 C 
ATOM     59  F8  UNL A   1      19.290  -8.326  35.998  1.00  0.00    +0.000 F 
ATOM     60  C45 UNL A   1      20.114 -10.226  34.865  1.00  0.00    +0.000 C 
ATOM     61  F9  UNL A   1      18.882 -10.752  34.822  1.00  0.00    +0.000 F 
ATOM     62  C46 UNL A   1      21.186 -10.924  34.311  1.00  0.00    +0.000 C 
ATOM     63  F10 UNL A   1      20.956 -12.119  33.750  1.00  0.00    +0.000 F 
ENDBRANCH   52   53
BRANCH   67   68
ATOM     68  C50 UNL A   1      27.683 -14.355  36.714  1.00  0.00    +0.000 C 
ATOM     69  C51 UNL A   1      27.024 -15.440  37.309  1.00  0.00    +0.000 C 
ATOM     70  F11 UNL A   1      26.020 -16.050  36.663  1.00  0.00    +0.000 F 
ATOM     71  C52 UNL A   1      27.370 -15.880  38.585  1.00  0.00    +0.000 C 
ATOM     72  F12 UNL A   1      26.700 -16.896  39.145  1.00  0.00    +0.000 F 
ATOM     73  C53 UNL A   1      28.398 -15.259  39.279  1.00  0.00    +0.000 C 
ATOM     74  F13 UNL A   1      28.740 -15.691  40.502  1.00  0.00    +0.000 F 
ATOM     75  C54 UNL A   1      29.067 -14.187  38.709  1.00  0.00    +0.000 C 
ATOM     76  F14 UNL A   1      30.069 -13.593  39.372  1.00  0.00    +0.000 F 
ATOM     77  C55 UNL A   1      28.702 -13.728  37.446  1.00  0.00    +0.000 C 
ATOM     78  F15 UNL A   1      29.355 -12.679  36.925  1.00  0.00    +0.000 F 
ENDBRANCH   67   68
TORSDOF 19
ENDMDL
MODEL 8
REMARK VINA RESULT:      -8.8      2.849      7.162
ROOT
ATOM    129  H32 UNL A   1      17.875  50.785  -2.401  1.00  0.00    +0.000 H 
ATOM    130  H33 UNL A   1      18.346  53.346  -2.286  1.00  0.00    +0.000 H 
ATOM    131  H34 UNL A   1      16.403  52.216   1.194  1.00  0.00    +0.000 H 
ATOM    132  H35 UNL A   1      13.697  53.680   6.756  1.00  0.00    +0.000 H 
ATOM    133  H36 UNL A   1      13.583  51.146   6.831  1.00  0.00    +0.000 H 
ATOM    134  H37 UNL A   1      15.286  52.239   3.200  1.00  0.00    +0.000 H 
ATOM    135  H38 UNL A   1      16.054  57.244   3.593  1.00  0.00    +0.000 H 
ATOM    136  H39 UNL A   1      17.142  57.170   1.278  1.00  0.00    +0.000 H 
ATOM    137  H40 UNL A   1      15.616  47.249   0.896  1.00  0.00    +0.000 H 
ATOM    138  H41 UNL A   1      14.336  47.336   3.111  1.00  0.00    +0.000 H 
ATOM     31  C26 UNL A   1      14.491  49.858   4.450  1.00  0.00    +0.000 C 
ATOM     32  C27 UNL A   1      15.022  49.496   3.075  1.00  0.00    +0.000 C 
ATOM     33  N4  UNL A   1      15.640  50.247   2.193  1.00  0.00    +0.000 N 
ATOM     34  C28 UNL A   1      15.954  49.411   1.125  1.00  0.00    +0.000 C 
ATOM     35  C29 UNL A   1      16.570  49.710  -0.046  1.00  0.00    +0.000 C 
ATOM     47  C36 UNL A   1      17.000  51.026  -0.443  1.00  0.00    +0.000 C 
ATOM     48  C37 UNL A   1      17.627  51.410  -1.619  1.00  0.00    +0.000 C 
ATOM     49  C38 UNL A   1      17.867  52.786  -1.564  1.00  0.00    +0.000 C 
ATOM     50  C39 UNL A   1      17.349  53.267  -0.374  1.00  0.00    +0.000 C 
ATOM     51  N5  UNL A   1      16.829  52.178   0.308  1.00  0.00    +0.000 N 
ATOM     52  C40 UNL A   1      17.331  54.622   0.115  1.00  0.00    +0.000 C 
ATOM     64  C47 UNL A   1      16.767  55.002   1.286  1.00  0.00    +0.000 C 
ATOM     65  N6  UNL A   1      16.114  54.217   2.228  1.00  0.00    +0.000 N 
ATOM     66  C48 UNL A   1      15.767  55.029   3.195  1.00  0.00    +0.000 C 
ATOM     67  C49 UNL A   1      15.031  54.729   4.473  1.00  0.00    +0.000 C 
ATOM     79  C56 UNL A   1      14.696  53.460   4.782  1.00  0.00    +0.000 C 
ATOM     80  C57 UNL A   1      14.041  53.044   6.020  1.00  0.00    +0.000 C 
ATOM     81  C58 UNL A   1      13.954  51.705   6.047  1.00  0.00    +0.000 C 
ATOM     82  C59 UNL A   1      14.471  51.164   4.792  1.00  0.00    +0.000 C 
ATOM     83  N7  UNL A   1      14.888  52.282   4.100  1.00  0.00    +0.000 N 
ATOM     84  C60 UNL A   1      16.179  56.426   2.977  1.00  0.00    +0.000 C 
ATOM     85  C61 UNL A   1      16.754  56.359   1.784  1.00  0.00    +0.000 C 
ATOM     86  C62 UNL A   1      15.476  48.091   1.476  1.00  0.00    +0.000 C 
ATOM     87  C63 UNL A   1      14.836  48.105   2.637  1.00  0.00    +0.000 C 
ENDROOT
BRANCH   31   30
ATOM    139  H42 UNL A   1      12.026  48.707   4.540  1.00  0.00    +0.000 H 
ATOM    140  H43 UNL A   1      11.079  47.300   6.275  1.00  0.00    +0.000 H 
ATOM     88  C64 UNL A   1      12.623  48.386   5.318  1.00  0.00    +0.000 C 
ATOM     89  C65 UNL A   1      12.080  47.553   6.310  1.00  0.00    +0.000 C 
ATOM     27  C22 UNL A   1      12.884  47.067   7.343  1.00  0.00    +0.000 C 
ATOM     28  C23 UNL A   1      14.253  47.318   7.306  1.00  0.00    +0.000 C 
ATOM     29  C24 UNL A   1      14.779  48.209   6.359  1.00  0.00    +0.000 C 
ATOM     30  C25 UNL A   1      13.968  48.790   5.369  1.00  0.00    +0.000 C 
ATOM    127  H30 UNL A   1      14.881  46.849   7.977  1.00  0.00    +0.000 H 
ATOM    128  H31 UNL A   1      15.784  48.443   6.390  1.00  0.00    +0.000 H 
BRANCH   27   25
ATOM     25  C21 UNL A   1      12.261  46.278   8.436  1.00  0.00    +0.000 C 
ATOM     26  O2  UNL A   1      11.702  45.220   8.158  1.00  0.00    +0.000 O 
BRANCH   25   24
ATOM    126  H29 UNL A   1      13.119  47.062  10.074  1.00  0.00    +0.000 H 
ATOM     24  N3  UNL A   1      12.251  46.740   9.738  1.00  0.00    +0.000 N 
BRANCH   24   23
ATOM    124  H27 UNL A   1      10.757  47.812  10.650  1.00  0.00    +0.000 H 
ATOM    125  H28 UNL A   1      10.454  46.066  10.395  1.00  0.00    +0.000 H 
ATOM     23  C20 UNL A   1      11.155  46.820  10.688  1.00  0.00    +0.000 C 
BRANCH   23   22
ATOM    122  H25 UNL A   1      10.613  46.446  12.694  1.00  0.00    +0.000 H 
ATOM    123  H26 UNL A   1      12.102  45.614  12.085  1.00  0.00    +0.000 H 
ATOM     22  C19 UNL A   1      11.525  46.514  12.141  1.00  0.00    +0.000 C 
BRANCH   22   21
ATOM    121  H24 UNL A   1      13.126  47.825  12.127  1.00  0.00    +0.000 H 
ATOM     21  C18 UNL A   1      12.431  47.505  12.874  1.00  0.00    +0.000 C 
ATOM    120  H23 UNL A   1      12.846  46.989  13.716  1.00  0.00    +0.000 H 
BRANCH   21   20
ATOM     20  C17 UNL A   1      11.821  48.808  13.401  1.00  0.00    +0.000 C 
ATOM    118  H21 UNL A   1      11.648  49.435  12.552  1.00  0.00    +0.000 H 
ATOM    119  H22 UNL A   1      10.962  48.479  13.947  1.00  0.00    +0.000 H 
BRANCH   20   19
ATOM     19  C16 UNL A   1      12.592  49.649  14.423  1.00  0.00    +0.000 C 
ATOM    116  H19 UNL A   1      11.922  49.841  15.235  1.00  0.00    +0.000 H 
ATOM    117  H20 UNL A   1      13.456  49.053  14.633  1.00  0.00    +0.000 H 
BRANCH   19   18
ATOM     18  C15 UNL A   1      13.181  50.993  14.008  1.00  0.00    +0.000 C 
ATOM    115  H18 UNL A   1      12.929  51.665  14.802  1.00  0.00    +0.000 H 
ATOM    114  H17 UNL A   1      12.768  51.247  13.054  1.00  0.00    +0.000 H 
BRANCH   18   17
ATOM     17  N2  UNL A   1      14.612  51.071  13.895  1.00  0.00    +0.000 N 
ATOM    113  H16 UNL A   1      15.099  50.778  14.698  1.00  0.00    +0.000 H 
BRANCH   17   15
ATOM     15  C14 UNL A   1      15.420  51.484  12.859  1.00  0.00    +0.000 C 
ATOM     16  O1  UNL A   1      15.806  52.657  12.929  1.00  0.00    +0.000 O 
BRANCH   15   14
ATOM      9  C8  UNL A   1      15.232  50.053  10.642  1.00  0.00    +0.000 C 
ATOM     10  C9  UNL A   1      15.972  49.497   9.564  1.00  0.00    +0.000 C 
ATOM     11  C10 UNL A   1      17.362  49.479   9.542  1.00  0.00    +0.000 C 
ATOM     12  C11 UNL A   1      18.056  50.032  10.603  1.00  0.00    +0.000 C 
ATOM    109  H12 UNL A   1      15.458  49.090   8.767  1.00  0.00    +0.000 H 
ATOM     14  C13 UNL A   1      15.932  50.661  11.707  1.00  0.00    +0.000 C 
ATOM     13  C12 UNL A   1      17.351  50.626  11.655  1.00  0.00    +0.000 C 
ATOM    110  H13 UNL A   1      17.868  49.060   8.746  1.00  0.00    +0.000 H 
ATOM    112  H15 UNL A   1      17.885  51.058  12.426  1.00  0.00    +0.000 H 
ATOM    111  H14 UNL A   1      19.088  50.006  10.618  1.00  0.00    +0.000 H 
BRANCH    9    8
ATOM    108  H11 UNL A   1      13.502  48.950  10.949  1.00  0.00    +0.000 H 
ATOM      8  N1  UNL A   1      13.837  49.805  10.595  1.00  0.00    +0.000 N 
BRANCH    8    7
ATOM      1  C1  UNL A   1       8.442  51.295   7.892  1.00  0.00    +0.000 C 
ATOM      2  C2  UNL A   1       9.816  50.622   7.681  1.00  0.00    +0.000 C 
ATOM      3  C3  UNL A   1       9.569  49.102   7.813  1.00  0.00    +0.000 C 
ATOM      4  C4  UNL A   1      10.303  50.941   6.255  1.00  0.00    +0.000 C 
ATOM      5  C5  UNL A   1      10.893  51.130   8.647  1.00  0.00    +0.000 C 
ATOM      6  C6  UNL A   1      11.794  50.259   9.311  1.00  0.00    +0.000 C 
ATOM      7  C7  UNL A   1      12.892  50.733  10.060  1.00  0.00    +0.000 C 
ATOM    141  H44 UNL A   1      13.778  52.490  10.836  1.00  0.00    +0.000 H 
ATOM    142  H45 UNL A   1      10.118  55.212   9.325  1.00  0.00    +0.000 H 
ATOM    143  H46 UNL A   1      11.195  55.363   7.952  1.00  0.00    +0.000 H 
ATOM     90  C66 UNL A   1      13.021  52.116  10.244  1.00  0.00    +0.000 C 
ATOM     91  C67 UNL A   1      12.129  52.979   9.631  1.00  0.00    +0.000 C 
ATOM     92  C68 UNL A   1      11.112  52.494   8.834  1.00  0.00    +0.000 C 
ATOM     93  O3  UNL A   1      10.391  53.487   8.228  1.00  0.00    +0.000 O 
ATOM     94  C69 UNL A   1      10.891  54.732   8.761  1.00  0.00    +0.000 C 
ATOM     95  C70 UNL A   1      12.100  54.468   9.679  1.00  0.00    +0.000 C 
ATOM     98  H1  UNL A   1       7.738  50.896   7.190  1.00  0.00    +0.000 H 
ATOM     99  H2  UNL A   1       8.534  52.350   7.744  1.00  0.00    +0.000 H 
ATOM    100  H3  UNL A   1       8.099  51.102   8.887  1.00  0.00    +0.000 H 
ATOM    101  H4  UNL A   1       8.812  48.803   7.119  1.00  0.00    +0.000 H 
ATOM    102  H5  UNL A   1       9.250  48.878   8.809  1.00  0.00    +0.000 H 
ATOM    103  H6  UNL A   1      10.476  48.575   7.601  1.00  0.00    +0.000 H 
ATOM    104  H7  UNL A   1       9.577  50.601   5.546  1.00  0.00    +0.000 H 
ATOM    105  H8  UNL A   1      11.234  50.445   6.076  1.00  0.00    +0.000 H 
ATOM    106  H9  UNL A   1      10.435  51.997   6.151  1.00  0.00    +0.000 H 
ATOM    107  H10 UNL A   1      11.641  49.241   9.244  1.00  0.00    +0.000 H 
BRANCH   95   96
ATOM    145  H48 UNL A   1      12.649  54.677  11.738  1.00  0.00    +0.000 H 
ATOM    146  H49 UNL A   1      10.929  54.529  11.470  1.00  0.00    +0.000 H 
ATOM    144  H47 UNL A   1      11.745  56.029  11.100  1.00  0.00    +0.000 H 
ATOM     96  C71 UNL A   1      11.836  54.963  11.104  1.00  0.00    +0.000 C 
ENDBRANCH   95   96
BRANCH   95   97
ATOM     97  C72 UNL A   1      13.378  55.097   9.117  1.00  0.00    +0.000 C 
ATOM    147  H50 UNL A   1      14.052  54.323   8.813  1.00  0.00    +0.000 H 
ATOM    148  H51 UNL A   1      13.842  55.697   9.871  1.00  0.00    +0.000 H 
ATOM    149  H52 UNL A   1      13.133  55.708   8.274  1.00  0.00    +0.000 H 
ENDBRANCH   95   97
ENDBRANCH    8    7
ENDBRANCH    9    8
ENDBRANCH   15   14
ENDBRANCH   17   15
ENDBRANCH   18   17
ENDBRANCH   19   18
ENDBRANCH   20   19
ENDBRANCH   21   20
ENDBRANCH   22   21
ENDBRANCH   23   22
ENDBRANCH   24   23
ENDBRANCH   25   24
ENDBRANCH   27   25
ENDBRANCH   31   30
BRANCH   35   36
ATOM     36  C30 UNL A   1      16.831  48.586  -1.009  1.00  0.00    +0.000 C 
ATOM     37  C31 UNL A   1      16.004  48.360  -2.118  1.00  0.00    +0.000 C 
ATOM     38  F1  UNL A   1      14.896  49.094  -2.294  1.00  0.00    +0.000 F 
ATOM     39  C32 UNL A   1      16.302  47.360  -3.041  1.00  0.00    +0.000 C 
ATOM     40  F2  UNL A   1      15.481  47.140  -4.076  1.00  0.00    +0.000 F 
ATOM     41  C33 UNL A   1      17.447  46.590  -2.890  1.00  0.00    +0.000 C 
ATOM     42  F3  UNL A   1      17.742  45.641  -3.790  1.00  0.00    +0.000 F 
ATOM     43  C34 UNL A   1      18.284  46.803  -1.807  1.00  0.00    +0.000 C 
ATOM     44  F4  UNL A   1      19.400  46.072  -1.668  1.00  0.00    +0.000 F 
ATOM     45  C35 UNL A   1      17.974  47.783  -0.867  1.00  0.00    +0.000 C 
ATOM     46  F5  UNL A   1      18.806  47.967   0.171  1.00  0.00    +0.000 F 
ENDBRANCH   35   36
BRANCH   52   53
ATOM     53  C41 UNL A   1      17.966  55.683  -0.736  1.00  0.00    +0.000 C 
ATOM     54  C42 UNL A   1      19.321  56.018  -0.601  1.00  0.00    +0.000 C 
ATOM     55  F6  UNL A   1      20.068  55.439   0.352  1.00  0.00    +0.000 F 
ATOM     56  C43 UNL A   1      19.911  56.969  -1.431  1.00  0.00    +0.000 C 
ATOM     57  F7  UNL A   1      21.200  57.297  -1.261  1.00  0.00    +0.000 F 
ATOM     58  C44 UNL A   1      19.165  57.583  -2.426  1.00  0.00    +0.000 C 
ATOM     59  F8  UNL A   1      19.737  58.490  -3.231  1.00  0.00    +0.000 F 
ATOM     60  C45 UNL A   1      17.827  57.261  -2.585  1.00  0.00    +0.000 C 
ATOM     61  F9  UNL A   1      17.108  57.845  -3.554  1.00  0.00    +0.000 F 
ATOM     62  C46 UNL A   1      17.228  56.328  -1.741  1.00  0.00    +0.000 C 
ATOM     63  F10 UNL A   1      15.930  56.040  -1.917  1.00  0.00    +0.000 F 
ENDBRANCH   52   53
BRANCH   67   68
ATOM     68  C50 UNL A   1      14.678  55.832   5.407  1.00  0.00    +0.000 C 
ATOM     69  C51 UNL A   1      13.360  56.299   5.498  1.00  0.00    +0.000 C 
ATOM     70  F11 UNL A   1      12.407  55.775   4.713  1.00  0.00    +0.000 F 
ATOM     71  C52 UNL A   1      13.021  57.332   6.370  1.00  0.00    +0.000 C 
ATOM     72  F12 UNL A   1      11.760  57.785   6.411  1.00  0.00    +0.000 F 
ATOM     73  C53 UNL A   1      13.989  57.899   7.185  1.00  0.00    +0.000 C 
ATOM     74  F13 UNL A   1      13.660  58.884   8.033  1.00  0.00    +0.000 F 
ATOM     75  C54 UNL A   1      15.299  57.450   7.115  1.00  0.00    +0.000 C 
ATOM     76  F14 UNL A   1      16.234  57.987   7.911  1.00  0.00    +0.000 F 
ATOM     77  C55 UNL A   1      15.644  56.438   6.223  1.00  0.00    +0.000 C 
ATOM     78  F15 UNL A   1      16.921  56.034   6.166  1.00  0.00    +0.000 F 
ENDBRANCH   67   68
TORSDOF 19
ENDMDL
MODEL 9
REMARK VINA RESULT:      -8.8      1.830      7.366
ROOT
ATOM    129  H32 UNL A   1      18.249  53.531  -2.452  1.00  0.00    +0.000 H 
ATOM    130  H33 UNL A   1      17.939  50.944  -2.532  1.00  0.00    +0.000 H 
ATOM    131  H34 UNL A   1      16.462  52.326   1.084  1.00  0.00    +0.000 H 
ATOM    132  H35 UNL A   1      13.947  51.243   6.820  1.00  0.00    +0.000 H 
ATOM    133  H36 UNL A   1      13.885  53.779   6.750  1.00  0.00    +0.000 H 
ATOM    134  H37 UNL A   1      15.629  52.449   3.220  1.00  0.00    +0.000 H 
ATOM    135  H38 UNL A   1      14.993  47.411   3.286  1.00  0.00    +0.000 H 
ATOM    136  H39 UNL A   1      16.080  47.332   0.971  1.00  0.00    +0.000 H 
ATOM    137  H40 UNL A   1      17.039  57.331   1.096  1.00  0.00    +0.000 H 
ATOM    138  H41 UNL A   1      16.152  57.410   3.495  1.00  0.00    +0.000 H 
ATOM     31  C26 UNL A   1      15.100  54.921   4.433  1.00  0.00    +0.000 C 
ATOM     32  C27 UNL A   1      15.809  55.201   3.120  1.00  0.00    +0.000 C 
ATOM     33  N4  UNL A   1      16.118  54.377   2.146  1.00  0.00    +0.000 N 
ATOM     34  C28 UNL A   1      16.714  55.155   1.157  1.00  0.00    +0.000 C 
ATOM     35  C29 UNL A   1      17.233  54.774  -0.037  1.00  0.00    +0.000 C 
ATOM     47  C36 UNL A   1      17.306  53.417  -0.514  1.00  0.00    +0.000 C 
ATOM     48  C37 UNL A   1      17.824  52.951  -1.712  1.00  0.00    +0.000 C 
ATOM     49  C38 UNL A   1      17.671  51.562  -1.750  1.00  0.00    +0.000 C 
ATOM     50  C39 UNL A   1      17.100  51.157  -0.556  1.00  0.00    +0.000 C 
ATOM     51  N5  UNL A   1      16.872  52.304   0.189  1.00  0.00    +0.000 N 
ATOM     52  C40 UNL A   1      16.777  49.823  -0.122  1.00  0.00    +0.000 C 
ATOM     64  C47 UNL A   1      16.246  49.523   1.088  1.00  0.00    +0.000 C 
ATOM     65  N6  UNL A   1      15.912  50.385   2.125  1.00  0.00    +0.000 N 
ATOM     66  C48 UNL A   1      15.414  49.630   3.073  1.00  0.00    +0.000 C 
ATOM     67  C49 UNL A   1      14.889  50.025   4.427  1.00  0.00    +0.000 C 
ATOM     79  C56 UNL A   1      14.825  51.326   4.778  1.00  0.00    +0.000 C 
ATOM     80  C57 UNL A   1      14.276  51.828   6.036  1.00  0.00    +0.000 C 
ATOM     81  C58 UNL A   1      14.269  53.170   6.012  1.00  0.00    +0.000 C 
ATOM     82  C59 UNL A   1      14.890  53.632   4.772  1.00  0.00    +0.000 C 
ATOM     83  N7  UNL A   1      15.192  52.465   4.102  1.00  0.00    +0.000 N 
ATOM     84  C60 UNL A   1      15.362  48.199   2.731  1.00  0.00    +0.000 C 
ATOM     85  C61 UNL A   1      15.912  48.186   1.525  1.00  0.00    +0.000 C 
ATOM     86  C62 UNL A   1      16.708  56.519   1.640  1.00  0.00    +0.000 C 
ATOM     87  C63 UNL A   1      16.222  56.590   2.872  1.00  0.00    +0.000 C 
ENDROOT
BRANCH   31   30
ATOM    139  H42 UNL A   1      12.813  56.399   4.430  1.00  0.00    +0.000 H 
ATOM    140  H43 UNL A   1      12.352  58.470   5.607  1.00  0.00    +0.000 H 
ATOM     88  C64 UNL A   1      13.497  56.759   5.114  1.00  0.00    +0.000 C 
ATOM     89  C65 UNL A   1      13.219  57.947   5.811  1.00  0.00    +0.000 C 
ATOM     27  C22 UNL A   1      14.108  58.424   6.777  1.00  0.00    +0.000 C 
ATOM     28  C23 UNL A   1      15.207  57.643   7.125  1.00  0.00    +0.000 C 
ATOM     29  C24 UNL A   1      15.521  56.498   6.377  1.00  0.00    +0.000 C 
ATOM     30  C25 UNL A   1      14.692  56.054   5.333  1.00  0.00    +0.000 C 
ATOM    127  H30 UNL A   1      15.791  57.908   7.933  1.00  0.00    +0.000 H 
ATOM    128  H31 UNL A   1      16.379  55.970   6.601  1.00  0.00    +0.000 H 
BRANCH   27   25
ATOM     25  C21 UNL A   1      13.843  59.735   7.420  1.00  0.00    +0.000 C 
ATOM     26  O2  UNL A   1      13.931  60.756   6.743  1.00  0.00    +0.000 O 
BRANCH   25   24
ATOM    126  H29 UNL A   1      14.325  60.051   9.344  1.00  0.00    +0.000 H 
ATOM     24  N3  UNL A   1      13.557  59.828   8.769  1.00  0.00    +0.000 N 
BRANCH   24   23
ATOM    124  H27 UNL A   1      12.515  59.472  10.501  1.00  0.00    +0.000 H 
ATOM    125  H28 UNL A   1      11.731  60.537   9.295  1.00  0.00    +0.000 H 
ATOM     23  C20 UNL A   1      12.297  59.646   9.468  1.00  0.00    +0.000 C 
BRANCH   23   22
ATOM    122  H25 UNL A   1      10.412  58.746   9.159  1.00  0.00    +0.000 H 
ATOM    123  H26 UNL A   1      11.696  58.389   7.931  1.00  0.00    +0.000 H 
ATOM     22  C19 UNL A   1      11.432  58.489   8.964  1.00  0.00    +0.000 C 
BRANCH   22   21
ATOM    121  H24 UNL A   1      10.691  56.717   9.734  1.00  0.00    +0.000 H 
ATOM     21  C18 UNL A   1      11.674  57.100   9.558  1.00  0.00    +0.000 C 
ATOM    120  H23 UNL A   1      12.293  57.231  10.422  1.00  0.00    +0.000 H 
BRANCH   21   20
ATOM     20  C17 UNL A   1      12.340  56.032   8.684  1.00  0.00    +0.000 C 
ATOM    118  H21 UNL A   1      11.715  55.898   7.827  1.00  0.00    +0.000 H 
ATOM    119  H22 UNL A   1      13.321  56.424   8.516  1.00  0.00    +0.000 H 
BRANCH   20   19
ATOM     19  C16 UNL A   1      12.608  54.639   9.261  1.00  0.00    +0.000 C 
ATOM    116  H19 UNL A   1      11.751  54.374   9.843  1.00  0.00    +0.000 H 
ATOM    117  H20 UNL A   1      12.811  54.046   8.393  1.00  0.00    +0.000 H 
BRANCH   19   18
ATOM     18  C15 UNL A   1      13.832  54.406  10.142  1.00  0.00    +0.000 C 
ATOM    115  H18 UNL A   1      13.940  55.306  10.711  1.00  0.00    +0.000 H 
ATOM    114  H17 UNL A   1      14.655  54.177   9.499  1.00  0.00    +0.000 H 
BRANCH   18   17
ATOM     17  N2  UNL A   1      13.741  53.356  11.119  1.00  0.00    +0.000 N 
ATOM    113  H16 UNL A   1      12.820  53.101  11.357  1.00  0.00    +0.000 H 
BRANCH   17   15
ATOM     15  C14 UNL A   1      14.716  52.645  11.782  1.00  0.00    +0.000 C 
ATOM     16  O1  UNL A   1      14.858  52.933  12.976  1.00  0.00    +0.000 O 
BRANCH   15   14
ATOM      9  C8  UNL A   1      15.448  50.791  10.042  1.00  0.00    +0.000 C 
ATOM     10  C9  UNL A   1      16.503  49.920   9.664  1.00  0.00    +0.000 C 
ATOM     11  C10 UNL A   1      17.629  49.721  10.456  1.00  0.00    +0.000 C 
ATOM     12  C11 UNL A   1      17.734  50.404  11.654  1.00  0.00    +0.000 C 
ATOM    109  H12 UNL A   1      16.433  49.413   8.767  1.00  0.00    +0.000 H 
ATOM     14  C13 UNL A   1      15.567  51.527  11.240  1.00  0.00    +0.000 C 
ATOM     13  C12 UNL A   1      16.728  51.302  12.027  1.00  0.00    +0.000 C 
ATOM    110  H13 UNL A   1      18.374  49.074  10.154  1.00  0.00    +0.000 H 
ATOM    112  H15 UNL A   1      16.836  51.824  12.911  1.00  0.00    +0.000 H 
ATOM    111  H14 UNL A   1      18.549  50.252  12.268  1.00  0.00    +0.000 H 
BRANCH    9    8
ATOM    108  H11 UNL A   1      14.266  51.268   8.404  1.00  0.00    +0.000 H 
ATOM      8  N1  UNL A   1      14.294  50.718   9.220  1.00  0.00    +0.000 N 
BRANCH    8    7
ATOM      1  C1  UNL A   1       8.898  47.974   7.811  1.00  0.00    +0.000 C 
ATOM      2  C2  UNL A   1       9.589  49.323   8.110  1.00  0.00    +0.000 C 
ATOM      3  C3  UNL A   1       9.853  49.978   6.736  1.00  0.00    +0.000 C 
ATOM      4  C4  UNL A   1       8.615  50.201   8.919  1.00  0.00    +0.000 C 
ATOM      5  C5  UNL A   1      10.864  49.177   8.949  1.00  0.00    +0.000 C 
ATOM      6  C6  UNL A   1      12.058  49.881   8.649  1.00  0.00    +0.000 C 
ATOM      7  C7  UNL A   1      13.172  49.884   9.515  1.00  0.00    +0.000 C 
ATOM    141  H44 UNL A   1      13.953  49.001  11.271  1.00  0.00    +0.000 H 
ATOM    142  H45 UNL A   1      10.233  45.978  11.612  1.00  0.00    +0.000 H 
ATOM    143  H46 UNL A   1       9.652  47.289  12.617  1.00  0.00    +0.000 H 
ATOM     90  C66 UNL A   1      13.131  49.067  10.651  1.00  0.00    +0.000 C 
ATOM     91  C67 UNL A   1      11.985  48.346  10.940  1.00  0.00    +0.000 C 
ATOM     92  C68 UNL A   1      10.876  48.424  10.122  1.00  0.00    +0.000 C 
ATOM     93  O3  UNL A   1       9.804  47.729  10.611  1.00  0.00    +0.000 O 
ATOM     94  C69 UNL A   1      10.274  47.033  11.785  1.00  0.00    +0.000 C 
ATOM     95  C70 UNL A   1      11.727  47.441  12.096  1.00  0.00    +0.000 C 
ATOM     98  H1  UNL A   1       8.019  48.145   7.223  1.00  0.00    +0.000 H 
ATOM     99  H2  UNL A   1       8.626  47.500   8.730  1.00  0.00    +0.000 H 
ATOM    100  H3  UNL A   1       9.570  47.341   7.268  1.00  0.00    +0.000 H 
ATOM    101  H4  UNL A   1       8.933  50.054   6.195  1.00  0.00    +0.000 H 
ATOM    102  H5  UNL A   1      10.544  49.378   6.182  1.00  0.00    +0.000 H 
ATOM    103  H6  UNL A   1      10.264  50.956   6.881  1.00  0.00    +0.000 H 
ATOM    104  H7  UNL A   1       7.707  50.329   8.367  1.00  0.00    +0.000 H 
ATOM    105  H8  UNL A   1       9.061  51.157   9.096  1.00  0.00    +0.000 H 
ATOM    106  H9  UNL A   1       8.400  49.728   9.853  1.00  0.00    +0.000 H 
ATOM    107  H10 UNL A   1      12.114  50.411   7.765  1.00  0.00    +0.000 H 
BRANCH   95   96
ATOM    145  H48 UNL A   1      13.676  46.566  11.973  1.00  0.00    +0.000 H 
ATOM    146  H49 UNL A   1      12.418  45.612  11.225  1.00  0.00    +0.000 H 
ATOM    144  H47 UNL A   1      12.554  45.669  12.967  1.00  0.00    +0.000 H 
ATOM     96  C71 UNL A   1      12.664  46.231  12.062  1.00  0.00    +0.000 C 
ENDBRANCH   95   96
BRANCH   95   97
ATOM     97  C72 UNL A   1      11.830  48.167  13.441  1.00  0.00    +0.000 C 
ATOM    147  H50 UNL A   1      11.741  47.457  14.236  1.00  0.00    +0.000 H 
ATOM    148  H51 UNL A   1      11.044  48.888  13.518  1.00  0.00    +0.000 H 
ATOM    149  H52 UNL A   1      12.777  48.661  13.508  1.00  0.00    +0.000 H 
ENDBRANCH   95   97
ENDBRANCH    8    7
ENDBRANCH    9    8
ENDBRANCH   15   14
ENDBRANCH   17   15
ENDBRANCH   18   17
ENDBRANCH   19   18
ENDBRANCH   20   19
ENDBRANCH   21   20
ENDBRANCH   22   21
ENDBRANCH   23   22
ENDBRANCH   24   23
ENDBRANCH   25   24
ENDBRANCH   27   25
ENDBRANCH   31   30
BRANCH   35   36
ATOM     36  C30 UNL A   1      17.774  55.846  -0.942  1.00  0.00    +0.000 C 
ATOM     37  C31 UNL A   1      16.951  56.527  -1.851  1.00  0.00    +0.000 C 
ATOM     38  F1  UNL A   1      15.668  56.169  -1.997  1.00  0.00    +0.000 F 
ATOM     39  C32 UNL A   1      17.453  57.567  -2.629  1.00  0.00    +0.000 C 
ATOM     40  F2  UNL A   1      16.658  58.183  -3.514  1.00  0.00    +0.000 F 
ATOM     41  C33 UNL A   1      18.776  57.965  -2.493  1.00  0.00    +0.000 C 
ATOM     42  F3  UNL A   1      19.252  58.978  -3.230  1.00  0.00    +0.000 F 
ATOM     43  C34 UNL A   1      19.604  57.312  -1.594  1.00  0.00    +0.000 C 
ATOM     44  F4  UNL A   1      20.877  57.706  -1.448  1.00  0.00    +0.000 F 
ATOM     45  C35 UNL A   1      19.113  56.253  -0.835  1.00  0.00    +0.000 C 
ATOM     46  F5  UNL A   1      19.939  55.642   0.029  1.00  0.00    +0.000 F 
ENDBRANCH   35   36
BRANCH   52   53
ATOM     53  C41 UNL A   1      17.061  48.690  -1.065  1.00  0.00    +0.000 C 
ATOM     54  C42 UNL A   1      18.180  47.861  -0.899  1.00  0.00    +0.000 C 
ATOM     55  F6  UNL A   1      19.068  48.113   0.074  1.00  0.00    +0.000 F 
ATOM     56  C43 UNL A   1      18.406  46.783  -1.752  1.00  0.00    +0.000 C 
ATOM     57  F7  UNL A   1      19.500  46.024  -1.595  1.00  0.00    +0.000 F 
ATOM     58  C44 UNL A   1      17.505  46.496  -2.767  1.00  0.00    +0.000 C 
ATOM     59  F8  UNL A   1      17.717  45.451  -3.578  1.00  0.00    +0.000 F 
ATOM     60  C45 UNL A   1      16.386  47.296  -2.943  1.00  0.00    +0.000 C 
ATOM     61  F9  UNL A   1      15.508  47.013  -3.915  1.00  0.00    +0.000 F 
ATOM     62  C46 UNL A   1      16.171  48.390  -2.108  1.00  0.00    +0.000 C 
ATOM     63  F10 UNL A   1      15.081  49.146  -2.305  1.00  0.00    +0.000 F 
ENDBRANCH   52   53
BRANCH   67   68
ATOM     68  C50 UNL A   1      14.429  48.981   5.382  1.00  0.00    +0.000 C 
ATOM     69  C51 UNL A   1      13.136  48.447   5.289  1.00  0.00    +0.000 C 
ATOM     70  F11 UNL A   1      12.288  48.901   4.356  1.00  0.00    +0.000 F 
ATOM     71  C52 UNL A   1      12.697  47.468   6.179  1.00  0.00    +0.000 C 
ATOM     72  F12 UNL A   1      11.444  47.000   6.092  1.00  0.00    +0.000 F 
ATOM     73  C53 UNL A   1      13.550  46.988   7.161  1.00  0.00    +0.000 C 
ATOM     74  F13 UNL A   1      13.132  46.037   8.008  1.00  0.00    +0.000 F 
ATOM     75  C54 UNL A   1      14.835  47.498   7.268  1.00  0.00    +0.000 C 
ATOM     76  F14 UNL A   1      15.667  47.027   8.208  1.00  0.00    +0.000 F 
ATOM     77  C55 UNL A   1      15.265  48.497   6.398  1.00  0.00    +0.000 C 
ATOM     78  F15 UNL A   1      16.507  48.983   6.534  1.00  0.00    +0.000 F 
ENDBRANCH   67   68
TORSDOF 19
ENDMDL
MODEL 10
REMARK VINA RESULT:      -8.8      1.680      2.980
ROOT
ATOM    129  H32 UNL A   1      13.541  47.332   2.801  1.00  0.00    +0.000 H 
ATOM    130  H33 UNL A   1      15.175  47.013   0.797  1.00  0.00    +0.000 H 
ATOM    131  H34 UNL A   1      15.254  50.999   1.927  1.00  0.00    +0.000 H 
ATOM    132  H35 UNL A   1      17.249  56.969   1.050  1.00  0.00    +0.000 H 
ATOM    133  H36 UNL A   1      15.972  57.216   3.230  1.00  0.00    +0.000 H 
ATOM    134  H37 UNL A   1      15.632  53.262   1.992  1.00  0.00    +0.000 H 
ATOM    135  H38 UNL A   1      18.817  52.866  -1.943  1.00  0.00    +0.000 H 
ATOM    136  H39 UNL A   1      18.223  50.379  -2.060  1.00  0.00    +0.000 H 
ATOM    137  H40 UNL A   1      12.127  51.480   5.847  1.00  0.00    +0.000 H 
ATOM    138  H41 UNL A   1      12.542  54.005   5.847  1.00  0.00    +0.000 H 
ATOM     31  C26 UNL A   1      14.627  54.844   4.078  1.00  0.00    +0.000 C 
ATOM     32  C27 UNL A   1      14.041  53.453   4.238  1.00  0.00    +0.000 C 
ATOM     33  N4  UNL A   1      14.333  52.345   3.599  1.00  0.00    +0.000 N 
ATOM     34  C28 UNL A   1      13.540  51.351   4.165  1.00  0.00    +0.000 C 
ATOM     35  C29 UNL A   1      13.449  50.037   3.841  1.00  0.00    +0.000 C 
ATOM     47  C36 UNL A   1      14.161  49.399   2.763  1.00  0.00    +0.000 C 
ATOM     48  C37 UNL A   1      14.116  48.071   2.368  1.00  0.00    +0.000 C 
ATOM     49  C38 UNL A   1      14.981  47.902   1.283  1.00  0.00    +0.000 C 
ATOM     50  C39 UNL A   1      15.531  49.134   0.974  1.00  0.00    +0.000 C 
ATOM     51  N5  UNL A   1      15.028  50.041   1.894  1.00  0.00    +0.000 N 
ATOM     52  C40 UNL A   1      16.454  49.466  -0.080  1.00  0.00    +0.000 C 
ATOM     64  C47 UNL A   1      16.914  50.717  -0.324  1.00  0.00    +0.000 C 
ATOM     65  N6  UNL A   1      16.615  51.896   0.347  1.00  0.00    +0.000 N 
ATOM     66  C48 UNL A   1      17.318  52.832  -0.241  1.00  0.00    +0.000 C 
ATOM     67  C49 UNL A   1      17.388  54.304   0.065  1.00  0.00    +0.000 C 
ATOM     79  C56 UNL A   1      16.713  54.812   1.116  1.00  0.00    +0.000 C 
ATOM     80  C57 UNL A   1      16.758  56.208   1.545  1.00  0.00    +0.000 C 
ATOM     81  C58 UNL A   1      16.060  56.345   2.683  1.00  0.00    +0.000 C 
ATOM     82  C59 UNL A   1      15.443  55.065   3.025  1.00  0.00    +0.000 C 
ATOM     83  N7  UNL A   1      15.886  54.213   2.036  1.00  0.00    +0.000 N 
ATOM     84  C60 UNL A   1      18.158  52.342  -1.347  1.00  0.00    +0.000 C 
ATOM     85  C61 UNL A   1      17.847  51.053  -1.376  1.00  0.00    +0.000 C 
ATOM     86  C62 UNL A   1      12.768  51.982   5.214  1.00  0.00    +0.000 C 
ATOM     87  C63 UNL A   1      12.991  53.289   5.254  1.00  0.00    +0.000 C 
ENDROOT
BRANCH   31   30
ATOM    139  H42 UNL A   1      15.826  55.562   6.414  1.00  0.00    +0.000 H 
ATOM    140  H43 UNL A   1      14.993  57.041   8.147  1.00  0.00    +0.000 H 
ATOM     88  C64 UNL A   1      14.958  56.096   6.254  1.00  0.00    +0.000 C 
ATOM     89  C65 UNL A   1      14.488  56.969   7.249  1.00  0.00    +0.000 C 
ATOM     27  C22 UNL A   1      13.344  57.739   7.031  1.00  0.00    +0.000 C 
ATOM     28  C23 UNL A   1      12.749  57.720   5.772  1.00  0.00    +0.000 C 
ATOM     29  C24 UNL A   1      13.175  56.795   4.807  1.00  0.00    +0.000 C 
ATOM     30  C25 UNL A   1      14.264  55.938   5.042  1.00  0.00    +0.000 C 
ATOM    127  H30 UNL A   1      11.995  58.388   5.549  1.00  0.00    +0.000 H 
ATOM    128  H31 UNL A   1      12.676  56.743   3.905  1.00  0.00    +0.000 H 
BRANCH   27   25
ATOM     25  C21 UNL A   1      12.809  58.571   8.138  1.00  0.00    +0.000 C 
ATOM     26  O2  UNL A   1      13.544  59.405   8.661  1.00  0.00    +0.000 O 
BRANCH   25   24
ATOM    126  H29 UNL A   1      11.029  59.211   8.810  1.00  0.00    +0.000 H 
ATOM     24  N3  UNL A   1      11.528  58.385   8.622  1.00  0.00    +0.000 N 
BRANCH   24   23
ATOM    124  H27 UNL A   1       9.792  57.407   9.116  1.00  0.00    +0.000 H 
ATOM    125  H28 UNL A   1      10.919  56.544   8.025  1.00  0.00    +0.000 H 
ATOM     23  C20 UNL A   1      10.809  57.153   8.898  1.00  0.00    +0.000 C 
BRANCH   23   22
ATOM    122  H25 UNL A   1      12.416  56.289   9.959  1.00  0.00    +0.000 H 
ATOM    123  H26 UNL A   1      10.989  56.826  10.938  1.00  0.00    +0.000 H 
ATOM     22  C19 UNL A   1      11.352  56.326  10.064  1.00  0.00    +0.000 C 
BRANCH   22   21
ATOM    121  H24 UNL A   1       9.939  54.868   9.666  1.00  0.00    +0.000 H 
ATOM     21  C18 UNL A   1      10.858  54.886  10.213  1.00  0.00    +0.000 C 
ATOM    120  H23 UNL A   1      10.788  54.683  11.262  1.00  0.00    +0.000 H 
BRANCH   21   20
ATOM     20  C17 UNL A   1      11.685  53.756   9.591  1.00  0.00    +0.000 C 
ATOM    118  H21 UNL A   1      11.926  53.076  10.381  1.00  0.00    +0.000 H 
ATOM    119  H22 UNL A   1      11.056  53.389   8.807  1.00  0.00    +0.000 H 
BRANCH   20   19
ATOM     19  C16 UNL A   1      12.997  54.083   8.871  1.00  0.00    +0.000 C 
ATOM    116  H19 UNL A   1      13.150  53.315   8.142  1.00  0.00    +0.000 H 
ATOM    117  H20 UNL A   1      12.840  55.078   8.508  1.00  0.00    +0.000 H 
BRANCH   19   18
ATOM     18  C15 UNL A   1      14.291  54.198   9.671  1.00  0.00    +0.000 C 
ATOM    115  H18 UNL A   1      14.418  55.246   9.845  1.00  0.00    +0.000 H 
ATOM    114  H17 UNL A   1      15.068  53.738   9.097  1.00  0.00    +0.000 H 
BRANCH   18   17
ATOM     17  N2  UNL A   1      14.306  53.599  10.977  1.00  0.00    +0.000 N 
ATOM    113  H16 UNL A   1      14.119  54.225  11.713  1.00  0.00    +0.000 H 
BRANCH   17   15
ATOM     15  C14 UNL A   1      14.536  52.302  11.380  1.00  0.00    +0.000 C 
ATOM     16  O1  UNL A   1      13.791  51.890  12.277  1.00  0.00    +0.000 O 
BRANCH   15   14
ATOM      9  C8  UNL A   1      15.565  50.691   9.551  1.00  0.00    +0.000 C 
ATOM     10  C9  UNL A   1      16.727  49.963   9.181  1.00  0.00    +0.000 C 
ATOM     11  C10 UNL A   1      17.814  49.804  10.035  1.00  0.00    +0.000 C 
ATOM     12  C11 UNL A   1      17.770  50.385  11.289  1.00  0.00    +0.000 C 
ATOM    109  H12 UNL A   1      16.767  49.534   8.243  1.00  0.00    +0.000 H 
ATOM     14  C13 UNL A   1      15.531  51.326  10.812  1.00  0.00    +0.000 C 
ATOM     13  C12 UNL A   1      16.656  51.145  11.661  1.00  0.00    +0.000 C 
ATOM    110  H13 UNL A   1      18.640  49.262   9.736  1.00  0.00    +0.000 H 
ATOM    112  H15 UNL A   1      16.651  51.594  12.590  1.00  0.00    +0.000 H 
ATOM    111  H14 UNL A   1      18.556  50.258  11.947  1.00  0.00    +0.000 H 
BRANCH    9    8
ATOM    108  H11 UNL A   1      14.577  50.980   7.749  1.00  0.00    +0.000 H 
ATOM      8  N1  UNL A   1      14.481  50.580   8.644  1.00  0.00    +0.000 N 
BRANCH    8    7
ATOM      1  C1  UNL A   1       8.398  49.519   7.937  1.00  0.00    +0.000 C 
ATOM      2  C2  UNL A   1       9.454  50.533   8.430  1.00  0.00    +0.000 C 
ATOM      3  C3  UNL A   1       9.619  51.562   7.290  1.00  0.00    +0.000 C 
ATOM      4  C4  UNL A   1       8.905  51.239   9.684  1.00  0.00    +0.000 C 
ATOM      5  C5  UNL A   1      10.781  49.878   8.830  1.00  0.00    +0.000 C 
ATOM      6  C6  UNL A   1      12.040  50.413   8.452  1.00  0.00    +0.000 C 
ATOM      7  C7  UNL A   1      13.257  49.914   8.961  1.00  0.00    +0.000 C 
ATOM    141  H44 UNL A   1      14.097  48.354  10.116  1.00  0.00    +0.000 H 
ATOM    142  H45 UNL A   1       9.855  46.128  10.504  1.00  0.00    +0.000 H 
ATOM    143  H46 UNL A   1       9.826  47.095  11.965  1.00  0.00    +0.000 H 
ATOM     90  C66 UNL A   1      13.219  48.777   9.777  1.00  0.00    +0.000 C 
ATOM     91  C67 UNL A   1      12.000  48.222  10.128  1.00  0.00    +0.000 C 
ATOM     92  C68 UNL A   1      10.817  48.777   9.685  1.00  0.00    +0.000 C 
ATOM     93  O3  UNL A   1       9.712  48.164  10.209  1.00  0.00    +0.000 O 
ATOM     94  C69 UNL A   1      10.197  47.033  10.963  1.00  0.00    +0.000 C 
ATOM     95  C70 UNL A   1      11.737  47.037  10.993  1.00  0.00    +0.000 C 
ATOM     98  H1  UNL A   1       7.499  50.039   7.675  1.00  0.00    +0.000 H 
ATOM     99  H2  UNL A   1       8.188  48.815   8.715  1.00  0.00    +0.000 H 
ATOM    100  H3  UNL A   1       8.773  49.002   7.079  1.00  0.00    +0.000 H 
ATOM    101  H4  UNL A   1       8.665  51.986   7.053  1.00  0.00    +0.000 H 
ATOM    102  H5  UNL A   1      10.018  51.075   6.425  1.00  0.00    +0.000 H 
ATOM    103  H6  UNL A   1      10.286  52.338   7.604  1.00  0.00    +0.000 H 
ATOM    104  H7  UNL A   1       7.974  51.713   9.449  1.00  0.00    +0.000 H 
ATOM    105  H8  UNL A   1       9.606  51.978  10.013  1.00  0.00    +0.000 H 
ATOM    106  H9  UNL A   1       8.752  50.521  10.461  1.00  0.00    +0.000 H 
ATOM    107  H10 UNL A   1      12.065  51.195   7.780  1.00  0.00    +0.000 H 
BRANCH   95   96
ATOM    145  H48 UNL A   1      12.396  45.896   9.307  1.00  0.00    +0.000 H 
ATOM    146  H49 UNL A   1      11.658  44.941  10.569  1.00  0.00    +0.000 H 
ATOM    144  H47 UNL A   1      13.277  45.565  10.779  1.00  0.00    +0.000 H 
ATOM     96  C71 UNL A   1      12.310  45.764  10.364  1.00  0.00    +0.000 C 
ENDBRANCH   95   96
BRANCH   95   97
ATOM     97  C72 UNL A   1      12.269  47.223  12.417  1.00  0.00    +0.000 C 
ATOM    147  H50 UNL A   1      12.376  48.267  12.624  1.00  0.00    +0.000 H 
ATOM    148  H51 UNL A   1      13.221  46.743  12.508  1.00  0.00    +0.000 H 
ATOM    149  H52 UNL A   1      11.582  46.789  13.114  1.00  0.00    +0.000 H 
ENDBRANCH   95   97
ENDBRANCH    8    7
ENDBRANCH    9    8
ENDBRANCH   15   14
ENDBRANCH   17   15
ENDBRANCH   18   17
ENDBRANCH   19   18
ENDBRANCH   20   19
ENDBRANCH   21   20
ENDBRANCH   22   21
ENDBRANCH   23   22
ENDBRANCH   24   23
ENDBRANCH   25   24
ENDBRANCH   27   25
ENDBRANCH   31   30
BRANCH   35   36
ATOM     36  C30 UNL A   1      12.538  49.171   4.665  1.00  0.00    +0.000 C 
ATOM     37  C31 UNL A   1      11.161  49.101   4.411  1.00  0.00    +0.000 C 
ATOM     38  F1  UNL A   1      10.607  49.884   3.475  1.00  0.00    +0.000 F 
ATOM     39  C32 UNL A   1      10.343  48.238   5.137  1.00  0.00    +0.000 C 
ATOM     40  F2  UNL A   1       9.025  48.210   4.900  1.00  0.00    +0.000 F 
ATOM     41  C33 UNL A   1      10.890  47.409   6.106  1.00  0.00    +0.000 C 
ATOM     42  F3  UNL A   1      10.103  46.565   6.790  1.00  0.00    +0.000 F 
ATOM     43  C34 UNL A   1      12.250  47.455   6.367  1.00  0.00    +0.000 C 
ATOM     44  F4  UNL A   1      12.783  46.642   7.291  1.00  0.00    +0.000 F 
ATOM     45  C35 UNL A   1      13.066  48.337   5.663  1.00  0.00    +0.000 C 
ATOM     46  F5  UNL A   1      14.380  48.356   5.937  1.00  0.00    +0.000 F 
ENDBRANCH   35   36
BRANCH   52   53
ATOM     53  C41 UNL A   1      16.927  48.357  -0.974  1.00  0.00    +0.000 C 
ATOM     54  C42 UNL A   1      16.244  48.024  -2.153  1.00  0.00    +0.000 C 
ATOM     55  F6  UNL A   1      15.101  48.651  -2.470  1.00  0.00    +0.000 F 
ATOM     56  C43 UNL A   1      16.720  47.026  -3.000  1.00  0.00    +0.000 C 
ATOM     57  F7  UNL A   1      16.033  46.702  -4.104  1.00  0.00    +0.000 F 
ATOM     58  C44 UNL A   1      17.900  46.361  -2.699  1.00  0.00    +0.000 C 
ATOM     59  F8  UNL A   1      18.364  45.410  -3.521  1.00  0.00    +0.000 F 
ATOM     60  C45 UNL A   1      18.597  46.681  -1.545  1.00  0.00    +0.000 C 
ATOM     61  F9  UNL A   1      19.744  46.048  -1.259  1.00  0.00    +0.000 F 
ATOM     62  C46 UNL A   1      18.111  47.661  -0.683  1.00  0.00    +0.000 C 
ATOM     63  F10 UNL A   1      18.806  47.945   0.428  1.00  0.00    +0.000 F 
ENDBRANCH   52   53
BRANCH   67   68
ATOM     68  C50 UNL A   1      18.211  55.204  -0.787  1.00  0.00    +0.000 C 
ATOM     69  C51 UNL A   1      19.470  55.644  -0.356  1.00  0.00    +0.000 C 
ATOM     70  F11 UNL A   1      19.930  55.282   0.851  1.00  0.00    +0.000 F 
ATOM     71  C52 UNL A   1      20.248  56.487  -1.147  1.00  0.00    +0.000 C 
ATOM     72  F12 UNL A   1      21.432  56.922  -0.696  1.00  0.00    +0.000 F 
ATOM     73  C53 UNL A   1      19.792  56.885  -2.395  1.00  0.00    +0.000 C 
ATOM     74  F13 UNL A   1      20.546  57.685  -3.162  1.00  0.00    +0.000 F 
ATOM     75  C54 UNL A   1      18.551  56.459  -2.844  1.00  0.00    +0.000 C 
ATOM     76  F14 UNL A   1      18.113  56.831  -4.055  1.00  0.00    +0.000 F 
ATOM     77  C55 UNL A   1      17.761  55.640  -2.042  1.00  0.00    +0.000 C 
ATOM     78  F15 UNL A   1      16.559  55.256  -2.495  1.00  0.00    +0.000 F 
ENDBRANCH   67   68
TORSDOF 19
ENDMDL
