MODEL 1
REMARK VINA RESULT:     -10.3      0.000      0.000
ROOT
ATOM    129  H35 UNL A   1      15.116  47.224   0.383  1.00  0.00    +0.000 H 
ATOM    130  H36 UNL A   1      13.151  47.454   2.008  1.00  0.00    +0.000 H 
ATOM     36  C27 UNL A   1      12.908  50.054   3.150  1.00  0.00    +0.000 C 
ATOM     37  C28 UNL A   1      13.865  49.604   2.084  1.00  0.00    +0.000 C 
ATOM     38  N4  UNL A   1      14.781  50.293   1.448  1.00  0.00    +0.000 N 
ATOM     39  C29 UNL A   1      15.411  49.395   0.598  1.00  0.00    +0.000 C 
ATOM     40  C30 UNL A   1      16.389  49.632  -0.311  1.00  0.00    +0.000 C 
ATOM     52  C37 UNL A   1      16.973  50.927  -0.554  1.00  0.00    +0.000 C 
ATOM     53  C38 UNL A   1      17.910  51.286  -1.507  1.00  0.00    +0.000 C 
ATOM     54  C39 UNL A   1      18.224  52.638  -1.326  1.00  0.00    +0.000 C 
ATOM     55  C40 UNL A   1      17.445  53.135  -0.293  1.00  0.00    +0.000 C 
ATOM     56  N5  UNL A   1      16.683  52.074   0.172  1.00  0.00    +0.000 N 
ATOM     57  C41 UNL A   1      17.397  54.475   0.234  1.00  0.00    +0.000 C 
ATOM     69  C48 UNL A   1      16.575  54.889   1.230  1.00  0.00    +0.000 C 
ATOM     70  N6  UNL A   1      15.640  54.158   1.950  1.00  0.00    +0.000 N 
ATOM     71  C49 UNL A   1      15.117  54.993   2.814  1.00  0.00    +0.000 C 
ATOM     72  C50 UNL A   1      14.038  54.755   3.833  1.00  0.00    +0.000 C 
ATOM     84  C57 UNL A   1      13.492  53.529   3.939  1.00  0.00    +0.000 C 
ATOM     85  C58 UNL A   1      12.425  53.156   4.862  1.00  0.00    +0.000 C 
ATOM     86  C59 UNL A   1      12.130  51.859   4.688  1.00  0.00    +0.000 C 
ATOM     87  C60 UNL A   1      12.967  51.316   3.616  1.00  0.00    +0.000 C 
ATOM     88  N7  UNL A   1      13.764  52.373   3.250  1.00  0.00    +0.000 N 
ATOM     89  C61 UNL A   1      15.677  56.350   2.753  1.00  0.00    +0.000 C 
ATOM     90  C62 UNL A   1      16.529  56.243   1.743  1.00  0.00    +0.000 C 
ATOM     91  C63 UNL A   1      14.806  48.101   0.831  1.00  0.00    +0.000 C 
ATOM     92  C64 UNL A   1      13.804  48.188   1.693  1.00  0.00    +0.000 C 
ATOM    121  H27 UNL A   1      18.310  50.665  -2.228  1.00  0.00    +0.000 H 
ATOM    122  H28 UNL A   1      18.918  53.175  -1.869  1.00  0.00    +0.000 H 
ATOM    123  H29 UNL A   1      16.030  52.126   0.907  1.00  0.00    +0.000 H 
ATOM    124  H30 UNL A   1      11.971  53.788   5.540  1.00  0.00    +0.000 H 
ATOM    125  H31 UNL A   1      11.426  51.328   5.224  1.00  0.00    +0.000 H 
ATOM    126  H32 UNL A   1      14.462  52.306   2.559  1.00  0.00    +0.000 H 
ATOM    127  H33 UNL A   1      15.463  57.171   3.341  1.00  0.00    +0.000 H 
ATOM    128  H34 UNL A   1      17.089  57.026   1.370  1.00  0.00    +0.000 H 
ENDROOT
BRANCH   36   35
ATOM     33  C24 UNL A   1       9.704  48.122   3.770  1.00  0.00    +0.000 C 
ATOM     34  C25 UNL A   1      10.658  48.940   3.160  1.00  0.00    +0.000 C 
ATOM     35  C26 UNL A   1      11.925  49.110   3.741  1.00  0.00    +0.000 C 
ATOM    132  H38 UNL A   1      11.574  46.955   6.296  1.00  0.00    +0.000 H 
ATOM    131  H37 UNL A   1      13.169  48.513   5.342  1.00  0.00    +0.000 H 
ATOM    119  H25 UNL A   1       8.766  48.023   3.353  1.00  0.00    +0.000 H 
ATOM    120  H26 UNL A   1      10.429  49.423   2.277  1.00  0.00    +0.000 H 
ATOM     93  C65 UNL A   1      12.242  48.396   4.906  1.00  0.00    +0.000 C 
ATOM     94  C66 UNL A   1      11.311  47.529   5.478  1.00  0.00    +0.000 C 
ATOM     32  C23 UNL A   1      10.021  47.436   4.948  1.00  0.00    +0.000 C 
BRANCH   32   30
ATOM     30  C22 UNL A   1       8.973  46.593   5.572  1.00  0.00    +0.000 C 
ATOM     31  O2  UNL A   1       8.979  45.384   5.382  1.00  0.00    +0.000 O 
BRANCH   30   29
ATOM     29  N3  UNL A   1       7.981  47.157   6.337  1.00  0.00    +0.000 N 
ATOM    118  H24 UNL A   1       7.118  47.273   5.878  1.00  0.00    +0.000 H 
BRANCH   29   28
ATOM    116  H22 UNL A   1       8.540  48.536   7.764  1.00  0.00    +0.000 H 
ATOM     28  C21 UNL A   1       8.007  47.610   7.717  1.00  0.00    +0.000 C 
ATOM    117  H23 UNL A   1       6.992  47.720   8.040  1.00  0.00    +0.000 H 
BRANCH   28   27
ATOM    114  H20 UNL A   1       8.086  46.537   9.541  1.00  0.00    +0.000 H 
ATOM     27  C20 UNL A   1       8.680  46.610   8.655  1.00  0.00    +0.000 C 
ATOM    115  H21 UNL A   1       8.751  45.693   8.106  1.00  0.00    +0.000 H 
BRANCH   27   26
ATOM    113  H19 UNL A   1      10.089  47.043  10.139  1.00  0.00    +0.000 H 
ATOM     26  C19 UNL A   1      10.111  46.962   9.072  1.00  0.00    +0.000 C 
ATOM    112  H18 UNL A   1      10.385  47.866   8.569  1.00  0.00    +0.000 H 
BRANCH   26   25
ATOM     25  C18 UNL A   1      11.179  45.913   8.761  1.00  0.00    +0.000 C 
ATOM    110  H16 UNL A   1      10.705  44.954   8.768  1.00  0.00    +0.000 H 
ATOM    111  H17 UNL A   1      11.588  46.200   7.814  1.00  0.00    +0.000 H 
BRANCH   25   24
ATOM    108  H14 UNL A   1      12.221  45.021  10.376  1.00  0.00    +0.000 H 
ATOM    109  H15 UNL A   1      13.237  45.755   9.086  1.00  0.00    +0.000 H 
ATOM     24  C17 UNL A   1      12.377  45.847   9.716  1.00  0.00    +0.000 C 
BRANCH   24   23
ATOM    106  H12 UNL A   1      11.815  47.765  10.434  1.00  0.00    +0.000 H 
ATOM    107  H13 UNL A   1      12.715  46.757  11.585  1.00  0.00    +0.000 H 
ATOM     23  C16 UNL A   1      12.630  47.085  10.571  1.00  0.00    +0.000 C 
BRANCH   23   22
ATOM    105  H11 UNL A   1      14.514  47.989  10.938  1.00  0.00    +0.000 H 
ATOM     22  N2  UNL A   1      13.862  47.770  10.235  1.00  0.00    +0.000 N 
BRANCH   22    2
ATOM      1  O1  UNL A   1      13.365  48.816   8.247  1.00  0.00    +0.000 O 
ATOM      2  C1  UNL A   1      14.116  48.115   8.922  1.00  0.00    +0.000 C 
BRANCH    2    3
ATOM      3  C2  UNL A   1      15.439  47.627   8.383  1.00  0.00    +0.000 C 
ATOM     95  H1  UNL A   1      15.422  46.558   8.414  1.00  0.00    +0.000 H 
ATOM     96  H2  UNL A   1      16.174  48.096   9.005  1.00  0.00    +0.000 H 
BRANCH    3    4
ATOM     97  H3  UNL A   1      14.854  46.295   6.238  1.00  0.00    +0.000 H 
ATOM     98  H4  UNL A   1      15.380  46.657   3.908  1.00  0.00    +0.000 H 
ATOM     99  H5  UNL A   1      16.747  48.554   3.271  1.00  0.00    +0.000 H 
ATOM      4  C3  UNL A   1      15.821  48.033   6.968  1.00  0.00    +0.000 C 
ATOM      5  C4  UNL A   1      15.404  47.124   5.966  1.00  0.00    +0.000 C 
ATOM      6  C5  UNL A   1      15.716  47.321   4.624  1.00  0.00    +0.000 C 
ATOM    100  H6  UNL A   1      17.489  50.126   4.947  1.00  0.00    +0.000 H 
ATOM      8  C7  UNL A   1      16.891  49.333   5.228  1.00  0.00    +0.000 C 
ATOM      9  C8  UNL A   1      16.511  49.207   6.579  1.00  0.00    +0.000 C 
ATOM      7  C6  UNL A   1      16.481  48.416   4.257  1.00  0.00    +0.000 C 
BRANCH    9   10
ATOM     10  N1  UNL A   1      16.928  50.179   7.525  1.00  0.00    +0.000 N 
ATOM    101  H7  UNL A   1      17.899  50.327   7.588  1.00  0.00    +0.000 H 
BRANCH   10   11
ATOM    102  H8  UNL A   1      13.733  53.344   8.094  1.00  0.00    +0.000 H 
ATOM    103  H9  UNL A   1      14.030  53.431  10.502  1.00  0.00    +0.000 H 
ATOM    104  H10 UNL A   1      15.655  51.985  11.559  1.00  0.00    +0.000 H 
ATOM     11  C9  UNL A   1      16.123  50.965   8.391  1.00  0.00    +0.000 C 
ATOM     12  C10 UNL A   1      15.181  51.837   7.809  1.00  0.00    +0.000 C 
ATOM     13  F1  UNL A   1      14.989  51.823   6.485  1.00  0.00    +0.000 F 
ATOM     14  C11 UNL A   1      14.419  52.728   8.557  1.00  0.00    +0.000 C 
ATOM     15  C12 UNL A   1      14.591  52.781   9.930  1.00  0.00    +0.000 C 
ATOM     16  C13 UNL A   1      15.534  51.947  10.535  1.00  0.00    +0.000 C 
ATOM     17  C14 UNL A   1      16.328  51.051   9.780  1.00  0.00    +0.000 C 
ATOM     18  C15 UNL A   1      17.344  50.213  10.514  1.00  0.00    +0.000 C 
ATOM     19  F2  UNL A   1      17.782  50.818  11.659  1.00  0.00    +0.000 F 
ATOM     20  F3  UNL A   1      16.834  49.016  10.919  1.00  0.00    +0.000 F 
ATOM     21  F4  UNL A   1      18.474  49.941   9.809  1.00  0.00    +0.000 F 
ENDBRANCH   10   11
ENDBRANCH    9   10
ENDBRANCH    3    4
ENDBRANCH    2    3
ENDBRANCH   22    2
ENDBRANCH   23   22
ENDBRANCH   24   23
ENDBRANCH   25   24
ENDBRANCH   26   25
ENDBRANCH   27   26
ENDBRANCH   28   27
ENDBRANCH   29   28
ENDBRANCH   30   29
ENDBRANCH   32   30
ENDBRANCH   36   35
BRANCH   40   41
ATOM     41  C31 UNL A   1      16.894  48.462  -1.106  1.00  0.00    +0.000 C 
ATOM     42  C32 UNL A   1      16.275  48.057  -2.298  1.00  0.00    +0.000 C 
ATOM     43  F5  UNL A   1      15.183  48.696  -2.743  1.00  0.00    +0.000 F 
ATOM     44  C33 UNL A   1      16.750  46.963  -3.018  1.00  0.00    +0.000 C 
ATOM     45  F6  UNL A   1      16.109  46.562  -4.125  1.00  0.00    +0.000 F 
ATOM     46  C34 UNL A   1      17.875  46.279  -2.584  1.00  0.00    +0.000 C 
ATOM     47  F7  UNL A   1      18.331  45.228  -3.279  1.00  0.00    +0.000 F 
ATOM     48  C35 UNL A   1      18.519  46.678  -1.423  1.00  0.00    +0.000 C 
ATOM     49  F8  UNL A   1      19.615  46.026  -1.010  1.00  0.00    +0.000 F 
ATOM     50  C36 UNL A   1      18.029  47.752  -0.684  1.00  0.00    +0.000 C 
ATOM     51  F9  UNL A   1      18.665  48.100   0.444  1.00  0.00    +0.000 F 
ENDBRANCH   40   41
BRANCH   57   58
ATOM     65  C46 UNL A   1      20.349  56.822  -0.288  1.00  0.00    +0.000 C 
ATOM     66  F13 UNL A   1      21.484  57.156   0.344  1.00  0.00    +0.000 F 
ATOM     67  C47 UNL A   1      19.505  55.860   0.261  1.00  0.00    +0.000 C 
ATOM     68  F14 UNL A   1      19.860  55.276   1.415  1.00  0.00    +0.000 F 
ATOM     58  C42 UNL A   1      18.304  55.508  -0.372  1.00  0.00    +0.000 C 
ATOM     59  C43 UNL A   1      17.981  56.155  -1.574  1.00  0.00    +0.000 C 
ATOM     60  F10 UNL A   1      16.853  55.840  -2.228  1.00  0.00    +0.000 F 
ATOM     61  C44 UNL A   1      18.843  57.093  -2.137  1.00  0.00    +0.000 C 
ATOM     62  F11 UNL A   1      18.540  57.655  -3.315  1.00  0.00    +0.000 F 
ATOM     63  C45 UNL A   1      20.023  57.430  -1.491  1.00  0.00    +0.000 C 
ATOM     64  F12 UNL A   1      20.851  58.333  -2.033  1.00  0.00    +0.000 F 
ENDBRANCH   57   58
BRANCH   72   73
ATOM     73  C51 UNL A   1      13.540  55.861   4.691  1.00  0.00    +0.000 C 
ATOM     74  C52 UNL A   1      12.533  56.723   4.234  1.00  0.00    +0.000 C 
ATOM     75  F15 UNL A   1      12.032  56.572   3.000  1.00  0.00    +0.000 F 
ATOM     76  C53 UNL A   1      12.063  57.765   5.030  1.00  0.00    +0.000 C 
ATOM     77  F16 UNL A   1      11.128  58.598   4.556  1.00  0.00    +0.000 F 
ATOM     78  C54 UNL A   1      12.571  57.948   6.308  1.00  0.00    +0.000 C 
ATOM     79  F17 UNL A   1      12.112  58.944   7.077  1.00  0.00    +0.000 F 
ATOM     80  C55 UNL A   1      13.558  57.100   6.786  1.00  0.00    +0.000 C 
ATOM     81  F18 UNL A   1      14.039  57.264   8.025  1.00  0.00    +0.000 F 
ATOM     82  C56 UNL A   1      14.048  56.074   5.980  1.00  0.00    +0.000 C 
ATOM     83  F19 UNL A   1      15.009  55.273   6.465  1.00  0.00    +0.000 F 
ENDBRANCH   72   73
TORSDOF 18
ENDMDL
MODEL 2
REMARK VINA RESULT:      -9.9     64.647     71.191
ROOT
ATOM    129  H35 UNL A   1      21.816 -10.041  32.570  1.00  0.00    +0.000 H 
ATOM    130  H36 UNL A   1      22.434 -10.803  30.206  1.00  0.00    +0.000 H 
ATOM     36  C27 UNL A   1      24.787 -12.408  30.099  1.00  0.00    +0.000 C 
ATOM     37  C28 UNL A   1      24.081 -11.892  31.320  1.00  0.00    +0.000 C 
ATOM     38  N4  UNL A   1      24.380 -12.065  32.584  1.00  0.00    +0.000 N 
ATOM     39  C29 UNL A   1      23.432 -11.346  33.300  1.00  0.00    +0.000 C 
ATOM     40  C30 UNL A   1      23.276 -11.255  34.644  1.00  0.00    +0.000 C 
ATOM     52  C37 UNL A   1      24.118 -11.921  35.605  1.00  0.00    +0.000 C 
ATOM     53  C38 UNL A   1      23.994 -11.957  36.983  1.00  0.00    +0.000 C 
ATOM     54  C39 UNL A   1      25.078 -12.675  37.503  1.00  0.00    +0.000 C 
ATOM     55  C40 UNL A   1      25.849 -13.130  36.446  1.00  0.00    +0.000 C 
ATOM     56  N5  UNL A   1      25.249 -12.659  35.287  1.00  0.00    +0.000 N 
ATOM     57  C41 UNL A   1      27.045 -13.933  36.485  1.00  0.00    +0.000 C 
ATOM     69  C48 UNL A   1      27.725 -14.368  35.394  1.00  0.00    +0.000 C 
ATOM     70  N6  UNL A   1      27.453 -14.146  34.051  1.00  0.00    +0.000 N 
ATOM     71  C49 UNL A   1      28.406 -14.751  33.386  1.00  0.00    +0.000 C 
ATOM     72  C50 UNL A   1      28.605 -14.863  31.900  1.00  0.00    +0.000 C 
ATOM     84  C57 UNL A   1      27.723 -14.272  31.072  1.00  0.00    +0.000 C 
ATOM     85  C58 UNL A   1      27.773 -14.314  29.614  1.00  0.00    +0.000 C 
ATOM     86  C59 UNL A   1      26.736 -13.621  29.120  1.00  0.00    +0.000 C 
ATOM     87  C60 UNL A   1      25.927 -13.113  30.230  1.00  0.00    +0.000 C 
ATOM     88  N7  UNL A   1      26.605 -13.525  31.351  1.00  0.00    +0.000 N 
ATOM     89  C61 UNL A   1      29.406 -15.412  34.236  1.00  0.00    +0.000 C 
ATOM     90  C62 UNL A   1      28.920 -15.184  35.447  1.00  0.00    +0.000 C 
ATOM     91  C63 UNL A   1      22.577 -10.696  32.330  1.00  0.00    +0.000 C 
ATOM     92  C64 UNL A   1      22.896 -11.052  31.094  1.00  0.00    +0.000 C 
ATOM    121  H27 UNL A   1      23.233 -11.528  37.534  1.00  0.00    +0.000 H 
ATOM    122  H28 UNL A   1      25.269 -12.838  38.503  1.00  0.00    +0.000 H 
ATOM    123  H29 UNL A   1      25.576 -12.825  34.374  1.00  0.00    +0.000 H 
ATOM    124  H30 UNL A   1      28.492 -14.798  29.053  1.00  0.00    +0.000 H 
ATOM    125  H31 UNL A   1      26.539 -13.471  28.119  1.00  0.00    +0.000 H 
ATOM    126  H32 UNL A   1      26.316 -13.305  32.266  1.00  0.00    +0.000 H 
ATOM    127  H33 UNL A   1      30.262 -15.919  33.961  1.00  0.00    +0.000 H 
ATOM    128  H34 UNL A   1      29.340 -15.544  36.319  1.00  0.00    +0.000 H 
ENDROOT
BRANCH   36   35
ATOM     33  C24 UNL A   1      22.957 -12.738  26.793  1.00  0.00    +0.000 C 
ATOM     34  C25 UNL A   1      23.366 -12.976  28.108  1.00  0.00    +0.000 C 
ATOM     35  C26 UNL A   1      24.275 -12.109  28.737  1.00  0.00    +0.000 C 
ATOM    132  H38 UNL A   1      24.531  -9.822  26.288  1.00  0.00    +0.000 H 
ATOM    131  H37 UNL A   1      25.383 -10.324  28.501  1.00  0.00    +0.000 H 
ATOM    119  H25 UNL A   1      22.311 -13.394  26.328  1.00  0.00    +0.000 H 
ATOM    120  H26 UNL A   1      22.997 -13.792  28.620  1.00  0.00    +0.000 H 
ATOM     93  C65 UNL A   1      24.715 -10.968  28.051  1.00  0.00    +0.000 C 
ATOM     94  C66 UNL A   1      24.256 -10.698  26.761  1.00  0.00    +0.000 C 
ATOM     32  C23 UNL A   1      23.425 -11.612  26.107  1.00  0.00    +0.000 C 
BRANCH   32   30
ATOM     30  C22 UNL A   1      22.981 -11.410  24.707  1.00  0.00    +0.000 C 
ATOM     31  O2  UNL A   1      21.915 -11.885  24.339  1.00  0.00    +0.000 O 
BRANCH   30   29
ATOM     29  N3  UNL A   1      23.764 -10.720  23.814  1.00  0.00    +0.000 N 
ATOM    118  H24 UNL A   1      23.611  -9.747  23.793  1.00  0.00    +0.000 H 
BRANCH   29   28
ATOM    116  H22 UNL A   1      24.483 -12.156  22.521  1.00  0.00    +0.000 H 
ATOM     28  C21 UNL A   1      24.783 -11.200  22.897  1.00  0.00    +0.000 C 
ATOM    117  H23 UNL A   1      24.877 -10.478  22.112  1.00  0.00    +0.000 H 
BRANCH   28   27
ATOM    114  H20 UNL A   1      26.065 -12.059  24.346  1.00  0.00    +0.000 H 
ATOM     27  C20 UNL A   1      26.153 -11.342  23.557  1.00  0.00    +0.000 C 
ATOM    115  H21 UNL A   1      26.826 -11.638  22.779  1.00  0.00    +0.000 H 
BRANCH   27   26
ATOM    113  H19 UNL A   1      27.039 -10.306  25.142  1.00  0.00    +0.000 H 
ATOM     26  C19 UNL A   1      26.733 -10.055  24.148  1.00  0.00    +0.000 C 
ATOM    112  H18 UNL A   1      25.975  -9.301  24.101  1.00  0.00    +0.000 H 
BRANCH   26   25
ATOM     25  C18 UNL A   1      27.983  -9.503  23.460  1.00  0.00    +0.000 C 
ATOM    110  H16 UNL A   1      28.817 -10.090  23.782  1.00  0.00    +0.000 H 
ATOM    111  H17 UNL A   1      27.776  -9.561  22.412  1.00  0.00    +0.000 H 
BRANCH   25   24
ATOM    108  H14 UNL A   1      28.923  -7.684  22.913  1.00  0.00    +0.000 H 
ATOM    109  H15 UNL A   1      27.375  -7.536  23.816  1.00  0.00    +0.000 H 
ATOM     24  C17 UNL A   1      28.319  -8.031  23.725  1.00  0.00    +0.000 C 
BRANCH   24   23
ATOM    106  H12 UNL A   1      29.643  -8.587  25.288  1.00  0.00    +0.000 H 
ATOM    107  H13 UNL A   1      29.674  -6.869  24.843  1.00  0.00    +0.000 H 
ATOM     23  C16 UNL A   1      29.064  -7.729  25.022  1.00  0.00    +0.000 C 
BRANCH   23   22
ATOM    105  H11 UNL A   1      27.579  -6.632  26.069  1.00  0.00    +0.000 H 
ATOM     22  N2  UNL A   1      28.182  -7.408  26.126  1.00  0.00    +0.000 N 
BRANCH   22    2
ATOM      1  O1  UNL A   1      28.225  -9.424  27.232  1.00  0.00    +0.000 O 
ATOM      2  C1  UNL A   1      28.192  -8.196  27.260  1.00  0.00    +0.000 C 
BRANCH    2    3
ATOM      3  C2  UNL A   1      28.236  -7.433  28.562  1.00  0.00    +0.000 C 
ATOM     95  H1  UNL A   1      27.664  -6.539  28.428  1.00  0.00    +0.000 H 
ATOM     96  H2  UNL A   1      29.279  -7.290  28.756  1.00  0.00    +0.000 H 
BRANCH    3    4
ATOM     97  H3  UNL A   1      25.733  -7.661  29.195  1.00  0.00    +0.000 H 
ATOM     98  H4  UNL A   1      24.626  -8.631  31.110  1.00  0.00    +0.000 H 
ATOM     99  H5  UNL A   1      25.950  -9.579  32.906  1.00  0.00    +0.000 H 
ATOM      4  C3  UNL A   1      27.708  -8.126  29.808  1.00  0.00    +0.000 C 
ATOM      5  C4  UNL A   1      26.298  -8.097  29.940  1.00  0.00    +0.000 C 
ATOM      6  C5  UNL A   1      25.656  -8.643  31.048  1.00  0.00    +0.000 C 
ATOM    100  H6  UNL A   1      28.357  -9.641  32.728  1.00  0.00    +0.000 H 
ATOM      8  C7  UNL A   1      27.803  -9.253  31.948  1.00  0.00    +0.000 C 
ATOM      9  C8  UNL A   1      28.471  -8.793  30.797  1.00  0.00    +0.000 C 
ATOM      7  C6  UNL A   1      26.412  -9.202  32.065  1.00  0.00    +0.000 C 
BRANCH    9   10
ATOM     10  N1  UNL A   1      29.884  -8.892  30.711  1.00  0.00    +0.000 N 
ATOM    101  H7  UNL A   1      30.390  -8.436  31.422  1.00  0.00    +0.000 H 
BRANCH   10   11
ATOM    102  H8  UNL A   1      31.066 -12.739  28.626  1.00  0.00    +0.000 H 
ATOM    103  H9  UNL A   1      32.852 -11.687  27.363  1.00  0.00    +0.000 H 
ATOM    104  H10 UNL A   1      33.261  -9.317  27.617  1.00  0.00    +0.000 H 
ATOM     11  C9  UNL A   1      30.661  -9.566  29.732  1.00  0.00    +0.000 C 
ATOM     12  C10 UNL A   1      30.466 -10.952  29.572  1.00  0.00    +0.000 C 
ATOM     13  F1  UNL A   1      29.495 -11.572  30.253  1.00  0.00    +0.000 F 
ATOM     14  C11 UNL A   1      31.247 -11.728  28.721  1.00  0.00    +0.000 C 
ATOM     15  C12 UNL A   1      32.268 -11.129  28.004  1.00  0.00    +0.000 C 
ATOM     16  C13 UNL A   1      32.502  -9.761  28.157  1.00  0.00    +0.000 C 
ATOM     17  C14 UNL A   1      31.727  -8.968  29.037  1.00  0.00    +0.000 C 
ATOM     18  C15 UNL A   1      32.073  -7.505  29.163  1.00  0.00    +0.000 C 
ATOM     19  F2  UNL A   1      33.394  -7.263  28.905  1.00  0.00    +0.000 F 
ATOM     20  F3  UNL A   1      31.390  -6.731  28.273  1.00  0.00    +0.000 F 
ATOM     21  F4  UNL A   1      31.855  -6.973  30.395  1.00  0.00    +0.000 F 
ENDBRANCH   10   11
ENDBRANCH    9   10
ENDBRANCH    3    4
ENDBRANCH    2    3
ENDBRANCH   22    2
ENDBRANCH   23   22
ENDBRANCH   24   23
ENDBRANCH   25   24
ENDBRANCH   26   25
ENDBRANCH   27   26
ENDBRANCH   28   27
ENDBRANCH   29   28
ENDBRANCH   30   29
ENDBRANCH   32   30
ENDBRANCH   36   35
BRANCH   40   41
ATOM     41  C31 UNL A   1      22.155 -10.395  35.154  1.00  0.00    +0.000 C 
ATOM     42  C32 UNL A   1      22.338  -9.033  35.437  1.00  0.00    +0.000 C 
ATOM     43  F5  UNL A   1      23.546  -8.469  35.287  1.00  0.00    +0.000 F 
ATOM     44  C33 UNL A   1      21.290  -8.252  35.919  1.00  0.00    +0.000 C 
ATOM     45  F6  UNL A   1      21.504  -6.967  36.233  1.00  0.00    +0.000 F 
ATOM     46  C34 UNL A   1      20.030  -8.805  36.088  1.00  0.00    +0.000 C 
ATOM     47  F7  UNL A   1      19.022  -8.052  36.549  1.00  0.00    +0.000 F 
ATOM     48  C35 UNL A   1      19.818 -10.143  35.789  1.00  0.00    +0.000 C 
ATOM     49  F8  UNL A   1      18.598 -10.676  35.939  1.00  0.00    +0.000 F 
ATOM     50  C36 UNL A   1      20.872 -10.934  35.336  1.00  0.00    +0.000 C 
ATOM     51  F9  UNL A   1      20.638 -12.228  35.074  1.00  0.00    +0.000 F 
ENDBRANCH   40   41
BRANCH   57   58
ATOM     65  C46 UNL A   1      27.438 -15.765  39.799  1.00  0.00    +0.000 C 
ATOM     66  F13 UNL A   1      26.822 -16.742  40.479  1.00  0.00    +0.000 F 
ATOM     67  C47 UNL A   1      26.959 -15.379  38.550  1.00  0.00    +0.000 C 
ATOM     68  F14 UNL A   1      25.888 -16.011  38.048  1.00  0.00    +0.000 F 
ATOM     58  C42 UNL A   1      27.577 -14.347  37.827  1.00  0.00    +0.000 C 
ATOM     59  C43 UNL A   1      28.689 -13.717  38.403  1.00  0.00    +0.000 C 
ATOM     60  F10 UNL A   1      29.326 -12.737  37.745  1.00  0.00    +0.000 F 
ATOM     61  C44 UNL A   1      29.185 -14.127  39.639  1.00  0.00    +0.000 C 
ATOM     62  F11 UNL A   1      30.285 -13.549  40.142  1.00  0.00    +0.000 F 
ATOM     63  C45 UNL A   1      28.557 -15.146  40.337  1.00  0.00    +0.000 C 
ATOM     64  F12 UNL A   1      29.034 -15.540  41.526  1.00  0.00    +0.000 F 
ENDBRANCH   57   58
BRANCH   72   73
ATOM     73  C51 UNL A   1      29.733 -15.649  31.338  1.00  0.00    +0.000 C 
ATOM     74  C52 UNL A   1      29.580 -17.013  31.048  1.00  0.00    +0.000 C 
ATOM     75  F15 UNL A   1      28.416 -17.625  31.307  1.00  0.00    +0.000 F 
ATOM     76  C53 UNL A   1      30.633 -17.758  30.524  1.00  0.00    +0.000 C 
ATOM     77  F16 UNL A   1      30.473 -19.068  30.292  1.00  0.00    +0.000 F 
ATOM     78  C54 UNL A   1      31.850 -17.150  30.254  1.00  0.00    +0.000 C 
ATOM     79  F17 UNL A   1      32.860 -17.865  29.741  1.00  0.00    +0.000 F 
ATOM     80  C55 UNL A   1      32.020 -15.800  30.520  1.00  0.00    +0.000 C 
ATOM     81  F18 UNL A   1      33.188 -15.205  30.245  1.00  0.00    +0.000 F 
ATOM     82  C56 UNL A   1      30.975 -15.059  31.069  1.00  0.00    +0.000 C 
ATOM     83  F19 UNL A   1      31.170 -13.756  31.324  1.00  0.00    +0.000 F 
ENDBRANCH   72   73
TORSDOF 18
ENDMDL
MODEL 3
REMARK VINA RESULT:      -9.7     28.167     33.465
ROOT
ATOM    129  H35 UNL A   1      23.122  23.147   1.626  1.00  0.00    +0.000 H 
ATOM    130  H36 UNL A   1      24.261  21.347   3.046  1.00  0.00    +0.000 H 
ATOM     36  C27 UNL A   1      22.452  19.846   4.659  1.00  0.00    +0.000 C 
ATOM     37  C28 UNL A   1      22.119  20.889   3.630  1.00  0.00    +0.000 C 
ATOM     38  N4  UNL A   1      20.945  21.330   3.248  1.00  0.00    +0.000 N 
ATOM     39  C29 UNL A   1      21.199  22.317   2.305  1.00  0.00    +0.000 C 
ATOM     40  C30 UNL A   1      20.313  23.036   1.573  1.00  0.00    +0.000 C 
ATOM     52  C37 UNL A   1      18.882  22.891   1.660  1.00  0.00    +0.000 C 
ATOM     53  C38 UNL A   1      17.903  23.512   0.904  1.00  0.00    +0.000 C 
ATOM     54  C39 UNL A   1      16.653  23.109   1.387  1.00  0.00    +0.000 C 
ATOM     55  C40 UNL A   1      16.852  22.196   2.410  1.00  0.00    +0.000 C 
ATOM     56  N5  UNL A   1      18.224  22.072   2.567  1.00  0.00    +0.000 N 
ATOM     57  C41 UNL A   1      15.867  21.489   3.190  1.00  0.00    +0.000 C 
ATOM     69  C48 UNL A   1      16.149  20.579   4.156  1.00  0.00    +0.000 C 
ATOM     70  N6  UNL A   1      17.387  20.144   4.610  1.00  0.00    +0.000 N 
ATOM     71  C49 UNL A   1      17.137  19.282   5.565  1.00  0.00    +0.000 C 
ATOM     72  C50 UNL A   1      18.098  18.477   6.395  1.00  0.00    +0.000 C 
ATOM     84  C57 UNL A   1      19.421  18.620   6.192  1.00  0.00    +0.000 C 
ATOM     85  C58 UNL A   1      20.468  17.892   6.902  1.00  0.00    +0.000 C 
ATOM     86  C59 UNL A   1      21.665  18.285   6.439  1.00  0.00    +0.000 C 
ATOM     87  C60 UNL A   1      21.467  19.269   5.373  1.00  0.00    +0.000 C 
ATOM     88  N7  UNL A   1      20.104  19.427   5.315  1.00  0.00    +0.000 N 
ATOM     89  C61 UNL A   1      15.706  19.086   5.839  1.00  0.00    +0.000 C 
ATOM     90  C62 UNL A   1      15.149  19.867   4.925  1.00  0.00    +0.000 C 
ATOM     91  C63 UNL A   1      22.637  22.444   2.206  1.00  0.00    +0.000 C 
ATOM     92  C64 UNL A   1      23.251  21.541   2.957  1.00  0.00    +0.000 C 
ATOM    121  H27 UNL A   1      18.066  24.162   0.118  1.00  0.00    +0.000 H 
ATOM    122  H28 UNL A   1      15.738  23.436   1.040  1.00  0.00    +0.000 H 
ATOM    123  H29 UNL A   1      18.668  21.489   3.224  1.00  0.00    +0.000 H 
ATOM    124  H30 UNL A   1      20.313  17.189   7.642  1.00  0.00    +0.000 H 
ATOM    125  H31 UNL A   1      22.578  17.946   6.778  1.00  0.00    +0.000 H 
ATOM    126  H32 UNL A   1      19.660  20.057   4.704  1.00  0.00    +0.000 H 
ATOM    127  H33 UNL A   1      15.255  18.496   6.555  1.00  0.00    +0.000 H 
ATOM    128  H34 UNL A   1      14.131  19.956   4.779  1.00  0.00    +0.000 H 
ENDROOT
BRANCH   36   35
ATOM     33  C24 UNL A   1      25.838  18.153   4.424  1.00  0.00    +0.000 C 
ATOM     34  C25 UNL A   1      24.543  18.571   4.105  1.00  0.00    +0.000 C 
ATOM     35  C26 UNL A   1      23.862  19.473   4.938  1.00  0.00    +0.000 C 
ATOM    132  H38 UNL A   1      26.343  20.073   7.125  1.00  0.00    +0.000 H 
ATOM    131  H37 UNL A   1      24.034  20.663   6.678  1.00  0.00    +0.000 H 
ATOM    119  H25 UNL A   1      26.321  17.469   3.822  1.00  0.00    +0.000 H 
ATOM    120  H26 UNL A   1      24.084  18.214   3.253  1.00  0.00    +0.000 H 
ATOM     93  C65 UNL A   1      24.524  20.000   6.058  1.00  0.00    +0.000 C 
ATOM     94  C66 UNL A   1      25.840  19.631   6.339  1.00  0.00    +0.000 C 
ATOM     32  C23 UNL A   1      26.478  18.663   5.559  1.00  0.00    +0.000 C 
BRANCH   32   30
ATOM     30  C22 UNL A   1      27.844  18.177   5.869  1.00  0.00    +0.000 C 
ATOM     31  O2  UNL A   1      28.330  17.276   5.199  1.00  0.00    +0.000 O 
BRANCH   30   29
ATOM     29  N3  UNL A   1      28.558  18.709   6.916  1.00  0.00    +0.000 N 
ATOM    118  H24 UNL A   1      28.647  19.689   6.902  1.00  0.00    +0.000 H 
BRANCH   29   28
ATOM    116  H22 UNL A   1      29.413  17.038   7.769  1.00  0.00    +0.000 H 
ATOM     28  C21 UNL A   1      29.201  18.051   8.040  1.00  0.00    +0.000 C 
ATOM    117  H23 UNL A   1      30.094  18.596   8.266  1.00  0.00    +0.000 H 
BRANCH   28   27
ATOM    114  H20 UNL A   1      27.313  17.957   8.994  1.00  0.00    +0.000 H 
ATOM     27  C20 UNL A   1      28.334  18.048   9.298  1.00  0.00    +0.000 C 
ATOM    115  H21 UNL A   1      28.682  17.230   9.894  1.00  0.00    +0.000 H 
BRANCH   27   26
ATOM    113  H19 UNL A   1      28.762  20.083   9.526  1.00  0.00    +0.000 H 
ATOM     26  C19 UNL A   1      28.456  19.294  10.181  1.00  0.00    +0.000 C 
ATOM    112  H18 UNL A   1      29.156  19.075  10.961  1.00  0.00    +0.000 H 
BRANCH   26   25
ATOM     25  C18 UNL A   1      27.164  19.781  10.838  1.00  0.00    +0.000 C 
ATOM    110  H16 UNL A   1      26.501  18.944  10.910  1.00  0.00    +0.000 H 
ATOM    111  H17 UNL A   1      27.464  20.193  11.779  1.00  0.00    +0.000 H 
BRANCH   25   24
ATOM    108  H14 UNL A   1      27.027  21.785  10.162  1.00  0.00    +0.000 H 
ATOM    109  H15 UNL A   1      26.226  20.545   9.135  1.00  0.00    +0.000 H 
ATOM     24  C17 UNL A   1      26.413  20.910  10.123  1.00  0.00    +0.000 C 
BRANCH   24   23
ATOM    106  H12 UNL A   1      25.097  22.268  11.087  1.00  0.00    +0.000 H 
ATOM    107  H13 UNL A   1      24.340  21.202   9.885  1.00  0.00    +0.000 H 
ATOM     23  C16 UNL A   1      25.044  21.277  10.687  1.00  0.00    +0.000 C 
BRANCH   23   22
ATOM    105  H11 UNL A   1      25.233  19.756  12.155  1.00  0.00    +0.000 H 
ATOM     22  N2  UNL A   1      24.599  20.380  11.735  1.00  0.00    +0.000 N 
BRANCH   22    2
ATOM      1  O1  UNL A   1      22.790  21.316  12.805  1.00  0.00    +0.000 O 
ATOM      2  C1  UNL A   1      23.279  20.405  12.140  1.00  0.00    +0.000 C 
BRANCH    2    3
ATOM      3  C2  UNL A   1      22.440  19.253  11.639  1.00  0.00    +0.000 C 
ATOM     95  H1  UNL A   1      22.561  19.209  10.577  1.00  0.00    +0.000 H 
ATOM     96  H2  UNL A   1      21.450  19.471  11.983  1.00  0.00    +0.000 H 
BRANCH    3    4
ATOM     97  H3  UNL A   1      22.879  18.698  14.133  1.00  0.00    +0.000 H 
ATOM     98  H4  UNL A   1      23.437  16.637  15.262  1.00  0.00    +0.000 H 
ATOM     99  H5  UNL A   1      23.730  14.606  13.972  1.00  0.00    +0.000 H 
ATOM      4  C3  UNL A   1      22.739  17.867  12.188  1.00  0.00    +0.000 C 
ATOM      5  C4  UNL A   1      22.965  17.828  13.585  1.00  0.00    +0.000 C 
ATOM      6  C5  UNL A   1      23.300  16.646  14.239  1.00  0.00    +0.000 C 
ATOM    100  H6  UNL A   1      23.363  14.628  11.585  1.00  0.00    +0.000 H 
ATOM      8  C7  UNL A   1      23.216  15.495  12.127  1.00  0.00    +0.000 C 
ATOM      9  C8  UNL A   1      22.786  16.656  11.456  1.00  0.00    +0.000 C 
ATOM      7  C6  UNL A   1      23.449  15.481  13.504  1.00  0.00    +0.000 C 
BRANCH    9   10
ATOM     10  N1  UNL A   1      22.535  16.615  10.060  1.00  0.00    +0.000 N 
ATOM    101  H7  UNL A   1      21.685  17.014   9.765  1.00  0.00    +0.000 H 
BRANCH   10   11
ATOM    102  H8  UNL A   1      26.407  16.675   7.704  1.00  0.00    +0.000 H 
ATOM    103  H9  UNL A   1      25.654  14.991   6.126  1.00  0.00    +0.000 H 
ATOM    104  H10 UNL A   1      23.453  14.019   6.376  1.00  0.00    +0.000 H 
ATOM     11  C9  UNL A   1      23.354  16.072   9.034  1.00  0.00    +0.000 C 
ATOM     12  C10 UNL A   1      24.634  16.630   8.845  1.00  0.00    +0.000 C 
ATOM     13  F1  UNL A   1      25.086  17.563   9.690  1.00  0.00    +0.000 F 
ATOM     14  C11 UNL A   1      25.473  16.249   7.803  1.00  0.00    +0.000 C 
ATOM     15  C12 UNL A   1      25.041  15.292   6.900  1.00  0.00    +0.000 C 
ATOM     16  C13 UNL A   1      23.769  14.736   7.047  1.00  0.00    +0.000 C 
ATOM     17  C14 UNL A   1      22.900  15.133   8.091  1.00  0.00    +0.000 C 
ATOM     18  C15 UNL A   1      21.531  14.503   8.152  1.00  0.00    +0.000 C 
ATOM     19  F2  UNL A   1      21.089  14.110   6.919  1.00  0.00    +0.000 F 
ATOM     20  F3  UNL A   1      21.512  13.372   8.911  1.00  0.00    +0.000 F 
ATOM     21  F4  UNL A   1      20.551  15.315   8.632  1.00  0.00    +0.000 F 
ENDBRANCH   10   11
ENDBRANCH    9   10
ENDBRANCH    3    4
ENDBRANCH    2    3
ENDBRANCH   22    2
ENDBRANCH   23   22
ENDBRANCH   24   23
ENDBRANCH   25   24
ENDBRANCH   26   25
ENDBRANCH   27   26
ENDBRANCH   28   27
ENDBRANCH   29   28
ENDBRANCH   30   29
ENDBRANCH   32   30
ENDBRANCH   36   35
BRANCH   40   41
ATOM     41  C31 UNL A   1      20.869  24.051   0.615  1.00  0.00    +0.000 C 
ATOM     42  C32 UNL A   1      21.245  25.336   1.037  1.00  0.00    +0.000 C 
ATOM     43  F5  UNL A   1      21.082  25.700   2.318  1.00  0.00    +0.000 F 
ATOM     44  C33 UNL A   1      21.749  26.269   0.135  1.00  0.00    +0.000 C 
ATOM     45  F6  UNL A   1      22.050  27.507   0.552  1.00  0.00    +0.000 F 
ATOM     46  C34 UNL A   1      21.927  25.926  -1.196  1.00  0.00    +0.000 C 
ATOM     47  F7  UNL A   1      22.415  26.824  -2.062  1.00  0.00    +0.000 F 
ATOM     48  C35 UNL A   1      21.588  24.653  -1.631  1.00  0.00    +0.000 C 
ATOM     49  F8  UNL A   1      21.772  24.315  -2.915  1.00  0.00    +0.000 F 
ATOM     50  C36 UNL A   1      21.055  23.727  -0.738  1.00  0.00    +0.000 C 
ATOM     51  F9  UNL A   1      20.720  22.512  -1.194  1.00  0.00    +0.000 F 
ENDBRANCH   40   41
BRANCH   57   58
ATOM     65  C46 UNL A   1      12.350  22.928   3.417  1.00  0.00    +0.000 C 
ATOM     66  F13 UNL A   1      11.680  23.812   4.170  1.00  0.00    +0.000 F 
ATOM     67  C47 UNL A   1      13.698  22.684   3.667  1.00  0.00    +0.000 C 
ATOM     68  F14 UNL A   1      14.300  23.356   4.659  1.00  0.00    +0.000 F 
ATOM     58  C42 UNL A   1      14.416  21.751   2.904  1.00  0.00    +0.000 C 
ATOM     59  C43 UNL A   1      13.735  21.073   1.884  1.00  0.00    +0.000 C 
ATOM     60  F10 UNL A   1      14.381  20.184   1.115  1.00  0.00    +0.000 F 
ATOM     61  C44 UNL A   1      12.394  21.343   1.615  1.00  0.00    +0.000 C 
ATOM     62  F11 UNL A   1      11.780  20.725   0.597  1.00  0.00    +0.000 F 
ATOM     63  C45 UNL A   1      11.703  22.266   2.384  1.00  0.00    +0.000 C 
ATOM     64  F12 UNL A   1      10.414  22.525   2.125  1.00  0.00    +0.000 F 
ENDBRANCH   57   58
BRANCH   72   73
ATOM     73  C51 UNL A   1      17.606  17.501   7.401  1.00  0.00    +0.000 C 
ATOM     74  C52 UNL A   1      17.097  17.938   8.632  1.00  0.00    +0.000 C 
ATOM     75  F15 UNL A   1      17.080  19.247   8.922  1.00  0.00    +0.000 F 
ATOM     76  C53 UNL A   1      16.636  17.029   9.582  1.00  0.00    +0.000 C 
ATOM     77  F16 UNL A   1      16.190  17.471  10.766  1.00  0.00    +0.000 F 
ATOM     78  C54 UNL A   1      16.651  15.670   9.309  1.00  0.00    +0.000 C 
ATOM     79  F17 UNL A   1      16.199  14.797  10.220  1.00  0.00    +0.000 F 
ATOM     80  C55 UNL A   1      17.137  15.215   8.094  1.00  0.00    +0.000 C 
ATOM     81  F18 UNL A   1      17.138  13.904   7.820  1.00  0.00    +0.000 F 
ATOM     82  C56 UNL A   1      17.623  16.121   7.153  1.00  0.00    +0.000 C 
ATOM     83  F19 UNL A   1      18.096  15.653   5.988  1.00  0.00    +0.000 F 
ENDBRANCH   72   73
TORSDOF 18
ENDMDL
MODEL 4
REMARK VINA RESULT:      -9.6     43.399     46.898
ROOT
ATOM    129  H35 UNL A   1      21.477  34.070  47.234  1.00  0.00    +0.000 H 
ATOM    130  H36 UNL A   1      20.046  35.745  48.538  1.00  0.00    +0.000 H 
ATOM     36  C27 UNL A   1      21.439  38.126  49.257  1.00  0.00    +0.000 C 
ATOM     37  C28 UNL A   1      21.932  36.995  48.399  1.00  0.00    +0.000 C 
ATOM     38  N4  UNL A   1      23.088  36.855  47.798  1.00  0.00    +0.000 N 
ATOM     39  C29 UNL A   1      23.044  35.616  47.174  1.00  0.00    +0.000 C 
ATOM     40  C30 UNL A   1      23.975  35.036  46.377  1.00  0.00    +0.000 C 
ATOM     52  C37 UNL A   1      25.236  35.640  46.030  1.00  0.00    +0.000 C 
ATOM     53  C38 UNL A   1      26.211  35.170  45.167  1.00  0.00    +0.000 C 
ATOM     54  C39 UNL A   1      27.288  36.064  45.193  1.00  0.00    +0.000 C 
ATOM     55  C40 UNL A   1      26.964  37.117  46.034  1.00  0.00    +0.000 C 
ATOM     56  N5  UNL A   1      25.703  36.843  46.541  1.00  0.00    +0.000 N 
ATOM     57  C41 UNL A   1      27.744  38.286  46.354  1.00  0.00    +0.000 C 
ATOM     69  C48 UNL A   1      27.336  39.294  47.165  1.00  0.00    +0.000 C 
ATOM     70  N6  UNL A   1      26.137  39.429  47.853  1.00  0.00    +0.000 N 
ATOM     71  C49 UNL A   1      26.227  40.557  48.513  1.00  0.00    +0.000 C 
ATOM     72  C50 UNL A   1      25.214  41.219  49.406  1.00  0.00    +0.000 C 
ATOM     84  C57 UNL A   1      24.027  40.618  49.613  1.00  0.00    +0.000 C 
ATOM     85  C58 UNL A   1      22.943  41.149  50.431  1.00  0.00    +0.000 C 
ATOM     86  C59 UNL A   1      21.914  40.288  50.407  1.00  0.00    +0.000 C 
ATOM     87  C60 UNL A   1      22.256  39.158  49.541  1.00  0.00    +0.000 C 
ATOM     88  N7  UNL A   1      23.540  39.426  49.136  1.00  0.00    +0.000 N 
ATOM     89  C61 UNL A   1      27.505  41.260  48.333  1.00  0.00    +0.000 C 
ATOM     90  C62 UNL A   1      28.126  40.469  47.470  1.00  0.00    +0.000 C 
ATOM     91  C63 UNL A   1      21.767  35.022  47.507  1.00  0.00    +0.000 C 
ATOM     92  C64 UNL A   1      21.018  35.860  48.210  1.00  0.00    +0.000 C 
ATOM    121  H27 UNL A   1      26.154  34.309  44.600  1.00  0.00    +0.000 H 
ATOM    122  H28 UNL A   1      28.174  35.957  44.675  1.00  0.00    +0.000 H 
ATOM    123  H29 UNL A   1      25.210  37.418  47.169  1.00  0.00    +0.000 H 
ATOM    124  H30 UNL A   1      22.964  42.043  50.947  1.00  0.00    +0.000 H 
ATOM    125  H31 UNL A   1      21.024  40.405  50.915  1.00  0.00    +0.000 H 
ATOM    126  H32 UNL A   1      24.060  38.821  48.560  1.00  0.00    +0.000 H 
ATOM    127  H33 UNL A   1      27.833  42.137  48.765  1.00  0.00    +0.000 H 
ATOM    128  H34 UNL A   1      29.055  40.666  47.065  1.00  0.00    +0.000 H 
ENDROOT
BRANCH   36   35
ATOM     33  C24 UNL A   1      17.738  38.772  49.778  1.00  0.00    +0.000 C 
ATOM     34  C25 UNL A   1      19.000  38.719  49.180  1.00  0.00    +0.000 C 
ATOM     35  C26 UNL A   1      20.074  38.101  49.842  1.00  0.00    +0.000 C 
ATOM    132  H38 UNL A   1      18.395  36.962  52.522  1.00  0.00    +0.000 H 
ATOM    131  H37 UNL A   1      20.627  37.024  51.575  1.00  0.00    +0.000 H 
ATOM    119  H25 UNL A   1      16.961  39.252  49.299  1.00  0.00    +0.000 H 
ATOM    120  H26 UNL A   1      19.144  39.136  48.248  1.00  0.00    +0.000 H 
ATOM     93  C65 UNL A   1      19.846  37.480  51.079  1.00  0.00    +0.000 C 
ATOM     94  C66 UNL A   1      18.571  37.478  51.644  1.00  0.00    +0.000 C 
ATOM     32  C23 UNL A   1      17.529  38.175  51.025  1.00  0.00    +0.000 C 
BRANCH   32   30
ATOM     30  C22 UNL A   1      16.179  38.272  51.631  1.00  0.00    +0.000 C 
ATOM     31  O2  UNL A   1      15.931  39.186  52.405  1.00  0.00    +0.000 O 
BRANCH   30   29
ATOM     29  N3  UNL A   1      15.215  37.333  51.354  1.00  0.00    +0.000 N 
ATOM    118  H24 UNL A   1      14.955  36.767  52.116  1.00  0.00    +0.000 H 
BRANCH   29   28
ATOM    116  H22 UNL A   1      13.615  36.520  50.338  1.00  0.00    +0.000 H 
ATOM     28  C21 UNL A   1      14.519  37.046  50.111  1.00  0.00    +0.000 C 
ATOM    117  H23 UNL A   1      14.322  37.981  49.628  1.00  0.00    +0.000 H 
BRANCH   28   27
ATOM    114  H20 UNL A   1      16.383  36.385  49.355  1.00  0.00    +0.000 H 
ATOM     27  C20 UNL A   1      15.349  36.198  49.150  1.00  0.00    +0.000 C 
ATOM    115  H21 UNL A   1      15.053  35.184  49.321  1.00  0.00    +0.000 H 
BRANCH   27   26
ATOM    113  H19 UNL A   1      14.442  37.303  47.624  1.00  0.00    +0.000 H 
ATOM     26  C19 UNL A   1      15.106  36.464  47.662  1.00  0.00    +0.000 C 
ATOM    112  H18 UNL A   1      14.707  35.570  47.231  1.00  0.00    +0.000 H 
BRANCH   26   25
ATOM     25  C18 UNL A   1      16.331  36.871  46.843  1.00  0.00    +0.000 C 
ATOM    110  H16 UNL A   1      16.004  37.552  46.085  1.00  0.00    +0.000 H 
ATOM    111  H17 UNL A   1      17.017  37.288  47.550  1.00  0.00    +0.000 H 
BRANCH   25   24
ATOM    108  H14 UNL A   1      18.129  36.034  46.095  1.00  0.00    +0.000 H 
ATOM    109  H15 UNL A   1      16.923  34.870  46.747  1.00  0.00    +0.000 H 
ATOM     24  C17 UNL A   1      17.102  35.740  46.152  1.00  0.00    +0.000 C 
BRANCH   24   23
ATOM    106  H12 UNL A   1      16.059  36.178  44.354  1.00  0.00    +0.000 H 
ATOM    107  H13 UNL A   1      17.524  35.193  44.162  1.00  0.00    +0.000 H 
ATOM     23  C16 UNL A   1      16.644  35.371  44.744  1.00  0.00    +0.000 C 
BRANCH   23   22
ATOM    105  H11 UNL A   1      15.203  33.967  45.418  1.00  0.00    +0.000 H 
ATOM     22  N2  UNL A   1      15.848  34.161  44.700  1.00  0.00    +0.000 N 
BRANCH   22    2
ATOM      1  O1  UNL A   1      16.424  33.612  42.542  1.00  0.00    +0.000 O 
ATOM      2  C1  UNL A   1      15.999  33.281  43.647  1.00  0.00    +0.000 C 
BRANCH    2    3
ATOM      3  C2  UNL A   1      15.672  31.843  43.970  1.00  0.00    +0.000 C 
ATOM     95  H1  UNL A   1      15.063  31.468  43.175  1.00  0.00    +0.000 H 
ATOM     96  H2  UNL A   1      15.205  31.882  44.932  1.00  0.00    +0.000 H 
BRANCH    3    4
ATOM     97  H3  UNL A   1      18.008  32.468  44.906  1.00  0.00    +0.000 H 
ATOM     98  H4  UNL A   1      20.024  31.178  45.229  1.00  0.00    +0.000 H 
ATOM     99  H5  UNL A   1      20.073  28.847  44.567  1.00  0.00    +0.000 H 
ATOM      4  C3  UNL A   1      16.832  30.875  44.148  1.00  0.00    +0.000 C 
ATOM      5  C4  UNL A   1      18.013  31.466  44.658  1.00  0.00    +0.000 C 
ATOM      6  C5  UNL A   1      19.182  30.731  44.834  1.00  0.00    +0.000 C 
ATOM    100  H6  UNL A   1      18.084  27.800  43.685  1.00  0.00    +0.000 H 
ATOM      8  C7  UNL A   1      18.045  28.787  43.982  1.00  0.00    +0.000 C 
ATOM      9  C8  UNL A   1      16.826  29.485  43.881  1.00  0.00    +0.000 C 
ATOM      7  C6  UNL A   1      19.204  29.393  44.473  1.00  0.00    +0.000 C 
BRANCH    9   10
ATOM     10  N1  UNL A   1      15.667  28.819  43.403  1.00  0.00    +0.000 N 
ATOM    101  H7  UNL A   1      14.857  28.919  43.954  1.00  0.00    +0.000 H 
BRANCH   10   11
ATOM    102  H8  UNL A   1      15.654  28.498  38.882  1.00  0.00    +0.000 H 
ATOM    103  H9  UNL A   1      14.906  26.189  38.893  1.00  0.00    +0.000 H 
ATOM    104  H10 UNL A   1      14.532  25.064  41.002  1.00  0.00    +0.000 H 
ATOM     11  C9  UNL A   1      15.527  28.029  42.231  1.00  0.00    +0.000 C 
ATOM     12  C10 UNL A   1      15.715  28.657  40.984  1.00  0.00    +0.000 C 
ATOM     13  F1  UNL A   1      16.124  29.930  40.933  1.00  0.00    +0.000 F 
ATOM     14  C11 UNL A   1      15.497  28.005  39.775  1.00  0.00    +0.000 C 
ATOM     15  C12 UNL A   1      15.065  26.690  39.781  1.00  0.00    +0.000 C 
ATOM     16  C13 UNL A   1      14.848  26.046  41.001  1.00  0.00    +0.000 C 
ATOM     17  C14 UNL A   1      15.047  26.707  42.237  1.00  0.00    +0.000 C 
ATOM     18  C15 UNL A   1      14.755  25.944  43.504  1.00  0.00    +0.000 C 
ATOM     19  F2  UNL A   1      13.806  24.977  43.317  1.00  0.00    +0.000 F 
ATOM     20  F3  UNL A   1      15.848  25.280  43.975  1.00  0.00    +0.000 F 
ATOM     21  F4  UNL A   1      14.283  26.703  44.529  1.00  0.00    +0.000 F 
ENDBRANCH   10   11
ENDBRANCH    9   10
ENDBRANCH    3    4
ENDBRANCH    2    3
ENDBRANCH   22    2
ENDBRANCH   23   22
ENDBRANCH   24   23
ENDBRANCH   25   24
ENDBRANCH   26   25
ENDBRANCH   27   26
ENDBRANCH   28   27
ENDBRANCH   29   28
ENDBRANCH   30   29
ENDBRANCH   32   30
ENDBRANCH   36   35
BRANCH   40   41
ATOM     41  C31 UNL A   1      23.665  33.672  45.829  1.00  0.00    +0.000 C 
ATOM     42  C32 UNL A   1      22.858  33.498  44.694  1.00  0.00    +0.000 C 
ATOM     43  F5  UNL A   1      22.312  34.561  44.084  1.00  0.00    +0.000 F 
ATOM     44  C33 UNL A   1      22.571  32.225  44.205  1.00  0.00    +0.000 C 
ATOM     45  F6  UNL A   1      21.753  32.082  43.153  1.00  0.00    +0.000 F 
ATOM     46  C34 UNL A   1      23.116  31.105  44.815  1.00  0.00    +0.000 C 
ATOM     47  F7  UNL A   1      22.841  29.883  44.342  1.00  0.00    +0.000 F 
ATOM     48  C35 UNL A   1      23.939  31.255  45.921  1.00  0.00    +0.000 C 
ATOM     49  F8  UNL A   1      24.477  30.174  46.503  1.00  0.00    +0.000 F 
ATOM     50  C36 UNL A   1      24.203  32.524  46.431  1.00  0.00    +0.000 C 
ATOM     51  F9  UNL A   1      24.986  32.632  47.514  1.00  0.00    +0.000 F 
ENDBRANCH   40   41
BRANCH   57   58
ATOM     65  C46 UNL A   1      30.551  39.384  44.028  1.00  0.00    +0.000 C 
ATOM     66  F13 UNL A   1      30.708  40.174  42.957  1.00  0.00    +0.000 F 
ATOM     67  C47 UNL A   1      29.297  39.257  44.619  1.00  0.00    +0.000 C 
ATOM     68  F14 UNL A   1      28.269  39.946  44.103  1.00  0.00    +0.000 F 
ATOM     58  C42 UNL A   1      29.104  38.422  45.731  1.00  0.00    +0.000 C 
ATOM     59  C43 UNL A   1      30.213  37.721  46.226  1.00  0.00    +0.000 C 
ATOM     60  F10 UNL A   1      30.085  36.924  47.297  1.00  0.00    +0.000 F 
ATOM     61  C44 UNL A   1      31.473  37.875  45.652  1.00  0.00    +0.000 C 
ATOM     62  F11 UNL A   1      32.529  37.240  46.178  1.00  0.00    +0.000 F 
ATOM     63  C45 UNL A   1      31.640  38.702  44.551  1.00  0.00    +0.000 C 
ATOM     64  F12 UNL A   1      32.852  38.849  44.000  1.00  0.00    +0.000 F 
ENDBRANCH   57   58
BRANCH   72   73
ATOM     73  C51 UNL A   1      25.491  42.541  50.024  1.00  0.00    +0.000 C 
ATOM     74  C52 UNL A   1      25.214  43.728  49.331  1.00  0.00    +0.000 C 
ATOM     75  F15 UNL A   1      24.724  43.674  48.084  1.00  0.00    +0.000 F 
ATOM     76  C53 UNL A   1      25.473  44.971  49.902  1.00  0.00    +0.000 C 
ATOM     77  F16 UNL A   1      25.235  46.089  49.204  1.00  0.00    +0.000 F 
ATOM     78  C54 UNL A   1      25.987  45.053  51.188  1.00  0.00    +0.000 C 
ATOM     79  F17 UNL A   1      26.227  46.249  51.740  1.00  0.00    +0.000 F 
ATOM     80  C55 UNL A   1      26.256  43.893  51.898  1.00  0.00    +0.000 C 
ATOM     81  F18 UNL A   1      26.738  43.968  53.145  1.00  0.00    +0.000 F 
ATOM     82  C56 UNL A   1      26.022  42.648  51.317  1.00  0.00    +0.000 C 
ATOM     83  F19 UNL A   1      26.300  41.542  52.024  1.00  0.00    +0.000 F 
ENDBRANCH   72   73
TORSDOF 18
ENDMDL
MODEL 5
REMARK VINA RESULT:      -9.5     36.927     43.102
ROOT
ATOM    129  H35 UNL A   1      39.696  27.094  27.001  1.00  0.00    +0.000 H 
ATOM    130  H36 UNL A   1      37.774  28.750  27.346  1.00  0.00    +0.000 H 
ATOM     36  C27 UNL A   1      37.807  30.029  29.893  1.00  0.00    +0.000 C 
ATOM     37  C28 UNL A   1      38.837  29.099  29.317  1.00  0.00    +0.000 C 
ATOM     38  N4  UNL A   1      39.961  28.679  29.845  1.00  0.00    +0.000 N 
ATOM     39  C29 UNL A   1      40.514  27.807  28.917  1.00  0.00    +0.000 C 
ATOM     40  C30 UNL A   1      41.702  27.156  28.970  1.00  0.00    +0.000 C 
ATOM     52  C37 UNL A   1      42.637  27.263  30.061  1.00  0.00    +0.000 C 
ATOM     53  C38 UNL A   1      43.900  26.708  30.173  1.00  0.00    +0.000 C 
ATOM     54  C39 UNL A   1      44.412  27.032  31.435  1.00  0.00    +0.000 C 
ATOM     55  C40 UNL A   1      43.488  27.831  32.091  1.00  0.00    +0.000 C 
ATOM     56  N5  UNL A   1      42.404  27.964  31.236  1.00  0.00    +0.000 N 
ATOM     57  C41 UNL A   1      43.583  28.429  33.398  1.00  0.00    +0.000 C 
ATOM     69  C48 UNL A   1      42.642  29.233  33.955  1.00  0.00    +0.000 C 
ATOM     70  N6  UNL A   1      41.422  29.640  33.431  1.00  0.00    +0.000 N 
ATOM     71  C49 UNL A   1      40.867  30.387  34.354  1.00  0.00    +0.000 C 
ATOM     72  C50 UNL A   1      39.552  31.115  34.322  1.00  0.00    +0.000 C 
ATOM     84  C57 UNL A   1      38.774  31.021  33.227  1.00  0.00    +0.000 C 
ATOM     85  C58 UNL A   1      37.489  31.687  33.044  1.00  0.00    +0.000 C 
ATOM     86  C59 UNL A   1      37.000  31.370  31.836  1.00  0.00    +0.000 C 
ATOM     87  C60 UNL A   1      37.957  30.505  31.144  1.00  0.00    +0.000 C 
ATOM     88  N7  UNL A   1      38.966  30.328  32.057  1.00  0.00    +0.000 N 
ATOM     89  C61 UNL A   1      41.666  30.524  35.579  1.00  0.00    +0.000 C 
ATOM     90  C62 UNL A   1      42.755  29.837  35.266  1.00  0.00    +0.000 C 
ATOM     91  C63 UNL A   1      39.581  27.719  27.814  1.00  0.00    +0.000 C 
ATOM     92  C64 UNL A   1      38.559  28.546  27.984  1.00  0.00    +0.000 C 
ATOM    121  H27 UNL A   1      44.384  26.152  29.450  1.00  0.00    +0.000 H 
ATOM    122  H28 UNL A   1      45.321  26.728  31.814  1.00  0.00    +0.000 H 
ATOM    123  H29 UNL A   1      41.590  28.480  31.432  1.00  0.00    +0.000 H 
ATOM    124  H30 UNL A   1      37.028  32.301  33.735  1.00  0.00    +0.000 H 
ATOM    125  H31 UNL A   1      36.096  31.688  31.454  1.00  0.00    +0.000 H 
ATOM    126  H32 UNL A   1      39.752  29.760  31.889  1.00  0.00    +0.000 H 
ATOM    127  H33 UNL A   1      41.439  31.023  36.453  1.00  0.00    +0.000 H 
ATOM    128  H34 UNL A   1      43.581  29.745  35.880  1.00  0.00    +0.000 H 
ENDROOT
BRANCH   36   35
ATOM     33  C24 UNL A   1      35.142  32.087  28.148  1.00  0.00    +0.000 C 
ATOM     34  C25 UNL A   1      36.330  31.737  28.796  1.00  0.00    +0.000 C 
ATOM     35  C26 UNL A   1      36.594  30.396  29.119  1.00  0.00    +0.000 C 
ATOM    132  H38 UNL A   1      33.892  29.013  27.677  1.00  0.00    +0.000 H 
ATOM    131  H37 UNL A   1      35.862  28.419  28.958  1.00  0.00    +0.000 H 
ATOM    119  H25 UNL A   1      34.941  33.077  27.939  1.00  0.00    +0.000 H 
ATOM    120  H26 UNL A   1      37.016  32.468  29.037  1.00  0.00    +0.000 H 
ATOM     93  C65 UNL A   1      35.680  29.407  28.725  1.00  0.00    +0.000 C 
ATOM     94  C66 UNL A   1      34.525  29.752  28.022  1.00  0.00    +0.000 C 
ATOM     32  C23 UNL A   1      34.224  31.096  27.786  1.00  0.00    +0.000 C 
BRANCH   32   30
ATOM     30  C22 UNL A   1      32.968  31.514  27.118  1.00  0.00    +0.000 C 
ATOM     31  O2  UNL A   1      32.726  32.706  26.983  1.00  0.00    +0.000 O 
BRANCH   30   29
ATOM     29  N3  UNL A   1      32.062  30.581  26.675  1.00  0.00    +0.000 N 
ATOM    118  H24 UNL A   1      31.318  30.398  27.293  1.00  0.00    +0.000 H 
BRANCH   29   28
ATOM    116  H22 UNL A   1      31.096  29.998  24.950  1.00  0.00    +0.000 H 
ATOM     28  C21 UNL A   1      32.031  29.821  25.437  1.00  0.00    +0.000 C 
ATOM    117  H23 UNL A   1      32.858  30.146  24.839  1.00  0.00    +0.000 H 
BRANCH   28   27
ATOM    114  H20 UNL A   1      32.372  28.158  26.703  1.00  0.00    +0.000 H 
ATOM     27  C20 UNL A   1      32.188  28.319  25.661  1.00  0.00    +0.000 C 
ATOM    115  H21 UNL A   1      31.282  27.872  25.309  1.00  0.00    +0.000 H 
BRANCH   27   26
ATOM    113  H19 UNL A   1      32.856  26.878  24.301  1.00  0.00    +0.000 H 
ATOM     26  C19 UNL A   1      33.321  27.653  24.874  1.00  0.00    +0.000 C 
ATOM    112  H18 UNL A   1      34.046  27.302  25.577  1.00  0.00    +0.000 H 
BRANCH   26   25
ATOM     25  C18 UNL A   1      34.044  28.538  23.859  1.00  0.00    +0.000 C 
ATOM    110  H16 UNL A   1      33.604  29.512  23.905  1.00  0.00    +0.000 H 
ATOM    111  H17 UNL A   1      35.076  28.503  24.140  1.00  0.00    +0.000 H 
BRANCH   25   24
ATOM    108  H14 UNL A   1      33.206  28.597  21.913  1.00  0.00    +0.000 H 
ATOM    109  H15 UNL A   1      34.978  28.302  22.005  1.00  0.00    +0.000 H 
ATOM     24  C17 UNL A   1      34.008  28.079  22.397  1.00  0.00    +0.000 C 
BRANCH   24   23
ATOM    106  H12 UNL A   1      34.645  26.213  21.611  1.00  0.00    +0.000 H 
ATOM    107  H13 UNL A   1      33.715  26.122  23.121  1.00  0.00    +0.000 H 
ATOM     23  C16 UNL A   1      33.806  26.586  22.161  1.00  0.00    +0.000 C 
BRANCH   23   22
ATOM    105  H11 UNL A   1      32.640  26.116  20.451  1.00  0.00    +0.000 H 
ATOM     22  N2  UNL A   1      32.598  26.282  21.420  1.00  0.00    +0.000 N 
BRANCH   22    2
ATOM      1  O1  UNL A   1      30.614  27.181  22.161  1.00  0.00    +0.000 O 
ATOM      2  C1  UNL A   1      31.387  26.227  22.081  1.00  0.00    +0.000 C 
BRANCH    2    3
ATOM      3  C2  UNL A   1      31.032  24.873  22.645  1.00  0.00    +0.000 C 
ATOM     95  H1  UNL A   1      31.582  24.142  22.090  1.00  0.00    +0.000 H 
ATOM     96  H2  UNL A   1      29.967  24.815  22.558  1.00  0.00    +0.000 H 
BRANCH    3    4
ATOM     97  H3  UNL A   1      29.573  25.739  24.604  1.00  0.00    +0.000 H 
ATOM     98  H4  UNL A   1      29.803  25.561  27.002  1.00  0.00    +0.000 H 
ATOM     99  H5  UNL A   1      31.731  24.428  27.938  1.00  0.00    +0.000 H 
ATOM      4  C3  UNL A   1      31.308  24.625  24.120  1.00  0.00    +0.000 C 
ATOM      5  C4  UNL A   1      30.374  25.224  24.998  1.00  0.00    +0.000 C 
ATOM      6  C5  UNL A   1      30.510  25.135  26.381  1.00  0.00    +0.000 C 
ATOM    100  H6  UNL A   1      33.355  23.399  26.477  1.00  0.00    +0.000 H 
ATOM      8  C7  UNL A   1      32.528  23.861  26.067  1.00  0.00    +0.000 C 
ATOM      9  C8  UNL A   1      32.364  23.856  24.668  1.00  0.00    +0.000 C 
ATOM      7  C6  UNL A   1      31.602  24.472  26.916  1.00  0.00    +0.000 C 
BRANCH    9   10
ATOM     10  N1  UNL A   1      33.316  23.198  23.846  1.00  0.00    +0.000 N 
ATOM    101  H7  UNL A   1      33.450  23.584  22.951  1.00  0.00    +0.000 H 
BRANCH   10   11
ATOM    102  H8  UNL A   1      33.564  18.803  24.930  1.00  0.00    +0.000 H 
ATOM    103  H9  UNL A   1      35.963  18.870  25.296  1.00  0.00    +0.000 H 
ATOM    104  H10 UNL A   1      37.166  20.942  24.963  1.00  0.00    +0.000 H 
ATOM     11  C9  UNL A   1      34.100  22.053  24.152  1.00  0.00    +0.000 C 
ATOM     12  C10 UNL A   1      33.431  20.833  24.375  1.00  0.00    +0.000 C 
ATOM     13  F1  UNL A   1      32.108  20.754  24.188  1.00  0.00    +0.000 F 
ATOM     14  C11 UNL A   1      34.089  19.679  24.786  1.00  0.00    +0.000 C 
ATOM     15  C12 UNL A   1      35.457  19.719  24.999  1.00  0.00    +0.000 C 
ATOM     16  C13 UNL A   1      36.146  20.918  24.809  1.00  0.00    +0.000 C 
ATOM     17  C14 UNL A   1      35.481  22.103  24.411  1.00  0.00    +0.000 C 
ATOM     18  C15 UNL A   1      36.301  23.360  24.263  1.00  0.00    +0.000 C 
ATOM     19  F2  UNL A   1      37.403  23.356  25.072  1.00  0.00    +0.000 F 
ATOM     20  F3  UNL A   1      36.789  23.515  23.000  1.00  0.00    +0.000 F 
ATOM     21  F4  UNL A   1      35.643  24.508  24.574  1.00  0.00    +0.000 F 
ENDBRANCH   10   11
ENDBRANCH    9   10
ENDBRANCH    3    4
ENDBRANCH    2    3
ENDBRANCH   22    2
ENDBRANCH   23   22
ENDBRANCH   24   23
ENDBRANCH   25   24
ENDBRANCH   26   25
ENDBRANCH   27   26
ENDBRANCH   28   27
ENDBRANCH   29   28
ENDBRANCH   30   29
ENDBRANCH   32   30
ENDBRANCH   36   35
BRANCH   40   41
ATOM     41  C31 UNL A   1      42.054  26.262  27.815  1.00  0.00    +0.000 C 
ATOM     42  C32 UNL A   1      42.961  26.663  26.821  1.00  0.00    +0.000 C 
ATOM     43  F5  UNL A   1      43.516  27.883  26.866  1.00  0.00    +0.000 F 
ATOM     44  C33 UNL A   1      43.269  25.826  25.751  1.00  0.00    +0.000 C 
ATOM     45  F6  UNL A   1      44.095  26.252  24.786  1.00  0.00    +0.000 F 
ATOM     46  C34 UNL A   1      42.710  24.560  25.673  1.00  0.00    +0.000 C 
ATOM     47  F7  UNL A   1      43.009  23.756  24.644  1.00  0.00    +0.000 F 
ATOM     48  C35 UNL A   1      41.832  24.132  26.658  1.00  0.00    +0.000 C 
ATOM     49  F8  UNL A   1      41.301  22.903  26.591  1.00  0.00    +0.000 F 
ATOM     50  C36 UNL A   1      41.498  24.977  27.713  1.00  0.00    +0.000 C 
ATOM     51  F9  UNL A   1      40.632  24.540  28.639  1.00  0.00    +0.000 F 
ENDBRANCH   40   41
BRANCH   57   58
ATOM     65  C46 UNL A   1      46.034  26.825  35.829  1.00  0.00    +0.000 C 
ATOM     66  F13 UNL A   1      46.073  25.772  36.659  1.00  0.00    +0.000 F 
ATOM     67  C47 UNL A   1      44.893  27.067  35.069  1.00  0.00    +0.000 C 
ATOM     68  F14 UNL A   1      43.856  26.225  35.178  1.00  0.00    +0.000 F 
ATOM     58  C42 UNL A   1      44.823  28.172  34.207  1.00  0.00    +0.000 C 
ATOM     59  C43 UNL A   1      45.935  29.023  34.136  1.00  0.00    +0.000 C 
ATOM     60  F10 UNL A   1      45.924  30.082  33.314  1.00  0.00    +0.000 F 
ATOM     61  C44 UNL A   1      47.087  28.758  34.874  1.00  0.00    +0.000 C 
ATOM     62  F11 UNL A   1      48.159  29.553  34.746  1.00  0.00    +0.000 F 
ATOM     63  C45 UNL A   1      47.134  27.663  35.723  1.00  0.00    +0.000 C 
ATOM     64  F12 UNL A   1      48.242  27.410  36.433  1.00  0.00    +0.000 F 
ENDBRANCH   57   58
BRANCH   72   73
ATOM     73  C51 UNL A   1      39.123  31.965  35.462  1.00  0.00    +0.000 C 
ATOM     74  C52 UNL A   1      38.332  31.435  36.492  1.00  0.00    +0.000 C 
ATOM     75  F15 UNL A   1      37.931  30.157  36.437  1.00  0.00    +0.000 F 
ATOM     76  C53 UNL A   1      37.923  32.226  37.563  1.00  0.00    +0.000 C 
ATOM     77  F16 UNL A   1      37.136  31.705  38.514  1.00  0.00    +0.000 F 
ATOM     78  C54 UNL A   1      38.318  33.553  37.639  1.00  0.00    +0.000 C 
ATOM     79  F17 UNL A   1      37.932  34.310  38.675  1.00  0.00    +0.000 F 
ATOM     80  C55 UNL A   1      39.111  34.095  36.640  1.00  0.00    +0.000 C 
ATOM     81  F18 UNL A   1      39.507  35.372  36.718  1.00  0.00    +0.000 F 
ATOM     82  C56 UNL A   1      39.498  33.312  35.554  1.00  0.00    +0.000 C 
ATOM     83  F19 UNL A   1      40.259  33.865  34.596  1.00  0.00    +0.000 F 
ENDBRANCH   72   73
TORSDOF 18
ENDMDL
MODEL 6
REMARK VINA RESULT:      -9.5      2.981      8.217
ROOT
ATOM    129  H35 UNL A   1      16.616  56.737   2.384  1.00  0.00    +0.000 H 
ATOM    130  H36 UNL A   1      15.150  56.590   4.478  1.00  0.00    +0.000 H 
ATOM     36  C27 UNL A   1      13.923  54.043   4.840  1.00  0.00    +0.000 C 
ATOM     37  C28 UNL A   1      14.926  54.440   3.795  1.00  0.00    +0.000 C 
ATOM     38  N4  UNL A   1      15.454  53.718   2.837  1.00  0.00    +0.000 N 
ATOM     39  C29 UNL A   1      16.287  54.575   2.130  1.00  0.00    +0.000 C 
ATOM     40  C30 UNL A   1      17.101  54.291   1.084  1.00  0.00    +0.000 C 
ATOM     52  C37 UNL A   1      17.240  52.984   0.495  1.00  0.00    +0.000 C 
ATOM     53  C38 UNL A   1      18.097  52.578  -0.513  1.00  0.00    +0.000 C 
ATOM     54  C39 UNL A   1      17.834  51.232  -0.797  1.00  0.00    +0.000 C 
ATOM     55  C40 UNL A   1      16.849  50.786   0.069  1.00  0.00    +0.000 C 
ATOM     56  N5  UNL A   1      16.494  51.871   0.856  1.00  0.00    +0.000 N 
ATOM     57  C41 UNL A   1      16.272  49.469   0.173  1.00  0.00    +0.000 C 
ATOM     69  C48 UNL A   1      15.330  49.104   1.079  1.00  0.00    +0.000 C 
ATOM     70  N6  UNL A   1      14.721  49.873   2.062  1.00  0.00    +0.000 N 
ATOM     71  C49 UNL A   1      13.868  49.078   2.662  1.00  0.00    +0.000 C 
ATOM     72  C50 UNL A   1      12.952  49.367   3.819  1.00  0.00    +0.000 C 
ATOM     84  C57 UNL A   1      12.943  50.601   4.359  1.00  0.00    +0.000 C 
ATOM     85  C58 UNL A   1      12.128  51.020   5.494  1.00  0.00    +0.000 C 
ATOM     86  C59 UNL A   1      12.380  52.311   5.760  1.00  0.00    +0.000 C 
ATOM     87  C60 UNL A   1      13.402  52.801   4.833  1.00  0.00    +0.000 C 
ATOM     88  N7  UNL A   1      13.656  51.725   4.020  1.00  0.00    +0.000 N 
ATOM     89  C61 UNL A   1      13.826  47.716   2.113  1.00  0.00    +0.000 C 
ATOM     90  C62 UNL A   1      14.766  47.774   1.181  1.00  0.00    +0.000 C 
ATOM     91  C63 UNL A   1      16.159  55.882   2.739  1.00  0.00    +0.000 C 
ATOM     92  C64 UNL A   1      15.379  55.838   3.809  1.00  0.00    +0.000 C 
ATOM    121  H27 UNL A   1      18.809  53.165  -0.977  1.00  0.00    +0.000 H 
ATOM    122  H28 UNL A   1      18.295  50.669  -1.528  1.00  0.00    +0.000 H 
ATOM    123  H29 UNL A   1      15.813  51.855   1.567  1.00  0.00    +0.000 H 
ATOM    124  H30 UNL A   1      11.463  50.421   6.008  1.00  0.00    +0.000 H 
ATOM    125  H31 UNL A   1      11.927  52.869   6.500  1.00  0.00    +0.000 H 
ATOM    126  H32 UNL A   1      14.289  51.756   3.267  1.00  0.00    +0.000 H 
ATOM    127  H33 UNL A   1      13.224  46.923   2.383  1.00  0.00    +0.000 H 
ATOM    128  H34 UNL A   1      15.059  46.972   0.600  1.00  0.00    +0.000 H 
ENDROOT
BRANCH   36   35
ATOM     33  C24 UNL A   1      11.969  56.821   6.527  1.00  0.00    +0.000 C 
ATOM     34  C25 UNL A   1      12.348  55.843   5.604  1.00  0.00    +0.000 C 
ATOM     35  C26 UNL A   1      13.456  55.017   5.859  1.00  0.00    +0.000 C 
ATOM    132  H38 UNL A   1      14.175  56.118   8.952  1.00  0.00    +0.000 H 
ATOM    131  H37 UNL A   1      14.949  54.544   7.279  1.00  0.00    +0.000 H 
ATOM    119  H25 UNL A   1      11.171  57.442   6.322  1.00  0.00    +0.000 H 
ATOM    120  H26 UNL A   1      11.812  55.727   4.731  1.00  0.00    +0.000 H 
ATOM     93  C65 UNL A   1      14.134  55.144   7.080  1.00  0.00    +0.000 C 
ATOM     94  C66 UNL A   1      13.714  56.077   8.029  1.00  0.00    +0.000 C 
ATOM     32  C23 UNL A   1      12.670  56.958   7.730  1.00  0.00    +0.000 C 
BRANCH   32   30
ATOM     30  C22 UNL A   1      12.245  58.021   8.672  1.00  0.00    +0.000 C 
ATOM     31  O2  UNL A   1      12.970  58.990   8.853  1.00  0.00    +0.000 O 
BRANCH   30   29
ATOM     29  N3  UNL A   1      11.061  57.917   9.362  1.00  0.00    +0.000 N 
ATOM    118  H24 UNL A   1      10.366  58.560   9.092  1.00  0.00    +0.000 H 
BRANCH   29   28
ATOM    116  H22 UNL A   1       9.766  56.519  10.148  1.00  0.00    +0.000 H 
ATOM     28  C21 UNL A   1      10.676  57.008  10.427  1.00  0.00    +0.000 C 
ATOM    117  H23 UNL A   1      11.476  56.310  10.561  1.00  0.00    +0.000 H 
BRANCH   28   27
ATOM    114  H20 UNL A   1      11.076  58.593  11.773  1.00  0.00    +0.000 H 
ATOM     27  C20 UNL A   1      10.459  57.718  11.762  1.00  0.00    +0.000 C 
ATOM    115  H21 UNL A   1       9.411  57.929  11.816  1.00  0.00    +0.000 H 
BRANCH   27   26
ATOM    113  H19 UNL A   1       9.908  56.923  13.616  1.00  0.00    +0.000 H 
ATOM     26  C19 UNL A   1      10.788  56.890  13.007  1.00  0.00    +0.000 C 
ATOM    112  H18 UNL A   1      11.654  57.319  13.466  1.00  0.00    +0.000 H 
BRANCH   26   25
ATOM     25  C18 UNL A   1      11.071  55.406  12.771  1.00  0.00    +0.000 C 
ATOM    110  H16 UNL A   1      10.130  54.900  12.719  1.00  0.00    +0.000 H 
ATOM    111  H17 UNL A   1      11.646  55.369  11.870  1.00  0.00    +0.000 H 
BRANCH   25   24
ATOM    108  H14 UNL A   1      11.807  55.220  14.750  1.00  0.00    +0.000 H 
ATOM    109  H15 UNL A   1      11.570  53.685  13.844  1.00  0.00    +0.000 H 
ATOM     24  C17 UNL A   1      11.925  54.694  13.826  1.00  0.00    +0.000 C 
BRANCH   24   23
ATOM    106  H12 UNL A   1      13.641  55.210  12.688  1.00  0.00    +0.000 H 
ATOM    107  H13 UNL A   1      13.936  54.915  14.414  1.00  0.00    +0.000 H 
ATOM     23  C16 UNL A   1      13.419  54.594  13.534  1.00  0.00    +0.000 C 
BRANCH   23   22
ATOM    105  H11 UNL A   1      13.545  52.493  13.804  1.00  0.00    +0.000 H 
ATOM     22  N2  UNL A   1      13.856  53.243  13.247  1.00  0.00    +0.000 N 
BRANCH   22    2
ATOM      1  O1  UNL A   1      15.774  52.397  12.297  1.00  0.00    +0.000 O 
ATOM      2  C1  UNL A   1      14.714  53.012  12.190  1.00  0.00    +0.000 C 
BRANCH    2    3
ATOM      3  C2  UNL A   1      14.221  53.509  10.853  1.00  0.00    +0.000 C 
ATOM     95  H1  UNL A   1      15.066  53.558  10.199  1.00  0.00    +0.000 H 
ATOM     96  H2  UNL A   1      13.749  54.445  11.070  1.00  0.00    +0.000 H 
BRANCH    3    4
ATOM     97  H3  UNL A   1      11.765  54.260  10.504  1.00  0.00    +0.000 H 
ATOM     98  H4  UNL A   1       9.860  53.166   9.499  1.00  0.00    +0.000 H 
ATOM     99  H5  UNL A   1      10.091  50.912   8.638  1.00  0.00    +0.000 H 
ATOM      4  C3  UNL A   1      13.148  52.695  10.146  1.00  0.00    +0.000 C 
ATOM      5  C4  UNL A   1      11.876  53.315  10.105  1.00  0.00    +0.000 C 
ATOM      6  C5  UNL A   1      10.772  52.684   9.539  1.00  0.00    +0.000 C 
ATOM    100  H6  UNL A   1      12.239  49.811   8.696  1.00  0.00    +0.000 H 
ATOM      8  C7  UNL A   1      12.158  50.778   9.047  1.00  0.00    +0.000 C 
ATOM      9  C8  UNL A   1      13.309  51.431   9.529  1.00  0.00    +0.000 C 
ATOM      7  C6  UNL A   1      10.909  51.403   9.029  1.00  0.00    +0.000 C 
BRANCH    9   10
ATOM     10  N1  UNL A   1      14.563  50.766   9.501  1.00  0.00    +0.000 N 
ATOM    101  H7  UNL A   1      14.989  50.616  10.376  1.00  0.00    +0.000 H 
BRANCH   10   11
ATOM    102  H8  UNL A   1      16.607  51.581   5.538  1.00  0.00    +0.000 H 
ATOM    103  H9  UNL A   1      16.975  49.228   5.068  1.00  0.00    +0.000 H 
ATOM    104  H10 UNL A   1      16.255  47.562   6.667  1.00  0.00    +0.000 H 
ATOM     11  C9  UNL A   1      15.281  50.290   8.372  1.00  0.00    +0.000 C 
ATOM     12  C10 UNL A   1      15.697  51.229   7.408  1.00  0.00    +0.000 C 
ATOM     13  F1  UNL A   1      15.510  52.536   7.626  1.00  0.00    +0.000 F 
ATOM     14  C11 UNL A   1      16.309  50.861   6.215  1.00  0.00    +0.000 C 
ATOM     15  C12 UNL A   1      16.515  49.519   5.945  1.00  0.00    +0.000 C 
ATOM     16  C13 UNL A   1      16.094  48.561   6.869  1.00  0.00    +0.000 C 
ATOM     17  C14 UNL A   1      15.451  48.926   8.077  1.00  0.00    +0.000 C 
ATOM     18  C15 UNL A   1      15.000  47.822   9.001  1.00  0.00    +0.000 C 
ATOM     19  F2  UNL A   1      14.726  46.664   8.326  1.00  0.00    +0.000 F 
ATOM     20  F3  UNL A   1      15.956  47.484   9.911  1.00  0.00    +0.000 F 
ATOM     21  F4  UNL A   1      13.868  48.094   9.702  1.00  0.00    +0.000 F 
ENDBRANCH   10   11
ENDBRANCH    9   10
ENDBRANCH    3    4
ENDBRANCH    2    3
ENDBRANCH   22    2
ENDBRANCH   23   22
ENDBRANCH   24   23
ENDBRANCH   25   24
ENDBRANCH   26   25
ENDBRANCH   27   26
ENDBRANCH   28   27
ENDBRANCH   29   28
ENDBRANCH   30   29
ENDBRANCH   32   30
ENDBRANCH   36   35
BRANCH   40   41
ATOM     41  C31 UNL A   1      17.900  55.423   0.503  1.00  0.00    +0.000 C 
ATOM     42  C32 UNL A   1      19.153  55.784   1.021  1.00  0.00    +0.000 C 
ATOM     43  F5  UNL A   1      19.656  55.137   2.083  1.00  0.00    +0.000 F 
ATOM     44  C33 UNL A   1      19.877  56.843   0.478  1.00  0.00    +0.000 C 
ATOM     45  F6  UNL A   1      21.046  57.204   1.025  1.00  0.00    +0.000 F 
ATOM     46  C34 UNL A   1      19.384  57.535  -0.618  1.00  0.00    +0.000 C 
ATOM     47  F7  UNL A   1      20.083  58.551  -1.141  1.00  0.00    +0.000 F 
ATOM     48  C35 UNL A   1      18.160  57.177  -1.165  1.00  0.00    +0.000 C 
ATOM     49  F8  UNL A   1      17.688  57.836  -2.232  1.00  0.00    +0.000 F 
ATOM     50  C36 UNL A   1      17.420  56.139  -0.604  1.00  0.00    +0.000 C 
ATOM     51  F9  UNL A   1      16.231  55.832  -1.145  1.00  0.00    +0.000 F 
ENDBRANCH   40   41
BRANCH   57   58
ATOM     65  C46 UNL A   1      16.428  47.050  -2.761  1.00  0.00    +0.000 C 
ATOM     66  F13 UNL A   1      15.670  46.705  -3.813  1.00  0.00    +0.000 F 
ATOM     67  C47 UNL A   1      15.991  48.040  -1.886  1.00  0.00    +0.000 C 
ATOM     68  F14 UNL A   1      14.816  48.639  -2.127  1.00  0.00    +0.000 F 
ATOM     58  C42 UNL A   1      16.758  48.406  -0.769  1.00  0.00    +0.000 C 
ATOM     59  C43 UNL A   1      17.976  47.742  -0.563  1.00  0.00    +0.000 C 
ATOM     60  F10 UNL A   1      18.754  48.068   0.480  1.00  0.00    +0.000 F 
ATOM     61  C44 UNL A   1      18.425  46.774  -1.459  1.00  0.00    +0.000 C 
ATOM     62  F11 UNL A   1      19.619  46.195  -1.272  1.00  0.00    +0.000 F 
ATOM     63  C45 UNL A   1      17.649  46.425  -2.553  1.00  0.00    +0.000 C 
ATOM     64  F12 UNL A   1      18.082  45.494  -3.414  1.00  0.00    +0.000 F 
ENDBRANCH   57   58
BRANCH   72   73
ATOM     73  C51 UNL A   1      12.093  48.302   4.396  1.00  0.00    +0.000 C 
ATOM     74  C52 UNL A   1      10.734  48.220   4.062  1.00  0.00    +0.000 C 
ATOM     75  F15 UNL A   1      10.192  49.127   3.236  1.00  0.00    +0.000 F 
ATOM     76  C53 UNL A   1       9.920  47.226   4.600  1.00  0.00    +0.000 C 
ATOM     77  F16 UNL A   1       8.616  47.192   4.294  1.00  0.00    +0.000 F 
ATOM     78  C54 UNL A   1      10.454  46.280   5.462  1.00  0.00    +0.000 C 
ATOM     79  F17 UNL A   1       9.673  45.319   5.973  1.00  0.00    +0.000 F 
ATOM     80  C55 UNL A   1      11.798  46.334   5.797  1.00  0.00    +0.000 C 
ATOM     81  F18 UNL A   1      12.322  45.413   6.617  1.00  0.00    +0.000 F 
ATOM     82  C56 UNL A   1      12.608  47.344   5.280  1.00  0.00    +0.000 C 
ATOM     83  F19 UNL A   1      13.903  47.377   5.628  1.00  0.00    +0.000 F 
ENDBRANCH   72   73
TORSDOF 18
ENDMDL
MODEL 7
REMARK VINA RESULT:      -9.5     27.712     32.974
ROOT
ATOM    129  H35 UNL A   1      23.176  23.382   1.357  1.00  0.00    +0.000 H 
ATOM    130  H36 UNL A   1      24.347  21.497   2.634  1.00  0.00    +0.000 H 
ATOM     36  C27 UNL A   1      22.581  19.921   4.222  1.00  0.00    +0.000 C 
ATOM     37  C28 UNL A   1      22.222  21.023   3.266  1.00  0.00    +0.000 C 
ATOM     38  N4  UNL A   1      21.040  21.493   2.951  1.00  0.00    +0.000 N 
ATOM     39  C29 UNL A   1      21.271  22.530   2.056  1.00  0.00    +0.000 C 
ATOM     40  C30 UNL A   1      20.366  23.295   1.396  1.00  0.00    +0.000 C 
ATOM     52  C37 UNL A   1      18.938  23.155   1.524  1.00  0.00    +0.000 C 
ATOM     53  C38 UNL A   1      17.940  23.826   0.839  1.00  0.00    +0.000 C 
ATOM     54  C39 UNL A   1      16.703  23.405   1.342  1.00  0.00    +0.000 C 
ATOM     55  C40 UNL A   1      16.929  22.434   2.305  1.00  0.00    +0.000 C 
ATOM     56  N5  UNL A   1      18.305  22.292   2.407  1.00  0.00    +0.000 N 
ATOM     57  C41 UNL A   1      15.965  21.692   3.078  1.00  0.00    +0.000 C 
ATOM     69  C48 UNL A   1      16.272  20.727   3.982  1.00  0.00    +0.000 C 
ATOM     70  N6  UNL A   1      17.520  20.258   4.367  1.00  0.00    +0.000 N 
ATOM     71  C49 UNL A   1      17.295  19.345   5.280  1.00  0.00    +0.000 C 
ATOM     72  C50 UNL A   1      18.277  18.488   6.030  1.00  0.00    +0.000 C 
ATOM     84  C57 UNL A   1      19.594  18.633   5.789  1.00  0.00    +0.000 C 
ATOM     85  C58 UNL A   1      20.658  17.859   6.420  1.00  0.00    +0.000 C 
ATOM     86  C59 UNL A   1      21.841  18.268   5.939  1.00  0.00    +0.000 C 
ATOM     87  C60 UNL A   1      21.616  19.313   4.938  1.00  0.00    +0.000 C 
ATOM     88  N7  UNL A   1      20.253  19.483   4.936  1.00  0.00    +0.000 N 
ATOM     89  C61 UNL A   1      15.873  19.145   5.593  1.00  0.00    +0.000 C 
ATOM     90  C62 UNL A   1      15.292  19.980   4.744  1.00  0.00    +0.000 C 
ATOM     91  C63 UNL A   1      22.706  22.652   1.914  1.00  0.00    +0.000 C 
ATOM     92  C64 UNL A   1      23.337  21.703   2.592  1.00  0.00    +0.000 C 
ATOM    121  H27 UNL A   1      18.082  24.517   0.086  1.00  0.00    +0.000 H 
ATOM    122  H28 UNL A   1      15.780  23.757   1.046  1.00  0.00    +0.000 H 
ATOM    123  H29 UNL A   1      18.765  21.669   3.015  1.00  0.00    +0.000 H 
ATOM    124  H30 UNL A   1      20.522  17.117   7.125  1.00  0.00    +0.000 H 
ATOM    125  H31 UNL A   1      22.763  17.904   6.227  1.00  0.00    +0.000 H 
ATOM    126  H32 UNL A   1      19.795  20.150   4.376  1.00  0.00    +0.000 H 
ATOM    127  H33 UNL A   1      15.441  18.519   6.290  1.00  0.00    +0.000 H 
ATOM    128  H34 UNL A   1      14.271  20.085   4.638  1.00  0.00    +0.000 H 
ENDROOT
BRANCH   36   35
ATOM     33  C24 UNL A   1      25.919  18.167   3.821  1.00  0.00    +0.000 C 
ATOM     34  C25 UNL A   1      24.617  18.607   3.567  1.00  0.00    +0.000 C 
ATOM     35  C26 UNL A   1      23.996  19.523   4.432  1.00  0.00    +0.000 C 
ATOM    132  H38 UNL A   1      26.595  20.081   6.489  1.00  0.00    +0.000 H 
ATOM    131  H37 UNL A   1      24.278  20.712   6.157  1.00  0.00    +0.000 H 
ATOM    119  H25 UNL A   1      26.359  17.472   3.198  1.00  0.00    +0.000 H 
ATOM    120  H26 UNL A   1      24.110  18.257   2.740  1.00  0.00    +0.000 H 
ATOM     93  C65 UNL A   1      24.723  20.039   5.515  1.00  0.00    +0.000 C 
ATOM     94  C66 UNL A   1      26.045  19.647   5.730  1.00  0.00    +0.000 C 
ATOM     32  C23 UNL A   1      26.625  18.666   4.921  1.00  0.00    +0.000 C 
BRANCH   32   30
ATOM     30  C22 UNL A   1      27.996  18.156   5.164  1.00  0.00    +0.000 C 
ATOM     31  O2  UNL A   1      28.953  18.901   5.002  1.00  0.00    +0.000 O 
BRANCH   30   29
ATOM     29  N3  UNL A   1      28.204  16.852   5.542  1.00  0.00    +0.000 N 
ATOM    118  H24 UNL A   1      27.587  16.199   5.139  1.00  0.00    +0.000 H 
BRANCH   29   28
ATOM    116  H22 UNL A   1      29.403  15.283   6.135  1.00  0.00    +0.000 H 
ATOM     28  C21 UNL A   1      29.193  16.285   6.443  1.00  0.00    +0.000 C 
ATOM    117  H23 UNL A   1      30.064  16.905   6.397  1.00  0.00    +0.000 H 
BRANCH   28   27
ATOM    114  H20 UNL A   1      28.719  15.243   8.224  1.00  0.00    +0.000 H 
ATOM     27  C20 UNL A   1      28.723  16.261   7.896  1.00  0.00    +0.000 C 
ATOM    115  H21 UNL A   1      29.404  16.886   8.436  1.00  0.00    +0.000 H 
BRANCH   27   26
ATOM    113  H19 UNL A   1      26.841  16.155   8.802  1.00  0.00    +0.000 H 
ATOM     26  C19 UNL A   1      27.329  16.845   8.145  1.00  0.00    +0.000 C 
ATOM    112  H18 UNL A   1      26.849  16.961   7.196  1.00  0.00    +0.000 H 
BRANCH   26   25
ATOM     25  C18 UNL A   1      27.284  18.196   8.858  1.00  0.00    +0.000 C 
ATOM    110  H16 UNL A   1      27.162  18.954   8.113  1.00  0.00    +0.000 H 
ATOM    111  H17 UNL A   1      26.473  18.122   9.553  1.00  0.00    +0.000 H 
BRANCH   25   24
ATOM    108  H14 UNL A   1      28.828  17.686  10.218  1.00  0.00    +0.000 H 
ATOM    109  H15 UNL A   1      29.223  18.960   9.011  1.00  0.00    +0.000 H 
ATOM     24  C17 UNL A   1      28.507  18.568   9.704  1.00  0.00    +0.000 C 
BRANCH   24   23
ATOM    106  H12 UNL A   1      29.219  20.211  10.844  1.00  0.00    +0.000 H 
ATOM    107  H13 UNL A   1      27.501  20.283  10.400  1.00  0.00    +0.000 H 
ATOM     23  C16 UNL A   1      28.304  19.665  10.744  1.00  0.00    +0.000 C 
BRANCH   23   22
ATOM    105  H11 UNL A   1      28.606  18.762  12.640  1.00  0.00    +0.000 H 
ATOM     22  N2  UNL A   1      27.927  19.156  12.047  1.00  0.00    +0.000 N 
BRANCH   22    2
ATOM      1  O1  UNL A   1      26.212  18.816  13.541  1.00  0.00    +0.000 O 
ATOM      2  C1  UNL A   1      26.609  19.224  12.452  1.00  0.00    +0.000 C 
BRANCH    2    3
ATOM      3  C2  UNL A   1      25.682  19.915  11.481  1.00  0.00    +0.000 C 
ATOM     95  H1  UNL A   1      24.981  19.185  11.134  1.00  0.00    +0.000 H 
ATOM     96  H2  UNL A   1      26.330  20.325  10.735  1.00  0.00    +0.000 H 
BRANCH    3    4
ATOM     97  H3  UNL A   1      26.674  22.233  12.080  1.00  0.00    +0.000 H 
ATOM     98  H4  UNL A   1      25.674  24.249  12.958  1.00  0.00    +0.000 H 
ATOM     99  H5  UNL A   1      23.308  24.280  13.484  1.00  0.00    +0.000 H 
ATOM      4  C3  UNL A   1      24.883  21.105  11.989  1.00  0.00    +0.000 C 
ATOM      5  C4  UNL A   1      25.660  22.255  12.267  1.00  0.00    +0.000 C 
ATOM      6  C5  UNL A   1      25.091  23.415  12.785  1.00  0.00    +0.000 C 
ATOM    100  H6  UNL A   1      21.945  22.338  13.034  1.00  0.00    +0.000 H 
ATOM      8  C7  UNL A   1      22.947  22.320  12.787  1.00  0.00    +0.000 C 
ATOM      9  C8  UNL A   1      23.481  21.168  12.177  1.00  0.00    +0.000 C 
ATOM      7  C6  UNL A   1      23.735  23.439  13.068  1.00  0.00    +0.000 C 
BRANCH    9   10
ATOM     10  N1  UNL A   1      22.636  20.066  11.885  1.00  0.00    +0.000 N 
ATOM    101  H7  UNL A   1      21.897  20.246  11.260  1.00  0.00    +0.000 H 
BRANCH   10   11
ATOM    102  H8  UNL A   1      22.917  17.208  15.392  1.00  0.00    +0.000 H 
ATOM    103  H9  UNL A   1      23.252  15.263  13.979  1.00  0.00    +0.000 H 
ATOM    104  H10 UNL A   1      23.274  15.521  11.575  1.00  0.00    +0.000 H 
ATOM     11  C9  UNL A   1      22.721  18.737  12.379  1.00  0.00    +0.000 C 
ATOM     12  C10 UNL A   1      22.734  18.550  13.775  1.00  0.00    +0.000 C 
ATOM     13  F1  UNL A   1      22.556  19.597  14.590  1.00  0.00    +0.000 F 
ATOM     14  C11 UNL A   1      22.922  17.305  14.365  1.00  0.00    +0.000 C 
ATOM     15  C12 UNL A   1      23.118  16.196  13.559  1.00  0.00    +0.000 C 
ATOM     16  C13 UNL A   1      23.134  16.351  12.172  1.00  0.00    +0.000 C 
ATOM     17  C14 UNL A   1      22.964  17.618  11.563  1.00  0.00    +0.000 C 
ATOM     18  C15 UNL A   1      23.028  17.695  10.058  1.00  0.00    +0.000 C 
ATOM     19  F2  UNL A   1      23.807  16.707   9.524  1.00  0.00    +0.000 F 
ATOM     20  F3  UNL A   1      21.807  17.537   9.477  1.00  0.00    +0.000 F 
ATOM     21  F4  UNL A   1      23.549  18.853   9.570  1.00  0.00    +0.000 F 
ENDBRANCH   10   11
ENDBRANCH    9   10
ENDBRANCH    3    4
ENDBRANCH    2    3
ENDBRANCH   22    2
ENDBRANCH   23   22
ENDBRANCH   24   23
ENDBRANCH   25   24
ENDBRANCH   26   25
ENDBRANCH   27   26
ENDBRANCH   28   27
ENDBRANCH   29   28
ENDBRANCH   30   29
ENDBRANCH   32   30
ENDBRANCH   36   35
BRANCH   40   41
ATOM     41  C31 UNL A   1      20.899  24.358   0.478  1.00  0.00    +0.000 C 
ATOM     42  C32 UNL A   1      21.054  24.135  -0.899  1.00  0.00    +0.000 C 
ATOM     43  F5  UNL A   1      20.757  22.938  -1.427  1.00  0.00    +0.000 F 
ATOM     44  C33 UNL A   1      21.559  25.128  -1.735  1.00  0.00    +0.000 C 
ATOM     45  F6  UNL A   1      21.750  24.873  -3.037  1.00  0.00    +0.000 F 
ATOM     46  C34 UNL A   1      21.879  26.376  -1.220  1.00  0.00    +0.000 C 
ATOM     47  F7  UNL A   1      22.362  27.331  -2.026  1.00  0.00    +0.000 F 
ATOM     48  C35 UNL A   1      21.707  26.628   0.133  1.00  0.00    +0.000 C 
ATOM     49  F8  UNL A   1      22.004  27.837   0.629  1.00  0.00    +0.000 F 
ATOM     50  C36 UNL A   1      21.232  25.627   0.976  1.00  0.00    +0.000 C 
ATOM     51  F9  UNL A   1      21.096  25.898   2.283  1.00  0.00    +0.000 F 
ENDBRANCH   40   41
BRANCH   57   58
ATOM     65  C46 UNL A   1      12.458  23.099   3.539  1.00  0.00    +0.000 C 
ATOM     66  F13 UNL A   1      11.810  23.904   4.393  1.00  0.00    +0.000 F 
ATOM     67  C47 UNL A   1      13.812  22.832   3.728  1.00  0.00    +0.000 C 
ATOM     68  F14 UNL A   1      14.442  23.404   4.765  1.00  0.00    +0.000 F 
ATOM     58  C42 UNL A   1      14.508  21.980   2.858  1.00  0.00    +0.000 C 
ATOM     59  C43 UNL A   1      13.798  21.405   1.794  1.00  0.00    +0.000 C 
ATOM     60  F10 UNL A   1      14.422  20.597   0.924  1.00  0.00    +0.000 F 
ATOM     61  C44 UNL A   1      12.452  21.700   1.589  1.00  0.00    +0.000 C 
ATOM     62  F11 UNL A   1      11.809  21.185   0.532  1.00  0.00    +0.000 F 
ATOM     63  C45 UNL A   1      11.783  22.542   2.464  1.00  0.00    +0.000 C 
ATOM     64  F12 UNL A   1      10.488  22.825   2.265  1.00  0.00    +0.000 F 
ENDBRANCH   57   58
BRANCH   72   73
ATOM     73  C51 UNL A   1      17.811  17.461   6.996  1.00  0.00    +0.000 C 
ATOM     74  C52 UNL A   1      17.851  16.099   6.667  1.00  0.00    +0.000 C 
ATOM     75  F15 UNL A   1      18.284  15.715   5.457  1.00  0.00    +0.000 F 
ATOM     76  C53 UNL A   1      17.413  15.129   7.566  1.00  0.00    +0.000 C 
ATOM     77  F16 UNL A   1      17.426  13.837   7.213  1.00  0.00    +0.000 F 
ATOM     78  C54 UNL A   1      16.953  15.500   8.821  1.00  0.00    +0.000 C 
ATOM     79  F17 UNL A   1      16.541  14.566   9.688  1.00  0.00    +0.000 F 
ATOM     80  C55 UNL A   1      16.917  16.840   9.173  1.00  0.00    +0.000 C 
ATOM     81  F18 UNL A   1      16.488  17.201  10.390  1.00  0.00    +0.000 F 
ATOM     82  C56 UNL A   1      17.330  17.813   8.264  1.00  0.00    +0.000 C 
ATOM     83  F19 UNL A   1      17.276  19.103   8.629  1.00  0.00    +0.000 F 
ENDBRANCH   72   73
TORSDOF 18
ENDMDL
MODEL 8
REMARK VINA RESULT:      -9.5     65.512     71.171
ROOT
ATOM    129  H35 UNL A   1      28.589 -15.354  28.887  1.00  0.00    +0.000 H 
ATOM    130  H36 UNL A   1      26.866 -13.728  27.917  1.00  0.00    +0.000 H 
ATOM     36  C27 UNL A   1      25.181 -12.537  29.883  1.00  0.00    +0.000 C 
ATOM     37  C28 UNL A   1      26.362 -13.438  30.107  1.00  0.00    +0.000 C 
ATOM     38  N4  UNL A   1      26.874 -13.866  31.236  1.00  0.00    +0.000 N 
ATOM     39  C29 UNL A   1      27.926 -14.701  30.882  1.00  0.00    +0.000 C 
ATOM     40  C30 UNL A   1      28.805 -15.344  31.691  1.00  0.00    +0.000 C 
ATOM     52  C37 UNL A   1      28.789 -15.267  33.129  1.00  0.00    +0.000 C 
ATOM     53  C38 UNL A   1      29.684 -15.814  34.033  1.00  0.00    +0.000 C 
ATOM     54  C39 UNL A   1      29.230 -15.529  35.326  1.00  0.00    +0.000 C 
ATOM     55  C40 UNL A   1      28.081 -14.761  35.229  1.00  0.00    +0.000 C 
ATOM     56  N5  UNL A   1      27.822 -14.609  33.875  1.00  0.00    +0.000 N 
ATOM     57  C41 UNL A   1      27.276 -14.208  36.289  1.00  0.00    +0.000 C 
ATOM     69  C48 UNL A   1      26.178 -13.432  36.105  1.00  0.00    +0.000 C 
ATOM     70  N6  UNL A   1      25.591 -13.017  34.917  1.00  0.00    +0.000 N 
ATOM     71  C49 UNL A   1      24.545 -12.307  35.262  1.00  0.00    +0.000 C 
ATOM     72  C50 UNL A   1      23.554 -11.590  34.388  1.00  0.00    +0.000 C 
ATOM     84  C57 UNL A   1      23.690 -11.653  33.050  1.00  0.00    +0.000 C 
ATOM     85  C58 UNL A   1      22.822 -10.992  32.081  1.00  0.00    +0.000 C 
ATOM     86  C59 UNL A   1      23.258 -11.270  30.843  1.00  0.00    +0.000 C 
ATOM     87  C60 UNL A   1      24.458 -12.104  30.933  1.00  0.00    +0.000 C 
ATOM     88  N7  UNL A   1      24.624 -12.303  32.282  1.00  0.00    +0.000 N 
ATOM     89  C61 UNL A   1      24.338 -12.206  36.713  1.00  0.00    +0.000 C 
ATOM     90  C62 UNL A   1      25.384 -12.873  37.180  1.00  0.00    +0.000 C 
ATOM     91  C63 UNL A   1      27.950 -14.759  29.436  1.00  0.00    +0.000 C 
ATOM     92  C64 UNL A   1      27.045 -13.947  28.909  1.00  0.00    +0.000 C 
ATOM    121  H27 UNL A   1      30.539 -16.341  33.795  1.00  0.00    +0.000 H 
ATOM    122  H28 UNL A   1      29.676 -15.839  36.203  1.00  0.00    +0.000 H 
ATOM    123  H29 UNL A   1      27.064 -14.106  33.498  1.00  0.00    +0.000 H 
ATOM    124  H30 UNL A   1      22.004 -10.406  32.311  1.00  0.00    +0.000 H 
ATOM    125  H31 UNL A   1      22.818 -10.948  29.967  1.00  0.00    +0.000 H 
ATOM    126  H32 UNL A   1      25.343 -12.858  32.660  1.00  0.00    +0.000 H 
ATOM    127  H33 UNL A   1      23.578 -11.739  37.232  1.00  0.00    +0.000 H 
ATOM    128  H34 UNL A   1      25.606 -12.979  38.183  1.00  0.00    +0.000 H 
ENDROOT
BRANCH   36   35
ATOM     33  C24 UNL A   1      23.513 -12.618  26.478  1.00  0.00    +0.000 C 
ATOM     34  C25 UNL A   1      23.834 -12.931  27.802  1.00  0.00    +0.000 C 
ATOM     35  C26 UNL A   1      24.764 -12.154  28.510  1.00  0.00    +0.000 C 
ATOM    132  H38 UNL A   1      25.306  -9.803  26.170  1.00  0.00    +0.000 H 
ATOM    131  H37 UNL A   1      26.002 -10.443  28.403  1.00  0.00    +0.000 H 
ATOM    119  H25 UNL A   1      22.850 -13.210  25.954  1.00  0.00    +0.000 H 
ATOM    120  H26 UNL A   1      23.384 -13.738  28.261  1.00  0.00    +0.000 H 
ATOM     93  C65 UNL A   1      25.317 -11.022  27.893  1.00  0.00    +0.000 C 
ATOM     94  C66 UNL A   1      24.947 -10.674  26.593  1.00  0.00    +0.000 C 
ATOM     32  C23 UNL A   1      24.092 -11.504  25.862  1.00  0.00    +0.000 C 
BRANCH   32   30
ATOM     30  C22 UNL A   1      23.739 -11.220  24.451  1.00  0.00    +0.000 C 
ATOM     31  O2  UNL A   1      22.592 -11.407  24.067  1.00  0.00    +0.000 O 
BRANCH   30   29
ATOM     29  N3  UNL A   1      24.690 -10.776  23.564  1.00  0.00    +0.000 N 
ATOM    118  H24 UNL A   1      24.673  -9.808  23.388  1.00  0.00    +0.000 H 
BRANCH   29   28
ATOM    116  H22 UNL A   1      25.430 -11.581  21.816  1.00  0.00    +0.000 H 
ATOM     28  C21 UNL A   1      25.715 -11.513  22.845  1.00  0.00    +0.000 C 
ATOM    117  H23 UNL A   1      26.638 -10.983  22.966  1.00  0.00    +0.000 H 
BRANCH   28   27
ATOM    114  H20 UNL A   1      24.996 -13.252  23.815  1.00  0.00    +0.000 H 
ATOM     27  C20 UNL A   1      25.922 -12.924  23.390  1.00  0.00    +0.000 C 
ATOM    115  H21 UNL A   1      26.249 -13.516  22.560  1.00  0.00    +0.000 H 
BRANCH   27   26
ATOM    113  H19 UNL A   1      27.619 -13.882  24.147  1.00  0.00    +0.000 H 
ATOM     26  C19 UNL A   1      27.009 -13.062  24.460  1.00  0.00    +0.000 C 
ATOM    112  H18 UNL A   1      26.523 -13.211  25.402  1.00  0.00    +0.000 H 
BRANCH   26   25
ATOM     25  C18 UNL A   1      27.960 -11.873  24.608  1.00  0.00    +0.000 C 
ATOM    110  H16 UNL A   1      28.779 -12.028  23.938  1.00  0.00    +0.000 H 
ATOM    111  H17 UNL A   1      27.366 -11.009  24.393  1.00  0.00    +0.000 H 
BRANCH   25   24
ATOM    108  H14 UNL A   1      27.766 -11.820  26.718  1.00  0.00    +0.000 H 
ATOM    109  H15 UNL A   1      29.383 -12.282  26.082  1.00  0.00    +0.000 H 
ATOM     24  C17 UNL A   1      28.540 -11.628  26.006  1.00  0.00    +0.000 C 
BRANCH   24   23
ATOM    106  H12 UNL A   1      30.077 -10.320  26.666  1.00  0.00    +0.000 H 
ATOM    107  H13 UNL A   1      29.062  -9.695  25.350  1.00  0.00    +0.000 H 
ATOM     23  C16 UNL A   1      29.084 -10.229  26.277  1.00  0.00    +0.000 C 
BRANCH   23   22
ATOM    105  H11 UNL A   1      27.754  -9.949  27.906  1.00  0.00    +0.000 H 
ATOM     22  N2  UNL A   1      28.286  -9.478  27.225  1.00  0.00    +0.000 N 
BRANCH   22    2
ATOM      1  O1  UNL A   1      28.139  -7.465  26.122  1.00  0.00    +0.000 O 
ATOM      2  C1  UNL A   1      28.273  -8.099  27.167  1.00  0.00    +0.000 C 
BRANCH    2    3
ATOM      3  C2  UNL A   1      28.361  -7.407  28.506  1.00  0.00    +0.000 C 
ATOM     95  H1  UNL A   1      27.860  -6.466  28.412  1.00  0.00    +0.000 H 
ATOM     96  H2  UNL A   1      29.410  -7.353  28.713  1.00  0.00    +0.000 H 
BRANCH    3    4
ATOM     97  H3  UNL A   1      25.833  -7.567  29.051  1.00  0.00    +0.000 H 
ATOM     98  H4  UNL A   1      24.630  -8.555  30.899  1.00  0.00    +0.000 H 
ATOM     99  H5  UNL A   1      25.862  -9.600  32.706  1.00  0.00    +0.000 H 
ATOM      4  C3  UNL A   1      27.769  -8.118  29.712  1.00  0.00    +0.000 C 
ATOM      5  C4  UNL A   1      26.358  -8.044  29.799  1.00  0.00    +0.000 C 
ATOM      6  C5  UNL A   1      25.661  -8.600  30.869  1.00  0.00    +0.000 C 
ATOM    100  H6  UNL A   1      28.270  -9.740  32.604  1.00  0.00    +0.000 H 
ATOM      8  C7  UNL A   1      27.756  -9.311  31.819  1.00  0.00    +0.000 C 
ATOM      9  C8  UNL A   1      28.476  -8.839  30.704  1.00  0.00    +0.000 C 
ATOM      7  C6  UNL A   1      26.364  -9.215  31.892  1.00  0.00    +0.000 C 
BRANCH    9   10
ATOM     10  N1  UNL A   1      29.887  -8.985  30.661  1.00  0.00    +0.000 N 
ATOM    101  H7  UNL A   1      30.388  -8.535  31.379  1.00  0.00    +0.000 H 
BRANCH   10   11
ATOM    102  H8  UNL A   1      31.081 -12.913  28.738  1.00  0.00    +0.000 H 
ATOM    103  H9  UNL A   1      32.875 -11.912  27.444  1.00  0.00    +0.000 H 
ATOM    104  H10 UNL A   1      33.282  -9.533  27.605  1.00  0.00    +0.000 H 
ATOM     11  C9  UNL A   1      30.670  -9.698  29.713  1.00  0.00    +0.000 C 
ATOM     12  C10 UNL A   1      30.476 -11.089  29.608  1.00  0.00    +0.000 C 
ATOM     13  F1  UNL A   1      29.500 -11.681  30.308  1.00  0.00    +0.000 F 
ATOM     14  C11 UNL A   1      31.261 -11.898  28.794  1.00  0.00    +0.000 C 
ATOM     15  C12 UNL A   1      32.287 -11.328  28.059  1.00  0.00    +0.000 C 
ATOM     16  C13 UNL A   1      32.520  -9.955  28.159  1.00  0.00    +0.000 C 
ATOM     17  C14 UNL A   1      31.740  -9.127  29.001  1.00  0.00    +0.000 C 
ATOM     18  C15 UNL A   1      32.085  -7.661  29.071  1.00  0.00    +0.000 C 
ATOM     19  F2  UNL A   1      33.407  -7.429  28.811  1.00  0.00    +0.000 F 
ATOM     20  F3  UNL A   1      31.408  -6.923  28.147  1.00  0.00    +0.000 F 
ATOM     21  F4  UNL A   1      31.860  -7.080  30.280  1.00  0.00    +0.000 F 
ENDBRANCH   10   11
ENDBRANCH    9   10
ENDBRANCH    3    4
ENDBRANCH    2    3
ENDBRANCH   22    2
ENDBRANCH   23   22
ENDBRANCH   24   23
ENDBRANCH   25   24
ENDBRANCH   26   25
ENDBRANCH   27   26
ENDBRANCH   28   27
ENDBRANCH   29   28
ENDBRANCH   30   29
ENDBRANCH   32   30
ENDBRANCH   36   35
BRANCH   40   41
ATOM     41  C31 UNL A   1      29.855 -16.194  31.034  1.00  0.00    +0.000 C 
ATOM     42  C32 UNL A   1      29.630 -17.547  30.736  1.00  0.00    +0.000 C 
ATOM     43  F5  UNL A   1      28.466 -18.127  31.068  1.00  0.00    +0.000 F 
ATOM     44  C33 UNL A   1      30.618 -18.324  30.136  1.00  0.00    +0.000 C 
ATOM     45  F6  UNL A   1      30.399 -19.627  29.912  1.00  0.00    +0.000 F 
ATOM     46  C34 UNL A   1      31.833 -17.757  29.784  1.00  0.00    +0.000 C 
ATOM     47  F7  UNL A   1      32.781 -18.505  29.205  1.00  0.00    +0.000 F 
ATOM     48  C35 UNL A   1      32.067 -16.414  30.043  1.00  0.00    +0.000 C 
ATOM     49  F8  UNL A   1      33.236 -15.861  29.692  1.00  0.00    +0.000 F 
ATOM     50  C36 UNL A   1      31.093 -15.642  30.671  1.00  0.00    +0.000 C 
ATOM     51  F9  UNL A   1      31.359 -14.352  30.925  1.00  0.00    +0.000 F 
ENDBRANCH   40   41
BRANCH   57   58
ATOM     65  C46 UNL A   1      27.361 -15.684  39.797  1.00  0.00    +0.000 C 
ATOM     66  F13 UNL A   1      26.673 -16.580  40.520  1.00  0.00    +0.000 F 
ATOM     67  C47 UNL A   1      26.994 -15.428  38.478  1.00  0.00    +0.000 C 
ATOM     68  F14 UNL A   1      25.959 -16.102  37.955  1.00  0.00    +0.000 F 
ATOM     58  C42 UNL A   1      27.687 -14.482  37.707  1.00  0.00    +0.000 C 
ATOM     59  C43 UNL A   1      28.757 -13.803  38.306  1.00  0.00    +0.000 C 
ATOM     60  F10 UNL A   1      29.462 -12.902  37.606  1.00  0.00    +0.000 F 
ATOM     61  C44 UNL A   1      29.141 -14.085  39.616  1.00  0.00    +0.000 C 
ATOM     62  F11 UNL A   1      30.204 -13.466  40.148  1.00  0.00    +0.000 F 
ATOM     63  C45 UNL A   1      28.440 -15.021  40.361  1.00  0.00    +0.000 C 
ATOM     64  F12 UNL A   1      28.810 -15.291  41.620  1.00  0.00    +0.000 F 
ENDBRANCH   57   58
BRANCH   72   73
ATOM     73  C51 UNL A   1      22.457 -10.783  34.982  1.00  0.00    +0.000 C 
ATOM     74  C52 UNL A   1      22.645  -9.425  35.274  1.00  0.00    +0.000 C 
ATOM     75  F15 UNL A   1      23.834  -8.850  35.045  1.00  0.00    +0.000 F 
ATOM     76  C53 UNL A   1      21.622  -8.662  35.833  1.00  0.00    +0.000 C 
ATOM     77  F16 UNL A   1      21.840  -7.375  36.137  1.00  0.00    +0.000 F 
ATOM     78  C54 UNL A   1      20.385  -9.235  36.086  1.00  0.00    +0.000 C 
ATOM     79  F17 UNL A   1      19.400  -8.498  36.616  1.00  0.00    +0.000 F 
ATOM     80  C55 UNL A   1      20.172 -10.573  35.794  1.00  0.00    +0.000 C 
ATOM     81  F18 UNL A   1      18.974 -11.126  36.023  1.00  0.00    +0.000 F 
ATOM     82  C56 UNL A   1      21.203 -11.344  35.259  1.00  0.00    +0.000 C 
ATOM     83  F19 UNL A   1      20.971 -12.639  34.994  1.00  0.00    +0.000 F 
ENDBRANCH   72   73
TORSDOF 18
ENDMDL
MODEL 9
REMARK VINA RESULT:      -9.4     36.339     42.076
ROOT
ATOM    129  H35 UNL A   1      45.501  25.488  26.295  1.00  0.00    +0.000 H 
ATOM    130  H36 UNL A   1      43.113  24.568  26.353  1.00  0.00    +0.000 H 
ATOM     36  C27 UNL A   1      41.258  26.279  27.678  1.00  0.00    +0.000 C 
ATOM     37  C28 UNL A   1      42.701  26.555  27.362  1.00  0.00    +0.000 C 
ATOM     38  N4  UNL A   1      43.414  27.625  27.617  1.00  0.00    +0.000 N 
ATOM     39  C29 UNL A   1      44.694  27.347  27.154  1.00  0.00    +0.000 C 
ATOM     40  C30 UNL A   1      45.781  28.157  27.135  1.00  0.00    +0.000 C 
ATOM     52  C37 UNL A   1      45.791  29.513  27.622  1.00  0.00    +0.000 C 
ATOM     53  C38 UNL A   1      46.817  30.440  27.572  1.00  0.00    +0.000 C 
ATOM     54  C39 UNL A   1      46.390  31.603  28.224  1.00  0.00    +0.000 C 
ATOM     55  C40 UNL A   1      45.079  31.419  28.634  1.00  0.00    +0.000 C 
ATOM     56  N5  UNL A   1      44.725  30.132  28.259  1.00  0.00    +0.000 N 
ATOM     57  C41 UNL A   1      44.212  32.345  29.319  1.00  0.00    +0.000 C 
ATOM     69  C48 UNL A   1      42.922  32.096  29.655  1.00  0.00    +0.000 C 
ATOM     70  N6  UNL A   1      42.170  30.947  29.443  1.00  0.00    +0.000 N 
ATOM     71  C49 UNL A   1      40.993  31.186  29.967  1.00  0.00    +0.000 C 
ATOM     72  C50 UNL A   1      39.774  30.306  30.006  1.00  0.00    +0.000 C 
ATOM     84  C57 UNL A   1      39.832  29.078  29.457  1.00  0.00    +0.000 C 
ATOM     85  C58 UNL A   1      38.728  28.126  29.400  1.00  0.00    +0.000 C 
ATOM     86  C59 UNL A   1      39.143  27.012  28.779  1.00  0.00    +0.000 C 
ATOM     87  C60 UNL A   1      40.536  27.185  28.363  1.00  0.00    +0.000 C 
ATOM     88  N7  UNL A   1      40.870  28.431  28.833  1.00  0.00    +0.000 N 
ATOM     89  C61 UNL A   1      40.869  32.511  30.590  1.00  0.00    +0.000 C 
ATOM     90  C62 UNL A   1      42.057  33.039  30.334  1.00  0.00    +0.000 C 
ATOM     91  C63 UNL A   1      44.672  25.992  26.647  1.00  0.00    +0.000 C 
ATOM     92  C64 UNL A   1      43.450  25.481  26.695  1.00  0.00    +0.000 C 
ATOM    121  H27 UNL A   1      47.740  30.300  27.130  1.00  0.00    +0.000 H 
ATOM    122  H28 UNL A   1      46.954  32.453  28.373  1.00  0.00    +0.000 H 
ATOM    123  H29 UNL A   1      43.846  29.718  28.419  1.00  0.00    +0.000 H 
ATOM    124  H30 UNL A   1      37.780  28.284  29.778  1.00  0.00    +0.000 H 
ATOM    125  H31 UNL A   1      38.571  26.168  28.619  1.00  0.00    +0.000 H 
ATOM    126  H32 UNL A   1      41.767  28.823  28.731  1.00  0.00    +0.000 H 
ATOM    127  H33 UNL A   1      40.067  32.922  31.093  1.00  0.00    +0.000 H 
ATOM    128  H34 UNL A   1      42.332  34.002  30.586  1.00  0.00    +0.000 H 
ENDROOT
BRANCH   36   35
ATOM     33  C24 UNL A   1      40.580  22.563  27.334  1.00  0.00    +0.000 C 
ATOM     34  C25 UNL A   1      41.122  23.774  27.775  1.00  0.00    +0.000 C 
ATOM     35  C26 UNL A   1      40.624  24.994  27.288  1.00  0.00    +0.000 C 
ATOM    132  H38 UNL A   1      38.110  23.776  25.420  1.00  0.00    +0.000 H 
ATOM    131  H37 UNL A   1      39.161  25.871  26.040  1.00  0.00    +0.000 H 
ATOM    119  H25 UNL A   1      40.969  21.670  27.674  1.00  0.00    +0.000 H 
ATOM    120  H26 UNL A   1      41.891  23.771  28.462  1.00  0.00    +0.000 H 
ATOM     93  C65 UNL A   1      39.534  24.982  26.405  1.00  0.00    +0.000 C 
ATOM     94  C66 UNL A   1      38.953  23.774  26.016  1.00  0.00    +0.000 C 
ATOM     32  C23 UNL A   1      39.512  22.562  26.431  1.00  0.00    +0.000 C 
BRANCH   32   30
ATOM     30  C22 UNL A   1      38.982  21.255  25.975  1.00  0.00    +0.000 C 
ATOM     31  O2  UNL A   1      39.607  20.232  26.220  1.00  0.00    +0.000 O 
BRANCH   30   29
ATOM     29  N3  UNL A   1      37.812  21.182  25.258  1.00  0.00    +0.000 N 
ATOM    118  H24 UNL A   1      37.598  21.985  24.730  1.00  0.00    +0.000 H 
BRANCH   29   28
ATOM    116  H22 UNL A   1      37.050  19.537  24.276  1.00  0.00    +0.000 H 
ATOM     28  C21 UNL A   1      36.841  20.106  25.158  1.00  0.00    +0.000 C 
ATOM    117  H23 UNL A   1      36.927  19.510  26.043  1.00  0.00    +0.000 H 
BRANCH   28   27
ATOM    114  H20 UNL A   1      34.847  19.937  24.466  1.00  0.00    +0.000 H 
ATOM     27  C20 UNL A   1      35.402  20.612  25.083  1.00  0.00    +0.000 C 
ATOM    115  H21 UNL A   1      35.054  20.660  26.093  1.00  0.00    +0.000 H 
BRANCH   27   26
ATOM    113  H19 UNL A   1      34.392  21.967  23.851  1.00  0.00    +0.000 H 
ATOM     26  C19 UNL A   1      35.232  22.023  24.511  1.00  0.00    +0.000 C 
ATOM    112  H18 UNL A   1      36.149  22.295  24.032  1.00  0.00    +0.000 H 
BRANCH   26   25
ATOM     25  C18 UNL A   1      34.891  23.120  25.520  1.00  0.00    +0.000 C 
ATOM    110  H16 UNL A   1      33.829  23.123  25.651  1.00  0.00    +0.000 H 
ATOM    111  H17 UNL A   1      35.446  22.874  26.402  1.00  0.00    +0.000 H 
BRANCH   25   24
ATOM    108  H14 UNL A   1      35.617  25.037  26.059  1.00  0.00    +0.000 H 
ATOM    109  H15 UNL A   1      36.101  24.432  24.436  1.00  0.00    +0.000 H 
ATOM     24  C17 UNL A   1      35.319  24.546  25.156  1.00  0.00    +0.000 C 
BRANCH   24   23
ATOM    106  H12 UNL A   1      33.401  25.456  25.108  1.00  0.00    +0.000 H 
ATOM    107  H13 UNL A   1      34.701  26.384  24.332  1.00  0.00    +0.000 H 
ATOM     23  C16 UNL A   1      34.266  25.417  24.479  1.00  0.00    +0.000 C 
BRANCH   23   22
ATOM    105  H11 UNL A   1      34.359  24.183  22.756  1.00  0.00    +0.000 H 
ATOM     22  N2  UNL A   1      33.866  24.923  23.177  1.00  0.00    +0.000 N 
BRANCH   22    2
ATOM      1  O1  UNL A   1      32.880  26.495  21.817  1.00  0.00    +0.000 O 
ATOM      2  C1  UNL A   1      32.790  25.497  22.529  1.00  0.00    +0.000 C 
BRANCH    2    3
ATOM      3  C2  UNL A   1      31.483  24.760  22.696  1.00  0.00    +0.000 C 
ATOM     95  H1  UNL A   1      31.425  24.032  21.915  1.00  0.00    +0.000 H 
ATOM     96  H2  UNL A   1      30.736  25.527  22.670  1.00  0.00    +0.000 H 
BRANCH    3    4
ATOM     97  H3  UNL A   1      32.151  22.306  23.193  1.00  0.00    +0.000 H 
ATOM     98  H4  UNL A   1      31.835  20.899  25.131  1.00  0.00    +0.000 H 
ATOM     99  H5  UNL A   1      30.645  21.764  27.057  1.00  0.00    +0.000 H 
ATOM      4  C3  UNL A   1      31.240  24.036  24.011  1.00  0.00    +0.000 C 
ATOM      5  C4  UNL A   1      31.678  22.690  24.026  1.00  0.00    +0.000 C 
ATOM      6  C5  UNL A   1      31.486  21.871  25.135  1.00  0.00    +0.000 C 
ATOM    100  H6  UNL A   1      29.872  24.052  27.072  1.00  0.00    +0.000 H 
ATOM      8  C7  UNL A   1      30.395  23.701  26.254  1.00  0.00    +0.000 C 
ATOM      9  C8  UNL A   1      30.658  24.576  25.183  1.00  0.00    +0.000 C 
ATOM      7  C6  UNL A   1      30.822  22.371  26.243  1.00  0.00    +0.000 C 
BRANCH    9   10
ATOM     10  N1  UNL A   1      30.230  25.928  25.252  1.00  0.00    +0.000 N 
ATOM    101  H7  UNL A   1      29.258  26.066  25.328  1.00  0.00    +0.000 H 
BRANCH   10   11
ATOM    102  H8  UNL A   1      33.523  28.465  27.058  1.00  0.00    +0.000 H 
ATOM    103  H9  UNL A   1      33.113  30.335  25.566  1.00  0.00    +0.000 H 
ATOM    104  H10 UNL A   1      31.378  30.168  23.889  1.00  0.00    +0.000 H 
ATOM     11  C9  UNL A   1      31.024  27.105  25.225  1.00  0.00    +0.000 C 
ATOM     12  C10 UNL A   1      32.029  27.247  26.202  1.00  0.00    +0.000 C 
ATOM     13  F1  UNL A   1      32.285  26.241  27.047  1.00  0.00    +0.000 F 
ATOM     14  C11 UNL A   1      32.790  28.404  26.335  1.00  0.00    +0.000 C 
ATOM     15  C12 UNL A   1      32.553  29.472  25.487  1.00  0.00    +0.000 C 
ATOM     16  C13 UNL A   1      31.548  29.372  24.523  1.00  0.00    +0.000 C 
ATOM     17  C14 UNL A   1      30.754  28.207  24.394  1.00  0.00    +0.000 C 
ATOM     18  C15 UNL A   1      29.669  28.201  23.346  1.00  0.00    +0.000 C 
ATOM     19  F2  UNL A   1      29.202  29.458  23.080  1.00  0.00    +0.000 F 
ATOM     20  F3  UNL A   1      30.107  27.725  22.147  1.00  0.00    +0.000 F 
ATOM     21  F4  UNL A   1      28.565  27.479  23.676  1.00  0.00    +0.000 F 
ENDBRANCH   10   11
ENDBRANCH    9   10
ENDBRANCH    3    4
ENDBRANCH    2    3
ENDBRANCH   22    2
ENDBRANCH   23   22
ENDBRANCH   24   23
ENDBRANCH   25   24
ENDBRANCH   26   25
ENDBRANCH   27   26
ENDBRANCH   28   27
ENDBRANCH   29   28
ENDBRANCH   30   29
ENDBRANCH   32   30
ENDBRANCH   36   35
BRANCH   40   41
ATOM     41  C31 UNL A   1      47.054  27.592  26.573  1.00  0.00    +0.000 C 
ATOM     42  C32 UNL A   1      47.974  26.902  27.377  1.00  0.00    +0.000 C 
ATOM     43  F5  UNL A   1      47.747  26.758  28.692  1.00  0.00    +0.000 F 
ATOM     44  C33 UNL A   1      49.155  26.393  26.843  1.00  0.00    +0.000 C 
ATOM     45  F6  UNL A   1      50.044  25.785  27.642  1.00  0.00    +0.000 F 
ATOM     46  C34 UNL A   1      49.422  26.527  25.489  1.00  0.00    +0.000 C 
ATOM     47  F7  UNL A   1      50.557  26.034  24.976  1.00  0.00    +0.000 F 
ATOM     48  C35 UNL A   1      48.514  27.181  24.669  1.00  0.00    +0.000 C 
ATOM     49  F8  UNL A   1      48.764  27.300  23.358  1.00  0.00    +0.000 F 
ATOM     50  C36 UNL A   1      47.347  27.718  25.206  1.00  0.00    +0.000 C 
ATOM     51  F9  UNL A   1      46.500  28.361  24.389  1.00  0.00    +0.000 F 
ENDBRANCH   40   41
BRANCH   57   58
ATOM     65  C46 UNL A   1      45.128  36.033  29.093  1.00  0.00    +0.000 C 
ATOM     66  F13 UNL A   1      44.998  37.042  28.221  1.00  0.00    +0.000 F 
ATOM     67  C47 UNL A   1      44.618  34.775  28.781  1.00  0.00    +0.000 C 
ATOM     68  F14 UNL A   1      43.992  34.608  27.607  1.00  0.00    +0.000 F 
ATOM     58  C42 UNL A   1      44.758  33.699  29.670  1.00  0.00    +0.000 C 
ATOM     59  C43 UNL A   1      45.427  33.929  30.881  1.00  0.00    +0.000 C 
ATOM     60  F10 UNL A   1      45.571  32.938  31.772  1.00  0.00    +0.000 F 
ATOM     61  C44 UNL A   1      45.908  35.197  31.204  1.00  0.00    +0.000 C 
ATOM     62  F11 UNL A   1      46.493  35.406  32.391  1.00  0.00    +0.000 F 
ATOM     63  C45 UNL A   1      45.763  36.245  30.308  1.00  0.00    +0.000 C 
ATOM     64  F12 UNL A   1      46.226  37.463  30.620  1.00  0.00    +0.000 F 
ENDBRANCH   57   58
BRANCH   72   73
ATOM     73  C51 UNL A   1      38.504  30.789  30.605  1.00  0.00    +0.000 C 
ATOM     74  C52 UNL A   1      38.296  30.726  31.990  1.00  0.00    +0.000 C 
ATOM     75  F15 UNL A   1      39.238  30.197  32.784  1.00  0.00    +0.000 F 
ATOM     76  C53 UNL A   1      37.106  31.174  32.559  1.00  0.00    +0.000 C 
ATOM     77  F16 UNL A   1      36.917  31.067  33.881  1.00  0.00    +0.000 F 
ATOM     78  C54 UNL A   1      36.113  31.718  31.759  1.00  0.00    +0.000 C 
ATOM     79  F17 UNL A   1      34.973  32.157  32.308  1.00  0.00    +0.000 F 
ATOM     80  C55 UNL A   1      36.302  31.803  30.388  1.00  0.00    +0.000 C 
ATOM     81  F18 UNL A   1      35.351  32.343  29.614  1.00  0.00    +0.000 F 
ATOM     82  C56 UNL A   1      37.481  31.331  29.814  1.00  0.00    +0.000 C 
ATOM     83  F19 UNL A   1      37.633  31.418  28.484  1.00  0.00    +0.000 F 
ENDBRANCH   72   73
TORSDOF 18
ENDMDL
MODEL 10
REMARK VINA RESULT:      -9.4     36.302     42.487
ROOT
ATOM    129  H35 UNL A   1      37.793  28.477  29.481  1.00  0.00    +0.000 H 
ATOM    130  H36 UNL A   1      38.436  26.239  28.417  1.00  0.00    +0.000 H 
ATOM     36  C27 UNL A   1      41.113  26.162  27.441  1.00  0.00    +0.000 C 
ATOM     37  C28 UNL A   1      40.448  27.263  28.217  1.00  0.00    +0.000 C 
ATOM     38  N4  UNL A   1      40.942  28.411  28.614  1.00  0.00    +0.000 N 
ATOM     39  C29 UNL A   1      39.901  29.071  29.253  1.00  0.00    +0.000 C 
ATOM     40  C30 UNL A   1      39.921  30.269  29.888  1.00  0.00    +0.000 C 
ATOM     52  C37 UNL A   1      41.089  31.104  30.006  1.00  0.00    +0.000 C 
ATOM     53  C38 UNL A   1      41.233  32.294  30.698  1.00  0.00    +0.000 C 
ATOM     54  C39 UNL A   1      42.528  32.777  30.477  1.00  0.00    +0.000 C 
ATOM     55  C40 UNL A   1      43.209  31.861  29.690  1.00  0.00    +0.000 C 
ATOM     56  N5  UNL A   1      42.313  30.840  29.408  1.00  0.00    +0.000 N 
ATOM     57  C41 UNL A   1      44.572  31.911  29.226  1.00  0.00    +0.000 C 
ATOM     69  C48 UNL A   1      45.176  30.949  28.484  1.00  0.00    +0.000 C 
ATOM     70  N6  UNL A   1      44.649  29.756  28.008  1.00  0.00    +0.000 N 
ATOM     71  C49 UNL A   1      45.612  29.184  27.327  1.00  0.00    +0.000 C 
ATOM     72  C50 UNL A   1      45.615  27.862  26.611  1.00  0.00    +0.000 C 
ATOM     84  C57 UNL A   1      44.498  27.109  26.617  1.00  0.00    +0.000 C 
ATOM     85  C58 UNL A   1      44.360  25.800  25.988  1.00  0.00    +0.000 C 
ATOM     86  C59 UNL A   1      43.116  25.343  26.198  1.00  0.00    +0.000 C 
ATOM     87  C60 UNL A   1      42.379  26.315  27.008  1.00  0.00    +0.000 C 
ATOM     88  N7  UNL A   1      43.271  27.344  27.185  1.00  0.00    +0.000 N 
ATOM     89  C61 UNL A   1      46.858  29.962  27.278  1.00  0.00    +0.000 C 
ATOM     90  C62 UNL A   1      46.551  31.007  28.034  1.00  0.00    +0.000 C 
ATOM     91  C63 UNL A   1      38.736  28.218  29.149  1.00  0.00    +0.000 C 
ATOM     92  C64 UNL A   1      39.036  27.063  28.574  1.00  0.00    +0.000 C 
ATOM    121  H27 UNL A   1      40.510  32.749  31.277  1.00  0.00    +0.000 H 
ATOM    122  H28 UNL A   1      42.912  33.663  30.838  1.00  0.00    +0.000 H 
ATOM    123  H29 UNL A   1      42.516  30.045  28.865  1.00  0.00    +0.000 H 
ATOM    124  H30 UNL A   1      45.099  25.305  25.464  1.00  0.00    +0.000 H 
ATOM    125  H31 UNL A   1      42.739  24.449  25.847  1.00  0.00    +0.000 H 
ATOM    126  H32 UNL A   1      43.050  28.170  27.673  1.00  0.00    +0.000 H 
ATOM    127  H33 UNL A   1      47.739  29.750  26.785  1.00  0.00    +0.000 H 
ATOM    128  H34 UNL A   1      47.210  31.765  28.272  1.00  0.00    +0.000 H 
ENDROOT
BRANCH   36   35
ATOM     33  C24 UNL A   1      40.185  22.496  27.153  1.00  0.00    +0.000 C 
ATOM     34  C25 UNL A   1      40.828  23.670  27.554  1.00  0.00    +0.000 C 
ATOM     35  C26 UNL A   1      40.376  24.919  27.097  1.00  0.00    +0.000 C 
ATOM    132  H38 UNL A   1      37.675  23.862  25.399  1.00  0.00    +0.000 H 
ATOM    131  H37 UNL A   1      38.892  25.887  25.944  1.00  0.00    +0.000 H 
ATOM    119  H25 UNL A   1      40.538  21.580  27.470  1.00  0.00    +0.000 H 
ATOM    120  H26 UNL A   1      41.638  23.619  28.190  1.00  0.00    +0.000 H 
ATOM     93  C65 UNL A   1      39.233  24.976  26.286  1.00  0.00    +0.000 C 
ATOM     94  C66 UNL A   1      38.554  23.807  25.939  1.00  0.00    +0.000 C 
ATOM     32  C23 UNL A   1      39.062  22.562  26.320  1.00  0.00    +0.000 C 
BRANCH   32   30
ATOM     30  C22 UNL A   1      38.423  21.291  25.903  1.00  0.00    +0.000 C 
ATOM     31  O2  UNL A   1      39.123  20.355  25.540  1.00  0.00    +0.000 O 
BRANCH   30   29
ATOM     29  N3  UNL A   1      37.055  21.161  25.895  1.00  0.00    +0.000 N 
ATOM    118  H24 UNL A   1      36.675  20.721  26.689  1.00  0.00    +0.000 H 
BRANCH   29   28
ATOM    116  H22 UNL A   1      36.596  22.069  24.102  1.00  0.00    +0.000 H 
ATOM     28  C21 UNL A   1      36.082  21.573  24.898  1.00  0.00    +0.000 C 
ATOM    117  H23 UNL A   1      35.579  20.692  24.556  1.00  0.00    +0.000 H 
BRANCH   28   27
ATOM    114  H20 UNL A   1      34.061  22.120  25.214  1.00  0.00    +0.000 H 
ATOM     27  C20 UNL A   1      35.023  22.519  25.460  1.00  0.00    +0.000 C 
ATOM    115  H21 UNL A   1      35.210  22.578  26.512  1.00  0.00    +0.000 H 
BRANCH   27   26
ATOM    113  H19 UNL A   1      34.482  23.971  24.056  1.00  0.00    +0.000 H 
ATOM     26  C19 UNL A   1      35.085  23.958  24.939  1.00  0.00    +0.000 C 
ATOM    112  H18 UNL A   1      36.114  24.201  24.772  1.00  0.00    +0.000 H 
BRANCH   26   25
ATOM     25  C18 UNL A   1      34.496  25.030  25.857  1.00  0.00    +0.000 C 
ATOM    110  H16 UNL A   1      33.509  24.719  26.129  1.00  0.00    +0.000 H 
ATOM    111  H17 UNL A   1      35.180  25.106  26.677  1.00  0.00    +0.000 H 
BRANCH   25   24
ATOM    108  H14 UNL A   1      35.382  26.760  25.012  1.00  0.00    +0.000 H 
ATOM    109  H15 UNL A   1      33.716  26.372  24.459  1.00  0.00    +0.000 H 
ATOM     24  C17 UNL A   1      34.396  26.447  25.281  1.00  0.00    +0.000 C 
BRANCH   24   23
ATOM    106  H12 UNL A   1      32.840  27.183  26.525  1.00  0.00    +0.000 H 
ATOM    107  H13 UNL A   1      34.484  27.636  27.018  1.00  0.00    +0.000 H 
ATOM     23  C16 UNL A   1      33.805  27.511  26.201  1.00  0.00    +0.000 C 
BRANCH   23   22
ATOM    105  H11 UNL A   1      34.453  29.358  25.380  1.00  0.00    +0.000 H 
ATOM     22  N2  UNL A   1      33.661  28.804  25.561  1.00  0.00    +0.000 N 
BRANCH   22    2
ATOM      1  O1  UNL A   1      31.724  29.992  25.917  1.00  0.00    +0.000 O 
ATOM      2  C1  UNL A   1      32.404  29.254  25.207  1.00  0.00    +0.000 C 
BRANCH    2    3
ATOM      3  C2  UNL A   1      31.943  28.834  23.833  1.00  0.00    +0.000 C 
ATOM     95  H1  UNL A   1      32.631  28.096  23.477  1.00  0.00    +0.000 H 
ATOM     96  H2  UNL A   1      31.908  29.744  23.270  1.00  0.00    +0.000 H 
BRANCH    3    4
ATOM     97  H3  UNL A   1      29.930  30.019  22.708  1.00  0.00    +0.000 H 
ATOM     98  H4  UNL A   1      27.620  29.373  22.422  1.00  0.00    +0.000 H 
ATOM     99  H5  UNL A   1      26.844  27.268  23.338  1.00  0.00    +0.000 H 
ATOM      4  C3  UNL A   1      30.545  28.251  23.702  1.00  0.00    +0.000 C 
ATOM      5  C4  UNL A   1      29.612  29.105  23.066  1.00  0.00    +0.000 C 
ATOM      6  C5  UNL A   1      28.277  28.743  22.911  1.00  0.00    +0.000 C 
ATOM    100  H6  UNL A   1      28.397  25.783  24.439  1.00  0.00    +0.000 H 
ATOM      8  C7  UNL A   1      28.744  26.668  24.036  1.00  0.00    +0.000 C 
ATOM      9  C8  UNL A   1      30.117  26.968  24.123  1.00  0.00    +0.000 C 
ATOM      7  C6  UNL A   1      27.837  27.531  23.417  1.00  0.00    +0.000 C 
BRANCH    9   10
ATOM     10  N1  UNL A   1      31.006  26.046  24.735  1.00  0.00    +0.000 N 
ATOM    101  H7  UNL A   1      31.363  26.313  25.613  1.00  0.00    +0.000 H 
BRANCH   10   11
ATOM    102  H8  UNL A   1      32.743  23.552  21.373  1.00  0.00    +0.000 H 
ATOM    103  H9  UNL A   1      32.425  21.456  22.555  1.00  0.00    +0.000 H 
ATOM    104  H10 UNL A   1      31.473  21.470  24.778  1.00  0.00    +0.000 H 
ATOM     11  C9  UNL A   1      31.444  24.788  24.244  1.00  0.00    +0.000 C 
ATOM     12  C10 UNL A   1      31.984  24.738  22.943  1.00  0.00    +0.000 C 
ATOM     13  F1  UNL A   1      32.172  25.870  22.255  1.00  0.00    +0.000 F 
ATOM     14  C11 UNL A   1      32.343  23.545  22.324  1.00  0.00    +0.000 C 
ATOM     15  C12 UNL A   1      32.157  22.349  22.996  1.00  0.00    +0.000 C 
ATOM     16  C13 UNL A   1      31.604  22.363  24.278  1.00  0.00    +0.000 C 
ATOM     17  C14 UNL A   1      31.216  23.570  24.908  1.00  0.00    +0.000 C 
ATOM     18  C15 UNL A   1      30.595  23.486  26.280  1.00  0.00    +0.000 C 
ATOM     19  F2  UNL A   1      29.954  22.295  26.484  1.00  0.00    +0.000 F 
ATOM     20  F3  UNL A   1      31.523  23.563  27.275  1.00  0.00    +0.000 F 
ATOM     21  F4  UNL A   1      29.659  24.436  26.540  1.00  0.00    +0.000 F 
ENDBRANCH   10   11
ENDBRANCH    9   10
ENDBRANCH    3    4
ENDBRANCH    2    3
ENDBRANCH   22    2
ENDBRANCH   23   22
ENDBRANCH   24   23
ENDBRANCH   25   24
ENDBRANCH   26   25
ENDBRANCH   27   26
ENDBRANCH   28   27
ENDBRANCH   29   28
ENDBRANCH   30   29
ENDBRANCH   32   30
ENDBRANCH   36   35
BRANCH   40   41
ATOM     41  C31 UNL A   1      38.636  30.751  30.498  1.00  0.00    +0.000 C 
ATOM     42  C32 UNL A   1      38.379  30.628  31.872  1.00  0.00    +0.000 C 
ATOM     43  F5  UNL A   1      39.276  30.038  32.677  1.00  0.00    +0.000 F 
ATOM     44  C33 UNL A   1      37.177  31.070  32.420  1.00  0.00    +0.000 C 
ATOM     45  F6  UNL A   1      36.933  30.892  33.726  1.00  0.00    +0.000 F 
ATOM     46  C34 UNL A   1      36.227  31.680  31.616  1.00  0.00    +0.000 C 
ATOM     47  F7  UNL A   1      35.073  32.108  32.145  1.00  0.00    +0.000 F 
ATOM     48  C35 UNL A   1      36.471  31.838  30.260  1.00  0.00    +0.000 C 
ATOM     49  F8  UNL A   1      35.559  32.439  29.483  1.00  0.00    +0.000 F 
ATOM     50  C36 UNL A   1      37.658  31.369  29.703  1.00  0.00    +0.000 C 
ATOM     51  F9  UNL A   1      37.854  31.519  28.385  1.00  0.00    +0.000 F 
ENDBRANCH   40   41
BRANCH   57   58
ATOM     65  C46 UNL A   1      46.216  35.343  29.128  1.00  0.00    +0.000 C 
ATOM     66  F13 UNL A   1      46.244  36.415  28.322  1.00  0.00    +0.000 F 
ATOM     67  C47 UNL A   1      45.439  34.239  28.789  1.00  0.00    +0.000 C 
ATOM     68  F14 UNL A   1      44.720  34.281  27.657  1.00  0.00    +0.000 F 
ATOM     58  C42 UNL A   1      45.407  33.100  29.608  1.00  0.00    +0.000 C 
ATOM     59  C43 UNL A   1      46.183  33.109  30.776  1.00  0.00    +0.000 C 
ATOM     60  F10 UNL A   1      46.173  32.051  31.601  1.00  0.00    +0.000 F 
ATOM     61  C44 UNL A   1      46.934  34.228  31.129  1.00  0.00    +0.000 C 
ATOM     62  F11 UNL A   1      47.621  34.235  32.279  1.00  0.00    +0.000 F 
ATOM     63  C45 UNL A   1      46.954  35.341  30.303  1.00  0.00    +0.000 C 
ATOM     64  F12 UNL A   1      47.677  36.417  30.643  1.00  0.00    +0.000 F 
ENDBRANCH   57   58
BRANCH   72   73
ATOM     73  C51 UNL A   1      46.840  27.361  25.937  1.00  0.00    +0.000 C 
ATOM     74  C52 UNL A   1      47.800  26.629  26.650  1.00  0.00    +0.000 C 
ATOM     75  F15 UNL A   1      47.631  26.402  27.960  1.00  0.00    +0.000 F 
ATOM     76  C53 UNL A   1      48.953  26.159  26.026  1.00  0.00    +0.000 C 
ATOM     77  F16 UNL A   1      49.874  25.495  26.738  1.00  0.00    +0.000 F 
ATOM     78  C54 UNL A   1      49.156  26.387  24.673  1.00  0.00    +0.000 C 
ATOM     79  F17 UNL A   1      50.261  25.926  24.072  1.00  0.00    +0.000 F 
ATOM     80  C55 UNL A   1      48.213  27.097  23.946  1.00  0.00    +0.000 C 
ATOM     81  F18 UNL A   1      48.398  27.306  22.635  1.00  0.00    +0.000 F 
ATOM     82  C56 UNL A   1      47.072  27.592  24.574  1.00  0.00    +0.000 C 
ATOM     83  F19 UNL A   1      46.181  28.283  23.847  1.00  0.00    +0.000 F 
ENDBRANCH   72   73
TORSDOF 18
ENDMDL
