MODEL 1
REMARK VINA RESULT:      -9.6      0.000      0.000
ROOT
ATOM     26  C20 UNL A   1      21.763  36.109  47.449  1.00  0.00    +0.000 C 
ATOM     27  C21 UNL A   1      22.813  37.181  47.519  1.00  0.00    +0.000 C 
ATOM     28  N3  UNL A   1      22.734  38.387  48.023  1.00  0.00    +0.000 N 
ATOM     29  C22 UNL A   1      23.999  38.943  47.876  1.00  0.00    +0.000 C 
ATOM     30  C23 UNL A   1      24.415  40.191  48.199  1.00  0.00    +0.000 C 
ATOM     42  C30 UNL A   1      23.569  41.211  48.762  1.00  0.00    +0.000 C 
ATOM     43  C31 UNL A   1      23.879  42.529  49.045  1.00  0.00    +0.000 C 
ATOM     44  C32 UNL A   1      22.754  43.130  49.620  1.00  0.00    +0.000 C 
ATOM     45  C33 UNL A   1      21.731  42.198  49.655  1.00  0.00    +0.000 C 
ATOM     46  N4  UNL A   1      22.245  41.024  49.126  1.00  0.00    +0.000 N 
ATOM     47  C34 UNL A   1      20.383  42.361  50.136  1.00  0.00    +0.000 C 
ATOM     59  C41 UNL A   1      19.431  41.397  50.121  1.00  0.00    +0.000 C 
ATOM     60  N5  UNL A   1      19.519  40.093  49.655  1.00  0.00    +0.000 N 
ATOM     61  C42 UNL A   1      18.342  39.555  49.867  1.00  0.00    +0.000 C 
ATOM     62  C43 UNL A   1      17.856  38.171  49.533  1.00  0.00    +0.000 C 
ATOM     74  C50 UNL A   1      18.686  37.314  48.909  1.00  0.00    +0.000 C 
ATOM     75  C51 UNL A   1      18.353  35.946  48.520  1.00  0.00    +0.000 C 
ATOM     76  C52 UNL A   1      19.434  35.372  47.967  1.00  0.00    +0.000 C 
ATOM     77  C53 UNL A   1      20.527  36.344  47.932  1.00  0.00    +0.000 C 
ATOM     78  N6  UNL A   1      19.988  37.472  48.500  1.00  0.00    +0.000 N 
ATOM     79  C54 UNL A   1      17.382  40.453  50.523  1.00  0.00    +0.000 C 
ATOM     80  C55 UNL A   1      18.083  41.575  50.620  1.00  0.00    +0.000 C 
ATOM     81  C56 UNL A   1      24.838  37.930  47.274  1.00  0.00    +0.000 C 
ATOM     82  C57 UNL A   1      24.138  36.844  46.976  1.00  0.00    +0.000 C 
ATOM    114  H30 UNL A   1      24.785  42.990  48.863  1.00  0.00    +0.000 H 
ATOM    115  H31 UNL A   1      22.697  44.102  49.961  1.00  0.00    +0.000 H 
ATOM    116  H32 UNL A   1      21.743  40.182  49.026  1.00  0.00    +0.000 H 
ATOM    117  H33 UNL A   1      17.436  35.493  48.650  1.00  0.00    +0.000 H 
ATOM    118  H34 UNL A   1      19.485  34.401  47.622  1.00  0.00    +0.000 H 
ATOM    119  H35 UNL A   1      20.486  38.314  48.605  1.00  0.00    +0.000 H 
ATOM    120  H36 UNL A   1      16.415  40.263  50.830  1.00  0.00    +0.000 H 
ATOM    121  H37 UNL A   1      17.715  42.460  51.001  1.00  0.00    +0.000 H 
ATOM    122  H38 UNL A   1      25.849  38.039  47.100  1.00  0.00    +0.000 H 
ATOM    123  H39 UNL A   1      24.443  35.987  46.489  1.00  0.00    +0.000 H 
ENDROOT
BRANCH   26   25
ATOM    112  H28 UNL A   1      22.952  31.663  47.910  1.00  0.00    +0.000 H 
ATOM    113  H29 UNL A   1      22.248  33.809  48.803  1.00  0.00    +0.000 H 
ATOM     83  C58 UNL A   1      22.179  34.561  45.534  1.00  0.00    +0.000 C 
ATOM     84  C59 UNL A   1      22.509  33.309  45.019  1.00  0.00    +0.000 C 
ATOM     22  C16 UNL A   1      22.855  32.269  45.888  1.00  0.00    +0.000 C 
ATOM     23  C17 UNL A   1      22.745  32.446  47.270  1.00  0.00    +0.000 C 
ATOM     24  C18 UNL A   1      22.353  33.684  47.784  1.00  0.00    +0.000 C 
ATOM     25  C19 UNL A   1      22.101  34.762  46.920  1.00  0.00    +0.000 C 
ATOM    124  H40 UNL A   1      21.991  35.345  44.890  1.00  0.00    +0.000 H 
ATOM    125  H41 UNL A   1      22.498  33.148  44.000  1.00  0.00    +0.000 H 
BRANCH   22   20
ATOM     20  C15 UNL A   1      23.341  30.967  45.375  1.00  0.00    +0.000 C 
ATOM     21  O2  UNL A   1      24.534  30.701  45.427  1.00  0.00    +0.000 O 
BRANCH   20   19
ATOM     19  N2  UNL A   1      22.454  30.080  44.811  1.00  0.00    +0.000 N 
ATOM    111  H27 UNL A   1      22.605  29.881  43.858  1.00  0.00    +0.000 H 
BRANCH   19   18
ATOM     18  C14 UNL A   1      21.328  29.393  45.421  1.00  0.00    +0.000 C 
ATOM    109  H25 UNL A   1      21.458  28.339  45.288  1.00  0.00    +0.000 H 
ATOM    110  H26 UNL A   1      21.309  29.666  46.455  1.00  0.00    +0.000 H 
BRANCH   18   17
ATOM     17  C13 UNL A   1      19.987  29.796  44.817  1.00  0.00    +0.000 C 
ATOM    107  H23 UNL A   1      19.815  29.186  43.955  1.00  0.00    +0.000 H 
ATOM    108  H24 UNL A   1      19.262  29.660  45.592  1.00  0.00    +0.000 H 
BRANCH   17   16
ATOM    105  H21 UNL A   1      20.859  31.676  44.363  1.00  0.00    +0.000 H 
ATOM    106  H22 UNL A   1      19.384  31.251  43.436  1.00  0.00    +0.000 H 
ATOM     16  C12 UNL A   1      19.872  31.261  44.388  1.00  0.00    +0.000 C 
BRANCH   16   15
ATOM    103  H19 UNL A   1      18.075  31.654  45.440  1.00  0.00    +0.000 H 
ATOM     15  C11 UNL A   1      19.012  32.147  45.292  1.00  0.00    +0.000 C 
ATOM    104  H20 UNL A   1      19.578  32.283  46.191  1.00  0.00    +0.000 H 
BRANCH   15   14
ATOM    102  H18 UNL A   1      19.178  33.611  43.795  1.00  0.00    +0.000 H 
ATOM    101  H17 UNL A   1      19.122  34.262  45.463  1.00  0.00    +0.000 H 
ATOM     14  C10 UNL A   1      18.723  33.559  44.762  1.00  0.00    +0.000 C 
BRANCH   14   13
ATOM     99  H15 UNL A   1      16.653  33.117  44.994  1.00  0.00    +0.000 H 
ATOM    100  H16 UNL A   1      17.049  34.835  45.009  1.00  0.00    +0.000 H 
ATOM     13  C9  UNL A   1      17.247  33.889  44.552  1.00  0.00    +0.000 C 
BRANCH   13   12
ATOM     98  H14 UNL A   1      17.601  34.310  42.519  1.00  0.00    +0.000 H 
ATOM     12  N1  UNL A   1      16.915  33.988  43.148  1.00  0.00    +0.000 N 
BRANCH   12    2
ATOM      1  O1  UNL A   1      15.072  34.311  41.820  1.00  0.00    +0.000 O 
ATOM      2  C1  UNL A   1      15.676  33.652  42.660  1.00  0.00    +0.000 C 
BRANCH    2    3
ATOM      3  C2  UNL A   1      15.101  32.380  43.252  1.00  0.00    +0.000 C 
ATOM     85  H1  UNL A   1      14.092  32.270  42.913  1.00  0.00    +0.000 H 
ATOM     86  H2  UNL A   1      15.156  32.467  44.317  1.00  0.00    +0.000 H 
BRANCH    3    4
ATOM      4  C3  UNL A   1      15.889  31.130  42.852  1.00  0.00    +0.000 C 
ATOM     87  H3  UNL A   1      16.805  31.459  42.406  1.00  0.00    +0.000 H 
ATOM     88  H4  UNL A   1      15.230  30.589  42.205  1.00  0.00    +0.000 H 
BRANCH    4    5
ATOM     89  H5  UNL A   1      15.456  30.145  44.677  1.00  0.00    +0.000 H 
ATOM     90  H6  UNL A   1      17.205  30.461  44.318  1.00  0.00    +0.000 H 
ATOM      5  C4  UNL A   1      16.252  30.128  43.963  1.00  0.00    +0.000 C 
BRANCH    5    6
ATOM     91  H7  UNL A   1      16.938  28.181  44.412  1.00  0.00    +0.000 H 
ATOM     92  H8  UNL A   1      17.072  28.722  42.681  1.00  0.00    +0.000 H 
ATOM      6  C5  UNL A   1      16.483  28.663  43.572  1.00  0.00    +0.000 C 
BRANCH    6    7
ATOM     97  H13 UNL A   1      13.855  24.692  43.541  1.00  0.00    +0.000 H 
ATOM      7  C6  UNL A   1      15.271  27.805  43.161  1.00  0.00    +0.000 C 
ATOM      8  C7  UNL A   1      15.087  26.443  43.830  1.00  0.00    +0.000 C 
ATOM      9  C8  UNL A   1      13.941  25.689  43.161  1.00  0.00    +0.000 C 
ATOM     10  S1  UNL A   1      14.304  25.693  41.391  1.00  0.00    +0.000 S 
ATOM     11  S2  UNL A   1      15.308  27.480  41.360  1.00  0.00    +0.000 S 
ATOM     93  H9  UNL A   1      14.455  28.414  43.493  1.00  0.00    +0.000 H 
ATOM     94  H10 UNL A   1      14.863  26.584  44.866  1.00  0.00    +0.000 H 
ATOM     95  H11 UNL A   1      15.989  25.876  43.728  1.00  0.00    +0.000 H 
ATOM     96  H12 UNL A   1      13.011  26.183  43.352  1.00  0.00    +0.000 H 
ENDBRANCH    6    7
ENDBRANCH    5    6
ENDBRANCH    4    5
ENDBRANCH    3    4
ENDBRANCH    2    3
ENDBRANCH   12    2
ENDBRANCH   13   12
ENDBRANCH   14   13
ENDBRANCH   15   14
ENDBRANCH   16   15
ENDBRANCH   17   16
ENDBRANCH   18   17
ENDBRANCH   19   18
ENDBRANCH   20   19
ENDBRANCH   22   20
ENDBRANCH   26   25
BRANCH   30   31
ATOM     33  F1  UNL A   1      26.464  40.087  50.203  1.00  0.00    +0.000 F 
ATOM     34  C26 UNL A   1      28.158  40.729  48.701  1.00  0.00    +0.000 C 
ATOM     35  F2  UNL A   1      29.057  40.672  49.693  1.00  0.00    +0.000 F 
ATOM     36  C27 UNL A   1      28.558  41.092  47.424  1.00  0.00    +0.000 C 
ATOM     37  F3  UNL A   1      29.846  41.367  47.177  1.00  0.00    +0.000 F 
ATOM     38  C28 UNL A   1      27.622  41.175  46.404  1.00  0.00    +0.000 C 
ATOM     39  F4  UNL A   1      28.010  41.513  45.166  1.00  0.00    +0.000 F 
ATOM     40  C29 UNL A   1      26.281  40.907  46.663  1.00  0.00    +0.000 C 
ATOM     41  F5  UNL A   1      25.397  41.007  45.659  1.00  0.00    +0.000 F 
ATOM     31  C24 UNL A   1      25.855  40.530  47.946  1.00  0.00    +0.000 C 
ATOM     32  C25 UNL A   1      26.821  40.435  48.958  1.00  0.00    +0.000 C 
ENDBRANCH   30   31
BRANCH   47   48
ATOM     48  C35 UNL A   1      19.993  43.705  50.677  1.00  0.00    +0.000 C 
ATOM     49  C36 UNL A   1      19.433  44.694  49.855  1.00  0.00    +0.000 C 
ATOM     50  F6  UNL A   1      19.281  44.471  48.540  1.00  0.00    +0.000 F 
ATOM     51  C37 UNL A   1      19.061  45.930  50.376  1.00  0.00    +0.000 C 
ATOM     52  F7  UNL A   1      18.567  46.876  49.565  1.00  0.00    +0.000 F 
ATOM     53  C38 UNL A   1      19.212  46.190  51.730  1.00  0.00    +0.000 C 
ATOM     54  F8  UNL A   1      18.848  47.378  52.230  1.00  0.00    +0.000 F 
ATOM     55  C39 UNL A   1      19.749  45.220  52.564  1.00  0.00    +0.000 C 
ATOM     56  F9  UNL A   1      19.887  45.465  53.874  1.00  0.00    +0.000 F 
ATOM     57  C40 UNL A   1      20.147  43.993  52.041  1.00  0.00    +0.000 C 
ATOM     58  F10 UNL A   1      20.674  43.078  52.870  1.00  0.00    +0.000 F 
ENDBRANCH   47   48
BRANCH   62   63
ATOM     65  F11 UNL A   1      16.940  37.812  52.189  1.00  0.00    +0.000 F 
ATOM     66  C46 UNL A   1      14.775  37.178  51.512  1.00  0.00    +0.000 C 
ATOM     67  F12 UNL A   1      14.429  36.992  52.793  1.00  0.00    +0.000 F 
ATOM     68  C47 UNL A   1      13.856  36.937  50.503  1.00  0.00    +0.000 C 
ATOM     69  F13 UNL A   1      12.614  36.534  50.807  1.00  0.00    +0.000 F 
ATOM     70  C48 UNL A   1      14.226  37.104  49.177  1.00  0.00    +0.000 C 
ATOM     71  F14 UNL A   1      13.337  36.883  48.200  1.00  0.00    +0.000 F 
ATOM     72  C49 UNL A   1      15.524  37.499  48.858  1.00  0.00    +0.000 C 
ATOM     73  F15 UNL A   1      15.860  37.639  47.568  1.00  0.00    +0.000 F 
ATOM     63  C44 UNL A   1      16.469  37.756  49.863  1.00  0.00    +0.000 C 
ATOM     64  C45 UNL A   1      16.065  37.599  51.196  1.00  0.00    +0.000 C 
ENDBRANCH   62   63
TORSDOF 19
ENDMDL
MODEL 2
REMARK VINA RESULT:      -9.4      4.001      8.954
ROOT
ATOM     26  C20 UNL A   1      21.203  38.295  49.332  1.00  0.00    +0.000 C 
ATOM     27  C21 UNL A   1      21.978  39.580  49.419  1.00  0.00    +0.000 C 
ATOM     28  N3  UNL A   1      23.138  39.884  48.892  1.00  0.00    +0.000 N 
ATOM     29  C22 UNL A   1      23.372  41.210  49.235  1.00  0.00    +0.000 C 
ATOM     30  C23 UNL A   1      24.461  41.971  48.966  1.00  0.00    +0.000 C 
ATOM     42  C30 UNL A   1      25.625  41.507  48.259  1.00  0.00    +0.000 C 
ATOM     43  C31 UNL A   1      26.809  42.178  48.012  1.00  0.00    +0.000 C 
ATOM     44  C32 UNL A   1      27.635  41.343  47.253  1.00  0.00    +0.000 C 
ATOM     45  C33 UNL A   1      26.983  40.136  47.065  1.00  0.00    +0.000 C 
ATOM     46  N4  UNL A   1      25.750  40.250  47.687  1.00  0.00    +0.000 N 
ATOM     47  C34 UNL A   1      27.446  38.963  46.369  1.00  0.00    +0.000 C 
ATOM     59  C41 UNL A   1      26.749  37.809  46.242  1.00  0.00    +0.000 C 
ATOM     60  N5  UNL A   1      25.491  37.493  46.735  1.00  0.00    +0.000 N 
ATOM     61  C42 UNL A   1      25.248  36.266  46.342  1.00  0.00    +0.000 C 
ATOM     62  C43 UNL A   1      24.046  35.402  46.611  1.00  0.00    +0.000 C 
ATOM     74  C50 UNL A   1      23.046  35.883  47.375  1.00  0.00    +0.000 C 
ATOM     75  C51 UNL A   1      21.825  35.162  47.723  1.00  0.00    +0.000 C 
ATOM     76  C52 UNL A   1      21.034  35.965  48.452  1.00  0.00    +0.000 C 
ATOM     77  C53 UNL A   1      21.708  37.248  48.652  1.00  0.00    +0.000 C 
ATOM     78  N6  UNL A   1      22.901  37.104  47.987  1.00  0.00    +0.000 N 
ATOM     79  C54 UNL A   1      26.317  35.676  45.525  1.00  0.00    +0.000 C 
ATOM     80  C55 UNL A   1      27.225  36.643  45.528  1.00  0.00    +0.000 C 
ATOM     81  C56 UNL A   1      22.218  41.664  49.980  1.00  0.00    +0.000 C 
ATOM     82  C57 UNL A   1      21.356  40.677  50.175  1.00  0.00    +0.000 C 
ATOM    114  H30 UNL A   1      27.042  43.131  48.332  1.00  0.00    +0.000 H 
ATOM    115  H31 UNL A   1      28.572  41.585  46.894  1.00  0.00    +0.000 H 
ATOM    116  H32 UNL A   1      25.064  39.544  47.716  1.00  0.00    +0.000 H 
ATOM    117  H33 UNL A   1      21.606  34.191  47.452  1.00  0.00    +0.000 H 
ATOM    118  H34 UNL A   1      20.101  35.716  48.815  1.00  0.00    +0.000 H 
ATOM    119  H35 UNL A   1      23.588  37.808  47.953  1.00  0.00    +0.000 H 
ATOM    120  H36 UNL A   1      26.354  34.751  45.068  1.00  0.00    +0.000 H 
ATOM    121  H37 UNL A   1      28.151  36.572  45.079  1.00  0.00    +0.000 H 
ATOM    122  H38 UNL A   1      22.084  42.632  50.314  1.00  0.00    +0.000 H 
ATOM    123  H39 UNL A   1      20.478  40.678  50.717  1.00  0.00    +0.000 H 
ENDROOT
BRANCH   26   25
ATOM    112  H28 UNL A   1      16.609  38.832  49.267  1.00  0.00    +0.000 H 
ATOM    113  H29 UNL A   1      18.796  38.853  48.211  1.00  0.00    +0.000 H 
ATOM     83  C58 UNL A   1      19.698  37.741  51.246  1.00  0.00    +0.000 C 
ATOM     84  C59 UNL A   1      18.433  37.657  51.827  1.00  0.00    +0.000 C 
ATOM     22  C16 UNL A   1      17.314  38.117  51.126  1.00  0.00    +0.000 C 
ATOM     23  C17 UNL A   1      17.443  38.539  49.801  1.00  0.00    +0.000 C 
ATOM     24  C18 UNL A   1      18.703  38.564  49.198  1.00  0.00    +0.000 C 
ATOM     25  C19 UNL A   1      19.846  38.198  49.928  1.00  0.00    +0.000 C 
ATOM    124  H40 UNL A   1      20.530  37.465  51.791  1.00  0.00    +0.000 H 
ATOM    125  H41 UNL A   1      18.323  37.256  52.771  1.00  0.00    +0.000 H 
BRANCH   22   20
ATOM     20  C15 UNL A   1      15.977  38.169  51.761  1.00  0.00    +0.000 C 
ATOM     21  O2  UNL A   1      15.885  38.227  52.980  1.00  0.00    +0.000 O 
BRANCH   20   19
ATOM     19  N2  UNL A   1      14.846  38.116  50.981  1.00  0.00    +0.000 N 
ATOM    111  H27 UNL A   1      14.475  38.989  50.715  1.00  0.00    +0.000 H 
BRANCH   19   18
ATOM     18  C14 UNL A   1      14.121  36.956  50.491  1.00  0.00    +0.000 C 
ATOM    109  H25 UNL A   1      14.774  36.108  50.521  1.00  0.00    +0.000 H 
ATOM    110  H26 UNL A   1      13.266  36.823  51.122  1.00  0.00    +0.000 H 
BRANCH   18   17
ATOM     17  C13 UNL A   1      13.613  37.129  49.064  1.00  0.00    +0.000 C 
ATOM    107  H23 UNL A   1      12.551  37.000  49.073  1.00  0.00    +0.000 H 
ATOM    108  H24 UNL A   1      13.926  38.105  48.756  1.00  0.00    +0.000 H 
BRANCH   17   16
ATOM    105  H21 UNL A   1      13.928  35.164  48.331  1.00  0.00    +0.000 H 
ATOM    106  H22 UNL A   1      13.790  36.451  47.091  1.00  0.00    +0.000 H 
ATOM     16  C12 UNL A   1      14.197  36.157  48.036  1.00  0.00    +0.000 C 
BRANCH   16   15
ATOM    103  H19 UNL A   1      16.122  36.727  48.714  1.00  0.00    +0.000 H 
ATOM     15  C11 UNL A   1      15.718  36.205  47.872  1.00  0.00    +0.000 C 
ATOM    104  H20 UNL A   1      16.035  35.185  47.799  1.00  0.00    +0.000 H 
BRANCH   15   14
ATOM    102  H18 UNL A   1      16.246  37.942  46.816  1.00  0.00    +0.000 H 
ATOM    101  H17 UNL A   1      15.575  36.632  45.796  1.00  0.00    +0.000 H 
ATOM     14  C10 UNL A   1      16.230  36.894  46.599  1.00  0.00    +0.000 C 
BRANCH   14   13
ATOM     99  H15 UNL A   1      17.964  37.178  45.397  1.00  0.00    +0.000 H 
ATOM    100  H16 UNL A   1      18.286  36.633  47.043  1.00  0.00    +0.000 H 
ATOM     13  C9  UNL A   1      17.654  36.527  46.186  1.00  0.00    +0.000 C 
BRANCH   13   12
ATOM     98  H14 UNL A   1      16.916  34.635  45.631  1.00  0.00    +0.000 H 
ATOM     12  N1  UNL A   1      17.743  35.158  45.728  1.00  0.00    +0.000 N 
BRANCH   12    2
ATOM      1  O1  UNL A   1      19.780  35.058  44.678  1.00  0.00    +0.000 O 
ATOM      2  C1  UNL A   1      18.943  34.562  45.425  1.00  0.00    +0.000 C 
BRANCH    2    3
ATOM      3  C2  UNL A   1      19.155  33.220  46.096  1.00  0.00    +0.000 C 
ATOM     85  H1  UNL A   1      18.202  32.819  46.368  1.00  0.00    +0.000 H 
ATOM     86  H2  UNL A   1      19.777  33.383  46.953  1.00  0.00    +0.000 H 
BRANCH    3    4
ATOM      4  C3  UNL A   1      19.871  32.211  45.194  1.00  0.00    +0.000 C 
ATOM     87  H3  UNL A   1      20.626  31.734  45.785  1.00  0.00    +0.000 H 
ATOM     88  H4  UNL A   1      20.231  32.792  44.370  1.00  0.00    +0.000 H 
BRANCH    4    5
ATOM     89  H5  UNL A   1      19.317  30.176  44.996  1.00  0.00    +0.000 H 
ATOM     90  H6  UNL A   1      19.217  31.197  43.500  1.00  0.00    +0.000 H 
ATOM      5  C4  UNL A   1      19.022  31.102  44.548  1.00  0.00    +0.000 C 
BRANCH    5    6
ATOM     91  H7  UNL A   1      17.280  31.890  45.448  1.00  0.00    +0.000 H 
ATOM     92  H8  UNL A   1      17.183  30.186  44.819  1.00  0.00    +0.000 H 
ATOM      6  C5  UNL A   1      17.495  31.197  44.661  1.00  0.00    +0.000 C 
BRANCH    6    7
ATOM     97  H13 UNL A   1      16.983  33.188  40.366  1.00  0.00    +0.000 H 
ATOM      7  C6  UNL A   1      16.687  31.649  43.429  1.00  0.00    +0.000 C 
ATOM      8  C7  UNL A   1      17.452  32.170  42.213  1.00  0.00    +0.000 C 
ATOM      9  C8  UNL A   1      16.471  32.724  41.183  1.00  0.00    +0.000 C 
ATOM     10  S1  UNL A   1      15.431  33.907  42.069  1.00  0.00    +0.000 S 
ATOM     11  S2  UNL A   1      15.516  32.977  43.893  1.00  0.00    +0.000 S 
ATOM     93  H9  UNL A   1      16.230  30.730  43.124  1.00  0.00    +0.000 H 
ATOM     94  H10 UNL A   1      18.012  31.371  41.776  1.00  0.00    +0.000 H 
ATOM     95  H11 UNL A   1      18.116  32.950  42.522  1.00  0.00    +0.000 H 
ATOM     96  H12 UNL A   1      15.874  31.934  40.777  1.00  0.00    +0.000 H 
ENDBRANCH    6    7
ENDBRANCH    5    6
ENDBRANCH    4    5
ENDBRANCH    3    4
ENDBRANCH    2    3
ENDBRANCH   12    2
ENDBRANCH   13   12
ENDBRANCH   14   13
ENDBRANCH   15   14
ENDBRANCH   16   15
ENDBRANCH   17   16
ENDBRANCH   18   17
ENDBRANCH   19   18
ENDBRANCH   20   19
ENDBRANCH   22   20
ENDBRANCH   26   25
BRANCH   30   31
ATOM     33  F1  UNL A   1      23.565  44.190  47.385  1.00  0.00    +0.000 F 
ATOM     34  C26 UNL A   1      23.945  45.749  49.106  1.00  0.00    +0.000 C 
ATOM     35  F2  UNL A   1      23.526  46.736  48.303  1.00  0.00    +0.000 F 
ATOM     36  C27 UNL A   1      24.360  46.036  50.398  1.00  0.00    +0.000 C 
ATOM     37  F3  UNL A   1      24.325  47.297  50.850  1.00  0.00    +0.000 F 
ATOM     38  C28 UNL A   1      24.817  45.016  51.219  1.00  0.00    +0.000 C 
ATOM     39  F4  UNL A   1      25.207  45.291  52.472  1.00  0.00    +0.000 F 
ATOM     40  C29 UNL A   1      24.871  43.709  50.746  1.00  0.00    +0.000 C 
ATOM     41  F5  UNL A   1      25.329  42.746  51.560  1.00  0.00    +0.000 F 
ATOM     31  C24 UNL A   1      24.448  43.394  49.445  1.00  0.00    +0.000 C 
ATOM     32  C25 UNL A   1      23.973  44.437  48.638  1.00  0.00    +0.000 C 
ENDBRANCH   30   31
BRANCH   47   48
ATOM     48  C35 UNL A   1      28.814  39.012  45.753  1.00  0.00    +0.000 C 
ATOM     49  C36 UNL A   1      29.915  38.388  46.357  1.00  0.00    +0.000 C 
ATOM     50  F6  UNL A   1      29.775  37.769  47.539  1.00  0.00    +0.000 F 
ATOM     51  C37 UNL A   1      31.174  38.428  45.763  1.00  0.00    +0.000 C 
ATOM     52  F7  UNL A   1      32.221  37.861  46.378  1.00  0.00    +0.000 F 
ATOM     53  C38 UNL A   1      31.349  39.065  44.543  1.00  0.00    +0.000 C 
ATOM     54  F8  UNL A   1      32.560  39.097  43.971  1.00  0.00    +0.000 F 
ATOM     55  C39 UNL A   1      30.270  39.675  43.921  1.00  0.00    +0.000 C 
ATOM     56  F9  UNL A   1      30.435  40.282  42.738  1.00  0.00    +0.000 F 
ATOM     57  C40 UNL A   1      29.016  39.660  44.525  1.00  0.00    +0.000 C 
ATOM     58  F10 UNL A   1      27.993  40.268  43.904  1.00  0.00    +0.000 F 
ENDBRANCH   47   48
BRANCH   62   63
ATOM     65  F11 UNL A   1      22.778  34.781  44.156  1.00  0.00    +0.000 F 
ATOM     66  C46 UNL A   1      23.226  32.476  44.339  1.00  0.00    +0.000 C 
ATOM     67  F12 UNL A   1      22.575  32.257  43.189  1.00  0.00    +0.000 F 
ATOM     68  C47 UNL A   1      23.779  31.412  45.036  1.00  0.00    +0.000 C 
ATOM     69  F13 UNL A   1      23.679  30.167  44.552  1.00  0.00    +0.000 F 
ATOM     70  C48 UNL A   1      24.429  31.640  46.241  1.00  0.00    +0.000 C 
ATOM     71  F14 UNL A   1      24.975  30.616  46.910  1.00  0.00    +0.000 F 
ATOM     72  C49 UNL A   1      24.513  32.931  46.757  1.00  0.00    +0.000 C 
ATOM     73  F15 UNL A   1      25.134  33.121  47.930  1.00  0.00    +0.000 F 
ATOM     63  C44 UNL A   1      23.967  34.023  46.066  1.00  0.00    +0.000 C 
ATOM     64  C45 UNL A   1      23.333  33.771  44.842  1.00  0.00    +0.000 C 
ENDBRANCH   62   63
TORSDOF 19
ENDMDL
MODEL 3
REMARK VINA RESULT:      -9.3      3.882      8.665
ROOT
ATOM     26  C20 UNL A   1      21.346  38.166  49.422  1.00  0.00    +0.000 C 
ATOM     27  C21 UNL A   1      22.164  39.422  49.522  1.00  0.00    +0.000 C 
ATOM     28  N3  UNL A   1      23.327  39.697  48.986  1.00  0.00    +0.000 N 
ATOM     29  C22 UNL A   1      23.610  41.008  49.349  1.00  0.00    +0.000 C 
ATOM     30  C23 UNL A   1      24.719  41.738  49.080  1.00  0.00    +0.000 C 
ATOM     42  C30 UNL A   1      25.859  41.247  48.351  1.00  0.00    +0.000 C 
ATOM     43  C31 UNL A   1      27.062  41.883  48.101  1.00  0.00    +0.000 C 
ATOM     44  C32 UNL A   1      27.851  41.035  47.317  1.00  0.00    +0.000 C 
ATOM     45  C33 UNL A   1      27.157  39.853  47.117  1.00  0.00    +0.000 C 
ATOM     46  N4  UNL A   1      25.935  39.998  47.755  1.00  0.00    +0.000 N 
ATOM     47  C34 UNL A   1      27.573  38.679  46.394  1.00  0.00    +0.000 C 
ATOM     59  C41 UNL A   1      26.835  37.551  46.256  1.00  0.00    +0.000 C 
ATOM     60  N5  UNL A   1      25.574  37.268  46.759  1.00  0.00    +0.000 N 
ATOM     61  C42 UNL A   1      25.285  36.057  46.348  1.00  0.00    +0.000 C 
ATOM     62  C43 UNL A   1      24.059  35.229  46.617  1.00  0.00    +0.000 C 
ATOM     74  C50 UNL A   1      23.084  35.729  47.401  1.00  0.00    +0.000 C 
ATOM     75  C51 UNL A   1      21.844  35.042  47.752  1.00  0.00    +0.000 C 
ATOM     76  C52 UNL A   1      21.089  35.858  48.504  1.00  0.00    +0.000 C 
ATOM     77  C53 UNL A   1      21.808  37.115  48.718  1.00  0.00    +0.000 C 
ATOM     78  N6  UNL A   1      22.987  36.943  48.036  1.00  0.00    +0.000 N 
ATOM     79  C54 UNL A   1      26.325  35.446  45.508  1.00  0.00    +0.000 C 
ATOM     80  C55 UNL A   1      27.264  36.382  45.516  1.00  0.00    +0.000 C 
ATOM     81  C56 UNL A   1      22.480  41.487  50.116  1.00  0.00    +0.000 C 
ATOM     82  C57 UNL A   1      21.588  40.526  50.305  1.00  0.00    +0.000 C 
ATOM    114  H30 UNL A   1      27.331  42.822  48.434  1.00  0.00    +0.000 H 
ATOM    115  H31 UNL A   1      28.791  41.252  46.951  1.00  0.00    +0.000 H 
ATOM    116  H32 UNL A   1      25.227  39.314  47.781  1.00  0.00    +0.000 H 
ATOM    117  H33 UNL A   1      21.589  34.084  47.467  1.00  0.00    +0.000 H 
ATOM    118  H34 UNL A   1      20.152  35.634  48.874  1.00  0.00    +0.000 H 
ATOM    119  H35 UNL A   1      23.697  37.624  48.006  1.00  0.00    +0.000 H 
ATOM    120  H36 UNL A   1      26.326  34.529  45.034  1.00  0.00    +0.000 H 
ATOM    121  H37 UNL A   1      28.182  36.289  45.055  1.00  0.00    +0.000 H 
ATOM    122  H38 UNL A   1      22.383  42.452  50.469  1.00  0.00    +0.000 H 
ATOM    123  H39 UNL A   1      20.717  40.546  50.857  1.00  0.00    +0.000 H 
ENDROOT
BRANCH   26   25
ATOM    112  H28 UNL A   1      16.767  38.820  49.408  1.00  0.00    +0.000 H 
ATOM    113  H29 UNL A   1      18.942  38.785  48.328  1.00  0.00    +0.000 H 
ATOM     83  C58 UNL A   1      19.848  37.649  51.353  1.00  0.00    +0.000 C 
ATOM     84  C59 UNL A   1      18.588  37.597  51.947  1.00  0.00    +0.000 C 
ATOM     22  C16 UNL A   1      17.474  38.086  51.259  1.00  0.00    +0.000 C 
ATOM     23  C17 UNL A   1      17.599  38.506  49.932  1.00  0.00    +0.000 C 
ATOM     24  C18 UNL A   1      18.852  38.498  49.316  1.00  0.00    +0.000 C 
ATOM     25  C19 UNL A   1      19.993  38.103  50.033  1.00  0.00    +0.000 C 
ATOM    124  H40 UNL A   1      20.679  37.352  51.888  1.00  0.00    +0.000 H 
ATOM    125  H41 UNL A   1      18.478  37.199  52.893  1.00  0.00    +0.000 H 
BRANCH   22   20
ATOM     20  C15 UNL A   1      16.145  38.172  51.909  1.00  0.00    +0.000 C 
ATOM     21  O2  UNL A   1      16.070  38.294  53.124  1.00  0.00    +0.000 O 
BRANCH   20   19
ATOM     19  N2  UNL A   1      15.003  38.078  51.148  1.00  0.00    +0.000 N 
ATOM    111  H27 UNL A   1      14.552  38.933  50.958  1.00  0.00    +0.000 H 
BRANCH   19   18
ATOM     18  C14 UNL A   1      14.369  36.899  50.584  1.00  0.00    +0.000 C 
ATOM    109  H25 UNL A   1      15.091  36.111  50.540  1.00  0.00    +0.000 H 
ATOM    110  H26 UNL A   1      13.542  36.648  51.214  1.00  0.00    +0.000 H 
BRANCH   18   17
ATOM     17  C13 UNL A   1      13.819  37.132  49.180  1.00  0.00    +0.000 C 
ATOM    107  H23 UNL A   1      12.756  37.013  49.218  1.00  0.00    +0.000 H 
ATOM    108  H24 UNL A   1      14.132  38.116  48.900  1.00  0.00    +0.000 H 
BRANCH   17   16
ATOM    105  H21 UNL A   1      14.206  35.188  48.426  1.00  0.00    +0.000 H 
ATOM    106  H22 UNL A   1      13.829  36.443  47.203  1.00  0.00    +0.000 H 
ATOM     16  C12 UNL A   1      14.360  36.195  48.098  1.00  0.00    +0.000 C 
BRANCH   16   15
ATOM    103  H19 UNL A   1      16.287  36.963  48.530  1.00  0.00    +0.000 H 
ATOM     15  C11 UNL A   1      15.845  36.360  47.765  1.00  0.00    +0.000 C 
ATOM    104  H20 UNL A   1      16.243  35.367  47.710  1.00  0.00    +0.000 H 
BRANCH   15   14
ATOM    102  H18 UNL A   1      15.834  38.029  46.491  1.00  0.00    +0.000 H 
ATOM    101  H17 UNL A   1      15.644  36.458  45.652  1.00  0.00    +0.000 H 
ATOM     14  C10 UNL A   1      16.156  37.011  46.410  1.00  0.00    +0.000 C 
BRANCH   14   13
ATOM     99  H15 UNL A   1      17.724  37.366  45.014  1.00  0.00    +0.000 H 
ATOM    100  H16 UNL A   1      18.118  37.767  46.686  1.00  0.00    +0.000 H 
ATOM     13  C9  UNL A   1      17.636  37.066  46.037  1.00  0.00    +0.000 C 
BRANCH   13   12
ATOM     98  H14 UNL A   1      17.984  35.195  46.939  1.00  0.00    +0.000 H 
ATOM     12  N1  UNL A   1      18.279  35.782  46.206  1.00  0.00    +0.000 N 
BRANCH   12    2
ATOM      1  O1  UNL A   1      20.021  36.106  44.749  1.00  0.00    +0.000 O 
ATOM      2  C1  UNL A   1      19.289  35.351  45.379  1.00  0.00    +0.000 C 
BRANCH    2    3
ATOM      3  C2  UNL A   1      19.429  33.844  45.306  1.00  0.00    +0.000 C 
ATOM     85  H1  UNL A   1      18.652  33.399  45.891  1.00  0.00    +0.000 H 
ATOM     86  H2  UNL A   1      20.401  33.592  45.679  1.00  0.00    +0.000 H 
BRANCH    3    4
ATOM      4  C3  UNL A   1      19.333  33.307  43.875  1.00  0.00    +0.000 C 
ATOM     87  H3  UNL A   1      20.286  32.888  43.627  1.00  0.00    +0.000 H 
ATOM     88  H4  UNL A   1      19.035  34.151  43.289  1.00  0.00    +0.000 H 
BRANCH    4    5
ATOM     89  H5  UNL A   1      18.058  32.274  42.536  1.00  0.00    +0.000 H 
ATOM     90  H6  UNL A   1      17.455  32.488  44.233  1.00  0.00    +0.000 H 
ATOM      5  C4  UNL A   1      18.267  32.235  43.584  1.00  0.00    +0.000 C 
BRANCH    5    6
ATOM     91  H7  UNL A   1      18.987  30.769  44.925  1.00  0.00    +0.000 H 
ATOM     92  H8  UNL A   1      19.257  30.467  43.153  1.00  0.00    +0.000 H 
ATOM      6  C5  UNL A   1      18.592  30.776  43.931  1.00  0.00    +0.000 C 
BRANCH    6    7
ATOM     97  H13 UNL A   1      16.755  26.474  43.039  1.00  0.00    +0.000 H 
ATOM      7  C6  UNL A   1      17.458  29.734  43.888  1.00  0.00    +0.000 C 
ATOM      8  C7  UNL A   1      17.814  28.289  43.542  1.00  0.00    +0.000 C 
ATOM      9  C8  UNL A   1      16.540  27.466  43.380  1.00  0.00    +0.000 C 
ATOM     10  S1  UNL A   1      15.511  28.363  42.197  1.00  0.00    +0.000 S 
ATOM     11  S2  UNL A   1      16.181  30.240  42.677  1.00  0.00    +0.000 S 
ATOM     93  H9  UNL A   1      17.134  29.726  44.908  1.00  0.00    +0.000 H 
ATOM     94  H10 UNL A   1      18.410  27.873  44.327  1.00  0.00    +0.000 H 
ATOM     95  H11 UNL A   1      18.364  28.272  42.624  1.00  0.00    +0.000 H 
ATOM     96  H12 UNL A   1      16.035  27.375  44.320  1.00  0.00    +0.000 H 
ENDBRANCH    6    7
ENDBRANCH    5    6
ENDBRANCH    4    5
ENDBRANCH    3    4
ENDBRANCH    2    3
ENDBRANCH   12    2
ENDBRANCH   13   12
ENDBRANCH   14   13
ENDBRANCH   15   14
ENDBRANCH   16   15
ENDBRANCH   17   16
ENDBRANCH   18   17
ENDBRANCH   19   18
ENDBRANCH   20   19
ENDBRANCH   22   20
ENDBRANCH   26   25
BRANCH   30   31
ATOM     33  F1  UNL A   1      25.679  42.490  51.677  1.00  0.00    +0.000 F 
ATOM     34  C26 UNL A   1      25.318  44.785  51.297  1.00  0.00    +0.000 C 
ATOM     35  F2  UNL A   1      25.766  45.057  52.530  1.00  0.00    +0.000 F 
ATOM     36  C27 UNL A   1      24.898  45.814  50.469  1.00  0.00    +0.000 C 
ATOM     37  F3  UNL A   1      24.956  47.084  50.894  1.00  0.00    +0.000 F 
ATOM     38  C28 UNL A   1      24.410  45.528  49.203  1.00  0.00    +0.000 C 
ATOM     39  F4  UNL A   1      24.014  46.524  48.397  1.00  0.00    +0.000 F 
ATOM     40  C29 UNL A   1      24.331  44.208  48.767  1.00  0.00    +0.000 C 
ATOM     41  F5  UNL A   1      23.845  43.961  47.541  1.00  0.00    +0.000 F 
ATOM     31  C24 UNL A   1      24.760  43.151  49.584  1.00  0.00    +0.000 C 
ATOM     32  C25 UNL A   1      25.265  43.465  50.854  1.00  0.00    +0.000 C 
ENDBRANCH   30   31
BRANCH   47   48
ATOM     48  C35 UNL A   1      28.934  38.693  45.763  1.00  0.00    +0.000 C 
ATOM     49  C36 UNL A   1      29.188  39.402  44.580  1.00  0.00    +0.000 C 
ATOM     50  F6  UNL A   1      28.193  40.048  43.954  1.00  0.00    +0.000 F 
ATOM     51  C37 UNL A   1      30.461  39.419  44.016  1.00  0.00    +0.000 C 
ATOM     52  F7  UNL A   1      30.672  40.068  42.863  1.00  0.00    +0.000 F 
ATOM     53  C38 UNL A   1      31.508  38.755  44.639  1.00  0.00    +0.000 C 
ATOM     54  F8  UNL A   1      32.733  38.778  44.098  1.00  0.00    +0.000 F 
ATOM     55  C39 UNL A   1      31.281  38.061  45.818  1.00  0.00    +0.000 C 
ATOM     56  F9  UNL A   1      32.293  37.427  46.427  1.00  0.00    +0.000 F 
ATOM     57  C40 UNL A   1      30.004  38.020  46.370  1.00  0.00    +0.000 C 
ATOM     58  F10 UNL A   1      29.814  37.331  47.506  1.00  0.00    +0.000 F 
ENDBRANCH   47   48
BRANCH   62   63
ATOM     65  F11 UNL A   1      25.238  32.943  47.802  1.00  0.00    +0.000 F 
ATOM     66  C46 UNL A   1      24.435  31.484  46.136  1.00  0.00    +0.000 C 
ATOM     67  F12 UNL A   1      25.056  30.458  46.735  1.00  0.00    +0.000 F 
ATOM     68  C47 UNL A   1      23.717  31.275  44.968  1.00  0.00    +0.000 C 
ATOM     69  F13 UNL A   1      23.628  30.043  44.446  1.00  0.00    +0.000 F 
ATOM     70  C48 UNL A   1      23.100  32.344  44.336  1.00  0.00    +0.000 C 
ATOM     71  F14 UNL A   1      22.396  32.143  43.215  1.00  0.00    +0.000 F 
ATOM     72  C49 UNL A   1      23.213  33.628  44.865  1.00  0.00    +0.000 C 
ATOM     73  F15 UNL A   1      22.618  34.646  44.226  1.00  0.00    +0.000 F 
ATOM     63  C44 UNL A   1      23.928  33.863  46.049  1.00  0.00    +0.000 C 
ATOM     64  C45 UNL A   1      24.526  32.764  46.680  1.00  0.00    +0.000 C 
ENDBRANCH   62   63
TORSDOF 19
ENDMDL
MODEL 4
REMARK VINA RESULT:      -9.3     48.119     53.175
ROOT
ATOM     26  C20 UNL A   1      29.219 -13.903  31.114  1.00  0.00    +0.000 C 
ATOM     27  C21 UNL A   1      28.955 -14.016  32.589  1.00  0.00    +0.000 C 
ATOM     28  N3  UNL A   1      27.937 -13.573  33.284  1.00  0.00    +0.000 N 
ATOM     29  C22 UNL A   1      28.161 -13.989  34.590  1.00  0.00    +0.000 C 
ATOM     30  C23 UNL A   1      27.417 -13.739  35.695  1.00  0.00    +0.000 C 
ATOM     42  C30 UNL A   1      26.216 -12.946  35.705  1.00  0.00    +0.000 C 
ATOM     43  C31 UNL A   1      25.441 -12.568  36.787  1.00  0.00    +0.000 C 
ATOM     44  C32 UNL A   1      24.349 -11.836  36.309  1.00  0.00    +0.000 C 
ATOM     45  C33 UNL A   1      24.468 -11.721  34.934  1.00  0.00    +0.000 C 
ATOM     46  N4  UNL A   1      25.618 -12.407  34.576  1.00  0.00    +0.000 N 
ATOM     47  C34 UNL A   1      23.598 -11.037  34.011  1.00  0.00    +0.000 C 
ATOM     59  C41 UNL A   1      23.795 -10.958  32.673  1.00  0.00    +0.000 C 
ATOM     60  N5  UNL A   1      24.831 -11.479  31.912  1.00  0.00    +0.000 N 
ATOM     61  C42 UNL A   1      24.570 -11.146  30.672  1.00  0.00    +0.000 C 
ATOM     62  C43 UNL A   1      25.367 -11.420  29.426  1.00  0.00    +0.000 C 
ATOM     74  C50 UNL A   1      26.537 -12.081  29.524  1.00  0.00    +0.000 C 
ATOM     75  C51 UNL A   1      27.417 -12.414  28.407  1.00  0.00    +0.000 C 
ATOM     76  C52 UNL A   1      28.465 -13.115  28.869  1.00  0.00    +0.000 C 
ATOM     77  C53 UNL A   1      28.347 -13.252  30.321  1.00  0.00    +0.000 C 
ATOM     78  N6  UNL A   1      27.180 -12.597  30.623  1.00  0.00    +0.000 N 
ATOM     79  C54 UNL A   1      23.316 -10.398  30.504  1.00  0.00    +0.000 C 
ATOM     80  C55 UNL A   1      22.904 -10.276  31.758  1.00  0.00    +0.000 C 
ATOM     81  C56 UNL A   1      29.390 -14.753  34.585  1.00  0.00    +0.000 C 
ATOM     82  C57 UNL A   1      29.952 -14.747  33.385  1.00  0.00    +0.000 C 
ATOM    114  H30 UNL A   1      25.634 -12.789  37.776  1.00  0.00    +0.000 H 
ATOM    115  H31 UNL A   1      23.584 -11.448  36.884  1.00  0.00    +0.000 H 
ATOM    116  H32 UNL A   1      25.957 -12.499  33.657  1.00  0.00    +0.000 H 
ATOM    117  H33 UNL A   1      27.259 -12.152  27.422  1.00  0.00    +0.000 H 
ATOM    118  H34 UNL A   1      29.231 -13.496  28.291  1.00  0.00    +0.000 H 
ATOM    119  H35 UNL A   1      26.834 -12.504  31.540  1.00  0.00    +0.000 H 
ATOM    120  H36 UNL A   1      22.872 -10.056  29.637  1.00  0.00    +0.000 H 
ATOM    121  H37 UNL A   1      22.057  -9.762  32.044  1.00  0.00    +0.000 H 
ATOM    122  H38 UNL A   1      29.776 -15.240  35.410  1.00  0.00    +0.000 H 
ATOM    123  H39 UNL A   1      30.855 -15.149  33.088  1.00  0.00    +0.000 H 
ENDROOT
BRANCH   26   25
ATOM    112  H28 UNL A   1      33.676 -14.120  29.892  1.00  0.00    +0.000 H 
ATOM    113  H29 UNL A   1      31.800 -13.070  31.022  1.00  0.00    +0.000 H 
ATOM     83  C58 UNL A   1      30.252 -15.829  29.905  1.00  0.00    +0.000 C 
ATOM     84  C59 UNL A   1      31.346 -16.467  29.322  1.00  0.00    +0.000 C 
ATOM     22  C16 UNL A   1      32.580 -15.813  29.261  1.00  0.00    +0.000 C 
ATOM     23  C17 UNL A   1      32.751 -14.579  29.895  1.00  0.00    +0.000 C 
ATOM     24  C18 UNL A   1      31.669 -13.970  30.533  1.00  0.00    +0.000 C 
ATOM     25  C19 UNL A   1      30.401 -14.574  30.512  1.00  0.00    +0.000 C 
ATOM    124  H40 UNL A   1      29.326 -16.285  29.888  1.00  0.00    +0.000 H 
ATOM    125  H41 UNL A   1      31.246 -17.419  28.938  1.00  0.00    +0.000 H 
BRANCH   22   20
ATOM     20  C15 UNL A   1      33.727 -16.402  28.532  1.00  0.00    +0.000 C 
ATOM     21  O2  UNL A   1      34.541 -17.090  29.133  1.00  0.00    +0.000 O 
BRANCH   20   19
ATOM     19  N2  UNL A   1      33.892 -16.143  27.191  1.00  0.00    +0.000 N 
ATOM    111  H27 UNL A   1      34.098 -16.928  26.632  1.00  0.00    +0.000 H 
BRANCH   19   18
ATOM     18  C14 UNL A   1      33.806 -14.878  26.482  1.00  0.00    +0.000 C 
ATOM    109  H25 UNL A   1      34.017 -14.086  27.170  1.00  0.00    +0.000 H 
ATOM    110  H26 UNL A   1      34.515 -14.911  25.681  1.00  0.00    +0.000 H 
BRANCH   18   17
ATOM     17  C13 UNL A   1      32.433 -14.633  25.865  1.00  0.00    +0.000 C 
ATOM    107  H23 UNL A   1      32.576 -14.328  24.849  1.00  0.00    +0.000 H 
ATOM    108  H24 UNL A   1      31.895 -15.553  25.967  1.00  0.00    +0.000 H 
BRANCH   17   16
ATOM    105  H21 UNL A   1      30.607 -13.585  26.116  1.00  0.00    +0.000 H 
ATOM    106  H22 UNL A   1      31.583 -13.824  27.600  1.00  0.00    +0.000 H 
ATOM     16  C12 UNL A   1      31.580 -13.570  26.561  1.00  0.00    +0.000 C 
BRANCH   16   15
ATOM    103  H19 UNL A   1      32.952 -12.139  25.812  1.00  0.00    +0.000 H 
ATOM     15  C11 UNL A   1      32.114 -12.138  26.477  1.00  0.00    +0.000 C 
ATOM    104  H20 UNL A   1      31.293 -11.540  26.141  1.00  0.00    +0.000 H 
BRANCH   15   14
ATOM    102  H18 UNL A   1      33.203 -10.696  27.547  1.00  0.00    +0.000 H 
ATOM    101  H17 UNL A   1      33.058 -12.277  28.376  1.00  0.00    +0.000 H 
ATOM     14  C10 UNL A   1      32.567 -11.517  27.806  1.00  0.00    +0.000 C 
BRANCH   14   13
ATOM     99  H15 UNL A   1      30.652 -10.613  28.028  1.00  0.00    +0.000 H 
ATOM    100  H16 UNL A   1      31.122 -11.686  29.348  1.00  0.00    +0.000 H 
ATOM     13  C9  UNL A   1      31.450 -10.929  28.666  1.00  0.00    +0.000 C 
BRANCH   13   12
ATOM     98  H14 UNL A   1      32.819  -9.455  29.287  1.00  0.00    +0.000 H 
ATOM     12  N1  UNL A   1      31.909  -9.796  29.439  1.00  0.00    +0.000 N 
BRANCH   12    2
ATOM      1  O1  UNL A   1      31.549  -8.407  31.229  1.00  0.00    +0.000 O 
ATOM      2  C1  UNL A   1      31.119  -9.180  30.379  1.00  0.00    +0.000 C 
BRANCH    2    3
ATOM      3  C2  UNL A   1      29.648  -9.536  30.283  1.00  0.00    +0.000 C 
ATOM     85  H1  UNL A   1      29.281  -9.741  31.266  1.00  0.00    +0.000 H 
ATOM     86  H2  UNL A   1      29.565 -10.389  29.641  1.00  0.00    +0.000 H 
BRANCH    3    4
ATOM      4  C3  UNL A   1      28.805  -8.416  29.669  1.00  0.00    +0.000 C 
ATOM     87  H3  UNL A   1      28.296  -7.923  30.471  1.00  0.00    +0.000 H 
ATOM     88  H4  UNL A   1      28.174  -8.910  28.959  1.00  0.00    +0.000 H 
BRANCH    4    5
ATOM     89  H5  UNL A   1      30.483  -7.170  29.324  1.00  0.00    +0.000 H 
ATOM     90  H6  UNL A   1      28.863  -6.503  28.854  1.00  0.00    +0.000 H 
ATOM      5  C4  UNL A   1      29.536  -7.335  28.854  1.00  0.00    +0.000 C 
BRANCH    5    6
ATOM     91  H7  UNL A   1      30.738  -8.127  27.307  1.00  0.00    +0.000 H 
ATOM     92  H8  UNL A   1      29.776  -6.634  26.918  1.00  0.00    +0.000 H 
ATOM      6  C5  UNL A   1      29.807  -7.605  27.368  1.00  0.00    +0.000 C 
BRANCH    6    7
ATOM     97  H13 UNL A   1      28.342 -11.385  24.870  1.00  0.00    +0.000 H 
ATOM      7  C6  UNL A   1      28.777  -8.421  26.563  1.00  0.00    +0.000 C 
ATOM      8  C7  UNL A   1      29.135  -9.855  26.173  1.00  0.00    +0.000 C 
ATOM      9  C8  UNL A   1      28.067 -10.419  25.240  1.00  0.00    +0.000 C 
ATOM     10  S1  UNL A   1      27.892  -9.222  23.898  1.00  0.00    +0.000 S 
ATOM     11  S2  UNL A   1      28.373  -7.561  24.998  1.00  0.00    +0.000 S 
ATOM     93  H9  UNL A   1      27.969  -8.494  27.261  1.00  0.00    +0.000 H 
ATOM     94  H10 UNL A   1      29.193 -10.458  27.054  1.00  0.00    +0.000 H 
ATOM     95  H11 UNL A   1      30.080  -9.858  25.670  1.00  0.00    +0.000 H 
ATOM     96  H12 UNL A   1      27.140 -10.532  25.762  1.00  0.00    +0.000 H 
ENDBRANCH    6    7
ENDBRANCH    5    6
ENDBRANCH    4    5
ENDBRANCH    3    4
ENDBRANCH    2    3
ENDBRANCH   12    2
ENDBRANCH   13   12
ENDBRANCH   14   13
ENDBRANCH   15   14
ENDBRANCH   16   15
ENDBRANCH   17   16
ENDBRANCH   18   17
ENDBRANCH   19   18
ENDBRANCH   20   19
ENDBRANCH   22   20
ENDBRANCH   26   25
BRANCH   30   31
ATOM     33  F1  UNL A   1      26.326 -16.121  36.862  1.00  0.00    +0.000 F 
ATOM     34  C26 UNL A   1      27.795 -16.058  38.700  1.00  0.00    +0.000 C 
ATOM     35  F2  UNL A   1      27.225 -17.167  39.191  1.00  0.00    +0.000 F 
ATOM     36  C27 UNL A   1      28.834 -15.451  39.388  1.00  0.00    +0.000 C 
ATOM     37  F3  UNL A   1      29.282 -15.983  40.533  1.00  0.00    +0.000 F 
ATOM     38  C28 UNL A   1      29.406 -14.289  38.891  1.00  0.00    +0.000 C 
ATOM     39  F4  UNL A   1      30.419 -13.708  39.549  1.00  0.00    +0.000 F 
ATOM     40  C29 UNL A   1      28.930 -13.726  37.711  1.00  0.00    +0.000 C 
ATOM     41  F5  UNL A   1      29.495 -12.595  37.261  1.00  0.00    +0.000 F 
ATOM     31  C24 UNL A   1      27.884 -14.328  36.994  1.00  0.00    +0.000 C 
ATOM     32  C25 UNL A   1      27.333 -15.512  37.505  1.00  0.00    +0.000 C 
ENDBRANCH   30   31
BRANCH   47   48
ATOM     48  C35 UNL A   1      22.393 -10.342  34.573  1.00  0.00    +0.000 C 
ATOM     49  C36 UNL A   1      22.485  -9.072  35.161  1.00  0.00    +0.000 C 
ATOM     50  F6  UNL A   1      23.677  -8.469  35.281  1.00  0.00    +0.000 F 
ATOM     51  C37 UNL A   1      21.354  -8.434  35.662  1.00  0.00    +0.000 C 
ATOM     52  F7  UNL A   1      21.470  -7.239  36.258  1.00  0.00    +0.000 F 
ATOM     53  C38 UNL A   1      20.109  -9.036  35.557  1.00  0.00    +0.000 C 
ATOM     54  F8  UNL A   1      19.021  -8.417  36.034  1.00  0.00    +0.000 F 
ATOM     55  C39 UNL A   1      19.994 -10.285  34.964  1.00  0.00    +0.000 C 
ATOM     56  F9  UNL A   1      18.791 -10.865  34.852  1.00  0.00    +0.000 F 
ATOM     57  C40 UNL A   1      21.127 -10.938  34.487  1.00  0.00    +0.000 C 
ATOM     58  F10 UNL A   1      20.985 -12.150  33.928  1.00  0.00    +0.000 F 
ENDBRANCH   47   48
BRANCH   62   63
ATOM     65  F11 UNL A   1      23.625 -12.934  27.785  1.00  0.00    +0.000 F 
ATOM     66  C46 UNL A   1      23.594 -11.315  26.073  1.00  0.00    +0.000 C 
ATOM     67  F12 UNL A   1      22.801 -12.107  25.339  1.00  0.00    +0.000 F 
ATOM     68  C47 UNL A   1      24.001 -10.087  25.576  1.00  0.00    +0.000 C 
ATOM     69  F13 UNL A   1      23.588  -9.681  24.367  1.00  0.00    +0.000 F 
ATOM     70  C48 UNL A   1      24.844  -9.282  26.328  1.00  0.00    +0.000 C 
ATOM     71  F14 UNL A   1      25.229  -8.090  25.856  1.00  0.00    +0.000 F 
ATOM     72  C49 UNL A   1      25.293  -9.714  27.575  1.00  0.00    +0.000 C 
ATOM     73  F15 UNL A   1      26.119  -8.923  28.275  1.00  0.00    +0.000 F 
ATOM     63  C44 UNL A   1      24.889 -10.949  28.102  1.00  0.00    +0.000 C 
ATOM     64  C45 UNL A   1      24.021 -11.736  27.331  1.00  0.00    +0.000 C 
ENDBRANCH   62   63
TORSDOF 19
ENDMDL
MODEL 5
REMARK VINA RESULT:      -9.3     48.437     53.392
ROOT
ATOM     26  C20 UNL A   1      29.132 -13.913  30.697  1.00  0.00    +0.000 C 
ATOM     27  C21 UNL A   1      28.875 -14.067  32.169  1.00  0.00    +0.000 C 
ATOM     28  N3  UNL A   1      27.852 -13.660  32.878  1.00  0.00    +0.000 N 
ATOM     29  C22 UNL A   1      28.089 -14.103  34.174  1.00  0.00    +0.000 C 
ATOM     30  C23 UNL A   1      27.346 -13.894  35.286  1.00  0.00    +0.000 C 
ATOM     42  C30 UNL A   1      26.130 -13.124  35.320  1.00  0.00    +0.000 C 
ATOM     43  C31 UNL A   1      25.353 -12.787  36.414  1.00  0.00    +0.000 C 
ATOM     44  C32 UNL A   1      24.245 -12.065  35.958  1.00  0.00    +0.000 C 
ATOM     45  C33 UNL A   1      24.356 -11.913  34.586  1.00  0.00    +0.000 C 
ATOM     46  N4  UNL A   1      25.517 -12.569  34.208  1.00  0.00    +0.000 N 
ATOM     47  C34 UNL A   1      23.470 -11.225  33.683  1.00  0.00    +0.000 C 
ATOM     59  C41 UNL A   1      23.659 -11.109  32.347  1.00  0.00    +0.000 C 
ATOM     60  N5  UNL A   1      24.702 -11.592  31.570  1.00  0.00    +0.000 N 
ATOM     61  C42 UNL A   1      24.430 -11.234  30.339  1.00  0.00    +0.000 C 
ATOM     62  C43 UNL A   1      25.227 -11.463  29.084  1.00  0.00    +0.000 C 
ATOM     74  C50 UNL A   1      26.409 -12.103  29.161  1.00  0.00    +0.000 C 
ATOM     75  C51 UNL A   1      27.291 -12.392  28.033  1.00  0.00    +0.000 C 
ATOM     76  C52 UNL A   1      28.353 -13.085  28.474  1.00  0.00    +0.000 C 
ATOM     77  C53 UNL A   1      28.244 -13.260  29.923  1.00  0.00    +0.000 C 
ATOM     78  N6  UNL A   1      27.066 -12.634  30.245  1.00  0.00    +0.000 N 
ATOM     79  C54 UNL A   1      23.161 -10.506  30.193  1.00  0.00    +0.000 C 
ATOM     80  C55 UNL A   1      22.752 -10.422  31.452  1.00  0.00    +0.000 C 
ATOM     81  C56 UNL A   1      29.332 -14.844  34.146  1.00  0.00    +0.000 C 
ATOM     82  C57 UNL A   1      29.889 -14.797  32.944  1.00  0.00    +0.000 C 
ATOM    114  H30 UNL A   1      25.554 -13.029  37.397  1.00  0.00    +0.000 H 
ATOM    115  H31 UNL A   1      23.476 -11.705  36.545  1.00  0.00    +0.000 H 
ATOM    116  H32 UNL A   1      25.855 -12.633  33.285  1.00  0.00    +0.000 H 
ATOM    117  H33 UNL A   1      27.124 -12.110  27.055  1.00  0.00    +0.000 H 
ATOM    118  H34 UNL A   1      29.124 -13.438  27.885  1.00  0.00    +0.000 H 
ATOM    119  H35 UNL A   1      26.723 -12.570  31.165  1.00  0.00    +0.000 H 
ATOM    120  H36 UNL A   1      22.707 -10.152  29.337  1.00  0.00    +0.000 H 
ATOM    121  H37 UNL A   1      21.897  -9.931  31.754  1.00  0.00    +0.000 H 
ATOM    122  H38 UNL A   1      29.731 -15.343  34.956  1.00  0.00    +0.000 H 
ATOM    123  H39 UNL A   1      30.798 -15.175  32.634  1.00  0.00    +0.000 H 
ENDROOT
BRANCH   26   25
ATOM    112  H28 UNL A   1      31.343 -17.385  28.587  1.00  0.00    +0.000 H 
ATOM    113  H29 UNL A   1      29.343 -16.316  29.454  1.00  0.00    +0.000 H 
ATOM     83  C58 UNL A   1      31.548 -13.862  30.066  1.00  0.00    +0.000 C 
ATOM     84  C59 UNL A   1      32.680 -14.446  29.500  1.00  0.00    +0.000 C 
ATOM     22  C16 UNL A   1      32.619 -15.758  29.020  1.00  0.00    +0.000 C 
ATOM     23  C17 UNL A   1      31.398 -16.436  28.988  1.00  0.00    +0.000 C 
ATOM     24  C18 UNL A   1      30.250 -15.825  29.498  1.00  0.00    +0.000 C 
ATOM     25  C19 UNL A   1      30.323 -14.547  30.074  1.00  0.00    +0.000 C 
ATOM    124  H40 UNL A   1      31.612 -12.920  30.482  1.00  0.00    +0.000 H 
ATOM    125  H41 UNL A   1      33.560 -13.912  29.435  1.00  0.00    +0.000 H 
BRANCH   22   20
ATOM     20  C15 UNL A   1      33.832 -16.456  28.536  1.00  0.00    +0.000 C 
ATOM     21  O2  UNL A   1      34.561 -17.032  29.333  1.00  0.00    +0.000 O 
BRANCH   20   19
ATOM     19  N2  UNL A   1      34.153 -16.426  27.199  1.00  0.00    +0.000 N 
ATOM    111  H27 UNL A   1      34.114 -17.295  26.736  1.00  0.00    +0.000 H 
BRANCH   19   18
ATOM     18  C14 UNL A   1      34.540 -15.296  26.372  1.00  0.00    +0.000 C 
ATOM    109  H25 UNL A   1      35.027 -14.571  26.992  1.00  0.00    +0.000 H 
ATOM    110  H26 UNL A   1      35.189 -15.667  25.606  1.00  0.00    +0.000 H 
BRANCH   18   17
ATOM     17  C13 UNL A   1      33.355 -14.628  25.682  1.00  0.00    +0.000 C 
ATOM    107  H23 UNL A   1      33.467 -14.767  24.627  1.00  0.00    +0.000 H 
ATOM    108  H24 UNL A   1      32.479 -15.091  26.087  1.00  0.00    +0.000 H 
BRANCH   17   16
ATOM    105  H21 UNL A   1      33.353 -12.613  25.022  1.00  0.00    +0.000 H 
ATOM    106  H22 UNL A   1      32.217 -13.003  26.353  1.00  0.00    +0.000 H 
ATOM     16  C12 UNL A   1      33.199 -13.129  25.947  1.00  0.00    +0.000 C 
BRANCH   16   15
ATOM    103  H19 UNL A   1      33.575 -12.111  27.767  1.00  0.00    +0.000 H 
ATOM     15  C11 UNL A   1      34.161 -12.539  26.981  1.00  0.00    +0.000 C 
ATOM    104  H20 UNL A   1      34.784 -13.351  27.296  1.00  0.00    +0.000 H 
BRANCH   15   14
ATOM    102  H18 UNL A   1      35.051 -11.491  25.394  1.00  0.00    +0.000 H 
ATOM    101  H17 UNL A   1      36.094 -11.669  26.839  1.00  0.00    +0.000 H 
ATOM     14  C10 UNL A   1      35.117 -11.455  26.461  1.00  0.00    +0.000 C 
BRANCH   14   13
ATOM     99  H15 UNL A   1      34.452 -10.016  27.883  1.00  0.00    +0.000 H 
ATOM    100  H16 UNL A   1      35.625  -9.413  26.713  1.00  0.00    +0.000 H 
ATOM     13  C9  UNL A   1      34.760 -10.024  26.859  1.00  0.00    +0.000 C 
BRANCH   13   12
ATOM     98  H14 UNL A   1      33.877  -9.268  25.104  1.00  0.00    +0.000 H 
ATOM     12  N1  UNL A   1      33.690  -9.493  26.044  1.00  0.00    +0.000 N 
BRANCH   12    2
ATOM      1  O1  UNL A   1      31.441  -9.102  25.826  1.00  0.00    +0.000 O 
ATOM      2  C1  UNL A   1      32.424  -9.289  26.535  1.00  0.00    +0.000 C 
BRANCH    2    3
ATOM      3  C2  UNL A   1      32.334  -9.314  28.048  1.00  0.00    +0.000 C 
ATOM     85  H1  UNL A   1      31.972  -8.366  28.385  1.00  0.00    +0.000 H 
ATOM     86  H2  UNL A   1      33.315  -9.522  28.425  1.00  0.00    +0.000 H 
BRANCH    3    4
ATOM      4  C3  UNL A   1      31.399 -10.409  28.570  1.00  0.00    +0.000 C 
ATOM     87  H3  UNL A   1      31.877 -10.860  29.414  1.00  0.00    +0.000 H 
ATOM     88  H4  UNL A   1      31.243 -11.054  27.731  1.00  0.00    +0.000 H 
BRANCH    4    5
ATOM     89  H5  UNL A   1      29.312 -10.754  28.679  1.00  0.00    +0.000 H 
ATOM     90  H6  UNL A   1      29.847  -9.024  28.572  1.00  0.00    +0.000 H 
ATOM      5  C4  UNL A   1      29.985  -9.990  29.010  1.00  0.00    +0.000 C 
BRANCH    5    6
ATOM     91  H7  UNL A   1      30.214  -8.859  30.779  1.00  0.00    +0.000 H 
ATOM     92  H8  UNL A   1      30.092 -10.664  30.966  1.00  0.00    +0.000 H 
ATOM      6  C5  UNL A   1      29.725  -9.771  30.506  1.00  0.00    +0.000 C 
BRANCH    6    7
ATOM     97  H13 UNL A   1      25.695  -7.444  31.513  1.00  0.00    +0.000 H 
ATOM      7  C6  UNL A   1      28.269  -9.669  30.998  1.00  0.00    +0.000 C 
ATOM      8  C7  UNL A   1      27.538  -8.337  30.826  1.00  0.00    +0.000 C 
ATOM      9  C8  UNL A   1      26.185  -8.395  31.530  1.00  0.00    +0.000 C 
ATOM     10  S1  UNL A   1      26.524  -8.934  33.221  1.00  0.00    +0.000 S 
ATOM     11  S2  UNL A   1      28.175 -10.066  32.782  1.00  0.00    +0.000 S 
ATOM     93  H9  UNL A   1      27.775 -10.366  30.353  1.00  0.00    +0.000 H 
ATOM     94  H10 UNL A   1      27.388  -8.146  29.784  1.00  0.00    +0.000 H 
ATOM     95  H11 UNL A   1      28.126  -7.554  31.256  1.00  0.00    +0.000 H 
ATOM     96  H12 UNL A   1      25.540  -9.093  31.039  1.00  0.00    +0.000 H 
ENDBRANCH    6    7
ENDBRANCH    5    6
ENDBRANCH    4    5
ENDBRANCH    3    4
ENDBRANCH    2    3
ENDBRANCH   12    2
ENDBRANCH   13   12
ENDBRANCH   14   13
ENDBRANCH   15   14
ENDBRANCH   16   15
ENDBRANCH   17   16
ENDBRANCH   18   17
ENDBRANCH   19   18
ENDBRANCH   20   19
ENDBRANCH   22   20
ENDBRANCH   26   25
BRANCH   30   31
ATOM     33  F1  UNL A   1      26.529 -16.471  36.244  1.00  0.00    +0.000 F 
ATOM     34  C26 UNL A   1      27.894 -16.346  38.158  1.00  0.00    +0.000 C 
ATOM     35  F2  UNL A   1      27.455 -17.550  38.548  1.00  0.00    +0.000 F 
ATOM     36  C27 UNL A   1      28.813 -15.658  38.935  1.00  0.00    +0.000 C 
ATOM     37  F3  UNL A   1      29.277 -16.205  40.067  1.00  0.00    +0.000 F 
ATOM     38  C28 UNL A   1      29.248 -14.401  38.542  1.00  0.00    +0.000 C 
ATOM     39  F4  UNL A   1      30.146 -13.741  39.287  1.00  0.00    +0.000 F 
ATOM     40  C29 UNL A   1      28.753 -13.824  37.376  1.00  0.00    +0.000 C 
ATOM     41  F5  UNL A   1      29.183 -12.602  37.028  1.00  0.00    +0.000 F 
ATOM     31  C24 UNL A   1      27.829 -14.505  36.569  1.00  0.00    +0.000 C 
ATOM     32  C25 UNL A   1      27.417 -15.782  36.976  1.00  0.00    +0.000 C 
ENDBRANCH   30   31
BRANCH   47   48
ATOM     48  C35 UNL A   1      22.255 -10.566  34.266  1.00  0.00    +0.000 C 
ATOM     49  C36 UNL A   1      20.990 -11.168  34.203  1.00  0.00    +0.000 C 
ATOM     50  F6  UNL A   1      20.832 -12.338  33.565  1.00  0.00    +0.000 F 
ATOM     51  C37 UNL A   1      19.875 -10.551  34.763  1.00  0.00    +0.000 C 
ATOM     52  F7  UNL A   1      18.669 -11.124  34.654  1.00  0.00    +0.000 F 
ATOM     53  C38 UNL A   1      20.008  -9.338  35.424  1.00  0.00    +0.000 C 
ATOM     54  F8  UNL A   1      18.935  -8.749  35.968  1.00  0.00    +0.000 F 
ATOM     55  C39 UNL A   1      21.253  -8.733  35.512  1.00  0.00    +0.000 C 
ATOM     56  F9  UNL A   1      21.386  -7.566  36.158  1.00  0.00    +0.000 F 
ATOM     57  C40 UNL A   1      22.365  -9.334  34.929  1.00  0.00    +0.000 C 
ATOM     58  F10 UNL A   1      23.554  -8.719  35.021  1.00  0.00    +0.000 F 
ENDBRANCH   47   48
BRANCH   62   63
ATOM     65  F11 UNL A   1      23.320 -12.860  27.523  1.00  0.00    +0.000 F 
ATOM     66  C46 UNL A   1      23.341 -11.256  25.798  1.00  0.00    +0.000 C 
ATOM     67  F12 UNL A   1      22.467 -11.995  25.100  1.00  0.00    +0.000 F 
ATOM     68  C47 UNL A   1      23.816 -10.064  25.273  1.00  0.00    +0.000 C 
ATOM     69  F13 UNL A   1      23.388  -9.639  24.076  1.00  0.00    +0.000 F 
ATOM     70  C48 UNL A   1      24.742  -9.317  25.985  1.00  0.00    +0.000 C 
ATOM     71  F14 UNL A   1      25.194  -8.159  25.487  1.00  0.00    +0.000 F 
ATOM     72  C49 UNL A   1      25.206  -9.770  27.219  1.00  0.00    +0.000 C 
ATOM     73  F15 UNL A   1      26.111  -9.035  27.880  1.00  0.00    +0.000 F 
ATOM     63  C44 UNL A   1      24.734 -10.969  27.773  1.00  0.00    +0.000 C 
ATOM     64  C45 UNL A   1      23.784 -11.697  27.043  1.00  0.00    +0.000 C 
ENDBRANCH   62   63
TORSDOF 19
ENDMDL
MODEL 6
REMARK VINA RESULT:      -9.3     47.135     52.462
ROOT
ATOM     26  C20 UNL A   1      53.363  19.753  11.712  1.00  0.00    +0.000 C 
ATOM     27  C21 UNL A   1      54.728  19.140  11.567  1.00  0.00    +0.000 C 
ATOM     28  N3  UNL A   1      55.729  19.140  12.411  1.00  0.00    +0.000 N 
ATOM     29  C22 UNL A   1      56.733  18.393  11.808  1.00  0.00    +0.000 C 
ATOM     30  C23 UNL A   1      57.984  18.140  12.260  1.00  0.00    +0.000 C 
ATOM     42  C30 UNL A   1      58.520  18.641  13.498  1.00  0.00    +0.000 C 
ATOM     43  C31 UNL A   1      59.802  18.508  14.001  1.00  0.00    +0.000 C 
ATOM     44  C32 UNL A   1      59.846  19.124  15.256  1.00  0.00    +0.000 C 
ATOM     45  C33 UNL A   1      58.605  19.680  15.514  1.00  0.00    +0.000 C 
ATOM     46  N4  UNL A   1      57.800  19.375  14.428  1.00  0.00    +0.000 N 
ATOM     47  C34 UNL A   1      58.179  20.432  16.667  1.00  0.00    +0.000 C 
ATOM     59  C41 UNL A   1      56.942  20.958  16.838  1.00  0.00    +0.000 C 
ATOM     60  N5  UNL A   1      55.850  20.909  15.984  1.00  0.00    +0.000 N 
ATOM     61  C42 UNL A   1      54.886  21.552  16.597  1.00  0.00    +0.000 C 
ATOM     62  C43 UNL A   1      53.485  21.837  16.128  1.00  0.00    +0.000 C 
ATOM     74  C50 UNL A   1      53.102  21.420  14.906  1.00  0.00    +0.000 C 
ATOM     75  C51 UNL A   1      51.781  21.626  14.317  1.00  0.00    +0.000 C 
ATOM     76  C52 UNL A   1      51.741  21.033  13.112  1.00  0.00    +0.000 C 
ATOM     77  C53 UNL A   1      53.046  20.434  12.829  1.00  0.00    +0.000 C 
ATOM     78  N6  UNL A   1      53.793  20.724  13.944  1.00  0.00    +0.000 N 
ATOM     79  C54 UNL A   1      55.253  22.057  17.927  1.00  0.00    +0.000 C 
ATOM     80  C55 UNL A   1      56.528  21.703  18.008  1.00  0.00    +0.000 C 
ATOM     81  C56 UNL A   1      56.207  17.922  10.545  1.00  0.00    +0.000 C 
ATOM     82  C57 UNL A   1      54.995  18.408  10.320  1.00  0.00    +0.000 C 
ATOM    114  H30 UNL A   1      60.589  18.033  13.532  1.00  0.00    +0.000 H 
ATOM    115  H31 UNL A   1      60.666  19.159  15.882  1.00  0.00    +0.000 H 
ATOM    116  H32 UNL A   1      56.856  19.640  14.333  1.00  0.00    +0.000 H 
ATOM    117  H33 UNL A   1      51.004  22.143  14.756  1.00  0.00    +0.000 H 
ATOM    118  H34 UNL A   1      50.921  21.006  12.486  1.00  0.00    +0.000 H 
ATOM    119  H35 UNL A   1      54.736  20.460  14.045  1.00  0.00    +0.000 H 
ATOM    120  H36 UNL A   1      54.672  22.556  18.619  1.00  0.00    +0.000 H 
ATOM    121  H37 UNL A   1      57.145  21.928  18.804  1.00  0.00    +0.000 H 
ATOM    122  H38 UNL A   1      56.711  17.289   9.903  1.00  0.00    +0.000 H 
ATOM    123  H39 UNL A   1      54.395  18.301   9.487  1.00  0.00    +0.000 H 
ENDROOT
BRANCH   26   25
ATOM    112  H28 UNL A   1      50.134  17.271   9.519  1.00  0.00    +0.000 H 
ATOM    113  H29 UNL A   1      51.696  17.645  11.341  1.00  0.00    +0.000 H 
ATOM     83  C58 UNL A   1      52.115  20.540   9.697  1.00  0.00    +0.000 C 
ATOM     84  C59 UNL A   1      51.164  20.357   8.695  1.00  0.00    +0.000 C 
ATOM     22  C16 UNL A   1      50.489  19.137   8.593  1.00  0.00    +0.000 C 
ATOM     23  C17 UNL A   1      50.670  18.152   9.567  1.00  0.00    +0.000 C 
ATOM     24  C18 UNL A   1      51.578  18.362  10.608  1.00  0.00    +0.000 C 
ATOM     25  C19 UNL A   1      52.334  19.544  10.661  1.00  0.00    +0.000 C 
ATOM    124  H40 UNL A   1      52.661  21.415   9.730  1.00  0.00    +0.000 H 
ATOM    125  H41 UNL A   1      50.958  21.119   8.031  1.00  0.00    +0.000 H 
BRANCH   22   20
ATOM     20  C15 UNL A   1      49.572  18.858   7.463  1.00  0.00    +0.000 C 
ATOM     21  O2  UNL A   1      49.762  17.878   6.755  1.00  0.00    +0.000 O 
BRANCH   20   19
ATOM     19  N2  UNL A   1      48.535  19.719   7.194  1.00  0.00    +0.000 N 
ATOM    111  H27 UNL A   1      47.720  19.580   7.730  1.00  0.00    +0.000 H 
BRANCH   19   18
ATOM     18  C14 UNL A   1      48.469  20.805   6.231  1.00  0.00    +0.000 C 
ATOM    109  H25 UNL A   1      48.395  21.730   6.764  1.00  0.00    +0.000 H 
ATOM    110  H26 UNL A   1      49.355  20.758   5.634  1.00  0.00    +0.000 H 
BRANCH   18   17
ATOM     17  C13 UNL A   1      47.276  20.693   5.287  1.00  0.00    +0.000 C 
ATOM    107  H23 UNL A   1      46.515  21.360   5.635  1.00  0.00    +0.000 H 
ATOM    108  H24 UNL A   1      47.647  20.936   4.313  1.00  0.00    +0.000 H 
BRANCH   17   16
ATOM    105  H21 UNL A   1      46.999  18.715   5.999  1.00  0.00    +0.000 H 
ATOM    106  H22 UNL A   1      45.602  19.443   5.143  1.00  0.00    +0.000 H 
ATOM     16  C12 UNL A   1      46.662  19.297   5.166  1.00  0.00    +0.000 C 
BRANCH   16   15
ATOM    103  H19 UNL A   1      47.828  19.033   3.417  1.00  0.00    +0.000 H 
ATOM     15  C11 UNL A   1      47.008  18.533   3.886  1.00  0.00    +0.000 C 
ATOM    104  H20 UNL A   1      47.229  17.531   4.195  1.00  0.00    +0.000 H 
BRANCH   15   14
ATOM    102  H18 UNL A   1      45.868  17.387   2.545  1.00  0.00    +0.000 H 
ATOM    101  H17 UNL A   1      46.078  19.099   2.062  1.00  0.00    +0.000 H 
ATOM     14  C10 UNL A   1      45.876  18.411   2.855  1.00  0.00    +0.000 C 
BRANCH   14   13
ATOM     99  H15 UNL A   1      43.769  18.108   2.845  1.00  0.00    +0.000 H 
ATOM    100  H16 UNL A   1      44.458  18.462   4.430  1.00  0.00    +0.000 H 
ATOM     13  C9  UNL A   1      44.474  18.702   3.387  1.00  0.00    +0.000 C 
BRANCH   13   12
ATOM     98  H14 UNL A   1      44.219  20.694   4.017  1.00  0.00    +0.000 H 
ATOM     12  N1  UNL A   1      44.124  20.097   3.241  1.00  0.00    +0.000 N 
BRANCH   12    2
ATOM      1  O1  UNL A   1      43.969  21.728   1.635  1.00  0.00    +0.000 O 
ATOM      2  C1  UNL A   1      43.662  20.618   2.057  1.00  0.00    +0.000 C 
BRANCH    2    3
ATOM      3  C2  UNL A   1      42.726  19.698   1.298  1.00  0.00    +0.000 C 
ATOM     85  H1  UNL A   1      42.882  18.696   1.637  1.00  0.00    +0.000 H 
ATOM     86  H2  UNL A   1      42.945  19.804   0.256  1.00  0.00    +0.000 H 
BRANCH    3    4
ATOM      4  C3  UNL A   1      41.251  20.057   1.496  1.00  0.00    +0.000 C 
ATOM     87  H3  UNL A   1      41.139  20.405   2.502  1.00  0.00    +0.000 H 
ATOM     88  H4  UNL A   1      40.719  19.159   1.258  1.00  0.00    +0.000 H 
BRANCH    4    5
ATOM     89  H5  UNL A   1      40.720  20.756  -0.432  1.00  0.00    +0.000 H 
ATOM     90  H6  UNL A   1      41.206  22.010   0.784  1.00  0.00    +0.000 H 
ATOM      5  C4  UNL A   1      40.645  21.125   0.569  1.00  0.00    +0.000 C 
BRANCH    5    6
ATOM     91  H7  UNL A   1      39.195  22.529   1.197  1.00  0.00    +0.000 H 
ATOM     92  H8  UNL A   1      38.793  20.771   1.428  1.00  0.00    +0.000 H 
ATOM      6  C5  UNL A   1      39.184  21.538   0.794  1.00  0.00    +0.000 C 
BRANCH    6    7
ATOM     97  H13 UNL A   1      36.449  23.646  -2.485  1.00  0.00    +0.000 H 
ATOM      7  C6  UNL A   1      38.224  21.551  -0.411  1.00  0.00    +0.000 C 
ATOM      8  C7  UNL A   1      37.875  22.897  -1.045  1.00  0.00    +0.000 C 
ATOM      9  C8  UNL A   1      36.785  22.707  -2.096  1.00  0.00    +0.000 C 
ATOM     10  S1  UNL A   1      35.446  21.815  -1.273  1.00  0.00    +0.000 S 
ATOM     11  S2  UNL A   1      36.626  20.783   0.046  1.00  0.00    +0.000 S 
ATOM     93  H9  UNL A   1      38.790  21.013  -1.143  1.00  0.00    +0.000 H 
ATOM     94  H10 UNL A   1      38.747  23.308  -1.507  1.00  0.00    +0.000 H 
ATOM     95  H11 UNL A   1      37.521  23.563  -0.286  1.00  0.00    +0.000 H 
ATOM     96  H12 UNL A   1      37.160  22.138  -2.921  1.00  0.00    +0.000 H 
ENDBRANCH    6    7
ENDBRANCH    5    6
ENDBRANCH    4    5
ENDBRANCH    3    4
ENDBRANCH    2    3
ENDBRANCH   12    2
ENDBRANCH   13   12
ENDBRANCH   14   13
ENDBRANCH   15   14
ENDBRANCH   16   15
ENDBRANCH   17   16
ENDBRANCH   18   17
ENDBRANCH   19   18
ENDBRANCH   20   19
ENDBRANCH   22   20
ENDBRANCH   26   25
BRANCH   30   31
ATOM     33  F1  UNL A   1      59.701  19.155  10.198  1.00  0.00    +0.000 F 
ATOM     34  C26 UNL A   1      60.546  17.025   9.661  1.00  0.00    +0.000 C 
ATOM     35  F2  UNL A   1      61.309  17.571   8.705  1.00  0.00    +0.000 F 
ATOM     36  C27 UNL A   1      60.578  15.656   9.876  1.00  0.00    +0.000 C 
ATOM     37  F3  UNL A   1      61.387  14.880   9.142  1.00  0.00    +0.000 F 
ATOM     38  C28 UNL A   1      59.768  15.089  10.849  1.00  0.00    +0.000 C 
ATOM     39  F4  UNL A   1      59.808  13.767  11.066  1.00  0.00    +0.000 F 
ATOM     40  C29 UNL A   1      58.914  15.891  11.600  1.00  0.00    +0.000 C 
ATOM     41  F5  UNL A   1      58.133  15.313  12.526  1.00  0.00    +0.000 F 
ATOM     31  C24 UNL A   1      58.870  17.281  11.406  1.00  0.00    +0.000 C 
ATOM     32  C25 UNL A   1      59.711  17.834  10.429  1.00  0.00    +0.000 C 
ENDBRANCH   30   31
BRANCH   47   48
ATOM     48  C35 UNL A   1      59.186  20.672  17.754  1.00  0.00    +0.000 C 
ATOM     49  C36 UNL A   1      59.962  21.839  17.792  1.00  0.00    +0.000 C 
ATOM     50  F6  UNL A   1      59.856  22.752  16.816  1.00  0.00    +0.000 F 
ATOM     51  C37 UNL A   1      60.880  22.053  18.818  1.00  0.00    +0.000 C 
ATOM     52  F7  UNL A   1      61.642  23.156  18.812  1.00  0.00    +0.000 F 
ATOM     53  C38 UNL A   1      61.015  21.123  19.838  1.00  0.00    +0.000 C 
ATOM     54  F8  UNL A   1      61.894  21.334  20.826  1.00  0.00    +0.000 F 
ATOM     55  C39 UNL A   1      60.245  19.969  19.827  1.00  0.00    +0.000 C 
ATOM     56  F9  UNL A   1      60.367  19.074  20.817  1.00  0.00    +0.000 F 
ATOM     57  C40 UNL A   1      59.346  19.739  18.789  1.00  0.00    +0.000 C 
ATOM     58  F10 UNL A   1      58.623  18.609  18.801  1.00  0.00    +0.000 F 
ENDBRANCH   47   48
BRANCH   62   63
ATOM     65  F11 UNL A   1      53.143  24.643  15.954  1.00  0.00    +0.000 F 
ATOM     66  C46 UNL A   1      51.538  24.701  17.678  1.00  0.00    +0.000 C 
ATOM     67  F12 UNL A   1      51.462  26.034  17.563  1.00  0.00    +0.000 F 
ATOM     68  C47 UNL A   1      50.772  24.042  18.627  1.00  0.00    +0.000 C 
ATOM     69  F13 UNL A   1      49.940  24.734  19.418  1.00  0.00    +0.000 F 
ATOM     70  C48 UNL A   1      50.875  22.665  18.762  1.00  0.00    +0.000 C 
ATOM     71  F14 UNL A   1      50.127  22.023  19.669  1.00  0.00    +0.000 F 
ATOM     72  C49 UNL A   1      51.758  21.947  17.957  1.00  0.00    +0.000 C 
ATOM     73  F15 UNL A   1      51.848  20.620  18.119  1.00  0.00    +0.000 F 
ATOM     63  C44 UNL A   1      52.537  22.592  16.986  1.00  0.00    +0.000 C 
ATOM     64  C45 UNL A   1      52.402  23.981  16.855  1.00  0.00    +0.000 C 
ENDBRANCH   62   63
TORSDOF 19
ENDMDL
MODEL 7
REMARK VINA RESULT:      -9.2     48.169     53.146
ROOT
ATOM     26  C20 UNL A   1      29.216 -13.871  31.201  1.00  0.00    +0.000 C 
ATOM     27  C21 UNL A   1      28.924 -13.983  32.671  1.00  0.00    +0.000 C 
ATOM     28  N3  UNL A   1      27.891 -13.544  33.346  1.00  0.00    +0.000 N 
ATOM     29  C22 UNL A   1      28.092 -13.957  34.657  1.00  0.00    +0.000 C 
ATOM     30  C23 UNL A   1      27.327 -13.709  35.747  1.00  0.00    +0.000 C 
ATOM     42  C30 UNL A   1      26.122 -12.922  35.733  1.00  0.00    +0.000 C 
ATOM     43  C31 UNL A   1      25.324 -12.547  36.800  1.00  0.00    +0.000 C 
ATOM     44  C32 UNL A   1      24.237 -11.822  36.300  1.00  0.00    +0.000 C 
ATOM     45  C33 UNL A   1      24.382 -11.708  34.928  1.00  0.00    +0.000 C 
ATOM     46  N4  UNL A   1      25.542 -12.389  34.593  1.00  0.00    +0.000 N 
ATOM     47  C34 UNL A   1      23.526 -11.031  33.988  1.00  0.00    +0.000 C 
ATOM     59  C41 UNL A   1      23.747 -10.952  32.653  1.00  0.00    +0.000 C 
ATOM     60  N5  UNL A   1      24.800 -11.469  31.913  1.00  0.00    +0.000 N 
ATOM     61  C42 UNL A   1      24.561 -11.140  30.667  1.00  0.00    +0.000 C 
ATOM     62  C43 UNL A   1      25.382 -11.411  29.437  1.00  0.00    +0.000 C 
ATOM     74  C50 UNL A   1      26.554 -12.065  29.558  1.00  0.00    +0.000 C 
ATOM     75  C51 UNL A   1      27.457 -12.395  28.458  1.00  0.00    +0.000 C 
ATOM     76  C52 UNL A   1      28.499 -13.091  28.941  1.00  0.00    +0.000 C 
ATOM     77  C53 UNL A   1      28.355 -13.226  30.390  1.00  0.00    +0.000 C 
ATOM     78  N6  UNL A   1      27.178 -12.576  30.670  1.00  0.00    +0.000 N 
ATOM     79  C54 UNL A   1      23.306 -10.398  30.474  1.00  0.00    +0.000 C 
ATOM     80  C55 UNL A   1      22.869 -10.277  31.720  1.00  0.00    +0.000 C 
ATOM     81  C56 UNL A   1      29.325 -14.714  34.676  1.00  0.00    +0.000 C 
ATOM     82  C57 UNL A   1      29.910 -14.707  33.487  1.00  0.00    +0.000 C 
ATOM    114  H30 UNL A   1      25.500 -12.766  37.793  1.00  0.00    +0.000 H 
ATOM    115  H31 UNL A   1      23.460 -11.437  36.860  1.00  0.00    +0.000 H 
ATOM    116  H32 UNL A   1      25.899 -12.480  33.680  1.00  0.00    +0.000 H 
ATOM    117  H33 UNL A   1      27.315 -12.136  27.470  1.00  0.00    +0.000 H 
ATOM    118  H34 UNL A   1      29.278 -13.468  28.378  1.00  0.00    +0.000 H 
ATOM    119  H35 UNL A   1      26.816 -12.484  31.580  1.00  0.00    +0.000 H 
ATOM    120  H36 UNL A   1      22.876 -10.061  29.599  1.00  0.00    +0.000 H 
ATOM    121  H37 UNL A   1      22.015  -9.767  31.990  1.00  0.00    +0.000 H 
ATOM    122  H38 UNL A   1      29.699 -15.197  35.508  1.00  0.00    +0.000 H 
ATOM    123  H39 UNL A   1      30.820 -15.105  33.208  1.00  0.00    +0.000 H 
ENDROOT
BRANCH   26   25
ATOM    112  H28 UNL A   1      33.673 -14.027  29.973  1.00  0.00    +0.000 H 
ATOM    113  H29 UNL A   1      31.775 -12.978  31.066  1.00  0.00    +0.000 H 
ATOM     83  C58 UNL A   1      30.292 -15.818  30.067  1.00  0.00    +0.000 C 
ATOM     84  C59 UNL A   1      31.400 -16.452  29.507  1.00  0.00    +0.000 C 
ATOM     22  C16 UNL A   1      32.618 -15.771  29.414  1.00  0.00    +0.000 C 
ATOM     23  C17 UNL A   1      32.760 -14.509  29.997  1.00  0.00    +0.000 C 
ATOM     24  C18 UNL A   1      31.664 -13.900  30.615  1.00  0.00    +0.000 C 
ATOM     25  C19 UNL A   1      30.412 -14.536  30.623  1.00  0.00    +0.000 C 
ATOM    124  H40 UNL A   1      29.378 -16.297  30.072  1.00  0.00    +0.000 H 
ATOM    125  H41 UNL A   1      31.323 -17.421  29.162  1.00  0.00    +0.000 H 
BRANCH   22   20
ATOM     20  C15 UNL A   1      33.777 -16.360  28.706  1.00  0.00    +0.000 C 
ATOM     21  O2  UNL A   1      34.505 -17.154  29.287  1.00  0.00    +0.000 O 
BRANCH   20   19
ATOM     19  N2  UNL A   1      34.051 -15.987  27.411  1.00  0.00    +0.000 N 
ATOM    111  H27 UNL A   1      35.006 -15.880  27.195  1.00  0.00    +0.000 H 
BRANCH   19   18
ATOM     18  C14 UNL A   1      33.131 -15.728  26.316  1.00  0.00    +0.000 C 
ATOM    109  H25 UNL A   1      33.542 -16.145  25.420  1.00  0.00    +0.000 H 
ATOM    110  H26 UNL A   1      32.194 -16.176  26.572  1.00  0.00    +0.000 H 
BRANCH   18   17
ATOM     17  C13 UNL A   1      32.879 -14.241  26.088  1.00  0.00    +0.000 C 
ATOM    107  H23 UNL A   1      32.797 -14.077  25.033  1.00  0.00    +0.000 H 
ATOM    108  H24 UNL A   1      31.988 -14.006  26.631  1.00  0.00    +0.000 H 
BRANCH   17   16
ATOM    105  H21 UNL A   1      34.594 -13.866  27.278  1.00  0.00    +0.000 H 
ATOM    106  H22 UNL A   1      34.462 -12.907  25.769  1.00  0.00    +0.000 H 
ATOM     16  C12 UNL A   1      33.959 -13.301  26.627  1.00  0.00    +0.000 C 
BRANCH   16   15
ATOM    103  H19 UNL A   1      33.846 -12.141  28.397  1.00  0.00    +0.000 H 
ATOM     15  C11 UNL A   1      33.447 -12.087  27.407  1.00  0.00    +0.000 C 
ATOM    104  H20 UNL A   1      33.770 -11.228  26.854  1.00  0.00    +0.000 H 
BRANCH   15   14
ATOM    102  H18 UNL A   1      31.623 -12.655  28.279  1.00  0.00    +0.000 H 
ATOM    101  H17 UNL A   1      31.501 -12.171  26.558  1.00  0.00    +0.000 H 
ATOM     14  C10 UNL A   1      31.921 -11.962  27.519  1.00  0.00    +0.000 C 
BRANCH   14   13
ATOM     99  H15 UNL A   1      31.770  -9.850  27.294  1.00  0.00    +0.000 H 
ATOM    100  H16 UNL A   1      30.340 -10.626  27.975  1.00  0.00    +0.000 H 
ATOM     13  C9  UNL A   1      31.409 -10.596  27.971  1.00  0.00    +0.000 C 
BRANCH   13   12
ATOM     98  H14 UNL A   1      32.722 -10.620  29.616  1.00  0.00    +0.000 H 
ATOM     12  N1  UNL A   1      31.855 -10.271  29.307  1.00  0.00    +0.000 N 
BRANCH   12    2
ATOM      1  O1  UNL A   1      31.592  -8.843  31.082  1.00  0.00    +0.000 O 
ATOM      2  C1  UNL A   1      31.111  -9.494  30.161  1.00  0.00    +0.000 C 
BRANCH    2    3
ATOM      3  C2  UNL A   1      29.623  -9.505  29.873  1.00  0.00    +0.000 C 
ATOM     85  H1  UNL A   1      29.113  -9.904  30.724  1.00  0.00    +0.000 H 
ATOM     86  H2  UNL A   1      29.469 -10.106  29.000  1.00  0.00    +0.000 H 
BRANCH    3    4
ATOM      4  C3  UNL A   1      29.065  -8.111  29.575  1.00  0.00    +0.000 C 
ATOM     87  H3  UNL A   1      29.313  -7.484  30.407  1.00  0.00    +0.000 H 
ATOM     88  H4  UNL A   1      28.019  -8.267  29.413  1.00  0.00    +0.000 H 
BRANCH    4    5
ATOM     89  H5  UNL A   1      30.369  -7.977  27.911  1.00  0.00    +0.000 H 
ATOM     90  H6  UNL A   1      29.797  -6.412  28.626  1.00  0.00    +0.000 H 
ATOM      5  C4  UNL A   1      29.555  -7.402  28.301  1.00  0.00    +0.000 C 
BRANCH    5    6
ATOM     91  H7  UNL A   1      28.396  -6.139  27.065  1.00  0.00    +0.000 H 
ATOM     92  H8  UNL A   1      27.708  -7.780  27.442  1.00  0.00    +0.000 H 
ATOM      6  C5  UNL A   1      28.556  -7.193  27.156  1.00  0.00    +0.000 C 
BRANCH    6    7
ATOM     97  H13 UNL A   1      27.982  -7.574  22.444  1.00  0.00    +0.000 H 
ATOM      7  C6  UNL A   1      28.916  -7.718  25.753  1.00  0.00    +0.000 C 
ATOM      8  C7  UNL A   1      28.184  -7.127  24.548  1.00  0.00    +0.000 C 
ATOM      9  C8  UNL A   1      28.556  -7.900  23.286  1.00  0.00    +0.000 C 
ATOM     10  S1  UNL A   1      28.253  -9.642  23.658  1.00  0.00    +0.000 S 
ATOM     11  S2  UNL A   1      28.647  -9.527  25.666  1.00  0.00    +0.000 S 
ATOM     93  H9  UNL A   1      29.937  -7.409  25.663  1.00  0.00    +0.000 H 
ATOM     94  H10 UNL A   1      28.462  -6.101  24.432  1.00  0.00    +0.000 H 
ATOM     95  H11 UNL A   1      27.128  -7.200  24.708  1.00  0.00    +0.000 H 
ATOM     96  H12 UNL A   1      29.587  -7.744  23.046  1.00  0.00    +0.000 H 
ENDBRANCH    6    7
ENDBRANCH    5    6
ENDBRANCH    4    5
ENDBRANCH    3    4
ENDBRANCH    2    3
ENDBRANCH   12    2
ENDBRANCH   13   12
ENDBRANCH   14   13
ENDBRANCH   15   14
ENDBRANCH   16   15
ENDBRANCH   17   16
ENDBRANCH   18   17
ENDBRANCH   19   18
ENDBRANCH   20   19
ENDBRANCH   22   20
ENDBRANCH   26   25
BRANCH   30   31
ATOM     33  F1  UNL A   1      29.407 -12.594  37.377  1.00  0.00    +0.000 F 
ATOM     34  C26 UNL A   1      29.163 -14.232  39.050  1.00  0.00    +0.000 C 
ATOM     35  F2  UNL A   1      30.154 -13.663  39.749  1.00  0.00    +0.000 F 
ATOM     36  C27 UNL A   1      28.531 -15.364  39.540  1.00  0.00    +0.000 C 
ATOM     37  F3  UNL A   1      28.897 -15.880  40.721  1.00  0.00    +0.000 F 
ATOM     38  C28 UNL A   1      27.523 -15.967  38.803  1.00  0.00    +0.000 C 
ATOM     39  F4  UNL A   1      26.903 -17.055  39.282  1.00  0.00    +0.000 F 
ATOM     40  C29 UNL A   1      27.153 -15.444  37.567  1.00  0.00    +0.000 C 
ATOM     41  F5  UNL A   1      26.182 -16.055  36.871  1.00  0.00    +0.000 F 
ATOM     31  C24 UNL A   1      27.773 -14.293  37.055  1.00  0.00    +0.000 C 
ATOM     32  C25 UNL A   1      28.777 -13.690  37.826  1.00  0.00    +0.000 C 
ENDBRANCH   30   31
BRANCH   47   48
ATOM     48  C35 UNL A   1      22.307 -10.341  34.525  1.00  0.00    +0.000 C 
ATOM     49  C36 UNL A   1      21.040 -10.939  34.472  1.00  0.00    +0.000 C 
ATOM     50  F6  UNL A   1      20.883 -12.135  33.884  1.00  0.00    +0.000 F 
ATOM     51  C37 UNL A   1      19.921 -10.292  34.991  1.00  0.00    +0.000 C 
ATOM     52  F7  UNL A   1      18.713 -10.864  34.891  1.00  0.00    +0.000 F 
ATOM     53  C38 UNL A   1      20.053  -9.053  35.599  1.00  0.00    +0.000 C 
ATOM     54  F8  UNL A   1      18.976  -8.435  36.103  1.00  0.00    +0.000 F 
ATOM     55  C39 UNL A   1      21.300  -8.450  35.676  1.00  0.00    +0.000 C 
ATOM     56  F9  UNL A   1      21.431  -7.257  36.272  1.00  0.00    +0.000 F 
ATOM     57  C40 UNL A   1      22.415  -9.082  35.134  1.00  0.00    +0.000 C 
ATOM     58  F10 UNL A   1      23.607  -8.469  35.215  1.00  0.00    +0.000 F 
ENDBRANCH   47   48
BRANCH   62   63
ATOM     65  F11 UNL A   1      26.248  -8.980  28.271  1.00  0.00    +0.000 F 
ATOM     66  C46 UNL A   1      24.944  -9.275  26.332  1.00  0.00    +0.000 C 
ATOM     67  F12 UNL A   1      25.369  -8.093  25.866  1.00  0.00    +0.000 F 
ATOM     68  C47 UNL A   1      24.047 -10.030  25.593  1.00  0.00    +0.000 C 
ATOM     69  F13 UNL A   1      23.618  -9.589  24.402  1.00  0.00    +0.000 F 
ATOM     70  C48 UNL A   1      23.587 -11.241  26.092  1.00  0.00    +0.000 C 
ATOM     71  F14 UNL A   1      22.730 -11.978  25.375  1.00  0.00    +0.000 F 
ATOM     72  C49 UNL A   1      24.014 -11.689  27.340  1.00  0.00    +0.000 C 
ATOM     73  F15 UNL A   1      23.543 -12.855  27.805  1.00  0.00    +0.000 F 
ATOM     63  C44 UNL A   1      24.927 -10.945  28.103  1.00  0.00    +0.000 C 
ATOM     64  C45 UNL A   1      25.391  -9.735  27.569  1.00  0.00    +0.000 C 
ENDBRANCH   62   63
TORSDOF 19
ENDMDL
MODEL 8
REMARK VINA RESULT:      -9.2     47.294     52.990
ROOT
ATOM     26  C20 UNL A   1      53.178  19.896  11.499  1.00  0.00    +0.000 C 
ATOM     27  C21 UNL A   1      52.968  20.525  12.847  1.00  0.00    +0.000 C 
ATOM     28  N3  UNL A   1      53.815  20.664  13.836  1.00  0.00    +0.000 N 
ATOM     29  C22 UNL A   1      53.130  21.358  14.826  1.00  0.00    +0.000 C 
ATOM     30  C23 UNL A   1      53.558  21.705  16.064  1.00  0.00    +0.000 C 
ATOM     42  C30 UNL A   1      54.855  21.382  16.596  1.00  0.00    +0.000 C 
ATOM     43  C31 UNL A   1      55.349  21.618  17.867  1.00  0.00    +0.000 C 
ATOM     44  C32 UNL A   1      56.673  21.169  17.913  1.00  0.00    +0.000 C 
ATOM     45  C33 UNL A   1      56.989  20.614  16.684  1.00  0.00    +0.000 C 
ATOM     46  N4  UNL A   1      55.865  20.752  15.885  1.00  0.00    +0.000 N 
ATOM     47  C34 UNL A   1      58.224  20.003  16.265  1.00  0.00    +0.000 C 
ATOM     59  C41 UNL A   1      58.450  19.466  15.042  1.00  0.00    +0.000 C 
ATOM     60  N5  UNL A   1      57.587  19.372  13.960  1.00  0.00    +0.000 N 
ATOM     61  C42 UNL A   1      58.267  18.784  13.007  1.00  0.00    +0.000 C 
ATOM     62  C43 UNL A   1      57.825  18.400  11.621  1.00  0.00    +0.000 C 
ATOM     74  C50 UNL A   1      56.556  18.645  11.242  1.00  0.00    +0.000 C 
ATOM     75  C51 UNL A   1      55.986  18.325   9.936  1.00  0.00    +0.000 C 
ATOM     76  C52 UNL A   1      54.715  18.756   9.895  1.00  0.00    +0.000 C 
ATOM     77  C53 UNL A   1      54.370  19.353  11.186  1.00  0.00    +0.000 C 
ATOM     78  N6  UNL A   1      55.520  19.232  11.926  1.00  0.00    +0.000 N 
ATOM     79  C54 UNL A   1      59.655  18.466  13.370  1.00  0.00    +0.000 C 
ATOM     80  C55 UNL A   1      59.702  18.866  14.634  1.00  0.00    +0.000 C 
ATOM     81  C56 UNL A   1      51.812  21.647  14.304  1.00  0.00    +0.000 C 
ATOM     82  C57 UNL A   1      51.640  21.099  13.109  1.00  0.00    +0.000 C 
ATOM    114  H30 UNL A   1      54.830  22.052  18.647  1.00  0.00    +0.000 H 
ATOM    115  H31 UNL A   1      57.306  21.240  18.725  1.00  0.00    +0.000 H 
ATOM    116  H32 UNL A   1      55.795  20.449  14.951  1.00  0.00    +0.000 H 
ATOM    117  H33 UNL A   1      56.480  17.845   9.168  1.00  0.00    +0.000 H 
ATOM    118  H34 UNL A   1      54.083  18.678   9.084  1.00  0.00    +0.000 H 
ATOM    119  H35 UNL A   1      55.595  19.536  12.860  1.00  0.00    +0.000 H 
ATOM    120  H36 UNL A   1      60.400  18.042  12.795  1.00  0.00    +0.000 H 
ATOM    121  H37 UNL A   1      60.526  18.763  15.246  1.00  0.00    +0.000 H 
ATOM    122  H38 UNL A   1      51.099  22.207  14.798  1.00  0.00    +0.000 H 
ATOM    123  H39 UNL A   1      50.794  21.081  12.518  1.00  0.00    +0.000 H 
ENDROOT
BRANCH   26   25
ATOM    112  H28 UNL A   1      49.776  18.005   8.998  1.00  0.00    +0.000 H 
ATOM    113  H29 UNL A   1      51.424  17.953  10.781  1.00  0.00    +0.000 H 
ATOM     83  C58 UNL A   1      51.873  21.116   9.753  1.00  0.00    +0.000 C 
ATOM     84  C59 UNL A   1      50.875  21.168   8.781  1.00  0.00    +0.000 C 
ATOM     22  C16 UNL A   1      50.155  20.013   8.462  1.00  0.00    +0.000 C 
ATOM     23  C17 UNL A   1      50.343  18.843   9.201  1.00  0.00    +0.000 C 
ATOM     24  C18 UNL A   1      51.301  18.810  10.218  1.00  0.00    +0.000 C 
ATOM     25  C19 UNL A   1      52.098  19.936  10.478  1.00  0.00    +0.000 C 
ATOM    124  H40 UNL A   1      52.450  21.951   9.939  1.00  0.00    +0.000 H 
ATOM    125  H41 UNL A   1      50.668  22.057   8.300  1.00  0.00    +0.000 H 
BRANCH   22   20
ATOM     20  C15 UNL A   1      49.183  19.998   7.344  1.00  0.00    +0.000 C 
ATOM     21  O2  UNL A   1      47.989  19.864   7.578  1.00  0.00    +0.000 O 
BRANCH   20   19
ATOM     19  N2  UNL A   1      49.629  20.099   6.047  1.00  0.00    +0.000 N 
ATOM    111  H27 UNL A   1      49.890  21.005   5.759  1.00  0.00    +0.000 H 
BRANCH   19   18
ATOM     18  C14 UNL A   1      49.772  19.061   5.041  1.00  0.00    +0.000 C 
ATOM    109  H25 UNL A   1      48.927  19.102   4.385  1.00  0.00    +0.000 H 
ATOM    110  H26 UNL A   1      50.689  19.242   4.521  1.00  0.00    +0.000 H 
BRANCH   18   17
ATOM     17  C13 UNL A   1      49.855  17.660   5.638  1.00  0.00    +0.000 C 
ATOM    107  H23 UNL A   1      50.787  17.228   5.339  1.00  0.00    +0.000 H 
ATOM    108  H24 UNL A   1      49.757  17.784   6.696  1.00  0.00    +0.000 H 
BRANCH   17   16
ATOM    105  H21 UNL A   1      48.414  16.976   4.240  1.00  0.00    +0.000 H 
ATOM    106  H22 UNL A   1      49.157  15.718   5.279  1.00  0.00    +0.000 H 
ATOM     16  C12 UNL A   1      48.737  16.701   5.222  1.00  0.00    +0.000 C 
BRANCH   16   15
ATOM    103  H19 UNL A   1      47.214  15.667   6.273  1.00  0.00    +0.000 H 
ATOM     15  C11 UNL A   1      47.508  16.686   6.135  1.00  0.00    +0.000 C 
ATOM    104  H20 UNL A   1      47.810  17.177   7.038  1.00  0.00    +0.000 H 
BRANCH   15   14
ATOM    102  H18 UNL A   1      46.337  18.428   6.089  1.00  0.00    +0.000 H 
ATOM    101  H17 UNL A   1      45.411  16.909   5.879  1.00  0.00    +0.000 H 
ATOM     14  C10 UNL A   1      46.288  17.465   5.624  1.00  0.00    +0.000 C 
BRANCH   14   13
ATOM     99  H15 UNL A   1      47.115  17.258   3.673  1.00  0.00    +0.000 H 
ATOM    100  H16 UNL A   1      45.353  17.317   3.727  1.00  0.00    +0.000 H 
ATOM     13  C9  UNL A   1      46.262  17.724   4.119  1.00  0.00    +0.000 C 
BRANCH   13   12
ATOM     98  H14 UNL A   1      47.154  19.606   3.812  1.00  0.00    +0.000 H 
ATOM     12  N1  UNL A   1      46.288  19.138   3.818  1.00  0.00    +0.000 N 
BRANCH   12    2
ATOM      1  O1  UNL A   1      44.795  20.843   4.170  1.00  0.00    +0.000 O 
ATOM      2  C1  UNL A   1      45.147  19.851   3.541  1.00  0.00    +0.000 C 
BRANCH    2    3
ATOM      3  C2  UNL A   1      44.342  19.306   2.377  1.00  0.00    +0.000 C 
ATOM     85  H1  UNL A   1      44.296  18.241   2.463  1.00  0.00    +0.000 H 
ATOM     86  H2  UNL A   1      44.833  19.612   1.476  1.00  0.00    +0.000 H 
BRANCH    3    4
ATOM      4  C3  UNL A   1      42.914  19.856   2.333  1.00  0.00    +0.000 C 
ATOM     87  H3  UNL A   1      42.711  20.292   3.290  1.00  0.00    +0.000 H 
ATOM     88  H4  UNL A   1      42.308  19.014   2.073  1.00  0.00    +0.000 H 
BRANCH    4    5
ATOM     89  H5  UNL A   1      43.428  20.966   0.603  1.00  0.00    +0.000 H 
ATOM     90  H6  UNL A   1      42.383  21.802   1.827  1.00  0.00    +0.000 H 
ATOM      5  C4  UNL A   1      42.589  20.915   1.265  1.00  0.00    +0.000 C 
BRANCH    5    6
ATOM     91  H7  UNL A   1      41.239  19.662   0.231  1.00  0.00    +0.000 H 
ATOM     92  H8  UNL A   1      41.520  21.319  -0.463  1.00  0.00    +0.000 H 
ATOM      6  C5  UNL A   1      41.338  20.713   0.400  1.00  0.00    +0.000 C 
BRANCH    6    7
ATOM     97  H13 UNL A   1      37.137  20.212   2.586  1.00  0.00    +0.000 H 
ATOM      7  C6  UNL A   1      39.982  21.217   0.930  1.00  0.00    +0.000 C 
ATOM      8  C7  UNL A   1      39.148  20.274   1.797  1.00  0.00    +0.000 C 
ATOM      9  C8  UNL A   1      37.779  20.893   2.066  1.00  0.00    +0.000 C 
ATOM     10  S1  UNL A   1      37.103  21.336   0.450  1.00  0.00    +0.000 S 
ATOM     11  S2  UNL A   1      38.900  21.704  -0.465  1.00  0.00    +0.000 S 
ATOM     93  H9  UNL A   1      40.285  22.020   1.568  1.00  0.00    +0.000 H 
ATOM     94  H10 UNL A   1      39.651  20.107   2.725  1.00  0.00    +0.000 H 
ATOM     95  H11 UNL A   1      39.019  19.344   1.283  1.00  0.00    +0.000 H 
ATOM     96  H12 UNL A   1      37.880  21.765   2.679  1.00  0.00    +0.000 H 
ENDBRANCH    6    7
ENDBRANCH    5    6
ENDBRANCH    4    5
ENDBRANCH    3    4
ENDBRANCH    2    3
ENDBRANCH   12    2
ENDBRANCH   13   12
ENDBRANCH   14   13
ENDBRANCH   15   14
ENDBRANCH   16   15
ENDBRANCH   17   16
ENDBRANCH   18   17
ENDBRANCH   19   18
ENDBRANCH   20   19
ENDBRANCH   22   20
ENDBRANCH   26   25
BRANCH   30   31
ATOM     33  F1  UNL A   1      53.094  24.526  15.836  1.00  0.00    +0.000 F 
ATOM     34  C26 UNL A   1      51.497  24.544  17.565  1.00  0.00    +0.000 C 
ATOM     35  F2  UNL A   1      51.346  25.865  17.408  1.00  0.00    +0.000 F 
ATOM     36  C27 UNL A   1      50.765  23.871  18.531  1.00  0.00    +0.000 C 
ATOM     37  F3  UNL A   1      49.891  24.539  19.296  1.00  0.00    +0.000 F 
ATOM     38  C28 UNL A   1      50.942  22.507  18.708  1.00  0.00    +0.000 C 
ATOM     39  F4  UNL A   1      50.225  21.854  19.634  1.00  0.00    +0.000 F 
ATOM     40  C29 UNL A   1      51.862  21.815  17.926  1.00  0.00    +0.000 C 
ATOM     41  F5  UNL A   1      52.020  20.498  18.128  1.00  0.00    +0.000 F 
ATOM     31  C24 UNL A   1      52.608  22.473  16.936  1.00  0.00    +0.000 C 
ATOM     32  C25 UNL A   1      52.400  23.849  16.762  1.00  0.00    +0.000 C 
ENDBRANCH   30   31
BRANCH   47   48
ATOM     48  C35 UNL A   1      59.343  19.935  17.264  1.00  0.00    +0.000 C 
ATOM     49  C36 UNL A   1      60.155  21.046  17.534  1.00  0.00    +0.000 C 
ATOM     50  F6  UNL A   1      59.977  22.192  16.859  1.00  0.00    +0.000 F 
ATOM     51  C37 UNL A   1      61.177  20.971  18.476  1.00  0.00    +0.000 C 
ATOM     52  F7  UNL A   1      61.968  22.032  18.689  1.00  0.00    +0.000 F 
ATOM     53  C38 UNL A   1      61.388  19.798  19.185  1.00  0.00    +0.000 C 
ATOM     54  F8  UNL A   1      62.368  19.730  20.094  1.00  0.00    +0.000 F 
ATOM     55  C39 UNL A   1      60.585  18.692  18.944  1.00  0.00    +0.000 C 
ATOM     56  F9  UNL A   1      60.780  17.560  19.635  1.00  0.00    +0.000 F 
ATOM     57  C40 UNL A   1      59.580  18.755  17.984  1.00  0.00    +0.000 C 
ATOM     58  F10 UNL A   1      58.827  17.666  17.765  1.00  0.00    +0.000 F 
ENDBRANCH   47   48
BRANCH   62   63
ATOM     65  F11 UNL A   1      58.148  15.588  11.497  1.00  0.00    +0.000 F 
ATOM     66  C46 UNL A   1      59.783  15.704   9.805  1.00  0.00    +0.000 C 
ATOM     67  F12 UNL A   1      59.907  14.370   9.834  1.00  0.00    +0.000 F 
ATOM     68  C47 UNL A   1      60.563  16.455   8.939  1.00  0.00    +0.000 C 
ATOM     69  F13 UNL A   1      61.430  15.847   8.117  1.00  0.00    +0.000 F 
ATOM     70  C48 UNL A   1      60.452  17.838   8.933  1.00  0.00    +0.000 C 
ATOM     71  F14 UNL A   1      61.195  18.566   8.089  1.00  0.00    +0.000 F 
ATOM     72  C49 UNL A   1      59.569  18.472   9.805  1.00  0.00    +0.000 C 
ATOM     73  F15 UNL A   1      59.491  19.810   9.787  1.00  0.00    +0.000 F 
ATOM     63  C44 UNL A   1      58.765  17.733  10.684  1.00  0.00    +0.000 C 
ATOM     64  C45 UNL A   1      58.881  16.336  10.659  1.00  0.00    +0.000 C 
ENDBRANCH   62   63
TORSDOF 19
ENDMDL
MODEL 9
REMARK VINA RESULT:      -9.2     23.146     28.568
ROOT
ATOM     26  C20 UNL A   1      37.918  30.110  29.748  1.00  0.00    +0.000 C 
ATOM     27  C21 UNL A   1      38.943  29.163  29.191  1.00  0.00    +0.000 C 
ATOM     28  N3  UNL A   1      40.034  28.701  29.749  1.00  0.00    +0.000 N 
ATOM     29  C22 UNL A   1      40.590  27.825  28.826  1.00  0.00    +0.000 C 
ATOM     30  C23 UNL A   1      41.750  27.130  28.914  1.00  0.00    +0.000 C 
ATOM     42  C30 UNL A   1      42.657  27.199  30.029  1.00  0.00    +0.000 C 
ATOM     43  C31 UNL A   1      43.894  26.596  30.173  1.00  0.00    +0.000 C 
ATOM     44  C32 UNL A   1      44.391  26.914  31.442  1.00  0.00    +0.000 C 
ATOM     45  C33 UNL A   1      43.483  27.750  32.070  1.00  0.00    +0.000 C 
ATOM     46  N4  UNL A   1      42.423  27.915  31.193  1.00  0.00    +0.000 N 
ATOM     47  C34 UNL A   1      43.571  28.353  33.375  1.00  0.00    +0.000 C 
ATOM     59  C41 UNL A   1      42.640  29.176  33.915  1.00  0.00    +0.000 C 
ATOM     60  N5  UNL A   1      41.447  29.620  33.365  1.00  0.00    +0.000 N 
ATOM     61  C42 UNL A   1      40.894  30.386  34.274  1.00  0.00    +0.000 C 
ATOM     62  C43 UNL A   1      39.605  31.157  34.210  1.00  0.00    +0.000 C 
ATOM     74  C50 UNL A   1      38.868  31.120  33.083  1.00  0.00    +0.000 C 
ATOM     75  C51 UNL A   1      37.603  31.818  32.875  1.00  0.00    +0.000 C 
ATOM     76  C52 UNL A   1      37.128  31.512  31.657  1.00  0.00    +0.000 C 
ATOM     77  C53 UNL A   1      38.075  30.622  30.984  1.00  0.00    +0.000 C 
ATOM     78  N6  UNL A   1      39.083  30.454  31.901  1.00  0.00    +0.000 N 
ATOM     79  C54 UNL A   1      41.666  30.489  35.520  1.00  0.00    +0.000 C 
ATOM     80  C55 UNL A   1      42.740  29.765  35.234  1.00  0.00    +0.000 C 
ATOM     81  C56 UNL A   1      39.697  27.787  27.689  1.00  0.00    +0.000 C 
ATOM     82  C57 UNL A   1      38.696  28.643  27.837  1.00  0.00    +0.000 C 
ATOM    114  H30 UNL A   1      44.369  26.012  29.467  1.00  0.00    +0.000 H 
ATOM    115  H31 UNL A   1      45.283  26.582  31.841  1.00  0.00    +0.000 H 
ATOM    116  H32 UNL A   1      41.622  28.459  31.371  1.00  0.00    +0.000 H 
ATOM    117  H33 UNL A   1      37.146  32.445  33.555  1.00  0.00    +0.000 H 
ATOM    118  H34 UNL A   1      36.239  31.851  31.259  1.00  0.00    +0.000 H 
ATOM    119  H35 UNL A   1      39.884  29.908  31.729  1.00  0.00    +0.000 H 
ATOM    120  H36 UNL A   1      41.435  30.992  36.391  1.00  0.00    +0.000 H 
ATOM    121  H37 UNL A   1      43.542  29.638  35.869  1.00  0.00    +0.000 H 
ATOM    122  H38 UNL A   1      39.823  27.172  26.869  1.00  0.00    +0.000 H 
ATOM    123  H39 UNL A   1      37.942  28.883  27.175  1.00  0.00    +0.000 H 
ENDROOT
BRANCH   26   25
ATOM    112  H28 UNL A   1      35.039  32.985  27.548  1.00  0.00    +0.000 H 
ATOM    113  H29 UNL A   1      37.129  32.473  28.675  1.00  0.00    +0.000 H 
ATOM     83  C58 UNL A   1      35.766  29.407  28.693  1.00  0.00    +0.000 C 
ATOM     84  C59 UNL A   1      34.602  29.686  27.979  1.00  0.00    +0.000 C 
ATOM     22  C16 UNL A   1      34.307  31.005  27.619  1.00  0.00    +0.000 C 
ATOM     23  C17 UNL A   1      35.235  32.021  27.858  1.00  0.00    +0.000 C 
ATOM     24  C18 UNL A   1      36.432  31.728  28.518  1.00  0.00    +0.000 C 
ATOM     25  C19 UNL A   1      36.690  30.425  28.973  1.00  0.00    +0.000 C 
ATOM    124  H40 UNL A   1      35.948  28.444  29.018  1.00  0.00    +0.000 H 
ATOM    125  H41 UNL A   1      33.959  28.922  27.717  1.00  0.00    +0.000 H 
BRANCH   22   20
ATOM     20  C15 UNL A   1      33.017  31.357  26.981  1.00  0.00    +0.000 C 
ATOM     21  O2  UNL A   1      32.580  32.495  27.084  1.00  0.00    +0.000 O 
BRANCH   20   19
ATOM     19  N2  UNL A   1      32.302  30.396  26.306  1.00  0.00    +0.000 N 
ATOM    111  H27 UNL A   1      31.487  30.080  26.761  1.00  0.00    +0.000 H 
BRANCH   19   18
ATOM     18  C14 UNL A   1      32.576  29.781  25.019  1.00  0.00    +0.000 C 
ATOM    109  H25 UNL A   1      33.143  30.468  24.426  1.00  0.00    +0.000 H 
ATOM    110  H26 UNL A   1      33.115  28.875  25.205  1.00  0.00    +0.000 H 
BRANCH   18   17
ATOM     17  C13 UNL A   1      31.310  29.410  24.254  1.00  0.00    +0.000 C 
ATOM    107  H23 UNL A   1      30.729  28.757  24.872  1.00  0.00    +0.000 H 
ATOM    108  H24 UNL A   1      30.821  30.334  24.026  1.00  0.00    +0.000 H 
BRANCH   17   16
ATOM    105  H21 UNL A   1      31.413  29.438  22.136  1.00  0.00    +0.000 H 
ATOM    106  H22 UNL A   1      32.516  28.290  22.959  1.00  0.00    +0.000 H 
ATOM     16  C12 UNL A   1      31.534  28.710  22.911  1.00  0.00    +0.000 C 
BRANCH   16   15
ATOM    103  H19 UNL A   1      29.819  27.545  23.351  1.00  0.00    +0.000 H 
ATOM     15  C11 UNL A   1      30.592  27.542  22.612  1.00  0.00    +0.000 C 
ATOM    104  H20 UNL A   1      30.238  27.701  21.613  1.00  0.00    +0.000 H 
BRANCH   15   14
ATOM    102  H18 UNL A   1      32.154  26.247  23.152  1.00  0.00    +0.000 H 
ATOM    101  H17 UNL A   1      31.370  25.848  21.591  1.00  0.00    +0.000 H 
ATOM     14  C10 UNL A   1      31.237  26.149  22.609  1.00  0.00    +0.000 C 
BRANCH   14   13
ATOM     99  H15 UNL A   1      29.648  24.733  22.682  1.00  0.00    +0.000 H 
ATOM    100  H16 UNL A   1      31.107  24.253  23.549  1.00  0.00    +0.000 H 
ATOM     13  C9  UNL A   1      30.440  25.058  23.323  1.00  0.00    +0.000 C 
BRANCH   13   12
ATOM     98  H14 UNL A   1      29.005  25.998  24.543  1.00  0.00    +0.000 H 
ATOM     12  N1  UNL A   1      29.873  25.535  24.565  1.00  0.00    +0.000 N 
BRANCH   12    2
ATOM      1  O1  UNL A   1      30.484  24.319  26.411  1.00  0.00    +0.000 O 
ATOM      2  C1  UNL A   1      30.504  25.366  25.773  1.00  0.00    +0.000 C 
BRANCH    2    3
ATOM      3  C2  UNL A   1      31.240  26.597  26.266  1.00  0.00    +0.000 C 
ATOM     85  H1  UNL A   1      30.749  26.960  27.144  1.00  0.00    +0.000 H 
ATOM     86  H2  UNL A   1      31.225  27.319  25.475  1.00  0.00    +0.000 H 
BRANCH    3    4
ATOM      4  C3  UNL A   1      32.706  26.317  26.605  1.00  0.00    +0.000 C 
ATOM     87  H3  UNL A   1      32.730  25.431  27.205  1.00  0.00    +0.000 H 
ATOM     88  H4  UNL A   1      33.047  27.209  27.087  1.00  0.00    +0.000 H 
BRANCH    4    5
ATOM     89  H5  UNL A   1      34.653  26.405  25.775  1.00  0.00    +0.000 H 
ATOM     90  H6  UNL A   1      33.269  26.689  24.638  1.00  0.00    +0.000 H 
ATOM      5  C4  UNL A   1      33.683  26.108  25.435  1.00  0.00    +0.000 C 
BRANCH    5    6
ATOM     91  H7  UNL A   1      33.254  24.680  23.937  1.00  0.00    +0.000 H 
ATOM     92  H8  UNL A   1      33.478  24.055  25.630  1.00  0.00    +0.000 H 
ATOM      6  C5  UNL A   1      33.819  24.698  24.845  1.00  0.00    +0.000 C 
BRANCH    6    7
ATOM     97  H13 UNL A   1      36.910  21.896  22.550  1.00  0.00    +0.000 H 
ATOM      7  C6  UNL A   1      35.226  24.166  24.512  1.00  0.00    +0.000 C 
ATOM      8  C7  UNL A   1      35.375  23.192  23.344  1.00  0.00    +0.000 C 
ATOM      9  C8  UNL A   1      36.803  22.656  23.295  1.00  0.00    +0.000 C 
ATOM     10  S1  UNL A   1      37.152  22.015  24.948  1.00  0.00    +0.000 S 
ATOM     11  S2  UNL A   1      35.941  23.315  25.968  1.00  0.00    +0.000 S 
ATOM     93  H9  UNL A   1      35.731  25.063  24.221  1.00  0.00    +0.000 H 
ATOM     94  H10 UNL A   1      35.155  23.700  22.429  1.00  0.00    +0.000 H 
ATOM     95  H11 UNL A   1      34.696  22.376  23.476  1.00  0.00    +0.000 H 
ATOM     96  H12 UNL A   1      37.486  23.441  23.048  1.00  0.00    +0.000 H 
ENDBRANCH    6    7
ENDBRANCH    5    6
ENDBRANCH    4    5
ENDBRANCH    3    4
ENDBRANCH    2    3
ENDBRANCH   12    2
ENDBRANCH   13   12
ENDBRANCH   14   13
ENDBRANCH   15   14
ENDBRANCH   16   15
ENDBRANCH   17   16
ENDBRANCH   18   17
ENDBRANCH   19   18
ENDBRANCH   20   19
ENDBRANCH   22   20
ENDBRANCH   26   25
BRANCH   30   31
ATOM     33  F1  UNL A   1      43.577  27.852  26.824  1.00  0.00    +0.000 F 
ATOM     34  C26 UNL A   1      43.374  25.773  25.740  1.00  0.00    +0.000 C 
ATOM     35  F2  UNL A   1      44.224  26.186  24.791  1.00  0.00    +0.000 F 
ATOM     36  C27 UNL A   1      42.827  24.500  25.673  1.00  0.00    +0.000 C 
ATOM     37  F3  UNL A   1      43.162  23.677  24.671  1.00  0.00    +0.000 F 
ATOM     38  C28 UNL A   1      41.927  24.083  26.642  1.00  0.00    +0.000 C 
ATOM     39  F4  UNL A   1      41.407  22.849  26.585  1.00  0.00    +0.000 F 
ATOM     40  C29 UNL A   1      41.562  24.943  27.674  1.00  0.00    +0.000 C 
ATOM     41  F5  UNL A   1      40.681  24.516  28.590  1.00  0.00    +0.000 F 
ATOM     31  C24 UNL A   1      42.110  26.232  27.766  1.00  0.00    +0.000 C 
ATOM     32  C25 UNL A   1      43.032  26.627  26.786  1.00  0.00    +0.000 C 
ENDBRANCH   30   31
BRANCH   47   48
ATOM     48  C35 UNL A   1      44.795  28.067  34.195  1.00  0.00    +0.000 C 
ATOM     49  C36 UNL A   1      45.923  28.899  34.148  1.00  0.00    +0.000 C 
ATOM     50  F6  UNL A   1      45.948  29.954  33.318  1.00  0.00    +0.000 F 
ATOM     51  C37 UNL A   1      47.044  28.629  34.927  1.00  0.00    +0.000 C 
ATOM     52  F7  UNL A   1      48.127  29.414  34.835  1.00  0.00    +0.000 F 
ATOM     53  C38 UNL A   1      47.048  27.543  35.790  1.00  0.00    +0.000 C 
ATOM     54  F8  UNL A   1      48.125  27.288  36.543  1.00  0.00    +0.000 F 
ATOM     55  C39 UNL A   1      45.937  26.715  35.864  1.00  0.00    +0.000 C 
ATOM     56  F9  UNL A   1      45.935  25.671  36.703  1.00  0.00    +0.000 F 
ATOM     57  C40 UNL A   1      44.825  26.967  35.065  1.00  0.00    +0.000 C 
ATOM     58  F10 UNL A   1      43.769  26.143  35.151  1.00  0.00    +0.000 F 
ENDBRANCH   47   48
BRANCH   62   63
ATOM     65  F11 UNL A   1      40.338  33.870  34.563  1.00  0.00    +0.000 F 
ATOM     66  C46 UNL A   1      39.148  34.081  36.586  1.00  0.00    +0.000 C 
ATOM     67  F12 UNL A   1      39.570  35.347  36.702  1.00  0.00    +0.000 F 
ATOM     68  C47 UNL A   1      38.336  33.528  37.563  1.00  0.00    +0.000 C 
ATOM     69  F13 UNL A   1      37.957  34.264  38.617  1.00  0.00    +0.000 F 
ATOM     70  C48 UNL A   1      37.924  32.208  37.453  1.00  0.00    +0.000 C 
ATOM     71  F14 UNL A   1      37.130  31.674  38.390  1.00  0.00    +0.000 F 
ATOM     72  C49 UNL A   1      38.338  31.434  36.370  1.00  0.00    +0.000 C 
ATOM     73  F15 UNL A   1      37.937  30.158  36.296  1.00  0.00    +0.000 F 
ATOM     63  C44 UNL A   1      39.153  31.975  35.365  1.00  0.00    +0.000 C 
ATOM     64  C45 UNL A   1      39.541  33.316  35.489  1.00  0.00    +0.000 C 
ENDBRANCH   62   63
TORSDOF 19
ENDMDL
MODEL 10
REMARK VINA RESULT:      -9.2     24.704     30.895
ROOT
ATOM     26  C20 UNL A   1      40.072  28.867  29.398  1.00  0.00    +0.000 C 
ATOM     27  C21 UNL A   1      40.943  29.795  30.196  1.00  0.00    +0.000 C 
ATOM     28  N3  UNL A   1      42.206  29.672  30.520  1.00  0.00    +0.000 N 
ATOM     29  C22 UNL A   1      42.532  30.830  31.215  1.00  0.00    +0.000 C 
ATOM     30  C23 UNL A   1      43.709  31.159  31.800  1.00  0.00    +0.000 C 
ATOM     42  C30 UNL A   1      44.874  30.314  31.817  1.00  0.00    +0.000 C 
ATOM     43  C31 UNL A   1      46.084  30.526  32.455  1.00  0.00    +0.000 C 
ATOM     44  C32 UNL A   1      46.931  29.454  32.153  1.00  0.00    +0.000 C 
ATOM     45  C33 UNL A   1      46.234  28.554  31.364  1.00  0.00    +0.000 C 
ATOM     46  N4  UNL A   1      44.974  29.096  31.164  1.00  0.00    +0.000 N 
ATOM     47  C34 UNL A   1      46.681  27.295  30.828  1.00  0.00    +0.000 C 
ATOM     59  C41 UNL A   1      45.928  26.461  30.071  1.00  0.00    +0.000 C 
ATOM     60  N5  UNL A   1      44.610  26.607  29.662  1.00  0.00    +0.000 N 
ATOM     61  C42 UNL A   1      44.336  25.546  28.944  1.00  0.00    +0.000 C 
ATOM     62  C43 UNL A   1      43.047  25.161  28.271  1.00  0.00    +0.000 C 
ATOM     74  C50 UNL A   1      41.972  25.962  28.398  1.00  0.00    +0.000 C 
ATOM     75  C51 UNL A   1      40.659  25.717  27.808  1.00  0.00    +0.000 C 
ATOM     76  C52 UNL A   1      39.848  26.747  28.099  1.00  0.00    +0.000 C 
ATOM     77  C53 UNL A   1      40.575  27.710  28.927  1.00  0.00    +0.000 C 
ATOM     78  N6  UNL A   1      41.823  27.155  29.063  1.00  0.00    +0.000 N 
ATOM     79  C54 UNL A   1      45.465  24.617  28.792  1.00  0.00    +0.000 C 
ATOM     80  C55 UNL A   1      46.397  25.202  29.531  1.00  0.00    +0.000 C 
ATOM     81  C56 UNL A   1      41.348  31.661  31.232  1.00  0.00    +0.000 C 
ATOM     82  C57 UNL A   1      40.320  31.040  30.671  1.00  0.00    +0.000 C 
ATOM    114  H30 UNL A   1      46.321  31.335  33.049  1.00  0.00    +0.000 H 
ATOM    115  H31 UNL A   1      47.909  29.351  32.466  1.00  0.00    +0.000 H 
ATOM    116  H32 UNL A   1      44.256  28.676  30.635  1.00  0.00    +0.000 H 
ATOM    117  H33 UNL A   1      40.397  24.886  27.255  1.00  0.00    +0.000 H 
ATOM    118  H34 UNL A   1      38.868  26.843  27.789  1.00  0.00    +0.000 H 
ATOM    119  H35 UNL A   1      42.544  27.571  29.588  1.00  0.00    +0.000 H 
ATOM    120  H36 UNL A   1      45.519  23.740  28.252  1.00  0.00    +0.000 H 
ATOM    121  H37 UNL A   1      47.337  24.811  29.699  1.00  0.00    +0.000 H 
ATOM    122  H38 UNL A   1      41.310  32.613  31.629  1.00  0.00    +0.000 H 
ATOM    123  H39 UNL A   1      39.339  31.350  30.589  1.00  0.00    +0.000 H 
ENDROOT
BRANCH   26   25
ATOM    112  H28 UNL A   1      35.589  29.456  30.376  1.00  0.00    +0.000 H 
ATOM    113  H29 UNL A   1      37.885  28.969  31.001  1.00  0.00    +0.000 H 
ATOM     83  C58 UNL A   1      38.368  29.658  27.752  1.00  0.00    +0.000 C 
ATOM     84  C59 UNL A   1      37.063  30.011  27.413  1.00  0.00    +0.000 C 
ATOM     22  C16 UNL A   1      36.038  29.874  28.354  1.00  0.00    +0.000 C 
ATOM     23  C17 UNL A   1      36.339  29.509  29.669  1.00  0.00    +0.000 C 
ATOM     24  C18 UNL A   1      37.658  29.216  30.025  1.00  0.00    +0.000 C 
ATOM     25  C19 UNL A   1      38.677  29.254  29.060  1.00  0.00    +0.000 C 
ATOM    124  H40 UNL A   1      39.110  29.694  27.037  1.00  0.00    +0.000 H 
ATOM    125  H41 UNL A   1      36.853  30.372  26.470  1.00  0.00    +0.000 H 
BRANCH   22   20
ATOM     20  C15 UNL A   1      34.622  30.110  27.990  1.00  0.00    +0.000 C 
ATOM     21  O2  UNL A   1      33.995  29.243  27.395  1.00  0.00    +0.000 O 
BRANCH   20   19
ATOM     19  N2  UNL A   1      34.029  31.314  28.289  1.00  0.00    +0.000 N 
ATOM    111  H27 UNL A   1      33.305  31.274  28.956  1.00  0.00    +0.000 H 
BRANCH   19   18
ATOM     18  C14 UNL A   1      34.319  32.637  27.762  1.00  0.00    +0.000 C 
ATOM    109  H25 UNL A   1      34.757  32.530  26.791  1.00  0.00    +0.000 H 
ATOM    110  H26 UNL A   1      33.396  33.177  27.727  1.00  0.00    +0.000 H 
BRANCH   18   17
ATOM     17  C13 UNL A   1      35.279  33.431  28.642  1.00  0.00    +0.000 C 
ATOM    107  H23 UNL A   1      34.930  34.443  28.682  1.00  0.00    +0.000 H 
ATOM    108  H24 UNL A   1      35.283  32.940  29.593  1.00  0.00    +0.000 H 
BRANCH   17   16
ATOM    105  H21 UNL A   1      36.870  32.653  27.476  1.00  0.00    +0.000 H 
ATOM    106  H22 UNL A   1      36.895  34.424  27.754  1.00  0.00    +0.000 H 
ATOM     16  C12 UNL A   1      36.735  33.453  28.174  1.00  0.00    +0.000 C 
BRANCH   16   15
ATOM    103  H19 UNL A   1      37.269  33.121  30.198  1.00  0.00    +0.000 H 
ATOM     15  C11 UNL A   1      37.784  33.296  29.278  1.00  0.00    +0.000 C 
ATOM    104  H20 UNL A   1      38.412  32.485  28.970  1.00  0.00    +0.000 H 
BRANCH   15   14
ATOM    102  H18 UNL A   1      38.127  35.368  29.310  1.00  0.00    +0.000 H 
ATOM    101  H17 UNL A   1      39.541  34.393  28.803  1.00  0.00    +0.000 H 
ATOM     14  C10 UNL A   1      38.722  34.495  29.482  1.00  0.00    +0.000 C 
BRANCH   14   13
ATOM     99  H15 UNL A   1      40.070  33.924  31.028  1.00  0.00    +0.000 H 
ATOM    100  H16 UNL A   1      39.669  35.641  30.993  1.00  0.00    +0.000 H 
ATOM     13  C9  UNL A   1      39.292  34.645  30.891  1.00  0.00    +0.000 C 
BRANCH   13   12
ATOM     98  H14 UNL A   1      37.333  34.514  31.649  1.00  0.00    +0.000 H 
ATOM     12  N1  UNL A   1      38.280  34.441  31.904  1.00  0.00    +0.000 N 
BRANCH   12    2
ATOM      1  O1  UNL A   1      39.073  34.965  33.991  1.00  0.00    +0.000 O 
ATOM      2  C1  UNL A   1      38.595  34.151  33.209  1.00  0.00    +0.000 C 
BRANCH    2    3
ATOM      3  C2  UNL A   1      38.301  32.720  33.614  1.00  0.00    +0.000 C 
ATOM     85  H1  UNL A   1      37.889  32.722  34.601  1.00  0.00    +0.000 H 
ATOM     86  H2  UNL A   1      39.223  32.177  33.569  1.00  0.00    +0.000 H 
BRANCH    3    4
ATOM      4  C3  UNL A   1      37.314  32.026  32.672  1.00  0.00    +0.000 C 
ATOM     87  H3  UNL A   1      37.535  30.979  32.692  1.00  0.00    +0.000 H 
ATOM     88  H4  UNL A   1      37.457  32.509  31.727  1.00  0.00    +0.000 H 
BRANCH    4    5
ATOM     89  H5  UNL A   1      35.726  32.717  33.893  1.00  0.00    +0.000 H 
ATOM     90  H6  UNL A   1      35.435  31.185  32.966  1.00  0.00    +0.000 H 
ATOM      5  C4  UNL A   1      35.812  32.186  32.967  1.00  0.00    +0.000 C 
BRANCH    5    6
ATOM     91  H7  UNL A   1      34.308  32.191  31.484  1.00  0.00    +0.000 H 
ATOM     92  H8  UNL A   1      35.653  33.400  31.296  1.00  0.00    +0.000 H 
ATOM      6  C5  UNL A   1      34.944  32.921  31.938  1.00  0.00    +0.000 C 
BRANCH    6    7
ATOM     97  H13 UNL A   1      32.504  36.972  31.382  1.00  0.00    +0.000 H 
ATOM      7  C6  UNL A   1      34.039  34.072  32.418  1.00  0.00    +0.000 C 
ATOM      8  C7  UNL A   1      33.515  35.063  31.379  1.00  0.00    +0.000 C 
ATOM      9  C8  UNL A   1      32.793  36.213  32.078  1.00  0.00    +0.000 C 
ATOM     10  S1  UNL A   1      33.948  36.851  33.313  1.00  0.00    +0.000 S 
ATOM     11  S2  UNL A   1      34.910  35.078  33.676  1.00  0.00    +0.000 S 
ATOM     93  H9  UNL A   1      33.185  33.538  32.779  1.00  0.00    +0.000 H 
ATOM     94  H10 UNL A   1      32.834  34.563  30.723  1.00  0.00    +0.000 H 
ATOM     95  H11 UNL A   1      34.338  35.453  30.817  1.00  0.00    +0.000 H 
ATOM     96  H12 UNL A   1      31.901  35.858  32.551  1.00  0.00    +0.000 H 
ENDBRANCH    6    7
ENDBRANCH    5    6
ENDBRANCH    4    5
ENDBRANCH    3    4
ENDBRANCH    2    3
ENDBRANCH   12    2
ENDBRANCH   13   12
ENDBRANCH   14   13
ENDBRANCH   15   14
ENDBRANCH   16   15
ENDBRANCH   17   16
ENDBRANCH   18   17
ENDBRANCH   19   18
ENDBRANCH   20   19
ENDBRANCH   22   20
ENDBRANCH   26   25
BRANCH   30   31
ATOM     33  F1  UNL A   1      44.583  33.566  30.508  1.00  0.00    +0.000 F 
ATOM     34  C26 UNL A   1      44.257  34.881  32.432  1.00  0.00    +0.000 C 
ATOM     35  F2  UNL A   1      44.691  35.960  31.766  1.00  0.00    +0.000 F 
ATOM     36  C27 UNL A   1      43.872  34.995  33.759  1.00  0.00    +0.000 C 
ATOM     37  F3  UNL A   1      43.916  36.186  34.371  1.00  0.00    +0.000 F 
ATOM     38  C28 UNL A   1      43.448  33.873  34.454  1.00  0.00    +0.000 C 
ATOM     39  F4  UNL A   1      43.064  33.984  35.734  1.00  0.00    +0.000 F 
ATOM     40  C29 UNL A   1      43.419  32.631  33.826  1.00  0.00    +0.000 C 
ATOM     41  F5  UNL A   1      43.015  31.561  34.527  1.00  0.00    +0.000 F 
ATOM     31  C24 UNL A   1      43.796  32.494  32.481  1.00  0.00    +0.000 C 
ATOM     32  C25 UNL A   1      44.205  33.645  31.792  1.00  0.00    +0.000 C 
ENDBRANCH   30   31
BRANCH   47   48
ATOM     48  C35 UNL A   1      48.082  26.859  31.146  1.00  0.00    +0.000 C 
ATOM     49  C36 UNL A   1      48.359  26.007  32.224  1.00  0.00    +0.000 C 
ATOM     50  F6  UNL A   1      47.370  25.601  33.035  1.00  0.00    +0.000 F 
ATOM     51  C37 UNL A   1      49.663  25.599  32.495  1.00  0.00    +0.000 C 
ATOM     52  F7  UNL A   1      49.911  24.818  33.556  1.00  0.00    +0.000 F 
ATOM     53  C38 UNL A   1      50.706  26.008  31.677  1.00  0.00    +0.000 C 
ATOM     54  F8  UNL A   1      51.958  25.609  31.936  1.00  0.00    +0.000 F 
ATOM     55  C39 UNL A   1      50.450  26.838  30.596  1.00  0.00    +0.000 C 
ATOM     56  F9  UNL A   1      51.455  27.226  29.798  1.00  0.00    +0.000 F 
ATOM     57  C40 UNL A   1      49.152  27.270  30.338  1.00  0.00    +0.000 C 
ATOM     58  F10 UNL A   1      48.939  28.081  29.291  1.00  0.00    +0.000 F 
ENDBRANCH   47   48
BRANCH   62   63
ATOM     65  F11 UNL A   1      43.593  25.004  25.497  1.00  0.00    +0.000 F 
ATOM     66  C46 UNL A   1      43.109  22.702  25.382  1.00  0.00    +0.000 C 
ATOM     67  F12 UNL A   1      43.346  22.717  24.063  1.00  0.00    +0.000 F 
ATOM     68  C47 UNL A   1      42.724  21.524  26.004  1.00  0.00    +0.000 C 
ATOM     69  F13 UNL A   1      42.607  20.395  25.291  1.00  0.00    +0.000 F 
ATOM     70  C48 UNL A   1      42.452  21.518  27.365  1.00  0.00    +0.000 C 
ATOM     71  F14 UNL A   1      42.092  20.380  27.971  1.00  0.00    +0.000 F 
ATOM     72  C49 UNL A   1      42.551  22.697  28.102  1.00  0.00    +0.000 C 
ATOM     73  F15 UNL A   1      42.268  22.666  29.412  1.00  0.00    +0.000 F 
ATOM     63  C44 UNL A   1      42.945  23.899  27.495  1.00  0.00    +0.000 C 
ATOM     64  C45 UNL A   1      43.233  23.875  26.124  1.00  0.00    +0.000 C 
ENDBRANCH   62   63
TORSDOF 19
ENDMDL
