MODEL 1
REMARK VINA RESULT:     -11.8      0.000      0.000
ROOT
ATOM     33  C25 UNL A   1      52.846  20.220  11.579  1.00  0.00    +0.000 C 
ATOM     34  C26 UNL A   1      52.654  20.780  12.957  1.00  0.00    +0.000 C 
ATOM     35  N5  UNL A   1      53.498  20.823  13.957  1.00  0.00    +0.000 N 
ATOM     36  C27 UNL A   1      52.833  21.474  14.986  1.00  0.00    +0.000 C 
ATOM     37  C28 UNL A   1      53.278  21.745  16.237  1.00  0.00    +0.000 C 
ATOM     49  C35 UNL A   1      54.578  21.374  16.732  1.00  0.00    +0.000 C 
ATOM     50  C36 UNL A   1      55.103  21.551  18.001  1.00  0.00    +0.000 C 
ATOM     51  C37 UNL A   1      56.423  21.089  17.998  1.00  0.00    +0.000 C 
ATOM     52  C38 UNL A   1      56.706  20.577  16.741  1.00  0.00    +0.000 C 
ATOM     53  N6  UNL A   1      55.565  20.758  15.975  1.00  0.00    +0.000 N 
ATOM     54  C39 UNL A   1      57.929  19.973  16.273  1.00  0.00    +0.000 C 
ATOM     66  C46 UNL A   1      58.124  19.468  15.031  1.00  0.00    +0.000 C 
ATOM     67  N7  UNL A   1      57.235  19.409  13.967  1.00  0.00    +0.000 N 
ATOM     68  C47 UNL A   1      57.884  18.830  12.987  1.00  0.00    +0.000 C 
ATOM     69  C48 UNL A   1      57.402  18.496  11.606  1.00  0.00    +0.000 C 
ATOM     81  C55 UNL A   1      56.124  18.755  11.274  1.00  0.00    +0.000 C 
ATOM     82  C56 UNL A   1      55.528  18.500   9.965  1.00  0.00    +0.000 C 
ATOM     83  C57 UNL A   1      54.290  19.012   9.946  1.00  0.00    +0.000 C 
ATOM     84  C58 UNL A   1      53.987  19.584  11.258  1.00  0.00    +0.000 C 
ATOM     85  N8  UNL A   1      55.113  19.332  12.002  1.00  0.00    +0.000 N 
ATOM     86  C59 UNL A   1      59.273  18.475  13.310  1.00  0.00    +0.000 C 
ATOM     87  C60 UNL A   1      59.360  18.863  14.576  1.00  0.00    +0.000 C 
ATOM     88  C61 UNL A   1      51.523  21.831  14.482  1.00  0.00    +0.000 C 
ATOM     89  C62 UNL A   1      51.346  21.384  13.247  1.00  0.00    +0.000 C 
ATOM    117  H26 UNL A   1      54.605  21.955  18.810  1.00  0.00    +0.000 H 
ATOM    118  H27 UNL A   1      57.076  21.123  18.795  1.00  0.00    +0.000 H 
ATOM    119  H28 UNL A   1      55.468  20.489  15.032  1.00  0.00    +0.000 H 
ATOM    120  H29 UNL A   1      55.986  18.005   9.184  1.00  0.00    +0.000 H 
ATOM    121  H30 UNL A   1      53.651  19.005   9.135  1.00  0.00    +0.000 H 
ATOM    122  H31 UNL A   1      55.188  19.543  12.961  1.00  0.00    +0.000 H 
ATOM    123  H32 UNL A   1      59.990  18.038  12.711  1.00  0.00    +0.000 H 
ATOM    124  H33 UNL A   1      60.203  18.750  15.161  1.00  0.00    +0.000 H 
ATOM    125  H34 UNL A   1      50.818  22.364  15.016  1.00  0.00    +0.000 H 
ATOM    126  H35 UNL A   1      50.509  21.444  12.646  1.00  0.00    +0.000 H 
ENDROOT
BRANCH   33   32
ATOM    127  H36 UNL A   1      50.910  18.496  10.852  1.00  0.00    +0.000 H 
ATOM     32  C24 UNL A   1      51.800  20.391  10.542  1.00  0.00    +0.000 C 
ATOM    115  H24 UNL A   1      50.569  22.688   8.425  1.00  0.00    +0.000 H 
ATOM    116  H25 UNL A   1      52.400  22.339   9.976  1.00  0.00    +0.000 H 
ATOM     90  C63 UNL A   1      50.864  19.371  10.306  1.00  0.00    +0.000 C 
ATOM     91  C64 UNL A   1      49.874  19.535   9.338  1.00  0.00    +0.000 C 
ATOM     29  C21 UNL A   1      49.794  20.731   8.620  1.00  0.00    +0.000 C 
ATOM     30  C22 UNL A   1      50.678  21.777   8.900  1.00  0.00    +0.000 C 
ATOM     31  C23 UNL A   1      51.705  21.592   9.822  1.00  0.00    +0.000 C 
ATOM    128  H37 UNL A   1      49.201  18.775   9.152  1.00  0.00    +0.000 H 
BRANCH   29    2
ATOM      1  O1  UNL A   1      48.465  21.993   7.159  1.00  0.00    +0.000 O 
ATOM      2  C1  UNL A   1      48.734  20.879   7.600  1.00  0.00    +0.000 C 
BRANCH    2    3
ATOM      3  N1  UNL A   1      48.044  19.779   7.157  1.00  0.00    +0.000 N 
ATOM     92  H1  UNL A   1      47.355  19.439   7.771  1.00  0.00    +0.000 H 
BRANCH    3    4
ATOM      4  C2  UNL A   1      48.186  19.045   5.911  1.00  0.00    +0.000 C 
ATOM     93  H2  UNL A   1      49.025  19.437   5.376  1.00  0.00    +0.000 H 
ATOM     94  H3  UNL A   1      47.278  19.163   5.359  1.00  0.00    +0.000 H 
BRANCH    4    5
ATOM      5  C3  UNL A   1      48.402  17.552   6.139  1.00  0.00    +0.000 C 
ATOM     95  H4  UNL A   1      48.722  17.414   7.152  1.00  0.00    +0.000 H 
ATOM     96  H5  UNL A   1      49.129  17.243   5.417  1.00  0.00    +0.000 H 
BRANCH    5    6
ATOM     97  H6  UNL A   1      46.959  16.158   6.819  1.00  0.00    +0.000 H 
ATOM     98  H7  UNL A   1      47.420  16.028   5.092  1.00  0.00    +0.000 H 
ATOM      6  C4  UNL A   1      47.171  16.675   5.907  1.00  0.00    +0.000 C 
BRANCH    6    7
ATOM     99  H8  UNL A   1      46.067  18.464   5.632  1.00  0.00    +0.000 H 
ATOM    100  H9  UNL A   1      45.111  17.012   6.076  1.00  0.00    +0.000 H 
ATOM      7  C5  UNL A   1      45.902  17.418   5.480  1.00  0.00    +0.000 C 
BRANCH    7    8
ATOM    101  H10 UNL A   1      44.417  17.369   3.963  1.00  0.00    +0.000 H 
ATOM    102  H11 UNL A   1      45.778  16.225   3.759  1.00  0.00    +0.000 H 
ATOM      8  C6  UNL A   1      45.474  17.216   4.022  1.00  0.00    +0.000 C 
BRANCH    8    9
ATOM      9  C7  UNL A   1      46.145  18.146   3.014  1.00  0.00    +0.000 C 
ATOM    103  H12 UNL A   1      46.536  17.559   2.209  1.00  0.00    +0.000 H 
ATOM    104  H13 UNL A   1      46.925  18.675   3.521  1.00  0.00    +0.000 H 
BRANCH    9   10
ATOM    105  H14 UNL A   1      45.322  19.324   1.515  1.00  0.00    +0.000 H 
ATOM     10  N2  UNL A   1      45.218  19.125   2.474  1.00  0.00    +0.000 N 
BRANCH   10   11
ATOM     11  C8  UNL A   1      44.218  19.808   3.115  1.00  0.00    +0.000 C 
ATOM     12  O2  UNL A   1      44.493  20.664   3.950  1.00  0.00    +0.000 O 
BRANCH   11   13
ATOM    106  H15 UNL A   1      42.472  18.481   4.615  1.00  0.00    +0.000 H 
ATOM    107  H16 UNL A   1      40.138  18.009   4.140  1.00  0.00    +0.000 H 
ATOM    108  H17 UNL A   1      39.144  18.771   2.069  1.00  0.00    +0.000 H 
ATOM     13  C9  UNL A   1      42.804  19.515   2.803  1.00  0.00    +0.000 C 
ATOM     14  C10 UNL A   1      42.046  18.802   3.732  1.00  0.00    +0.000 C 
ATOM     15  C11 UNL A   1      40.710  18.529   3.457  1.00  0.00    +0.000 C 
ATOM     16  C12 UNL A   1      40.142  18.959   2.253  1.00  0.00    +0.000 C 
ATOM     17  C13 UNL A   1      40.901  19.638   1.290  1.00  0.00    +0.000 C 
ATOM    114  H23 UNL A   1      42.826  20.402   0.886  1.00  0.00    +0.000 H 
ATOM     28  C20 UNL A   1      42.243  19.909   1.580  1.00  0.00    +0.000 C 
BRANCH   17   18
ATOM     18  N3  UNL A   1      40.365  20.127   0.077  1.00  0.00    +0.000 N 
ATOM    109  H18 UNL A   1      40.862  19.885  -0.738  1.00  0.00    +0.000 H 
BRANCH   18   19
ATOM    110  H19 UNL A   1      40.286  22.591  -0.829  1.00  0.00    +0.000 H 
ATOM    111  H20 UNL A   1      38.324  23.911  -1.365  1.00  0.00    +0.000 H 
ATOM    112  H21 UNL A   1      35.853  20.793   0.015  1.00  0.00    +0.000 H 
ATOM    113  H22 UNL A   1      37.820  19.476   0.541  1.00  0.00    +0.000 H 
ATOM     19  C14 UNL A   1      39.215  20.915  -0.120  1.00  0.00    +0.000 C 
ATOM     20  C15 UNL A   1      39.345  22.201  -0.659  1.00  0.00    +0.000 C 
ATOM     21  C16 UNL A   1      38.217  22.964  -0.968  1.00  0.00    +0.000 C 
ATOM     22  C17 UNL A   1      36.940  22.441  -0.737  1.00  0.00    +0.000 C 
ATOM     26  C18 UNL A   1      36.794  21.171  -0.175  1.00  0.00    +0.000 C 
ATOM     27  C19 UNL A   1      37.930  20.416   0.128  1.00  0.00    +0.000 C 
BRANCH   22   23
ATOM     25  O4  UNL A   1      34.556  22.975  -0.505  1.00  0.00    +0.000 O 
ATOM     23  N4  UNL A   1      35.772  23.205  -1.106  1.00  0.00    +0.000 N 
ATOM     24  O3  UNL A   1      35.825  24.051  -1.975  1.00  0.00    +0.000 O 
ENDBRANCH   22   23
ENDBRANCH   18   19
ENDBRANCH   17   18
ENDBRANCH   11   13
ENDBRANCH   10   11
ENDBRANCH    9   10
ENDBRANCH    8    9
ENDBRANCH    7    8
ENDBRANCH    6    7
ENDBRANCH    5    6
ENDBRANCH    4    5
ENDBRANCH    3    4
ENDBRANCH    2    3
ENDBRANCH   29    2
ENDBRANCH   33   32
BRANCH   37   38
ATOM     38  C29 UNL A   1      52.360  22.506  17.149  1.00  0.00    +0.000 C 
ATOM     39  C30 UNL A   1      51.570  21.860  18.112  1.00  0.00    +0.000 C 
ATOM     40  F1  UNL A   1      51.595  20.522  18.218  1.00  0.00    +0.000 F 
ATOM     41  C31 UNL A   1      50.717  22.583  18.942  1.00  0.00    +0.000 C 
ATOM     42  F2  UNL A   1      49.932  21.939  19.818  1.00  0.00    +0.000 F 
ATOM     43  C32 UNL A   1      50.662  23.966  18.851  1.00  0.00    +0.000 C 
ATOM     44  F3  UNL A   1      49.839  24.659  19.649  1.00  0.00    +0.000 F 
ATOM     45  C33 UNL A   1      51.453  24.627  17.925  1.00  0.00    +0.000 C 
ATOM     46  F4  UNL A   1      51.411  25.965  17.843  1.00  0.00    +0.000 F 
ATOM     47  C34 UNL A   1      52.287  23.905  17.075  1.00  0.00    +0.000 C 
ATOM     48  F5  UNL A   1      53.027  24.574  16.178  1.00  0.00    +0.000 F 
ENDBRANCH   37   38
BRANCH   54   55
ATOM     65  F10 UNL A   1      59.613  22.165  16.919  1.00  0.00    +0.000 F 
ATOM     55  C40 UNL A   1      59.066  19.872  17.245  1.00  0.00    +0.000 C 
ATOM     56  C41 UNL A   1      59.389  18.661  17.872  1.00  0.00    +0.000 C 
ATOM     57  F6  UNL A   1      58.628  17.574  17.674  1.00  0.00    +0.000 F 
ATOM     58  C42 UNL A   1      60.486  18.570  18.725  1.00  0.00    +0.000 C 
ATOM     59  F7  UNL A   1      60.763  17.409  19.336  1.00  0.00    +0.000 F 
ATOM     60  C43 UNL A   1      61.291  19.678  18.946  1.00  0.00    +0.000 C 
ATOM     61  F8  UNL A   1      62.355  19.584  19.755  1.00  0.00    +0.000 F 
ATOM     62  C44 UNL A   1      60.990  20.885  18.332  1.00  0.00    +0.000 C 
ATOM     63  F9  UNL A   1      61.773  21.954  18.536  1.00  0.00    +0.000 F 
ATOM     64  C45 UNL A   1      59.881  20.985  17.498  1.00  0.00    +0.000 C 
ENDBRANCH   54   55
BRANCH   69   70
ATOM     70  C49 UNL A   1      58.298  17.885  10.593  1.00  0.00    +0.000 C 
ATOM     71  C50 UNL A   1      59.046  18.682   9.719  1.00  0.00    +0.000 C 
ATOM     72  F11 UNL A   1      58.898  20.014   9.736  1.00  0.00    +0.000 F 
ATOM     73  C51 UNL A   1      59.942  18.111   8.817  1.00  0.00    +0.000 C 
ATOM     74  F12 UNL A   1      60.635  18.894   7.979  1.00  0.00    +0.000 F 
ATOM     75  C52 UNL A   1      60.120  16.736   8.788  1.00  0.00    +0.000 C 
ATOM     76  F13 UNL A   1      60.997  16.190   7.936  1.00  0.00    +0.000 F 
ATOM     77  C53 UNL A   1      59.388  15.927   9.645  1.00  0.00    +0.000 C 
ATOM     78  F14 UNL A   1      59.570  14.599   9.633  1.00  0.00    +0.000 F 
ATOM     79  C54 UNL A   1      58.474  16.495  10.530  1.00  0.00    +0.000 C 
ATOM     80  F15 UNL A   1      57.787  15.692  11.355  1.00  0.00    +0.000 F 
ENDBRANCH   69   70
TORSDOF 18
ENDMDL
MODEL 2
REMARK VINA RESULT:     -11.8      0.219      2.030
ROOT
ATOM     33  C25 UNL A   1      52.871  20.261  11.582  1.00  0.00    +0.000 C 
ATOM     34  C26 UNL A   1      52.690  20.840  12.954  1.00  0.00    +0.000 C 
ATOM     35  N5  UNL A   1      53.544  20.900  13.945  1.00  0.00    +0.000 N 
ATOM     36  C27 UNL A   1      52.886  21.564  14.971  1.00  0.00    +0.000 C 
ATOM     37  C28 UNL A   1      53.342  21.855  16.214  1.00  0.00    +0.000 C 
ATOM     49  C35 UNL A   1      54.648  21.495  16.702  1.00  0.00    +0.000 C 
ATOM     50  C36 UNL A   1      55.184  21.692  17.963  1.00  0.00    +0.000 C 
ATOM     51  C37 UNL A   1      56.506  21.234  17.953  1.00  0.00    +0.000 C 
ATOM     52  C38 UNL A   1      56.778  20.705  16.702  1.00  0.00    +0.000 C 
ATOM     53  N6  UNL A   1      55.630  20.871  15.944  1.00  0.00    +0.000 N 
ATOM     54  C39 UNL A   1      57.999  20.098  16.231  1.00  0.00    +0.000 C 
ATOM     66  C46 UNL A   1      58.184  19.576  14.994  1.00  0.00    +0.000 C 
ATOM     67  N7  UNL A   1      57.285  19.498  13.940  1.00  0.00    +0.000 N 
ATOM     68  C47 UNL A   1      57.927  18.908  12.962  1.00  0.00    +0.000 C 
ATOM     69  C48 UNL A   1      57.432  18.552  11.591  1.00  0.00    +0.000 C 
ATOM     81  C55 UNL A   1      56.151  18.802  11.267  1.00  0.00    +0.000 C 
ATOM     82  C56 UNL A   1      55.544  18.527   9.968  1.00  0.00    +0.000 C 
ATOM     83  C57 UNL A   1      54.303  19.034   9.953  1.00  0.00    +0.000 C 
ATOM     84  C58 UNL A   1      54.012  19.624  11.259  1.00  0.00    +0.000 C 
ATOM     85  N8  UNL A   1      55.145  19.386  11.996  1.00  0.00    +0.000 N 
ATOM     86  C59 UNL A   1      59.320  18.561  13.277  1.00  0.00    +0.000 C 
ATOM     87  C60 UNL A   1      59.418  18.968  14.536  1.00  0.00    +0.000 C 
ATOM     88  C61 UNL A   1      51.570  21.910  14.474  1.00  0.00    +0.000 C 
ATOM     89  C62 UNL A   1      51.383  21.444  13.247  1.00  0.00    +0.000 C 
ATOM    117  H26 UNL A   1      54.693  22.106  18.770  1.00  0.00    +0.000 H 
ATOM    118  H27 UNL A   1      57.166  21.282  18.744  1.00  0.00    +0.000 H 
ATOM    119  H28 UNL A   1      55.525  20.588  15.006  1.00  0.00    +0.000 H 
ATOM    120  H29 UNL A   1      55.996  18.022   9.190  1.00  0.00    +0.000 H 
ATOM    121  H30 UNL A   1      53.657  19.013   9.148  1.00  0.00    +0.000 H 
ATOM    122  H31 UNL A   1      55.228  19.612  12.952  1.00  0.00    +0.000 H 
ATOM    123  H32 UNL A   1      60.033  18.118  12.677  1.00  0.00    +0.000 H 
ATOM    124  H33 UNL A   1      60.266  18.866  15.115  1.00  0.00    +0.000 H 
ATOM    125  H34 UNL A   1      50.869  22.448  15.007  1.00  0.00    +0.000 H 
ATOM    126  H35 UNL A   1      50.541  21.493  12.654  1.00  0.00    +0.000 H 
ENDROOT
BRANCH   33   32
ATOM    127  H36 UNL A   1      50.955  18.507  10.875  1.00  0.00    +0.000 H 
ATOM     32  C24 UNL A   1      51.815  20.413  10.552  1.00  0.00    +0.000 C 
ATOM    115  H24 UNL A   1      50.534  22.686   8.439  1.00  0.00    +0.000 H 
ATOM    116  H25 UNL A   1      52.382  22.369   9.977  1.00  0.00    +0.000 H 
ATOM     90  C63 UNL A   1      50.892  19.379  10.327  1.00  0.00    +0.000 C 
ATOM     91  C64 UNL A   1      49.892  19.526   9.366  1.00  0.00    +0.000 C 
ATOM     29  C21 UNL A   1      49.789  20.719   8.645  1.00  0.00    +0.000 C 
ATOM     30  C22 UNL A   1      50.660  21.779   8.916  1.00  0.00    +0.000 C 
ATOM     31  C23 UNL A   1      51.697  21.611   9.831  1.00  0.00    +0.000 C 
ATOM    128  H37 UNL A   1      49.229  18.755   9.186  1.00  0.00    +0.000 H 
BRANCH   29    2
ATOM      1  O1  UNL A   1      48.432  21.957   7.190  1.00  0.00    +0.000 O 
ATOM      2  C1  UNL A   1      48.719  20.848   7.633  1.00  0.00    +0.000 C 
BRANCH    2    3
ATOM      3  N1  UNL A   1      48.041  19.738   7.200  1.00  0.00    +0.000 N 
ATOM     92  H1  UNL A   1      47.303  19.442   7.780  1.00  0.00    +0.000 H 
BRANCH    3    4
ATOM      4  C2  UNL A   1      48.257  18.935   6.008  1.00  0.00    +0.000 C 
ATOM     93  H2  UNL A   1      49.133  19.292   5.508  1.00  0.00    +0.000 H 
ATOM     94  H3  UNL A   1      47.388  19.027   5.392  1.00  0.00    +0.000 H 
BRANCH    4    5
ATOM      5  C3  UNL A   1      48.444  17.456   6.331  1.00  0.00    +0.000 C 
ATOM     95  H4  UNL A   1      48.617  17.366   7.384  1.00  0.00    +0.000 H 
ATOM     96  H5  UNL A   1      49.267  17.123   5.733  1.00  0.00    +0.000 H 
BRANCH    5    6
ATOM     97  H6  UNL A   1      47.055  15.927   6.806  1.00  0.00    +0.000 H 
ATOM     98  H7  UNL A   1      47.557  16.023   5.087  1.00  0.00    +0.000 H 
ATOM      6  C4  UNL A   1      47.261  16.557   5.966  1.00  0.00    +0.000 C 
BRANCH    6    7
ATOM     99  H8  UNL A   1      46.121  18.333   5.761  1.00  0.00    +0.000 H 
ATOM    100  H9  UNL A   1      45.203  16.859   6.212  1.00  0.00    +0.000 H 
ATOM      7  C5  UNL A   1      45.966  17.287   5.596  1.00  0.00    +0.000 C 
BRANCH    7    8
ATOM    101  H10 UNL A   1      44.457  17.374   4.106  1.00  0.00    +0.000 H 
ATOM    102  H11 UNL A   1      45.676  16.079   3.907  1.00  0.00    +0.000 H 
ATOM      8  C6  UNL A   1      45.492  17.104   4.151  1.00  0.00    +0.000 C 
BRANCH    8    9
ATOM      9  C7  UNL A   1      46.244  17.930   3.110  1.00  0.00    +0.000 C 
ATOM    103  H12 UNL A   1      46.554  17.284   2.315  1.00  0.00    +0.000 H 
ATOM    104  H13 UNL A   1      47.086  18.381   3.593  1.00  0.00    +0.000 H 
BRANCH    9   10
ATOM    105  H14 UNL A   1      45.599  19.221   1.618  1.00  0.00    +0.000 H 
ATOM     10  N2  UNL A   1      45.421  18.992   2.558  1.00  0.00    +0.000 N 
BRANCH   10   11
ATOM     11  C8  UNL A   1      44.432  19.719   3.168  1.00  0.00    +0.000 C 
ATOM     12  O2  UNL A   1      44.716  20.556   4.019  1.00  0.00    +0.000 O 
BRANCH   11   13
ATOM    106  H15 UNL A   1      42.565  18.489   4.604  1.00  0.00    +0.000 H 
ATOM    107  H16 UNL A   1      40.230  18.133   4.041  1.00  0.00    +0.000 H 
ATOM    108  H17 UNL A   1      39.357  18.930   1.930  1.00  0.00    +0.000 H 
ATOM     13  C9  UNL A   1      43.018  19.495   2.802  1.00  0.00    +0.000 C 
ATOM     14  C10 UNL A   1      42.190  18.827   3.704  1.00  0.00    +0.000 C 
ATOM     15  C11 UNL A   1      40.854  18.618   3.378  1.00  0.00    +0.000 C 
ATOM     16  C12 UNL A   1      40.355  19.069   2.151  1.00  0.00    +0.000 C 
ATOM     17  C13 UNL A   1      41.184  19.703   1.216  1.00  0.00    +0.000 C 
ATOM    114  H23 UNL A   1      43.159  20.368   0.884  1.00  0.00    +0.000 H 
ATOM     28  C20 UNL A   1      42.525  19.908   1.557  1.00  0.00    +0.000 C 
BRANCH   17   18
ATOM     18  N3  UNL A   1      40.720  20.212  -0.019  1.00  0.00    +0.000 N 
ATOM    109  H18 UNL A   1      41.321  20.079  -0.788  1.00  0.00    +0.000 H 
BRANCH   18   19
ATOM    110  H19 UNL A   1      38.291  19.257   0.272  1.00  0.00    +0.000 H 
ATOM    111  H20 UNL A   1      36.192  20.437  -0.004  1.00  0.00    +0.000 H 
ATOM    112  H21 UNL A   1      38.289  23.874  -1.237  1.00  0.00    +0.000 H 
ATOM    113  H22 UNL A   1      40.385  22.689  -0.949  1.00  0.00    +0.000 H 
ATOM     19  C14 UNL A   1      39.514  20.882  -0.295  1.00  0.00    +0.000 C 
ATOM     20  C15 UNL A   1      38.295  20.241  -0.038  1.00  0.00    +0.000 C 
ATOM     21  C16 UNL A   1      37.084  20.919  -0.197  1.00  0.00    +0.000 C 
ATOM     22  C17 UNL A   1      37.084  22.252  -0.619  1.00  0.00    +0.000 C 
ATOM     26  C18 UNL A   1      38.290  22.897  -0.906  1.00  0.00    +0.000 C 
ATOM     27  C19 UNL A   1      39.495  22.210  -0.740  1.00  0.00    +0.000 C 
BRANCH   22   23
ATOM     25  O4  UNL A   1      35.635  23.884  -1.741  1.00  0.00    +0.000 O 
ATOM     23  N4  UNL A   1      35.837  22.972  -0.732  1.00  0.00    +0.000 N 
ATOM     24  O3  UNL A   1      34.946  22.811   0.076  1.00  0.00    +0.000 O 
ENDBRANCH   22   23
ENDBRANCH   18   19
ENDBRANCH   17   18
ENDBRANCH   11   13
ENDBRANCH   10   11
ENDBRANCH    9   10
ENDBRANCH    8    9
ENDBRANCH    7    8
ENDBRANCH    6    7
ENDBRANCH    5    6
ENDBRANCH    4    5
ENDBRANCH    3    4
ENDBRANCH    2    3
ENDBRANCH   29    2
ENDBRANCH   33   32
BRANCH   37   38
ATOM     38  C29 UNL A   1      52.431  22.626  17.123  1.00  0.00    +0.000 C 
ATOM     39  C30 UNL A   1      52.334  24.024  17.064  1.00  0.00    +0.000 C 
ATOM     40  F1  UNL A   1      53.091  24.716  16.198  1.00  0.00    +0.000 F 
ATOM     41  C31 UNL A   1      51.490  24.721  17.924  1.00  0.00    +0.000 C 
ATOM     42  F2  UNL A   1      51.454  26.061  17.885  1.00  0.00    +0.000 F 
ATOM     43  C32 UNL A   1      50.701  24.035  18.836  1.00  0.00    +0.000 C 
ATOM     44  F3  UNL A   1      49.891  24.709  19.664  1.00  0.00    +0.000 F 
ATOM     45  C33 UNL A   1      50.761  22.652  18.894  1.00  0.00    +0.000 C 
ATOM     46  F4  UNL A   1      49.991  21.985  19.766  1.00  0.00    +0.000 F 
ATOM     47  C34 UNL A   1      51.624  21.953  18.054  1.00  0.00    +0.000 C 
ATOM     48  F5  UNL A   1      51.672  20.616  18.148  1.00  0.00    +0.000 F 
ENDBRANCH   37   38
BRANCH   54   55
ATOM     65  F10 UNL A   1      58.631  17.743  17.683  1.00  0.00    +0.000 F 
ATOM     55  C40 UNL A   1      59.145  20.014  17.193  1.00  0.00    +0.000 C 
ATOM     56  C41 UNL A   1      59.959  21.123  17.462  1.00  0.00    +0.000 C 
ATOM     57  F6  UNL A   1      59.778  22.272  16.795  1.00  0.00    +0.000 F 
ATOM     58  C42 UNL A   1      60.981  21.045  18.405  1.00  0.00    +0.000 C 
ATOM     59  F7  UNL A   1      61.767  22.108  18.628  1.00  0.00    +0.000 F 
ATOM     60  C43 UNL A   1      61.191  19.869  19.111  1.00  0.00    +0.000 C 
ATOM     61  F8  UNL A   1      62.165  19.801  20.029  1.00  0.00    +0.000 F 
ATOM     62  C44 UNL A   1      60.393  18.762  18.863  1.00  0.00    +0.000 C 
ATOM     63  F9  UNL A   1      60.587  17.629  19.552  1.00  0.00    +0.000 F 
ATOM     64  C45 UNL A   1      59.386  18.829  17.905  1.00  0.00    +0.000 C 
ENDBRANCH   54   55
BRANCH   69   70
ATOM     70  C49 UNL A   1      58.321  17.929  10.578  1.00  0.00    +0.000 C 
ATOM     71  C50 UNL A   1      58.358  16.540  10.409  1.00  0.00    +0.000 C 
ATOM     72  F11 UNL A   1      57.644  15.749  11.221  1.00  0.00    +0.000 F 
ATOM     73  C51 UNL A   1      59.137  15.960   9.410  1.00  0.00    +0.000 C 
ATOM     74  F12 UNL A   1      59.169  14.627   9.278  1.00  0.00    +0.000 F 
ATOM     75  C52 UNL A   1      59.876  16.760   8.551  1.00  0.00    +0.000 C 
ATOM     76  F13 UNL A   1      60.608  16.202   7.577  1.00  0.00    +0.000 F 
ATOM     77  C53 UNL A   1      59.856  18.139   8.701  1.00  0.00    +0.000 C 
ATOM     78  F14 UNL A   1      60.554  18.915   7.862  1.00  0.00    +0.000 F 
ATOM     79  C54 UNL A   1      59.096  18.718   9.715  1.00  0.00    +0.000 C 
ATOM     80  F15 UNL A   1      59.085  20.054   9.832  1.00  0.00    +0.000 F 
ENDBRANCH   69   70
TORSDOF 18
ENDMDL
MODEL 3
REMARK VINA RESULT:     -11.5     20.180     25.811
ROOT
ATOM     33  C25 UNL A   1      39.751  28.978  29.068  1.00  0.00    +0.000 C 
ATOM     34  C26 UNL A   1      40.570  29.989  29.815  1.00  0.00    +0.000 C 
ATOM     35  N5  UNL A   1      41.835  29.944  30.150  1.00  0.00    +0.000 N 
ATOM     36  C27 UNL A   1      42.098  31.145  30.795  1.00  0.00    +0.000 C 
ATOM     37  C28 UNL A   1      43.261  31.566  31.348  1.00  0.00    +0.000 C 
ATOM     49  C35 UNL A   1      44.476  30.792  31.365  1.00  0.00    +0.000 C 
ATOM     50  C36 UNL A   1      45.691  31.105  31.949  1.00  0.00    +0.000 C 
ATOM     51  C37 UNL A   1      46.596  30.079  31.654  1.00  0.00    +0.000 C 
ATOM     52  C38 UNL A   1      45.932  29.103  30.928  1.00  0.00    +0.000 C 
ATOM     53  N6  UNL A   1      44.632  29.553  30.758  1.00  0.00    +0.000 N 
ATOM     54  C39 UNL A   1      46.447  27.856  30.422  1.00  0.00    +0.000 C 
ATOM     66  C46 UNL A   1      45.727  26.933  29.739  1.00  0.00    +0.000 C 
ATOM     67  N7  UNL A   1      44.385  26.965  29.387  1.00  0.00    +0.000 N 
ATOM     68  C47 UNL A   1      44.155  25.848  28.743  1.00  0.00    +0.000 C 
ATOM     69  C48 UNL A   1      42.870  25.351  28.149  1.00  0.00    +0.000 C 
ATOM     81  C55 UNL A   1      41.749  26.078  28.301  1.00  0.00    +0.000 C 
ATOM     82  C56 UNL A   1      40.439  25.725  27.762  1.00  0.00    +0.000 C 
ATOM     83  C57 UNL A   1      39.592  26.742  27.979  1.00  0.00    +0.000 C 
ATOM     84  C58 UNL A   1      40.288  27.795  28.719  1.00  0.00    +0.000 C 
ATOM     85  N8  UNL A   1      41.548  27.288  28.919  1.00  0.00    +0.000 N 
ATOM     86  C59 UNL A   1      45.335  24.985  28.591  1.00  0.00    +0.000 C 
ATOM     87  C60 UNL A   1      46.260  25.682  29.237  1.00  0.00    +0.000 C 
ATOM     88  C61 UNL A   1      40.867  31.908  30.784  1.00  0.00    +0.000 C 
ATOM     89  C62 UNL A   1      39.880  31.219  30.230  1.00  0.00    +0.000 C 
ATOM    117  H26 UNL A   1      45.895  31.949  32.507  1.00  0.00    +0.000 H 
ATOM    118  H27 UNL A   1      47.590  30.054  31.929  1.00  0.00    +0.000 H 
ATOM    119  H28 UNL A   1      43.923  29.066  30.279  1.00  0.00    +0.000 H 
ATOM    120  H29 UNL A   1      40.203  24.837  27.292  1.00  0.00    +0.000 H 
ATOM    121  H30 UNL A   1      38.607  26.777  27.673  1.00  0.00    +0.000 H 
ATOM    122  H31 UNL A   1      42.239  27.745  29.452  1.00  0.00    +0.000 H 
ATOM    123  H32 UNL A   1      45.421  24.076  28.110  1.00  0.00    +0.000 H 
ATOM    124  H33 UNL A   1      47.237  25.373  29.366  1.00  0.00    +0.000 H 
ATOM    125  H34 UNL A   1      40.772  32.865  31.160  1.00  0.00    +0.000 H 
ATOM    126  H35 UNL A   1      38.888  31.478  30.118  1.00  0.00    +0.000 H 
ENDROOT
BRANCH   33   32
ATOM    127  H36 UNL A   1      37.513  28.810  30.554  1.00  0.00    +0.000 H 
ATOM     32  C24 UNL A   1      38.355  29.280  28.671  1.00  0.00    +0.000 C 
ATOM    115  H24 UNL A   1      36.579  30.534  26.112  1.00  0.00    +0.000 H 
ATOM    116  H25 UNL A   1      38.833  29.854  26.691  1.00  0.00    +0.000 H 
ATOM     90  C63 UNL A   1      37.309  29.136  29.597  1.00  0.00    +0.000 C 
ATOM     91  C64 UNL A   1      35.997  29.430  29.227  1.00  0.00    +0.000 C 
ATOM     29  C21 UNL A   1      35.726  29.900  27.939  1.00  0.00    +0.000 C 
ATOM     30  C22 UNL A   1      36.771  30.114  27.036  1.00  0.00    +0.000 C 
ATOM     31  C23 UNL A   1      38.073  29.762  27.383  1.00  0.00    +0.000 C 
ATOM    128  H37 UNL A   1      35.227  29.302  29.903  1.00  0.00    +0.000 H 
BRANCH   29    2
ATOM      1  O1  UNL A   1      33.524  29.288  27.415  1.00  0.00    +0.000 O 
ATOM      2  C1  UNL A   1      34.326  30.205  27.574  1.00  0.00    +0.000 C 
BRANCH    2    3
ATOM      3  N1  UNL A   1      33.925  31.505  27.402  1.00  0.00    +0.000 N 
ATOM     92  H1  UNL A   1      33.502  31.704  26.535  1.00  0.00    +0.000 H 
BRANCH    3    4
ATOM      4  C2  UNL A   1      34.036  32.631  28.313  1.00  0.00    +0.000 C 
ATOM     93  H2  UNL A   1      33.889  32.279  29.313  1.00  0.00    +0.000 H 
ATOM     94  H3  UNL A   1      33.293  33.348  28.037  1.00  0.00    +0.000 H 
BRANCH    4    5
ATOM      5  C3  UNL A   1      35.397  33.314  28.229  1.00  0.00    +0.000 C 
ATOM     95  H4  UNL A   1      35.334  34.088  27.490  1.00  0.00    +0.000 H 
ATOM     96  H5  UNL A   1      36.101  32.547  27.984  1.00  0.00    +0.000 H 
BRANCH    5    6
ATOM     97  H6  UNL A   1      35.035  34.297  30.072  1.00  0.00    +0.000 H 
ATOM     98  H7  UNL A   1      36.570  34.719  29.247  1.00  0.00    +0.000 H 
ATOM      6  C4  UNL A   1      35.889  33.944  29.533  1.00  0.00    +0.000 C 
BRANCH    6    7
ATOM     99  H8  UNL A   1      37.253  32.351  29.845  1.00  0.00    +0.000 H 
ATOM    100  H9  UNL A   1      35.951  32.521  31.068  1.00  0.00    +0.000 H 
ATOM      7  C5  UNL A   1      36.679  33.014  30.458  1.00  0.00    +0.000 C 
BRANCH    7    8
ATOM    101  H10 UNL A   1      37.707  34.738  31.152  1.00  0.00    +0.000 H 
ATOM    102  H11 UNL A   1      38.569  33.182  31.353  1.00  0.00    +0.000 H 
ATOM      8  C6  UNL A   1      37.640  33.706  31.431  1.00  0.00    +0.000 C 
BRANCH    8    9
ATOM      9  C7  UNL A   1      37.237  33.638  32.902  1.00  0.00    +0.000 C 
ATOM    103  H12 UNL A   1      36.343  34.209  33.041  1.00  0.00    +0.000 H 
ATOM    104  H13 UNL A   1      38.043  34.035  33.484  1.00  0.00    +0.000 H 
BRANCH    9   10
ATOM    105  H14 UNL A   1      36.174  31.858  32.995  1.00  0.00    +0.000 H 
ATOM     10  N2  UNL A   1      36.996  32.275  33.339  1.00  0.00    +0.000 N 
BRANCH   10   11
ATOM     11  C8  UNL A   1      37.758  31.489  34.165  1.00  0.00    +0.000 C 
ATOM     12  O2  UNL A   1      37.910  31.797  35.342  1.00  0.00    +0.000 O 
BRANCH   11   13
ATOM    106  H15 UNL A   1      36.601  29.497  32.840  1.00  0.00    +0.000 H 
ATOM    107  H16 UNL A   1      37.635  27.494  31.939  1.00  0.00    +0.000 H 
ATOM    108  H17 UNL A   1      40.010  27.122  32.222  1.00  0.00    +0.000 H 
ATOM     13  C9  UNL A   1      38.400  30.267  33.638  1.00  0.00    +0.000 C 
ATOM     14  C10 UNL A   1      37.613  29.335  32.960  1.00  0.00    +0.000 C 
ATOM     15  C11 UNL A   1      38.206  28.185  32.449  1.00  0.00    +0.000 C 
ATOM     16  C12 UNL A   1      39.577  27.967  32.625  1.00  0.00    +0.000 C 
ATOM     17  C13 UNL A   1      40.372  28.872  33.341  1.00  0.00    +0.000 C 
ATOM    114  H23 UNL A   1      40.326  30.706  34.384  1.00  0.00    +0.000 H 
ATOM     28  C20 UNL A   1      39.764  30.026  33.848  1.00  0.00    +0.000 C 
BRANCH   17   18
ATOM     18  N3  UNL A   1      41.767  28.718  33.513  1.00  0.00    +0.000 N 
ATOM    109  H18 UNL A   1      42.299  29.544  33.449  1.00  0.00    +0.000 H 
BRANCH   18   19
ATOM    110  H19 UNL A   1      41.421  27.050  35.512  1.00  0.00    +0.000 H 
ATOM    111  H20 UNL A   1      42.518  24.918  35.869  1.00  0.00    +0.000 H 
ATOM    112  H21 UNL A   1      44.889  25.566  32.451  1.00  0.00    +0.000 H 
ATOM    113  H22 UNL A   1      43.781  27.694  32.095  1.00  0.00    +0.000 H 
ATOM     19  C14 UNL A   1      42.495  27.539  33.761  1.00  0.00    +0.000 C 
ATOM     20  C15 UNL A   1      42.150  26.733  34.853  1.00  0.00    +0.000 C 
ATOM     21  C16 UNL A   1      42.781  25.504  35.061  1.00  0.00    +0.000 C 
ATOM     22  C17 UNL A   1      43.770  25.071  34.172  1.00  0.00    +0.000 C 
ATOM     26  C18 UNL A   1      44.145  25.876  33.094  1.00  0.00    +0.000 C 
ATOM     27  C19 UNL A   1      43.505  27.102  32.894  1.00  0.00    +0.000 C 
BRANCH   22   23
ATOM     25  O4  UNL A   1      43.827  22.838  35.190  1.00  0.00    +0.000 O 
ATOM     23  N4  UNL A   1      44.385  23.777  34.355  1.00  0.00    +0.000 N 
ATOM     24  O3  UNL A   1      45.426  23.495  33.798  1.00  0.00    +0.000 O 
ENDBRANCH   22   23
ENDBRANCH   18   19
ENDBRANCH   17   18
ENDBRANCH   11   13
ENDBRANCH   10   11
ENDBRANCH    9   10
ENDBRANCH    8    9
ENDBRANCH    7    8
ENDBRANCH    6    7
ENDBRANCH    5    6
ENDBRANCH    4    5
ENDBRANCH    3    4
ENDBRANCH    2    3
ENDBRANCH   29    2
ENDBRANCH   33   32
BRANCH   37   38
ATOM     38  C29 UNL A   1      43.284  32.938  31.954  1.00  0.00    +0.000 C 
ATOM     39  C30 UNL A   1      43.577  34.079  31.193  1.00  0.00    +0.000 C 
ATOM     40  F1  UNL A   1      43.879  33.963  29.890  1.00  0.00    +0.000 F 
ATOM     41  C31 UNL A   1      43.603  35.344  31.777  1.00  0.00    +0.000 C 
ATOM     42  F2  UNL A   1      43.938  36.413  31.040  1.00  0.00    +0.000 F 
ATOM     43  C32 UNL A   1      43.303  35.497  33.122  1.00  0.00    +0.000 C 
ATOM     44  F3  UNL A   1      43.331  36.714  33.682  1.00  0.00    +0.000 F 
ATOM     45  C33 UNL A   1      42.985  34.386  33.888  1.00  0.00    +0.000 C 
ATOM     46  F4  UNL A   1      42.684  34.532  35.186  1.00  0.00    +0.000 F 
ATOM     47  C34 UNL A   1      42.985  33.117  33.313  1.00  0.00    +0.000 C 
ATOM     48  F5  UNL A   1      42.691  32.061  34.085  1.00  0.00    +0.000 F 
ENDBRANCH   37   38
BRANCH   54   55
ATOM     65  F10 UNL A   1      47.313  26.450  32.731  1.00  0.00    +0.000 F 
ATOM     55  C40 UNL A   1      47.888  27.541  30.695  1.00  0.00    +0.000 C 
ATOM     56  C41 UNL A   1      48.907  27.962  29.831  1.00  0.00    +0.000 C 
ATOM     57  F6  UNL A   1      48.605  28.593  28.686  1.00  0.00    +0.000 F 
ATOM     58  C42 UNL A   1      50.244  27.716  30.131  1.00  0.00    +0.000 C 
ATOM     59  F7  UNL A   1      51.203  28.103  29.279  1.00  0.00    +0.000 F 
ATOM     60  C43 UNL A   1      50.586  27.067  31.309  1.00  0.00    +0.000 C 
ATOM     61  F8  UNL A   1      51.874  26.844  31.605  1.00  0.00    +0.000 F 
ATOM     62  C44 UNL A   1      49.592  26.646  32.180  1.00  0.00    +0.000 C 
ATOM     63  F9  UNL A   1      49.921  26.029  33.324  1.00  0.00    +0.000 F 
ATOM     64  C45 UNL A   1      48.254  26.870  31.872  1.00  0.00    +0.000 C 
ENDBRANCH   54   55
BRANCH   69   70
ATOM     70  C49 UNL A   1      42.801  24.074  27.395  1.00  0.00    +0.000 C 
ATOM     71  C50 UNL A   1      43.137  24.019  26.038  1.00  0.00    +0.000 C 
ATOM     72  F11 UNL A   1      43.451  25.145  25.381  1.00  0.00    +0.000 F 
ATOM     73  C51 UNL A   1      43.143  22.808  25.349  1.00  0.00    +0.000 C 
ATOM     74  F12 UNL A   1      43.452  22.783  24.045  1.00  0.00    +0.000 F 
ATOM     75  C52 UNL A   1      42.832  21.629  26.010  1.00  0.00    +0.000 C 
ATOM     76  F13 UNL A   1      42.859  20.462  25.351  1.00  0.00    +0.000 F 
ATOM     77  C53 UNL A   1      42.494  21.660  27.355  1.00  0.00    +0.000 C 
ATOM     78  F14 UNL A   1      42.211  20.521  28.001  1.00  0.00    +0.000 F 
ATOM     79  C54 UNL A   1      42.465  22.873  28.038  1.00  0.00    +0.000 C 
ATOM     80  F15 UNL A   1      42.146  22.875  29.341  1.00  0.00    +0.000 F 
ENDBRANCH   69   70
TORSDOF 18
ENDMDL
MODEL 4
REMARK VINA RESULT:     -11.5      4.330      5.726
ROOT
ATOM     33  C25 UNL A   1      52.932  20.250  11.654  1.00  0.00    +0.000 C 
ATOM     34  C26 UNL A   1      52.719  20.810  13.029  1.00  0.00    +0.000 C 
ATOM     35  N5  UNL A   1      53.561  20.887  14.029  1.00  0.00    +0.000 N 
ATOM     36  C27 UNL A   1      52.873  21.521  15.054  1.00  0.00    +0.000 C 
ATOM     37  C28 UNL A   1      53.307  21.814  16.304  1.00  0.00    +0.000 C 
ATOM     49  C35 UNL A   1      54.619  21.489  16.802  1.00  0.00    +0.000 C 
ATOM     50  C36 UNL A   1      55.136  21.691  18.070  1.00  0.00    +0.000 C 
ATOM     51  C37 UNL A   1      56.471  21.274  18.070  1.00  0.00    +0.000 C 
ATOM     52  C38 UNL A   1      56.772  20.766  16.817  1.00  0.00    +0.000 C 
ATOM     53  N6  UNL A   1      55.627  20.904  16.049  1.00  0.00    +0.000 N 
ATOM     54  C39 UNL A   1      58.016  20.202  16.353  1.00  0.00    +0.000 C 
ATOM     66  C46 UNL A   1      58.230  19.697  15.113  1.00  0.00    +0.000 C 
ATOM     67  N7  UNL A   1      57.344  19.602  14.049  1.00  0.00    +0.000 N 
ATOM     68  C47 UNL A   1      58.013  19.041  13.073  1.00  0.00    +0.000 C 
ATOM     69  C48 UNL A   1      57.544  18.683  11.693  1.00  0.00    +0.000 C 
ATOM     81  C55 UNL A   1      56.259  18.896  11.359  1.00  0.00    +0.000 C 
ATOM     82  C56 UNL A   1      55.673  18.614  10.051  1.00  0.00    +0.000 C 
ATOM     83  C57 UNL A   1      54.417  19.083  10.028  1.00  0.00    +0.000 C 
ATOM     84  C58 UNL A   1      54.095  19.652  11.337  1.00  0.00    +0.000 C 
ATOM     85  N8  UNL A   1      55.227  19.442  12.083  1.00  0.00    +0.000 N 
ATOM     86  C59 UNL A   1      59.413  18.734  13.399  1.00  0.00    +0.000 C 
ATOM     87  C60 UNL A   1      59.486  19.132  14.662  1.00  0.00    +0.000 C 
ATOM     88  C61 UNL A   1      51.552  21.830  14.548  1.00  0.00    +0.000 C 
ATOM     89  C62 UNL A   1      51.391  21.371  13.315  1.00  0.00    +0.000 C 
ATOM    117  H26 UNL A   1      54.624  22.082  18.877  1.00  0.00    +0.000 H 
ATOM    118  H27 UNL A   1      57.122  21.335  18.868  1.00  0.00    +0.000 H 
ATOM    119  H28 UNL A   1      55.540  20.626  15.108  1.00  0.00    +0.000 H 
ATOM    120  H29 UNL A   1      56.148  18.131   9.273  1.00  0.00    +0.000 H 
ATOM    121  H30 UNL A   1      53.780  19.050   9.217  1.00  0.00    +0.000 H 
ATOM    122  H31 UNL A   1      55.294  19.661  13.041  1.00  0.00    +0.000 H 
ATOM    123  H32 UNL A   1      60.145  18.319  12.803  1.00  0.00    +0.000 H 
ATOM    124  H33 UNL A   1      60.331  19.051  15.249  1.00  0.00    +0.000 H 
ATOM    125  H34 UNL A   1      50.829  22.342  15.078  1.00  0.00    +0.000 H 
ATOM    126  H35 UNL A   1      50.554  21.399  12.713  1.00  0.00    +0.000 H 
ENDROOT
BRANCH   33   32
ATOM    127  H36 UNL A   1      52.370  22.371  10.095  1.00  0.00    +0.000 H 
ATOM     32  C24 UNL A   1      51.882  20.379  10.615  1.00  0.00    +0.000 C 
ATOM    115  H24 UNL A   1      49.553  18.567   9.012  1.00  0.00    +0.000 H 
ATOM    116  H25 UNL A   1      51.133  18.413  10.845  1.00  0.00    +0.000 H 
ATOM     90  C63 UNL A   1      51.743  21.577   9.894  1.00  0.00    +0.000 C 
ATOM     91  C64 UNL A   1      50.762  21.695   8.910  1.00  0.00    +0.000 C 
ATOM     29  C21 UNL A   1      49.933  20.609   8.619  1.00  0.00    +0.000 C 
ATOM     30  C22 UNL A   1      50.114  19.391   9.282  1.00  0.00    +0.000 C 
ATOM     31  C23 UNL A   1      51.051  19.291  10.308  1.00  0.00    +0.000 C 
ATOM    128  H37 UNL A   1      50.648  22.585   8.398  1.00  0.00    +0.000 H 
BRANCH   29    2
ATOM      1  O1  UNL A   1      48.339  21.844   7.425  1.00  0.00    +0.000 O 
ATOM      2  C1  UNL A   1      48.903  20.763   7.570  1.00  0.00    +0.000 C 
BRANCH    2    3
ATOM      3  N1  UNL A   1      48.568  19.700   6.770  1.00  0.00    +0.000 N 
ATOM     92  H1  UNL A   1      47.865  19.110   7.126  1.00  0.00    +0.000 H 
BRANCH    3    4
ATOM      4  C2  UNL A   1      49.102  19.321   5.473  1.00  0.00    +0.000 C 
ATOM     93  H2  UNL A   1      48.397  19.597   4.717  1.00  0.00    +0.000 H 
ATOM     94  H3  UNL A   1      49.270  18.265   5.486  1.00  0.00    +0.000 H 
BRANCH    4    5
ATOM      5  C3  UNL A   1      50.435  20.000   5.173  1.00  0.00    +0.000 C 
ATOM     95  H4  UNL A   1      50.675  20.638   5.999  1.00  0.00    +0.000 H 
ATOM     96  H5  UNL A   1      50.300  20.529   4.252  1.00  0.00    +0.000 H 
BRANCH    5    6
ATOM     97  H6  UNL A   1      52.040  19.274   3.995  1.00  0.00    +0.000 H 
ATOM     98  H7  UNL A   1      51.209  18.061   5.021  1.00  0.00    +0.000 H 
ATOM      6  C4  UNL A   1      51.612  19.050   4.950  1.00  0.00    +0.000 C 
BRANCH    6    7
ATOM     99  H8  UNL A   1      52.285  18.977   6.959  1.00  0.00    +0.000 H 
ATOM    100  H9  UNL A   1      53.184  20.083   5.869  1.00  0.00    +0.000 H 
ATOM      7  C5  UNL A   1      52.728  19.124   5.996  1.00  0.00    +0.000 C 
BRANCH    7    8
ATOM    101  H10 UNL A   1      54.766  18.634   5.656  1.00  0.00    +0.000 H 
ATOM    102  H11 UNL A   1      53.567  17.464   5.025  1.00  0.00    +0.000 H 
ATOM      8  C6  UNL A   1      53.856  18.099   5.836  1.00  0.00    +0.000 C 
BRANCH    8    9
ATOM      9  C7  UNL A   1      54.075  17.181   7.036  1.00  0.00    +0.000 C 
ATOM    103  H12 UNL A   1      54.685  17.689   7.753  1.00  0.00    +0.000 H 
ATOM    104  H13 UNL A   1      54.553  16.288   6.686  1.00  0.00    +0.000 H 
BRANCH    9   10
ATOM    105  H14 UNL A   1      52.467  17.444   8.321  1.00  0.00    +0.000 H 
ATOM     10  N2  UNL A   1      52.824  16.801   7.668  1.00  0.00    +0.000 N 
BRANCH   10   11
ATOM     11  C8  UNL A   1      52.074  15.669   7.479  1.00  0.00    +0.000 C 
ATOM     12  O2  UNL A   1      51.906  14.879   8.403  1.00  0.00    +0.000 O 
BRANCH   11   13
ATOM    106  H15 UNL A   1      53.149  14.341   5.444  1.00  0.00    +0.000 H 
ATOM    107  H16 UNL A   1      52.162  13.856   3.280  1.00  0.00    +0.000 H 
ATOM    108  H17 UNL A   1      49.928  14.630   2.765  1.00  0.00    +0.000 H 
ATOM     13  C9  UNL A   1      51.465  15.397   6.161  1.00  0.00    +0.000 C 
ATOM     14  C10 UNL A   1      52.197  14.672   5.221  1.00  0.00    +0.000 C 
ATOM     15  C11 UNL A   1      51.632  14.398   3.979  1.00  0.00    +0.000 C 
ATOM     16  C12 UNL A   1      50.346  14.859   3.680  1.00  0.00    +0.000 C 
ATOM     17  C13 UNL A   1      49.614  15.626   4.597  1.00  0.00    +0.000 C 
ATOM    114  H23 UNL A   1      49.679  16.459   6.534  1.00  0.00    +0.000 H 
ATOM     28  C20 UNL A   1      50.193  15.892   5.843  1.00  0.00    +0.000 C 
BRANCH   17   18
ATOM     18  N3  UNL A   1      48.297  16.080   4.358  1.00  0.00    +0.000 N 
ATOM    109  H18 UNL A   1      48.221  16.923   3.854  1.00  0.00    +0.000 H 
BRANCH   18   19
ATOM    110  H19 UNL A   1      47.804  13.511   4.587  1.00  0.00    +0.000 H 
ATOM    111  H20 UNL A   1      45.791  12.458   5.435  1.00  0.00    +0.000 H 
ATOM    112  H21 UNL A   1      43.988  16.241   5.846  1.00  0.00    +0.000 H 
ATOM    113  H22 UNL A   1      46.008  17.287   5.005  1.00  0.00    +0.000 H 
ATOM     19  C14 UNL A   1      47.081  15.488   4.746  1.00  0.00    +0.000 C 
ATOM     20  C15 UNL A   1      46.999  14.095   4.864  1.00  0.00    +0.000 C 
ATOM     21  C16 UNL A   1      45.840  13.486   5.352  1.00  0.00    +0.000 C 
ATOM     22  C17 UNL A   1      44.747  14.273   5.727  1.00  0.00    +0.000 C 
ATOM     26  C18 UNL A   1      44.802  15.662   5.589  1.00  0.00    +0.000 C 
ATOM     27  C19 UNL A   1      45.967  16.260   5.103  1.00  0.00    +0.000 C 
BRANCH   22   23
ATOM     25  O4  UNL A   1      42.349  14.287   6.252  1.00  0.00    +0.000 O 
ATOM     23  N4  UNL A   1      43.568  13.650   6.282  1.00  0.00    +0.000 N 
ATOM     24  O3  UNL A   1      43.628  12.562   6.815  1.00  0.00    +0.000 O 
ENDBRANCH   22   23
ENDBRANCH   18   19
ENDBRANCH   17   18
ENDBRANCH   11   13
ENDBRANCH   10   11
ENDBRANCH    9   10
ENDBRANCH    8    9
ENDBRANCH    7    8
ENDBRANCH    6    7
ENDBRANCH    5    6
ENDBRANCH    4    5
ENDBRANCH    3    4
ENDBRANCH    2    3
ENDBRANCH   29    2
ENDBRANCH   33   32
BRANCH   37   38
ATOM     38  C29 UNL A   1      52.363  22.547  17.212  1.00  0.00    +0.000 C 
ATOM     39  C30 UNL A   1      51.576  21.877  18.159  1.00  0.00    +0.000 C 
ATOM     40  F1  UNL A   1      51.628  20.539  18.256  1.00  0.00    +0.000 F 
ATOM     41  C31 UNL A   1      50.698  22.575  18.985  1.00  0.00    +0.000 C 
ATOM     42  F2  UNL A   1      49.917  21.908  19.847  1.00  0.00    +0.000 F 
ATOM     43  C32 UNL A   1      50.615  23.957  18.905  1.00  0.00    +0.000 C 
ATOM     44  F3  UNL A   1      49.769  24.627  19.699  1.00  0.00    +0.000 F 
ATOM     45  C33 UNL A   1      51.403  24.643  17.994  1.00  0.00    +0.000 C 
ATOM     46  F4  UNL A   1      51.334  25.980  17.922  1.00  0.00    +0.000 F 
ATOM     47  C34 UNL A   1      52.262  23.945  17.148  1.00  0.00    +0.000 C 
ATOM     48  F5  UNL A   1      52.998  24.636  16.265  1.00  0.00    +0.000 F 
ENDBRANCH   37   38
BRANCH   54   55
ATOM     65  F10 UNL A   1      58.613  17.899  17.902  1.00  0.00    +0.000 F 
ATOM     55  C40 UNL A   1      59.155  20.144  17.327  1.00  0.00    +0.000 C 
ATOM     56  C41 UNL A   1      59.979  21.254  17.557  1.00  0.00    +0.000 C 
ATOM     57  F6  UNL A   1      59.814  22.378  16.843  1.00  0.00    +0.000 F 
ATOM     58  C42 UNL A   1      60.994  21.203  18.509  1.00  0.00    +0.000 C 
ATOM     59  F7  UNL A   1      61.789  22.266  18.696  1.00  0.00    +0.000 F 
ATOM     60  C43 UNL A   1      61.185  20.054  19.263  1.00  0.00    +0.000 C 
ATOM     61  F8  UNL A   1      62.152  20.013  20.190  1.00  0.00    +0.000 F 
ATOM     62  C44 UNL A   1      60.378  18.947  19.053  1.00  0.00    +0.000 C 
ATOM     63  F9  UNL A   1      60.554  17.840  19.788  1.00  0.00    +0.000 F 
ATOM     64  C45 UNL A   1      59.378  18.986  18.086  1.00  0.00    +0.000 C 
ENDBRANCH   54   55
BRANCH   69   70
ATOM     70  C49 UNL A   1      58.461  18.098  10.684  1.00  0.00    +0.000 C 
ATOM     71  C50 UNL A   1      59.184  18.915   9.807  1.00  0.00    +0.000 C 
ATOM     72  F11 UNL A   1      58.991  20.241   9.818  1.00  0.00    +0.000 F 
ATOM     73  C51 UNL A   1      60.099  18.370   8.910  1.00  0.00    +0.000 C 
ATOM     74  F12 UNL A   1      60.767  19.171   8.068  1.00  0.00    +0.000 F 
ATOM     75  C52 UNL A   1      60.323  17.001   8.887  1.00  0.00    +0.000 C 
ATOM     76  F13 UNL A   1      61.219  16.481   8.038  1.00  0.00    +0.000 F 
ATOM     77  C53 UNL A   1      59.617  16.172   9.747  1.00  0.00    +0.000 C 
ATOM     78  F14 UNL A   1      59.843  14.852   9.741  1.00  0.00    +0.000 F 
ATOM     79  C54 UNL A   1      58.684  16.714  10.627  1.00  0.00    +0.000 C 
ATOM     80  F15 UNL A   1      58.023  15.892  11.455  1.00  0.00    +0.000 F 
ENDBRANCH   69   70
TORSDOF 18
ENDMDL
MODEL 5
REMARK VINA RESULT:     -11.4     36.308     45.635
ROOT
ATOM     33  C25 UNL A   1      12.161  29.667  -1.173  1.00  0.00    +0.000 C 
ATOM     34  C26 UNL A   1      11.426  28.901  -0.113  1.00  0.00    +0.000 C 
ATOM     35  N5  UNL A   1      10.149  28.913   0.180  1.00  0.00    +0.000 N 
ATOM     36  C27 UNL A   1       9.991  28.001   1.214  1.00  0.00    +0.000 C 
ATOM     37  C28 UNL A   1       8.856  27.672   1.878  1.00  0.00    +0.000 C 
ATOM     49  C35 UNL A   1       7.565  28.252   1.613  1.00  0.00    +0.000 C 
ATOM     50  C36 UNL A   1       6.366  28.028   2.268  1.00  0.00    +0.000 C 
ATOM     51  C37 UNL A   1       5.369  28.766   1.621  1.00  0.00    +0.000 C 
ATOM     52  C38 UNL A   1       5.955  29.489   0.594  1.00  0.00    +0.000 C 
ATOM     53  N6  UNL A   1       7.302  29.164   0.600  1.00  0.00    +0.000 N 
ATOM     54  C39 UNL A   1       5.329  30.403  -0.329  1.00  0.00    +0.000 C 
ATOM     66  C46 UNL A   1       5.974  31.099  -1.297  1.00  0.00    +0.000 C 
ATOM     67  N7  UNL A   1       7.326  31.101  -1.611  1.00  0.00    +0.000 N 
ATOM     68  C47 UNL A   1       7.461  31.933  -2.614  1.00  0.00    +0.000 C 
ATOM     69  C48 UNL A   1       8.710  32.332  -3.344  1.00  0.00    +0.000 C 
ATOM     81  C55 UNL A   1       9.896  31.845  -2.937  1.00  0.00    +0.000 C 
ATOM     82  C56 UNL A   1      11.182  32.133  -3.564  1.00  0.00    +0.000 C 
ATOM     83  C57 UNL A   1      12.124  31.368  -2.994  1.00  0.00    +0.000 C 
ATOM     84  C58 UNL A   1      11.514  30.575  -1.926  1.00  0.00    +0.000 C 
ATOM     85  N8  UNL A   1      10.200  30.968  -1.924  1.00  0.00    +0.000 N 
ATOM     86  C59 UNL A   1       6.202  32.539  -3.069  1.00  0.00    +0.000 C 
ATOM     87  C60 UNL A   1       5.331  32.016  -2.217  1.00  0.00    +0.000 C 
ATOM     88  C61 UNL A   1      11.296  27.435   1.481  1.00  0.00    +0.000 C 
ATOM     89  C62 UNL A   1      12.226  27.992   0.718  1.00  0.00    +0.000 C 
ATOM    117  H26 UNL A   1       6.231  27.421   3.092  1.00  0.00    +0.000 H 
ATOM    118  H27 UNL A   1       4.367  28.771   1.866  1.00  0.00    +0.000 H 
ATOM    119  H28 UNL A   1       7.974  29.528  -0.021  1.00  0.00    +0.000 H 
ATOM    120  H29 UNL A   1      11.341  32.815  -4.322  1.00  0.00    +0.000 H 
ATOM    121  H30 UNL A   1      13.120  31.342  -3.264  1.00  0.00    +0.000 H 
ATOM    122  H31 UNL A   1       9.540  30.654  -1.264  1.00  0.00    +0.000 H 
ATOM    123  H32 UNL A   1       6.040  33.198  -3.846  1.00  0.00    +0.000 H 
ATOM    124  H33 UNL A   1       4.322  32.233  -2.211  1.00  0.00    +0.000 H 
ATOM    125  H34 UNL A   1      11.479  26.694   2.177  1.00  0.00    +0.000 H 
ATOM    126  H35 UNL A   1      13.245  27.828   0.710  1.00  0.00    +0.000 H 
ENDROOT
BRANCH   33   32
ATOM    127  H36 UNL A   1      13.272  27.718  -2.659  1.00  0.00    +0.000 H 
ATOM     32  C24 UNL A   1      13.598  29.409  -1.431  1.00  0.00    +0.000 C 
ATOM    115  H24 UNL A   1      16.633  30.737  -0.879  1.00  0.00    +0.000 H 
ATOM    116  H25 UNL A   1      14.301  31.047  -0.290  1.00  0.00    +0.000 H 
ATOM     90  C63 UNL A   1      13.989  28.334  -2.246  1.00  0.00    +0.000 C 
ATOM     91  C64 UNL A   1      15.340  28.097  -2.497  1.00  0.00    +0.000 C 
ATOM     29  C21 UNL A   1      16.308  28.950  -1.961  1.00  0.00    +0.000 C 
ATOM     30  C22 UNL A   1      15.922  30.064  -1.209  1.00  0.00    +0.000 C 
ATOM     31  C23 UNL A   1      14.578  30.266  -0.905  1.00  0.00    +0.000 C 
ATOM    128  H37 UNL A   1      15.625  27.293  -3.078  1.00  0.00    +0.000 H 
BRANCH   29    2
ATOM      1  O1  UNL A   1      18.476  29.597  -2.574  1.00  0.00    +0.000 O 
ATOM      2  C1  UNL A   1      17.733  28.676  -2.244  1.00  0.00    +0.000 C 
BRANCH    2    3
ATOM      3  N1  UNL A   1      18.222  27.398  -2.151  1.00  0.00    +0.000 N 
ATOM     92  H1  UNL A   1      17.670  26.774  -1.627  1.00  0.00    +0.000 H 
BRANCH    3    4
ATOM      4  C2  UNL A   1      19.436  26.834  -2.715  1.00  0.00    +0.000 C 
ATOM     93  H2  UNL A   1      19.866  27.547  -3.387  1.00  0.00    +0.000 H 
ATOM     94  H3  UNL A   1      19.171  25.930  -3.220  1.00  0.00    +0.000 H 
BRANCH    4    5
ATOM      5  C3  UNL A   1      20.466  26.485  -1.645  1.00  0.00    +0.000 C 
ATOM     95  H4  UNL A   1      20.574  25.420  -1.625  1.00  0.00    +0.000 H 
ATOM     96  H5  UNL A   1      20.093  26.894  -0.729  1.00  0.00    +0.000 H 
BRANCH    5    6
ATOM     97  H6  UNL A   1      22.391  26.471  -2.532  1.00  0.00    +0.000 H 
ATOM     98  H7  UNL A   1      22.294  27.162  -0.880  1.00  0.00    +0.000 H 
ATOM      6  C4  UNL A   1      21.852  27.098  -1.853  1.00  0.00    +0.000 C 
BRANCH    6    7
ATOM     99  H8  UNL A   1      20.980  29.018  -2.076  1.00  0.00    +0.000 H 
ATOM    100  H9  UNL A   1      21.925  28.417  -3.477  1.00  0.00    +0.000 H 
ATOM      7  C5  UNL A   1      21.866  28.523  -2.414  1.00  0.00    +0.000 C 
BRANCH    7    8
ATOM    101  H10 UNL A   1      23.730  29.442  -2.850  1.00  0.00    +0.000 H 
ATOM    102  H11 UNL A   1      23.503  28.903  -1.159  1.00  0.00    +0.000 H 
ATOM      8  C6  UNL A   1      23.069  29.382  -2.011  1.00  0.00    +0.000 C 
BRANCH    8    9
ATOM      9  C7  UNL A   1      22.733  30.805  -1.571  1.00  0.00    +0.000 C 
ATOM    103  H12 UNL A   1      23.286  31.493  -2.176  1.00  0.00    +0.000 H 
ATOM    104  H13 UNL A   1      22.995  30.902  -0.537  1.00  0.00    +0.000 H 
BRANCH    9   10
ATOM    105  H14 UNL A   1      20.814  30.496  -2.299  1.00  0.00    +0.000 H 
ATOM     10  N2  UNL A   1      21.317  31.097  -1.704  1.00  0.00    +0.000 N 
BRANCH   10   11
ATOM     11  C8  UNL A   1      20.585  32.095  -1.113  1.00  0.00    +0.000 C 
ATOM     12  O2  UNL A   1      20.677  33.249  -1.517  1.00  0.00    +0.000 O 
BRANCH   11   13
ATOM    106  H15 UNL A   1      20.785  30.080   0.608  1.00  0.00    +0.000 H 
ATOM    107  H16 UNL A   1      19.334  29.558   2.483  1.00  0.00    +0.000 H 
ATOM    108  H17 UNL A   1      17.414  30.954   2.956  1.00  0.00    +0.000 H 
ATOM     13  C9  UNL A   1      19.682  31.782   0.014  1.00  0.00    +0.000 C 
ATOM     14  C10 UNL A   1      19.965  30.672   0.811  1.00  0.00    +0.000 C 
ATOM     15  C11 UNL A   1      19.130  30.371   1.882  1.00  0.00    +0.000 C 
ATOM     16  C12 UNL A   1      18.013  31.173   2.145  1.00  0.00    +0.000 C 
ATOM     17  C13 UNL A   1      17.691  32.265   1.328  1.00  0.00    +0.000 C 
ATOM    114  H23 UNL A   1      18.323  33.353  -0.366  1.00  0.00    +0.000 H 
ATOM     28  C20 UNL A   1      18.540  32.558   0.255  1.00  0.00    +0.000 C 
BRANCH   17   18
ATOM     18  N3  UNL A   1      16.599  33.127   1.574  1.00  0.00    +0.000 N 
ATOM    109  H18 UNL A   1      16.830  34.024   1.908  1.00  0.00    +0.000 H 
BRANCH   18   19
ATOM    110  H19 UNL A   1      15.113  31.505   3.007  1.00  0.00    +0.000 H 
ATOM    111  H20 UNL A   1      12.713  31.186   2.875  1.00  0.00    +0.000 H 
ATOM    112  H21 UNL A   1      12.544  33.837  -0.393  1.00  0.00    +0.000 H 
ATOM    113  H22 UNL A   1      14.944  34.156  -0.248  1.00  0.00    +0.000 H 
ATOM     19  C14 UNL A   1      15.225  32.874   1.404  1.00  0.00    +0.000 C 
ATOM     20  C15 UNL A   1      14.569  32.011   2.291  1.00  0.00    +0.000 C 
ATOM     21  C16 UNL A   1      13.186  31.825   2.216  1.00  0.00    +0.000 C 
ATOM     22  C17 UNL A   1      12.445  32.507   1.246  1.00  0.00    +0.000 C 
ATOM     26  C18 UNL A   1      13.088  33.350   0.337  1.00  0.00    +0.000 C 
ATOM     27  C19 UNL A   1      14.471  33.530   0.422  1.00  0.00    +0.000 C 
BRANCH   22   23
ATOM     25  O4  UNL A   1      10.232  33.210   0.450  1.00  0.00    +0.000 O 
ATOM     23  N4  UNL A   1      11.009  32.359   1.201  1.00  0.00    +0.000 N 
ATOM     24  O3  UNL A   1      10.448  31.498   1.846  1.00  0.00    +0.000 O 
ENDBRANCH   22   23
ENDBRANCH   18   19
ENDBRANCH   17   18
ENDBRANCH   11   13
ENDBRANCH   10   11
ENDBRANCH    9   10
ENDBRANCH    8    9
ENDBRANCH    7    8
ENDBRANCH    6    7
ENDBRANCH    5    6
ENDBRANCH    4    5
ENDBRANCH    3    4
ENDBRANCH    2    3
ENDBRANCH   29    2
ENDBRANCH   33   32
BRANCH   37   38
ATOM     38  C29 UNL A   1       8.956  26.614   2.938  1.00  0.00    +0.000 C 
ATOM     39  C30 UNL A   1       8.882  25.248   2.631  1.00  0.00    +0.000 C 
ATOM     40  F1  UNL A   1       8.686  24.851   1.363  1.00  0.00    +0.000 F 
ATOM     41  C31 UNL A   1       8.967  24.282   3.631  1.00  0.00    +0.000 C 
ATOM     42  F2  UNL A   1       8.841  22.984   3.319  1.00  0.00    +0.000 F 
ATOM     43  C32 UNL A   1       9.162  24.660   4.951  1.00  0.00    +0.000 C 
ATOM     44  F3  UNL A   1       9.241  23.729   5.911  1.00  0.00    +0.000 F 
ATOM     45  C33 UNL A   1       9.264  26.004   5.275  1.00  0.00    +0.000 C 
ATOM     46  F4  UNL A   1       9.464  26.372   6.548  1.00  0.00    +0.000 F 
ATOM     47  C34 UNL A   1       9.152  26.973   4.281  1.00  0.00    +0.000 C 
ATOM     48  F5  UNL A   1       9.237  28.266   4.629  1.00  0.00    +0.000 F 
ENDBRANCH   37   38
BRANCH   54   55
ATOM     65  F10 UNL A   1       3.393  28.637  -1.420  1.00  0.00    +0.000 F 
ATOM     55  C40 UNL A   1       3.852  30.623  -0.191  1.00  0.00    +0.000 C 
ATOM     56  C41 UNL A   1       3.337  31.749   0.464  1.00  0.00    +0.000 C 
ATOM     57  F6  UNL A   1       4.164  32.624   1.057  1.00  0.00    +0.000 F 
ATOM     58  C42 UNL A   1       1.964  31.970   0.530  1.00  0.00    +0.000 C 
ATOM     59  F7  UNL A   1       1.489  33.040   1.184  1.00  0.00    +0.000 F 
ATOM     60  C43 UNL A   1       1.085  31.083  -0.076  1.00  0.00    +0.000 C 
ATOM     61  F8  UNL A   1      -0.235  31.305  -0.025  1.00  0.00    +0.000 F 
ATOM     62  C44 UNL A   1       1.576  29.964  -0.732  1.00  0.00    +0.000 C 
ATOM     63  F9  UNL A   1       0.729  29.112  -1.328  1.00  0.00    +0.000 F 
ATOM     64  C45 UNL A   1       2.946  29.729  -0.780  1.00  0.00    +0.000 C 
ENDBRANCH   54   55
BRANCH   69   70
ATOM     70  C49 UNL A   1       8.673  33.254  -4.507  1.00  0.00    +0.000 C 
ATOM     71  C50 UNL A   1       8.788  32.769  -5.815  1.00  0.00    +0.000 C 
ATOM     72  F11 UNL A   1       9.016  31.465  -6.027  1.00  0.00    +0.000 F 
ATOM     73  C51 UNL A   1       8.681  33.624  -6.909  1.00  0.00    +0.000 C 
ATOM     74  F12 UNL A   1       8.811  33.139  -8.151  1.00  0.00    +0.000 F 
ATOM     75  C52 UNL A   1       8.436  34.976  -6.714  1.00  0.00    +0.000 C 
ATOM     76  F13 UNL A   1       8.311  35.794  -7.768  1.00  0.00    +0.000 F 
ATOM     77  C53 UNL A   1       8.319  35.479  -5.427  1.00  0.00    +0.000 C 
ATOM     78  F14 UNL A   1       8.064  36.780  -5.236  1.00  0.00    +0.000 F 
ATOM     79  C54 UNL A   1       8.451  34.628  -4.332  1.00  0.00    +0.000 C 
ATOM     80  F15 UNL A   1       8.323  35.137  -3.098  1.00  0.00    +0.000 F 
ENDBRANCH   69   70
TORSDOF 18
ENDMDL
MODEL 6
REMARK VINA RESULT:     -11.3     44.796     50.463
ROOT
ATOM     33  C25 UNL A   1      21.286  38.300  49.211  1.00  0.00    +0.000 C 
ATOM     34  C26 UNL A   1      21.792  37.159  48.379  1.00  0.00    +0.000 C 
ATOM     35  N5  UNL A   1      22.946  37.024  47.774  1.00  0.00    +0.000 N 
ATOM     36  C27 UNL A   1      22.915  35.772  47.176  1.00  0.00    +0.000 C 
ATOM     37  C28 UNL A   1      23.868  35.180  46.415  1.00  0.00    +0.000 C 
ATOM     49  C35 UNL A   1      25.129  35.788  46.077  1.00  0.00    +0.000 C 
ATOM     50  C36 UNL A   1      26.136  35.295  45.266  1.00  0.00    +0.000 C 
ATOM     51  C37 UNL A   1      27.197  36.207  45.282  1.00  0.00    +0.000 C 
ATOM     52  C38 UNL A   1      26.831  37.292  46.062  1.00  0.00    +0.000 C 
ATOM     53  N6  UNL A   1      25.560  37.022  46.543  1.00  0.00    +0.000 N 
ATOM     54  C39 UNL A   1      27.588  38.485  46.351  1.00  0.00    +0.000 C 
ATOM     66  C46 UNL A   1      27.153  39.523  47.105  1.00  0.00    +0.000 C 
ATOM     67  N7  UNL A   1      25.930  39.681  47.742  1.00  0.00    +0.000 N 
ATOM     68  C47 UNL A   1      25.983  40.846  48.338  1.00  0.00    +0.000 C 
ATOM     69  C48 UNL A   1      24.931  41.531  49.160  1.00  0.00    +0.000 C 
ATOM     81  C55 UNL A   1      23.727  40.949  49.309  1.00  0.00    +0.000 C 
ATOM     82  C56 UNL A   1      22.623  41.492  50.094  1.00  0.00    +0.000 C 
ATOM     83  C57 UNL A   1      21.637  40.585  50.142  1.00  0.00    +0.000 C 
ATOM     84  C58 UNL A   1      22.022  39.418  49.347  1.00  0.00    +0.000 C 
ATOM     85  N8  UNL A   1      23.254  39.748  48.840  1.00  0.00    +0.000 N 
ATOM     86  C59 UNL A   1      27.258  41.555  48.165  1.00  0.00    +0.000 C 
ATOM     87  C60 UNL A   1      27.926  40.716  47.386  1.00  0.00    +0.000 C 
ATOM     88  C61 UNL A   1      21.639  35.175  47.511  1.00  0.00    +0.000 C 
ATOM     89  C62 UNL A   1      20.889  36.011  48.215  1.00  0.00    +0.000 C 
ATOM    117  H26 UNL A   1      26.109  34.407  44.741  1.00  0.00    +0.000 H 
ATOM    118  H27 UNL A   1      28.099  36.091  44.795  1.00  0.00    +0.000 H 
ATOM    119  H28 UNL A   1      25.038  37.619  47.129  1.00  0.00    +0.000 H 
ATOM    120  H29 UNL A   1      22.603  42.424  50.538  1.00  0.00    +0.000 H 
ATOM    121  H30 UNL A   1      20.749  40.691  50.657  1.00  0.00    +0.000 H 
ATOM    122  H31 UNL A   1      23.749  39.182  48.204  1.00  0.00    +0.000 H 
ATOM    123  H32 UNL A   1      27.555  42.466  48.549  1.00  0.00    +0.000 H 
ATOM    124  H33 UNL A   1      28.878  40.890  47.025  1.00  0.00    +0.000 H 
ATOM    125  H34 UNL A   1      21.351  34.223  47.236  1.00  0.00    +0.000 H 
ATOM    126  H35 UNL A   1      19.924  35.888  48.559  1.00  0.00    +0.000 H 
ENDROOT
BRANCH   33   32
ATOM    127  H36 UNL A   1      20.807  37.371  51.691  1.00  0.00    +0.000 H 
ATOM     32  C24 UNL A   1      19.990  38.199  49.923  1.00  0.00    +0.000 C 
ATOM    115  H24 UNL A   1      16.755  39.037  49.597  1.00  0.00    +0.000 H 
ATOM    116  H25 UNL A   1      18.836  39.022  48.353  1.00  0.00    +0.000 H 
ATOM     90  C63 UNL A   1      19.940  37.686  51.230  1.00  0.00    +0.000 C 
ATOM     91  C64 UNL A   1      18.722  37.599  51.905  1.00  0.00    +0.000 C 
ATOM     29  C21 UNL A   1      17.552  38.053  51.290  1.00  0.00    +0.000 C 
ATOM     30  C22 UNL A   1      17.607  38.631  50.018  1.00  0.00    +0.000 C 
ATOM     31  C23 UNL A   1      18.811  38.660  49.319  1.00  0.00    +0.000 C 
ATOM    128  H37 UNL A   1      18.685  37.201  52.856  1.00  0.00    +0.000 H 
BRANCH   29    2
ATOM      1  O1  UNL A   1      16.288  37.835  53.252  1.00  0.00    +0.000 O 
ATOM      2  C1  UNL A   1      16.275  37.951  52.029  1.00  0.00    +0.000 C 
BRANCH    2    3
ATOM      3  N1  UNL A   1      15.082  37.974  51.353  1.00  0.00    +0.000 N 
ATOM     92  H1  UNL A   1      14.647  38.855  51.297  1.00  0.00    +0.000 H 
BRANCH    3    4
ATOM      4  C2  UNL A   1      14.369  36.884  50.708  1.00  0.00    +0.000 C 
ATOM     93  H2  UNL A   1      13.467  36.697  51.251  1.00  0.00    +0.000 H 
ATOM     94  H3  UNL A   1      15.012  36.030  50.708  1.00  0.00    +0.000 H 
BRANCH    4    5
ATOM      5  C3  UNL A   1      14.015  37.200  49.259  1.00  0.00    +0.000 C 
ATOM     95  H4  UNL A   1      14.423  38.161  49.020  1.00  0.00    +0.000 H 
ATOM     96  H5  UNL A   1      12.947  37.163  49.198  1.00  0.00    +0.000 H 
BRANCH    5    6
ATOM     97  H6  UNL A   1      13.901  36.246  47.369  1.00  0.00    +0.000 H 
ATOM     98  H7  UNL A   1      14.526  35.243  48.717  1.00  0.00    +0.000 H 
ATOM      6  C4  UNL A   1      14.535  36.196  48.229  1.00  0.00    +0.000 C 
BRANCH    6    7
ATOM     99  H8  UNL A   1      16.595  35.692  48.259  1.00  0.00    +0.000 H 
ATOM    100  H9  UNL A   1      16.215  37.427  48.012  1.00  0.00    +0.000 H 
ATOM      7  C5  UNL A   1      15.979  36.414  47.765  1.00  0.00    +0.000 C 
BRANCH    7    8
ATOM    101  H10 UNL A   1      15.912  37.199  45.793  1.00  0.00    +0.000 H 
ATOM    102  H11 UNL A   1      15.649  35.434  45.940  1.00  0.00    +0.000 H 
ATOM      8  C6  UNL A   1      16.216  36.283  46.257  1.00  0.00    +0.000 C 
BRANCH    8    9
ATOM      9  C7  UNL A   1      17.661  36.003  45.849  1.00  0.00    +0.000 C 
ATOM    103  H12 UNL A   1      18.293  36.142  46.700  1.00  0.00    +0.000 H 
ATOM    104  H13 UNL A   1      17.919  36.682  45.061  1.00  0.00    +0.000 H 
BRANCH    9   10
ATOM    105  H14 UNL A   1      18.492  34.101  45.834  1.00  0.00    +0.000 H 
ATOM     10  N2  UNL A   1      17.835  34.651  45.350  1.00  0.00    +0.000 N 
BRANCH   10   11
ATOM     11  C8  UNL A   1      17.209  34.035  44.298  1.00  0.00    +0.000 C 
ATOM     12  O2  UNL A   1      16.468  34.676  43.559  1.00  0.00    +0.000 O 
BRANCH   11   13
ATOM    106  H15 UNL A   1      19.256  32.544  45.101  1.00  0.00    +0.000 H 
ATOM    107  H16 UNL A   1      19.622  30.172  44.731  1.00  0.00    +0.000 H 
ATOM    108  H17 UNL A   1      18.008  28.877  43.476  1.00  0.00    +0.000 H 
ATOM     13  C9  UNL A   1      17.424  32.594  44.049  1.00  0.00    +0.000 C 
ATOM     14  C10 UNL A   1      18.571  31.989  44.564  1.00  0.00    +0.000 C 
ATOM     15  C11 UNL A   1      18.782  30.632  44.348  1.00  0.00    +0.000 C 
ATOM     16  C12 UNL A   1      17.854  29.888  43.610  1.00  0.00    +0.000 C 
ATOM     17  C13 UNL A   1      16.719  30.490  43.049  1.00  0.00    +0.000 C 
ATOM    114  H23 UNL A   1      15.694  32.326  42.869  1.00  0.00    +0.000 H 
ATOM     28  C20 UNL A   1      16.518  31.856  43.276  1.00  0.00    +0.000 C 
BRANCH   17   18
ATOM     18  N3  UNL A   1      15.733  29.777  42.330  1.00  0.00    +0.000 N 
ATOM    109  H18 UNL A   1      15.153  30.320  41.748  1.00  0.00    +0.000 H 
BRANCH   18   19
ATOM    110  H19 UNL A   1      15.352  28.263  44.442  1.00  0.00    +0.000 H 
ATOM    111  H20 UNL A   1      14.706  25.927  44.494  1.00  0.00    +0.000 H 
ATOM    112  H21 UNL A   1      14.884  25.787  40.289  1.00  0.00    +0.000 H 
ATOM    113  H22 UNL A   1      15.522  28.126  40.246  1.00  0.00    +0.000 H 
ATOM     19  C14 UNL A   1      15.470  28.394  42.338  1.00  0.00    +0.000 C 
ATOM     20  C15 UNL A   1      15.243  27.743  43.557  1.00  0.00    +0.000 C 
ATOM     21  C16 UNL A   1      14.871  26.397  43.590  1.00  0.00    +0.000 C 
ATOM     22  C17 UNL A   1      14.723  25.688  42.393  1.00  0.00    +0.000 C 
ATOM     26  C18 UNL A   1      14.972  26.316  41.170  1.00  0.00    +0.000 C 
ATOM     27  C19 UNL A   1      15.341  27.663  41.150  1.00  0.00    +0.000 C 
BRANCH   22   23
ATOM     25  O4  UNL A   1      13.082  23.962  42.984  1.00  0.00    +0.000 O 
ATOM     23  N4  UNL A   1      14.287  24.311  42.421  1.00  0.00    +0.000 N 
ATOM     24  O3  UNL A   1      14.984  23.424  41.974  1.00  0.00    +0.000 O 
ENDBRANCH   22   23
ENDBRANCH   18   19
ENDBRANCH   17   18
ENDBRANCH   11   13
ENDBRANCH   10   11
ENDBRANCH    9   10
ENDBRANCH    8    9
ENDBRANCH    7    8
ENDBRANCH    6    7
ENDBRANCH    5    6
ENDBRANCH    4    5
ENDBRANCH    3    4
ENDBRANCH    2    3
ENDBRANCH   29    2
ENDBRANCH   33   32
BRANCH   37   38
ATOM     38  C29 UNL A   1      23.594  33.789  45.921  1.00  0.00    +0.000 C 
ATOM     39  C30 UNL A   1      24.142  32.660  46.545  1.00  0.00    +0.000 C 
ATOM     40  F1  UNL A   1      24.963  32.802  47.598  1.00  0.00    +0.000 F 
ATOM     41  C31 UNL A   1      23.884  31.378  46.064  1.00  0.00    +0.000 C 
ATOM     42  F2  UNL A   1      24.462  30.317  46.645  1.00  0.00    +0.000 F 
ATOM     43  C32 UNL A   1      23.047  31.198  44.973  1.00  0.00    +0.000 C 
ATOM     44  F3  UNL A   1      22.801  29.965  44.511  1.00  0.00    +0.000 F 
ATOM     45  C33 UNL A   1      22.473  32.299  44.356  1.00  0.00    +0.000 C 
ATOM     46  F4  UNL A   1      21.654  32.128  43.308  1.00  0.00    +0.000 F 
ATOM     47  C34 UNL A   1      22.751  33.583  44.818  1.00  0.00    +0.000 C 
ATOM     48  F5  UNL A   1      22.195  34.629  44.188  1.00  0.00    +0.000 F 
ENDBRANCH   37   38
BRANCH   54   55
ATOM     65  F10 UNL A   1      28.140  40.049  44.047  1.00  0.00    +0.000 F 
ATOM     55  C40 UNL A   1      28.957  38.598  45.747  1.00  0.00    +0.000 C 
ATOM     56  C41 UNL A   1      30.050  37.897  46.274  1.00  0.00    +0.000 C 
ATOM     57  F6  UNL A   1      29.910  37.166  47.390  1.00  0.00    +0.000 F 
ATOM     58  C42 UNL A   1      31.300  37.965  45.665  1.00  0.00    +0.000 C 
ATOM     59  F7  UNL A   1      32.340  37.309  46.199  1.00  0.00    +0.000 F 
ATOM     60  C43 UNL A   1      31.473  38.712  44.508  1.00  0.00    +0.000 C 
ATOM     61  F8  UNL A   1      32.674  38.763  43.914  1.00  0.00    +0.000 F 
ATOM     62  C44 UNL A   1      30.403  39.409  43.969  1.00  0.00    +0.000 C 
ATOM     63  F9  UNL A   1      30.565  40.122  42.846  1.00  0.00    +0.000 F 
ATOM     64  C45 UNL A   1      29.157  39.362  44.588  1.00  0.00    +0.000 C 
ENDBRANCH   54   55
BRANCH   69   70
ATOM     70  C49 UNL A   1      25.182  42.839  49.815  1.00  0.00    +0.000 C 
ATOM     71  C50 UNL A   1      24.862  44.041  49.172  1.00  0.00    +0.000 C 
ATOM     72  F11 UNL A   1      24.396  44.022  47.915  1.00  0.00    +0.000 F 
ATOM     73  C51 UNL A   1      25.030  45.265  49.815  1.00  0.00    +0.000 C 
ATOM     74  F12 UNL A   1      24.732  46.403  49.172  1.00  0.00    +0.000 F 
ATOM     75  C52 UNL A   1      25.501  45.309  51.118  1.00  0.00    +0.000 C 
ATOM     76  F13 UNL A   1      25.641  46.486  51.743  1.00  0.00    +0.000 F 
ATOM     77  C53 UNL A   1      25.825  44.131  51.775  1.00  0.00    +0.000 C 
ATOM     78  F14 UNL A   1      26.263  44.167  53.041  1.00  0.00    +0.000 F 
ATOM     79  C54 UNL A   1      25.681  42.908  51.125  1.00  0.00    +0.000 C 
ATOM     80  F15 UNL A   1      25.991  41.783  51.785  1.00  0.00    +0.000 F 
ENDBRANCH   69   70
TORSDOF 18
ENDMDL
MODEL 7
REMARK VINA RESULT:     -11.3     39.871     47.010
ROOT
ATOM     33  C25 UNL A   1      25.913  35.800  45.341  1.00  0.00    +0.000 C 
ATOM     34  C26 UNL A   1      27.234  35.729  44.635  1.00  0.00    +0.000 C 
ATOM     35  N5  UNL A   1      28.287  36.496  44.770  1.00  0.00    +0.000 N 
ATOM     36  C27 UNL A   1      29.246  35.978  43.911  1.00  0.00    +0.000 C 
ATOM     37  C28 UNL A   1      30.499  36.435  43.675  1.00  0.00    +0.000 C 
ATOM     49  C35 UNL A   1      31.068  37.601  44.302  1.00  0.00    +0.000 C 
ATOM     50  C36 UNL A   1      32.307  38.180  44.088  1.00  0.00    +0.000 C 
ATOM     51  C37 UNL A   1      32.444  39.258  44.969  1.00  0.00    +0.000 C 
ATOM     52  C38 UNL A   1      31.271  39.383  45.696  1.00  0.00    +0.000 C 
ATOM     53  N6  UNL A   1      30.435  38.360  45.277  1.00  0.00    +0.000 N 
ATOM     54  C39 UNL A   1      30.941  40.360  46.704  1.00  0.00    +0.000 C 
ATOM     66  C46 UNL A   1      29.757  40.437  47.359  1.00  0.00    +0.000 C 
ATOM     67  N7  UNL A   1      28.633  39.636  47.217  1.00  0.00    +0.000 N 
ATOM     68  C47 UNL A   1      27.747  40.106  48.061  1.00  0.00    +0.000 C 
ATOM     69  C48 UNL A   1      26.347  39.632  48.317  1.00  0.00    +0.000 C 
ATOM     81  C55 UNL A   1      25.849  38.620  47.584  1.00  0.00    +0.000 C 
ATOM     82  C56 UNL A   1      24.514  38.048  47.739  1.00  0.00    +0.000 C 
ATOM     83  C57 UNL A   1      24.411  36.969  46.950  1.00  0.00    +0.000 C 
ATOM     84  C58 UNL A   1      25.654  36.806  46.197  1.00  0.00    +0.000 C 
ATOM     85  N8  UNL A   1      26.429  37.867  46.593  1.00  0.00    +0.000 N 
ATOM     86  C59 UNL A   1      28.218  41.250  48.854  1.00  0.00    +0.000 C 
ATOM     87  C60 UNL A   1      29.440  41.426  48.370  1.00  0.00    +0.000 C 
ATOM     88  C61 UNL A   1      28.660  34.816  43.277  1.00  0.00    +0.000 C 
ATOM     89  C62 UNL A   1      27.401  34.645  43.656  1.00  0.00    +0.000 C 
ATOM    117  H26 UNL A   1      33.008  37.869  43.398  1.00  0.00    +0.000 H 
ATOM    118  H27 UNL A   1      33.277  39.859  45.061  1.00  0.00    +0.000 H 
ATOM    119  H28 UNL A   1      29.527  38.196  45.620  1.00  0.00    +0.000 H 
ATOM    120  H29 UNL A   1      23.772  38.416  48.353  1.00  0.00    +0.000 H 
ATOM    121  H30 UNL A   1      23.587  36.351  46.885  1.00  0.00    +0.000 H 
ATOM    122  H31 UNL A   1      27.312  38.069  46.205  1.00  0.00    +0.000 H 
ATOM    123  H32 UNL A   1      27.727  41.777  49.592  1.00  0.00    +0.000 H 
ATOM    124  H33 UNL A   1      30.084  42.172  48.675  1.00  0.00    +0.000 H 
ATOM    125  H34 UNL A   1      29.158  34.200  42.615  1.00  0.00    +0.000 H 
ATOM    126  H35 UNL A   1      26.718  33.937  43.346  1.00  0.00    +0.000 H 
ENDROOT
BRANCH   33   32
ATOM    127  H36 UNL A   1      23.903  35.739  43.551  1.00  0.00    +0.000 H 
ATOM     32  C24 UNL A   1      24.890  34.746  45.138  1.00  0.00    +0.000 C 
ATOM    115  H24 UNL A   1      24.071  31.662  46.184  1.00  0.00    +0.000 H 
ATOM    116  H25 UNL A   1      25.623  33.466  46.655  1.00  0.00    +0.000 H 
ATOM     90  C63 UNL A   1      23.913  34.891  44.140  1.00  0.00    +0.000 C 
ATOM     91  C64 UNL A   1      22.957  33.895  43.942  1.00  0.00    +0.000 C 
ATOM     29  C21 UNL A   1      22.989  32.735  44.719  1.00  0.00    +0.000 C 
ATOM     30  C22 UNL A   1      24.003  32.553  45.665  1.00  0.00    +0.000 C 
ATOM     31  C23 UNL A   1      24.920  33.573  45.907  1.00  0.00    +0.000 C 
ATOM    128  H37 UNL A   1      22.227  34.015  43.222  1.00  0.00    +0.000 H 
BRANCH   29    2
ATOM      1  O1  UNL A   1      22.216  30.522  44.752  1.00  0.00    +0.000 O 
ATOM      2  C1  UNL A   1      21.964  31.695  44.487  1.00  0.00    +0.000 C 
BRANCH    2    3
ATOM      3  N1  UNL A   1      20.742  32.035  43.967  1.00  0.00    +0.000 N 
ATOM     92  H1  UNL A   1      20.630  31.859  43.005  1.00  0.00    +0.000 H 
BRANCH    3    4
ATOM      4  C2  UNL A   1      19.589  32.617  44.632  1.00  0.00    +0.000 C 
ATOM     93  H2  UNL A   1      19.898  33.004  45.580  1.00  0.00    +0.000 H 
ATOM     94  H3  UNL A   1      18.854  31.848  44.743  1.00  0.00    +0.000 H 
BRANCH    4    5
ATOM      5  C3  UNL A   1      18.961  33.747  43.822  1.00  0.00    +0.000 C 
ATOM     95  H4  UNL A   1      19.002  33.475  42.786  1.00  0.00    +0.000 H 
ATOM     96  H5  UNL A   1      19.523  34.628  44.053  1.00  0.00    +0.000 H 
BRANCH    5    6
ATOM     97  H6  UNL A   1      17.429  35.120  44.331  1.00  0.00    +0.000 H 
ATOM     98  H7  UNL A   1      17.276  33.478  45.035  1.00  0.00    +0.000 H 
ATOM      6  C4  UNL A   1      17.506  34.065  44.170  1.00  0.00    +0.000 C 
BRANCH    6    7
ATOM     99  H8  UNL A   1      16.026  34.572  42.739  1.00  0.00    +0.000 H 
ATOM    100  H9  UNL A   1      15.784  33.018  43.602  1.00  0.00    +0.000 H 
ATOM      7  C5  UNL A   1      16.472  33.673  43.110  1.00  0.00    +0.000 C 
BRANCH    7    8
ATOM    101  H10 UNL A   1      18.082  32.986  41.908  1.00  0.00    +0.000 H 
ATOM    102  H11 UNL A   1      16.546  33.304  41.047  1.00  0.00    +0.000 H 
ATOM      8  C6  UNL A   1      17.016  32.888  41.912  1.00  0.00    +0.000 C 
BRANCH    8    9
ATOM      9  C7  UNL A   1      16.678  31.399  41.903  1.00  0.00    +0.000 C 
ATOM    103  H12 UNL A   1      17.306  30.907  41.190  1.00  0.00    +0.000 H 
ATOM    104  H13 UNL A   1      15.644  31.297  41.644  1.00  0.00    +0.000 H 
BRANCH    9   10
ATOM    105  H14 UNL A   1      16.634  31.345  43.978  1.00  0.00    +0.000 H 
ATOM     10  N2  UNL A   1      16.876  30.786  43.205  1.00  0.00    +0.000 N 
BRANCH   10   11
ATOM     11  C8  UNL A   1      17.354  29.537  43.504  1.00  0.00    +0.000 C 
ATOM     12  O2  UNL A   1      18.524  29.387  43.839  1.00  0.00    +0.000 O 
BRANCH   11   13
ATOM    106  H15 UNL A   1      16.661  27.891  45.471  1.00  0.00    +0.000 H 
ATOM    107  H16 UNL A   1      15.172  25.976  45.371  1.00  0.00    +0.000 H 
ATOM    108  H17 UNL A   1      14.127  25.360  43.278  1.00  0.00    +0.000 H 
ATOM     13  C9  UNL A   1      16.458  28.364  43.422  1.00  0.00    +0.000 C 
ATOM     14  C10 UNL A   1      16.215  27.625  44.579  1.00  0.00    +0.000 C 
ATOM     15  C11 UNL A   1      15.366  26.525  44.520  1.00  0.00    +0.000 C 
ATOM     16  C12 UNL A   1      14.773  26.163  43.305  1.00  0.00    +0.000 C 
ATOM     17  C13 UNL A   1      15.042  26.869  42.124  1.00  0.00    +0.000 C 
ATOM    114  H23 UNL A   1      16.116  28.509  41.343  1.00  0.00    +0.000 H 
ATOM     28  C20 UNL A   1      15.896  27.975  42.198  1.00  0.00    +0.000 C 
BRANCH   17   18
ATOM     18  N3  UNL A   1      14.439  26.569  40.882  1.00  0.00    +0.000 N 
ATOM    109  H18 UNL A   1      13.886  27.285  40.492  1.00  0.00    +0.000 H 
BRANCH   18   19
ATOM    110  H19 UNL A   1      15.421  26.313  38.460  1.00  0.00    +0.000 H 
ATOM    111  H20 UNL A   1      15.762  24.265  37.208  1.00  0.00    +0.000 H 
ATOM    112  H21 UNL A   1      13.973  22.066  40.322  1.00  0.00    +0.000 H 
ATOM    113  H22 UNL A   1      13.643  24.118  41.571  1.00  0.00    +0.000 H 
ATOM     19  C14 UNL A   1      14.523  25.383  40.129  1.00  0.00    +0.000 C 
ATOM     20  C15 UNL A   1      15.122  25.411  38.863  1.00  0.00    +0.000 C 
ATOM     21  C16 UNL A   1      15.319  24.232  38.140  1.00  0.00    +0.000 C 
ATOM     22  C17 UNL A   1      14.914  23.008  38.682  1.00  0.00    +0.000 C 
ATOM     26  C18 UNL A   1      14.291  22.966  39.931  1.00  0.00    +0.000 C 
ATOM     27  C19 UNL A   1      14.101  24.151  40.647  1.00  0.00    +0.000 C 
BRANCH   22   23
ATOM     25  O4  UNL A   1      14.304  20.716  38.055  1.00  0.00    +0.000 O 
ATOM     23  N4  UNL A   1      15.166  21.783  37.960  1.00  0.00    +0.000 N 
ATOM     24  O3  UNL A   1      16.158  21.653  37.274  1.00  0.00    +0.000 O 
ENDBRANCH   22   23
ENDBRANCH   18   19
ENDBRANCH   17   18
ENDBRANCH   11   13
ENDBRANCH   10   11
ENDBRANCH    9   10
ENDBRANCH    8    9
ENDBRANCH    7    8
ENDBRANCH    6    7
ENDBRANCH    5    6
ENDBRANCH    4    5
ENDBRANCH    3    4
ENDBRANCH    2    3
ENDBRANCH   29    2
ENDBRANCH   33   32
BRANCH   37   38
ATOM     38  C29 UNL A   1      31.353  35.656  42.718  1.00  0.00    +0.000 C 
ATOM     39  C30 UNL A   1      31.436  35.990  41.358  1.00  0.00    +0.000 C 
ATOM     40  F1  UNL A   1      30.718  37.014  40.870  1.00  0.00    +0.000 F 
ATOM     41  C31 UNL A   1      32.226  35.247  40.484  1.00  0.00    +0.000 C 
ATOM     42  F2  UNL A   1      32.248  35.553  39.179  1.00  0.00    +0.000 F 
ATOM     43  C32 UNL A   1      32.974  34.179  40.957  1.00  0.00    +0.000 C 
ATOM     44  F3  UNL A   1      33.731  33.465  40.113  1.00  0.00    +0.000 F 
ATOM     45  C33 UNL A   1      32.927  33.846  42.301  1.00  0.00    +0.000 C 
ATOM     46  F4  UNL A   1      33.658  32.822  42.763  1.00  0.00    +0.000 F 
ATOM     47  C34 UNL A   1      32.117  34.570  43.173  1.00  0.00    +0.000 C 
ATOM     48  F5  UNL A   1      32.080  34.212  44.465  1.00  0.00    +0.000 F 
ENDBRANCH   37   38
BRANCH   54   55
ATOM     65  F10 UNL A   1      30.798  43.049  45.806  1.00  0.00    +0.000 F 
ATOM     55  C40 UNL A   1      31.980  41.389  47.036  1.00  0.00    +0.000 C 
ATOM     56  C41 UNL A   1      33.117  41.067  47.789  1.00  0.00    +0.000 C 
ATOM     57  F6  UNL A   1      33.261  39.836  48.303  1.00  0.00    +0.000 F 
ATOM     58  C42 UNL A   1      34.102  42.019  48.036  1.00  0.00    +0.000 C 
ATOM     59  F7  UNL A   1      35.170  41.700  48.781  1.00  0.00    +0.000 F 
ATOM     60  C43 UNL A   1      33.981  43.300  47.515  1.00  0.00    +0.000 C 
ATOM     61  F8  UNL A   1      34.938  44.210  47.740  1.00  0.00    +0.000 F 
ATOM     62  C44 UNL A   1      32.865  43.637  46.763  1.00  0.00    +0.000 C 
ATOM     63  F9  UNL A   1      32.751  44.870  46.250  1.00  0.00    +0.000 F 
ATOM     64  C45 UNL A   1      31.867  42.694  46.534  1.00  0.00    +0.000 C 
ENDBRANCH   54   55
BRANCH   69   70
ATOM     70  C49 UNL A   1      25.492  40.252  49.360  1.00  0.00    +0.000 C 
ATOM     71  C50 UNL A   1      25.514  39.787  50.680  1.00  0.00    +0.000 C 
ATOM     72  F11 UNL A   1      26.254  38.715  50.999  1.00  0.00    +0.000 F 
ATOM     73  C51 UNL A   1      24.767  40.414  51.674  1.00  0.00    +0.000 C 
ATOM     74  F12 UNL A   1      24.791  39.940  52.927  1.00  0.00    +0.000 F 
ATOM     75  C52 UNL A   1      24.001  41.531  51.370  1.00  0.00    +0.000 C 
ATOM     76  F13 UNL A   1      23.300  42.147  52.332  1.00  0.00    +0.000 F 
ATOM     77  C53 UNL A   1      23.964  42.009  50.069  1.00  0.00    +0.000 C 
ATOM     78  F14 UNL A   1      23.240  43.097  49.775  1.00  0.00    +0.000 F 
ATOM     79  C54 UNL A   1      24.691  41.367  49.069  1.00  0.00    +0.000 C 
ATOM     80  F15 UNL A   1      24.647  41.855  47.821  1.00  0.00    +0.000 F 
ENDBRANCH   69   70
TORSDOF 18
ENDMDL
MODEL 8
REMARK VINA RESULT:     -11.3     44.235     50.190
ROOT
ATOM     33  C25 UNL A   1       9.750   0.627  24.813  1.00  0.00    +0.000 C 
ATOM     34  C26 UNL A   1       9.948   1.094  23.402  1.00  0.00    +0.000 C 
ATOM     35  N5  UNL A   1       9.795   0.432  22.282  1.00  0.00    +0.000 N 
ATOM     36  C27 UNL A   1      10.072   1.337  21.267  1.00  0.00    +0.000 C 
ATOM     37  C28 UNL A   1      10.072   1.125  19.928  1.00  0.00    +0.000 C 
ATOM     49  C35 UNL A   1       9.779  -0.141  19.309  1.00  0.00    +0.000 C 
ATOM     50  C36 UNL A   1       9.808  -0.473  17.965  1.00  0.00    +0.000 C 
ATOM     51  C37 UNL A   1       9.390  -1.802  17.833  1.00  0.00    +0.000 C 
ATOM     52  C38 UNL A   1       9.148  -2.314  19.098  1.00  0.00    +0.000 C 
ATOM     53  N6  UNL A   1       9.390  -1.285  19.994  1.00  0.00    +0.000 N 
ATOM     54  C39 UNL A   1       8.720  -3.642  19.461  1.00  0.00    +0.000 C 
ATOM     66  C46 UNL A   1       8.528  -4.081  20.729  1.00  0.00    +0.000 C 
ATOM     67  N7  UNL A   1       8.696  -3.392  21.922  1.00  0.00    +0.000 N 
ATOM     68  C47 UNL A   1       8.393  -4.241  22.873  1.00  0.00    +0.000 C 
ATOM     69  C48 UNL A   1       8.414  -4.035  24.359  1.00  0.00    +0.000 C 
ATOM     81  C55 UNL A   1       8.835  -2.858  24.856  1.00  0.00    +0.000 C 
ATOM     82  C56 UNL A   1       8.889  -2.516  26.275  1.00  0.00    +0.000 C 
ATOM     83  C57 UNL A   1       9.216  -1.222  26.397  1.00  0.00    +0.000 C 
ATOM     84  C58 UNL A   1       9.445  -0.659  25.066  1.00  0.00    +0.000 C 
ATOM     85  N8  UNL A   1       9.256  -1.719  24.215  1.00  0.00    +0.000 N 
ATOM     86  C59 UNL A   1       7.975  -5.564  22.391  1.00  0.00    +0.000 C 
ATOM     87  C60 UNL A   1       8.099  -5.421  21.078  1.00  0.00    +0.000 C 
ATOM     88  C61 UNL A   1      10.377   2.602  21.901  1.00  0.00    +0.000 C 
ATOM     89  C62 UNL A   1      10.359   2.494  23.222  1.00  0.00    +0.000 C 
ATOM    117  H26 UNL A   1      10.090   0.152  17.194  1.00  0.00    +0.000 H 
ATOM    118  H27 UNL A   1       9.279  -2.314  16.945  1.00  0.00    +0.000 H 
ATOM    119  H28 UNL A   1       9.302  -1.354  20.973  1.00  0.00    +0.000 H 
ATOM    120  H29 UNL A   1       8.707  -3.166  27.055  1.00  0.00    +0.000 H 
ATOM    121  H30 UNL A   1       9.293  -0.705  27.286  1.00  0.00    +0.000 H 
ATOM    122  H31 UNL A   1       9.405  -1.668  23.243  1.00  0.00    +0.000 H 
ATOM    123  H32 UNL A   1       7.667  -6.388  22.931  1.00  0.00    +0.000 H 
ATOM    124  H33 UNL A   1       7.912  -6.169  20.391  1.00  0.00    +0.000 H 
ATOM    125  H34 UNL A   1      10.584   3.475  21.390  1.00  0.00    +0.000 H 
ATOM    126  H35 UNL A   1      10.577   3.205  23.937  1.00  0.00    +0.000 H 
ENDROOT
BRANCH   33   32
ATOM    127  H36 UNL A   1       7.828   2.204  25.846  1.00  0.00    +0.000 H 
ATOM     32  C24 UNL A   1       9.847   1.580  25.945  1.00  0.00    +0.000 C 
ATOM    115  H24 UNL A   1      11.982   2.598  28.328  1.00  0.00    +0.000 H 
ATOM    116  H25 UNL A   1      11.885   1.188  26.358  1.00  0.00    +0.000 H 
ATOM     90  C63 UNL A   1       8.723   2.320  26.346  1.00  0.00    +0.000 C 
ATOM     91  C64 UNL A   1       8.812   3.209  27.417  1.00  0.00    +0.000 C 
ATOM     29  C21 UNL A   1      10.016   3.342  28.113  1.00  0.00    +0.000 C 
ATOM     30  C22 UNL A   1      11.118   2.555  27.765  1.00  0.00    +0.000 C 
ATOM     31  C23 UNL A   1      11.049   1.714  26.657  1.00  0.00    +0.000 C 
ATOM    128  H37 UNL A   1       7.989   3.768  27.695  1.00  0.00    +0.000 H 
BRANCH   29    2
ATOM      1  O1  UNL A   1      10.699   3.984  30.262  1.00  0.00    +0.000 O 
ATOM      2  C1  UNL A   1      10.081   4.291  29.245  1.00  0.00    +0.000 C 
BRANCH    2    3
ATOM      3  N1  UNL A   1       9.445   5.503  29.167  1.00  0.00    +0.000 N 
ATOM     92  H1  UNL A   1       8.472   5.478  29.310  1.00  0.00    +0.000 H 
BRANCH    3    4
ATOM      4  C2  UNL A   1      10.002   6.819  28.905  1.00  0.00    +0.000 C 
ATOM     93  H2  UNL A   1       9.660   7.494  29.661  1.00  0.00    +0.000 H 
ATOM     94  H3  UNL A   1       9.677   7.122  27.932  1.00  0.00    +0.000 H 
BRANCH    4    5
ATOM      5  C3  UNL A   1      11.528   6.814  28.905  1.00  0.00    +0.000 C 
ATOM     95  H4  UNL A   1      11.859   6.850  27.887  1.00  0.00    +0.000 H 
ATOM     96  H5  UNL A   1      11.823   5.923  29.418  1.00  0.00    +0.000 H 
BRANCH    5    6
ATOM     97  H6  UNL A   1      11.401   8.579  30.072  1.00  0.00    +0.000 H 
ATOM     98  H7  UNL A   1      12.787   8.487  28.938  1.00  0.00    +0.000 H 
ATOM      6  C4  UNL A   1      12.181   7.975  29.657  1.00  0.00    +0.000 C 
BRANCH    6    7
ATOM     99  H8  UNL A   1      13.683   8.445  31.077  1.00  0.00    +0.000 H 
ATOM    100  H9  UNL A   1      13.727   6.781  30.409  1.00  0.00    +0.000 H 
ATOM      7  C5  UNL A   1      13.125   7.577  30.795  1.00  0.00    +0.000 C 
BRANCH    7    8
ATOM    101  H10 UNL A   1      11.397   7.187  31.964  1.00  0.00    +0.000 H 
ATOM    102  H11 UNL A   1      12.895   7.534  32.879  1.00  0.00    +0.000 H 
ATOM      8  C6  UNL A   1      12.450   7.021  32.053  1.00  0.00    +0.000 C 
BRANCH    8    9
ATOM      9  C7  UNL A   1      12.675   5.532  32.307  1.00  0.00    +0.000 C 
ATOM    103  H12 UNL A   1      11.829   4.988  31.942  1.00  0.00    +0.000 H 
ATOM    104  H13 UNL A   1      12.798   5.392  33.361  1.00  0.00    +0.000 H 
BRANCH    9   10
ATOM    105  H14 UNL A   1      14.605   5.690  31.560  1.00  0.00    +0.000 H 
ATOM     10  N2  UNL A   1      13.870   5.040  31.646  1.00  0.00    +0.000 N 
BRANCH   10   11
ATOM     11  C8  UNL A   1      14.116   3.795  31.128  1.00  0.00    +0.000 C 
ATOM     12  O2  UNL A   1      14.070   2.805  31.851  1.00  0.00    +0.000 O 
BRANCH   11   13
ATOM    106  H15 UNL A   1      14.456   5.723  29.331  1.00  0.00    +0.000 H 
ATOM    107  H16 UNL A   1      15.013   5.501  26.978  1.00  0.00    +0.000 H 
ATOM    108  H17 UNL A   1      15.310   3.306  26.005  1.00  0.00    +0.000 H 
ATOM     13  C9  UNL A   1      14.438   3.642  29.694  1.00  0.00    +0.000 C 
ATOM     14  C10 UNL A   1      14.582   4.788  28.913  1.00  0.00    +0.000 C 
ATOM     15  C11 UNL A   1      14.896   4.660  27.564  1.00  0.00    +0.000 C 
ATOM     16  C12 UNL A   1      15.054   3.389  27.000  1.00  0.00    +0.000 C 
ATOM     17  C13 UNL A   1      14.870   2.226  27.762  1.00  0.00    +0.000 C 
ATOM    114  H23 UNL A   1      14.410   1.530  29.700  1.00  0.00    +0.000 H 
ATOM     28  C20 UNL A   1      14.557   2.370  29.118  1.00  0.00    +0.000 C 
BRANCH   17   18
ATOM     18  N3  UNL A   1      15.058   0.922  27.250  1.00  0.00    +0.000 N 
ATOM    109  H18 UNL A   1      15.826   0.426  27.616  1.00  0.00    +0.000 H 
BRANCH   18   19
ATOM    110  H19 UNL A   1      14.654   1.649  24.759  1.00  0.00    +0.000 H 
ATOM    111  H20 UNL A   1      13.508   0.409  23.020  1.00  0.00    +0.000 H 
ATOM    112  H21 UNL A   1      12.546  -2.600  25.804  1.00  0.00    +0.000 H 
ATOM    113  H22 UNL A   1      13.702  -1.357  27.536  1.00  0.00    +0.000 H 
ATOM     19  C14 UNL A   1      14.292   0.238  26.288  1.00  0.00    +0.000 C 
ATOM     20  C15 UNL A   1      14.217   0.741  24.982  1.00  0.00    +0.000 C 
ATOM     21  C16 UNL A   1      13.557   0.029  23.979  1.00  0.00    +0.000 C 
ATOM     22  C17 UNL A   1      12.961  -1.201  24.277  1.00  0.00    +0.000 C 
ATOM     26  C18 UNL A   1      13.003  -1.704  25.579  1.00  0.00    +0.000 C 
ATOM     27  C19 UNL A   1      13.669  -0.983  26.575  1.00  0.00    +0.000 C 
BRANCH   22   23
ATOM     25  O4  UNL A   1      12.028  -3.297  23.405  1.00  0.00    +0.000 O 
ATOM     23  N4  UNL A   1      12.325  -1.965  23.229  1.00  0.00    +0.000 N 
ATOM     24  O3  UNL A   1      12.062  -1.461  22.158  1.00  0.00    +0.000 O 
ENDBRANCH   22   23
ENDBRANCH   18   19
ENDBRANCH   17   18
ENDBRANCH   11   13
ENDBRANCH   10   11
ENDBRANCH    9   10
ENDBRANCH    8    9
ENDBRANCH    7    8
ENDBRANCH    6    7
ENDBRANCH    5    6
ENDBRANCH    4    5
ENDBRANCH    3    4
ENDBRANCH    2    3
ENDBRANCH   29    2
ENDBRANCH   33   32
BRANCH   37   38
ATOM     38  C29 UNL A   1      10.370   2.298  19.041  1.00  0.00    +0.000 C 
ATOM     39  C30 UNL A   1      11.666   2.564  18.576  1.00  0.00    +0.000 C 
ATOM     40  F1  UNL A   1      12.690   1.779  18.945  1.00  0.00    +0.000 F 
ATOM     41  C31 UNL A   1      11.924   3.665  17.762  1.00  0.00    +0.000 C 
ATOM     42  F2  UNL A   1      13.179   3.928  17.373  1.00  0.00    +0.000 F 
ATOM     43  C32 UNL A   1      10.888   4.500  17.369  1.00  0.00    +0.000 C 
ATOM     44  F3  UNL A   1      11.139   5.559  16.588  1.00  0.00    +0.000 F 
ATOM     45  C33 UNL A   1       9.596   4.241  17.796  1.00  0.00    +0.000 C 
ATOM     46  F4  UNL A   1       8.590   5.040  17.409  1.00  0.00    +0.000 F 
ATOM     47  C34 UNL A   1       9.339   3.158  18.633  1.00  0.00    +0.000 C 
ATOM     48  F5  UNL A   1       8.079   2.945  19.043  1.00  0.00    +0.000 F 
ENDBRANCH   37   38
BRANCH   54   55
ATOM     65  F10 UNL A   1       6.299  -3.782  17.985  1.00  0.00    +0.000 F 
ATOM     55  C40 UNL A   1       8.496  -4.624  18.350  1.00  0.00    +0.000 C 
ATOM     56  C41 UNL A   1       9.470  -5.567  17.997  1.00  0.00    +0.000 C 
ATOM     57  F6  UNL A   1      10.669  -5.557  18.599  1.00  0.00    +0.000 F 
ATOM     58  C42 UNL A   1       9.222  -6.511  17.004  1.00  0.00    +0.000 C 
ATOM     59  F7  UNL A   1      10.176  -7.388  16.662  1.00  0.00    +0.000 F 
ATOM     60  C43 UNL A   1       7.990  -6.545  16.367  1.00  0.00    +0.000 C 
ATOM     61  F8  UNL A   1       7.747  -7.465  15.423  1.00  0.00    +0.000 F 
ATOM     62  C44 UNL A   1       7.011  -5.623  16.705  1.00  0.00    +0.000 C 
ATOM     63  F9  UNL A   1       5.816  -5.662  16.098  1.00  0.00    +0.000 F 
ATOM     64  C45 UNL A   1       7.264  -4.663  17.680  1.00  0.00    +0.000 C 
ENDBRANCH   54   55
BRANCH   69   70
ATOM     70  C49 UNL A   1       7.981  -5.099  25.300  1.00  0.00    +0.000 C 
ATOM     71  C50 UNL A   1       6.732  -5.040  25.929  1.00  0.00    +0.000 C 
ATOM     72  F11 UNL A   1       5.942  -3.972  25.748  1.00  0.00    +0.000 F 
ATOM     73  C51 UNL A   1       6.296  -6.073  26.755  1.00  0.00    +0.000 C 
ATOM     74  F12 UNL A   1       5.103  -5.987  27.360  1.00  0.00    +0.000 F 
ATOM     75  C52 UNL A   1       7.092  -7.192  26.950  1.00  0.00    +0.000 C 
ATOM     76  F13 UNL A   1       6.662  -8.196  27.728  1.00  0.00    +0.000 F 
ATOM     77  C53 UNL A   1       8.334  -7.272  26.337  1.00  0.00    +0.000 C 
ATOM     78  F14 UNL A   1       9.099  -8.358  26.509  1.00  0.00    +0.000 F 
ATOM     79  C54 UNL A   1       8.781  -6.228  25.531  1.00  0.00    +0.000 C 
ATOM     80  F15 UNL A   1       9.981  -6.333  24.942  1.00  0.00    +0.000 F 
ENDBRANCH   69   70
TORSDOF 18
ENDMDL
MODEL 9
REMARK VINA RESULT:     -11.3     53.865     60.376
ROOT
ATOM     33  C25 UNL A   1       1.120   9.991  36.826  1.00  0.00    +0.000 C 
ATOM     34  C26 UNL A   1       1.313  11.242  37.632  1.00  0.00    +0.000 C 
ATOM     35  N5  UNL A   1       0.456  12.198  37.891  1.00  0.00    +0.000 N 
ATOM     36  C27 UNL A   1       1.131  13.099  38.704  1.00  0.00    +0.000 C 
ATOM     37  C28 UNL A   1       0.679  14.267  39.222  1.00  0.00    +0.000 C 
ATOM     49  C35 UNL A   1      -0.641  14.797  38.994  1.00  0.00    +0.000 C 
ATOM     50  C36 UNL A   1      -1.176  15.998  39.426  1.00  0.00    +0.000 C 
ATOM     51  C37 UNL A   1      -2.512  16.055  39.015  1.00  0.00    +0.000 C 
ATOM     52  C38 UNL A   1      -2.796  14.913  38.283  1.00  0.00    +0.000 C 
ATOM     53  N6  UNL A   1      -1.639  14.149  38.278  1.00  0.00    +0.000 N 
ATOM     54  C39 UNL A   1      -4.033  14.542  37.642  1.00  0.00    +0.000 C 
ATOM     66  C46 UNL A   1      -4.230  13.415  36.917  1.00  0.00    +0.000 C 
ATOM     67  N7  UNL A   1      -3.329  12.399  36.627  1.00  0.00    +0.000 N 
ATOM     68  C47 UNL A   1      -3.984  11.534  35.895  1.00  0.00    +0.000 C 
ATOM     69  C48 UNL A   1      -3.495  10.251  35.289  1.00  0.00    +0.000 C 
ATOM     81  C55 UNL A   1      -2.205   9.902  35.438  1.00  0.00    +0.000 C 
ATOM     82  C56 UNL A   1      -1.601   8.678  34.921  1.00  0.00    +0.000 C 
ATOM     83  C57 UNL A   1      -0.344   8.587  35.378  1.00  0.00    +0.000 C 
ATOM     84  C58 UNL A   1      -0.040   9.773  36.179  1.00  0.00    +0.000 C 
ATOM     85  N8  UNL A   1      -1.183  10.528  36.110  1.00  0.00    +0.000 N 
ATOM     86  C59 UNL A   1      -5.389  11.890  35.653  1.00  0.00    +0.000 C 
ATOM     87  C60 UNL A   1      -5.480  13.057  36.277  1.00  0.00    +0.000 C 
ATOM     88  C61 UNL A   1       2.459  12.563  38.916  1.00  0.00    +0.000 C 
ATOM     89  C62 UNL A   1       2.637  11.439  38.236  1.00  0.00    +0.000 C 
ATOM    117  H26 UNL A   1      -0.676  16.726  39.960  1.00  0.00    +0.000 H 
ATOM    118  H27 UNL A   1      -3.175  16.818  39.221  1.00  0.00    +0.000 H 
ATOM    119  H28 UNL A   1      -1.539  13.277  37.832  1.00  0.00    +0.000 H 
ATOM    120  H29 UNL A   1      -2.065   7.995  34.301  1.00  0.00    +0.000 H 
ATOM    121  H30 UNL A   1       0.305   7.805  35.197  1.00  0.00    +0.000 H 
ATOM    122  H31 UNL A   1      -1.264  11.428  36.502  1.00  0.00    +0.000 H 
ATOM    123  H32 UNL A   1      -6.114  11.370  35.134  1.00  0.00    +0.000 H 
ATOM    124  H33 UNL A   1      -6.334  13.636  36.305  1.00  0.00    +0.000 H 
ATOM    125  H34 UNL A   1       3.175  13.001  39.517  1.00  0.00    +0.000 H 
ATOM    126  H35 UNL A   1       3.484  10.855  38.155  1.00  0.00    +0.000 H 
ENDROOT
BRANCH   33   32
ATOM    127  H36 UNL A   1       3.313   9.944  35.266  1.00  0.00    +0.000 H 
ATOM     32  C24 UNL A   1       2.185   8.962  36.763  1.00  0.00    +0.000 C 
ATOM    115  H24 UNL A   1       3.195   6.148  38.291  1.00  0.00    +0.000 H 
ATOM    116  H25 UNL A   1       1.351   7.722  38.261  1.00  0.00    +0.000 H 
ATOM     90  C63 UNL A   1       3.265   9.115  35.879  1.00  0.00    +0.000 C 
ATOM     91  C64 UNL A   1       4.273   8.152  35.826  1.00  0.00    +0.000 C 
ATOM     29  C21 UNL A   1       4.224   7.046  36.678  1.00  0.00    +0.000 C 
ATOM     30  C22 UNL A   1       3.189   6.924  37.610  1.00  0.00    +0.000 C 
ATOM     31  C23 UNL A   1       2.150   7.852  37.621  1.00  0.00    +0.000 C 
ATOM    128  H37 UNL A   1       5.054   8.257  35.159  1.00  0.00    +0.000 H 
BRANCH   29    2
ATOM      1  O1  UNL A   1       5.129   5.004  35.968  1.00  0.00    +0.000 O 
ATOM      2  C1  UNL A   1       5.306   6.041  36.601  1.00  0.00    +0.000 C 
BRANCH    2    3
ATOM      3  N1  UNL A   1       6.497   6.260  37.244  1.00  0.00    +0.000 N 
ATOM     92  H1  UNL A   1       7.290   5.882  36.800  1.00  0.00    +0.000 H 
BRANCH    3    4
ATOM      4  C2  UNL A   1       6.757   6.969  38.485  1.00  0.00    +0.000 C 
ATOM     93  H2  UNL A   1       7.461   6.406  39.061  1.00  0.00    +0.000 H 
ATOM     94  H3  UNL A   1       5.826   7.077  38.999  1.00  0.00    +0.000 H 
BRANCH    4    5
ATOM      5  C3  UNL A   1       7.322   8.366  38.248  1.00  0.00    +0.000 C 
ATOM     95  H4  UNL A   1       7.455   8.495  37.193  1.00  0.00    +0.000 H 
ATOM     96  H5  UNL A   1       8.236   8.416  38.802  1.00  0.00    +0.000 H 
BRANCH    5    6
ATOM     97  H6  UNL A   1       6.084  10.053  37.911  1.00  0.00    +0.000 H 
ATOM     98  H7  UNL A   1       7.079  10.096  39.402  1.00  0.00    +0.000 H 
ATOM      6  C4  UNL A   1       6.451   9.514  38.760  1.00  0.00    +0.000 C 
BRANCH    6    7
ATOM     99  H8  UNL A   1       5.536   8.254  40.199  1.00  0.00    +0.000 H 
ATOM    100  H9  UNL A   1       4.455   8.901  38.921  1.00  0.00    +0.000 H 
ATOM      7  C5  UNL A   1       5.247   9.101  39.612  1.00  0.00    +0.000 C 
BRANCH    7    8
ATOM    101  H10 UNL A   1       4.480  11.045  39.988  1.00  0.00    +0.000 H 
ATOM    102  H11 UNL A   1       5.479  10.335  41.292  1.00  0.00    +0.000 H 
ATOM      8  C6  UNL A   1       4.711  10.174  40.566  1.00  0.00    +0.000 C 
BRANCH    8    9
ATOM      9  C7  UNL A   1       3.462   9.781  41.350  1.00  0.00    +0.000 C 
ATOM    103  H12 UNL A   1       3.633   8.835  41.821  1.00  0.00    +0.000 H 
ATOM    104  H13 UNL A   1       2.643   9.727  40.662  1.00  0.00    +0.000 H 
BRANCH    9   10
ATOM    105  H14 UNL A   1       2.336  11.314  42.181  1.00  0.00    +0.000 H 
ATOM     10  N2  UNL A   1       3.126  10.758  42.370  1.00  0.00    +0.000 N 
BRANCH   10   11
ATOM     11  C8  UNL A   1       3.760  11.013  43.558  1.00  0.00    +0.000 C 
ATOM     12  O2  UNL A   1       3.699  10.202  44.476  1.00  0.00    +0.000 O 
BRANCH   11   13
ATOM    106  H15 UNL A   1       4.029  12.435  45.787  1.00  0.00    +0.000 H 
ATOM    107  H16 UNL A   1       5.291  14.483  46.117  1.00  0.00    +0.000 H 
ATOM    108  H17 UNL A   1       6.491  15.479  44.268  1.00  0.00    +0.000 H 
ATOM     13  C9  UNL A   1       4.518  12.268  43.738  1.00  0.00    +0.000 C 
ATOM     14  C10 UNL A   1       4.541  12.863  45.000  1.00  0.00    +0.000 C 
ATOM     15  C11 UNL A   1       5.260  14.039  45.187  1.00  0.00    +0.000 C 
ATOM     16  C12 UNL A   1       5.942  14.620  44.112  1.00  0.00    +0.000 C 
ATOM     17  C13 UNL A   1       5.893  14.059  42.829  1.00  0.00    +0.000 C 
ATOM    114  H23 UNL A   1       5.111  12.444  41.719  1.00  0.00    +0.000 H 
ATOM     28  C20 UNL A   1       5.168  12.875  42.655  1.00  0.00    +0.000 C 
BRANCH   17   18
ATOM     18  N3  UNL A   1       6.596  14.584  41.721  1.00  0.00    +0.000 N 
ATOM    109  H18 UNL A   1       7.001  15.472  41.854  1.00  0.00    +0.000 H 
BRANCH   18   19
ATOM    110  H19 UNL A   1       4.926  14.633  39.695  1.00  0.00    +0.000 H 
ATOM    111  H20 UNL A   1       5.305  13.823  37.442  1.00  0.00    +0.000 H 
ATOM    112  H21 UNL A   1       9.091  12.387  38.597  1.00  0.00    +0.000 H 
ATOM    113  H22 UNL A   1       8.707  13.207  40.847  1.00  0.00    +0.000 H 
ATOM     19  C14 UNL A   1       6.794  14.007  40.453  1.00  0.00    +0.000 C 
ATOM     20  C15 UNL A   1       5.817  14.166  39.462  1.00  0.00    +0.000 C 
ATOM     21  C16 UNL A   1       6.033  13.700  38.163  1.00  0.00    +0.000 C 
ATOM     22  C17 UNL A   1       7.237  13.065  37.844  1.00  0.00    +0.000 C 
ATOM     26  C18 UNL A   1       8.211  12.874  38.827  1.00  0.00    +0.000 C 
ATOM     27  C19 UNL A   1       7.985  13.347  40.122  1.00  0.00    +0.000 C 
BRANCH   22   23
ATOM     25  O4  UNL A   1       7.800  11.321  36.212  1.00  0.00    +0.000 O 
ATOM     23  N4  UNL A   1       7.485  12.631  36.489  1.00  0.00    +0.000 N 
ATOM     24  O3  UNL A   1       7.450  13.415  35.564  1.00  0.00    +0.000 O 
ENDBRANCH   22   23
ENDBRANCH   18   19
ENDBRANCH   17   18
ENDBRANCH   11   13
ENDBRANCH   10   11
ENDBRANCH    9   10
ENDBRANCH    8    9
ENDBRANCH    7    8
ENDBRANCH    6    7
ENDBRANCH    5    6
ENDBRANCH    4    5
ENDBRANCH    3    4
ENDBRANCH    2    3
ENDBRANCH   29    2
ENDBRANCH   33   32
BRANCH   37   38
ATOM     38  C29 UNL A   1       1.610  15.037  40.111  1.00  0.00    +0.000 C 
ATOM     39  C30 UNL A   1       1.722  14.761  41.482  1.00  0.00    +0.000 C 
ATOM     40  F1  UNL A   1       0.964  13.806  42.043  1.00  0.00    +0.000 F 
ATOM     41  C31 UNL A   1       2.586  15.495  42.293  1.00  0.00    +0.000 C 
ATOM     42  F2  UNL A   1       2.637  15.248  43.609  1.00  0.00    +0.000 F 
ATOM     43  C32 UNL A   1       3.377  16.493  41.745  1.00  0.00    +0.000 C 
ATOM     44  F3  UNL A   1       4.205  17.198  42.527  1.00  0.00    +0.000 F 
ATOM     45  C33 UNL A   1       3.302  16.765  40.388  1.00  0.00    +0.000 C 
ATOM     46  F4  UNL A   1       4.075  17.722  39.853  1.00  0.00    +0.000 F 
ATOM     47  C34 UNL A   1       2.420  16.052  39.580  1.00  0.00    +0.000 C 
ATOM     48  F5  UNL A   1       2.357  16.352  38.274  1.00  0.00    +0.000 F 
ENDBRANCH   37   38
BRANCH   54   55
ATOM     65  F10 UNL A   1      -4.718  16.413  35.620  1.00  0.00    +0.000 F 
ATOM     55  C40 UNL A   1      -5.186  15.493  37.764  1.00  0.00    +0.000 C 
ATOM     56  C41 UNL A   1      -5.981  15.537  38.918  1.00  0.00    +0.000 C 
ATOM     57  F6  UNL A   1      -5.773  14.664  39.915  1.00  0.00    +0.000 F 
ATOM     58  C42 UNL A   1      -7.009  16.468  39.040  1.00  0.00    +0.000 C 
ATOM     59  F7  UNL A   1      -7.775  16.477  40.140  1.00  0.00    +0.000 F 
ATOM     60  C43 UNL A   1      -7.245  17.384  38.025  1.00  0.00    +0.000 C 
ATOM     61  F8  UNL A   1      -8.225  18.289  38.151  1.00  0.00    +0.000 F 
ATOM     62  C44 UNL A   1      -6.467  17.359  36.877  1.00  0.00    +0.000 C 
ATOM     63  F9  UNL A   1      -6.686  18.251  35.900  1.00  0.00    +0.000 F 
ATOM     64  C45 UNL A   1      -5.454  16.415  36.742  1.00  0.00    +0.000 C 
ENDBRANCH   54   55
BRANCH   69   70
ATOM     70  C49 UNL A   1      -4.399   9.354  34.527  1.00  0.00    +0.000 C 
ATOM     71  C50 UNL A   1      -5.112   8.335  35.168  1.00  0.00    +0.000 C 
ATOM     72  F11 UNL A   1      -4.922   8.107  36.476  1.00  0.00    +0.000 F 
ATOM     73  C51 UNL A   1      -6.015   7.540  34.466  1.00  0.00    +0.000 C 
ATOM     74  F12 UNL A   1      -6.674   6.559  35.099  1.00  0.00    +0.000 F 
ATOM     75  C52 UNL A   1      -6.235   7.763  33.115  1.00  0.00    +0.000 C 
ATOM     76  F13 UNL A   1      -7.120   7.012  32.445  1.00  0.00    +0.000 F 
ATOM     77  C53 UNL A   1      -5.539   8.767  32.458  1.00  0.00    +0.000 C 
ATOM     78  F14 UNL A   1      -5.762   8.998  31.158  1.00  0.00    +0.000 F 
ATOM     79  C54 UNL A   1      -4.618   9.546  33.155  1.00  0.00    +0.000 C 
ATOM     80  F15 UNL A   1      -3.965  10.517  32.499  1.00  0.00    +0.000 F 
ENDBRANCH   69   70
TORSDOF 18
ENDMDL
MODEL 10
REMARK VINA RESULT:     -11.3     19.743     25.968
ROOT
ATOM     33  C25 UNL A   1      38.417  30.240  29.774  1.00  0.00    +0.000 C 
ATOM     34  C26 UNL A   1      39.524  29.425  29.174  1.00  0.00    +0.000 C 
ATOM     35  N5  UNL A   1      40.671  29.075  29.699  1.00  0.00    +0.000 N 
ATOM     36  C27 UNL A   1      41.306  28.299  28.739  1.00  0.00    +0.000 C 
ATOM     37  C28 UNL A   1      42.530  27.720  28.799  1.00  0.00    +0.000 C 
ATOM     49  C35 UNL A   1      43.422  27.828  29.924  1.00  0.00    +0.000 C 
ATOM     50  C36 UNL A   1      44.705  27.327  30.060  1.00  0.00    +0.000 C 
ATOM     51  C37 UNL A   1      45.158  27.627  31.349  1.00  0.00    +0.000 C 
ATOM     52  C38 UNL A   1      44.177  28.358  32.000  1.00  0.00    +0.000 C 
ATOM     53  N6  UNL A   1      43.118  28.475  31.114  1.00  0.00    +0.000 N 
ATOM     54  C39 UNL A   1      44.203  28.905  33.334  1.00  0.00    +0.000 C 
ATOM     66  C46 UNL A   1      43.211  29.637  33.897  1.00  0.00    +0.000 C 
ATOM     67  N7  UNL A   1      41.996  30.022  33.348  1.00  0.00    +0.000 N 
ATOM     68  C47 UNL A   1      41.386  30.718  34.275  1.00  0.00    +0.000 C 
ATOM     69  C48 UNL A   1      40.046  31.390  34.218  1.00  0.00    +0.000 C 
ATOM     81  C55 UNL A   1      39.338  31.355  33.075  1.00  0.00    +0.000 C 
ATOM     82  C56 UNL A   1      38.017  31.947  32.885  1.00  0.00    +0.000 C 
ATOM     83  C57 UNL A   1      37.553  31.596  31.678  1.00  0.00    +0.000 C 
ATOM     84  C58 UNL A   1      38.566  30.796  30.990  1.00  0.00    +0.000 C 
ATOM     85  N8  UNL A   1      39.617  30.755  31.872  1.00  0.00    +0.000 N 
ATOM     86  C59 UNL A   1      42.137  30.837  35.532  1.00  0.00    +0.000 C 
ATOM     87  C60 UNL A   1      43.253  30.181  35.240  1.00  0.00    +0.000 C 
ATOM     88  C61 UNL A   1      40.406  28.209  27.608  1.00  0.00    +0.000 C 
ATOM     89  C62 UNL A   1      39.309  28.925  27.809  1.00  0.00    +0.000 C 
ATOM    117  H26 UNL A   1      45.236  26.819  29.335  1.00  0.00    +0.000 H 
ATOM    118  H27 UNL A   1      46.068  27.350  31.749  1.00  0.00    +0.000 H 
ATOM    119  H28 UNL A   1      42.274  28.947  31.300  1.00  0.00    +0.000 H 
ATOM    120  H29 UNL A   1      37.523  32.542  33.569  1.00  0.00    +0.000 H 
ATOM    121  H30 UNL A   1      36.628  31.847  31.295  1.00  0.00    +0.000 H 
ATOM    122  H31 UNL A   1      40.485  30.337  31.663  1.00  0.00    +0.000 H 
ATOM    123  H32 UNL A   1      41.868  31.307  36.410  1.00  0.00    +0.000 H 
ATOM    124  H33 UNL A   1      44.049  30.071  35.887  1.00  0.00    +0.000 H 
ATOM    125  H34 UNL A   1      40.595  27.658  26.755  1.00  0.00    +0.000 H 
ATOM    126  H35 UNL A   1      38.513  29.089  27.173  1.00  0.00    +0.000 H 
ENDROOT
BRANCH   33   32
ATOM    127  H36 UNL A   1      36.460  28.433  29.383  1.00  0.00    +0.000 H 
ATOM     32  C24 UNL A   1      37.131  30.413  29.056  1.00  0.00    +0.000 C 
ATOM    115  H24 UNL A   1      35.269  32.774  27.563  1.00  0.00    +0.000 H 
ATOM    116  H25 UNL A   1      37.454  32.445  28.561  1.00  0.00    +0.000 H 
ATOM     90  C63 UNL A   1      36.226  29.344  28.959  1.00  0.00    +0.000 C 
ATOM     91  C64 UNL A   1      35.012  29.510  28.292  1.00  0.00    +0.000 C 
ATOM     29  C21 UNL A   1      34.682  30.752  27.744  1.00  0.00    +0.000 C 
ATOM     30  C22 UNL A   1      35.548  31.839  27.900  1.00  0.00    +0.000 C 
ATOM     31  C23 UNL A   1      36.787  31.659  28.511  1.00  0.00    +0.000 C 
ATOM    128  H37 UNL A   1      34.358  28.715  28.203  1.00  0.00    +0.000 H 
BRANCH   29    2
ATOM      1  O1  UNL A   1      32.801  31.977  27.072  1.00  0.00    +0.000 O 
ATOM      2  C1  UNL A   1      33.389  30.899  27.044  1.00  0.00    +0.000 C 
BRANCH    2    3
ATOM      3  N1  UNL A   1      32.840  29.834  26.376  1.00  0.00    +0.000 N 
ATOM     92  H1  UNL A   1      32.279  29.239  26.923  1.00  0.00    +0.000 H 
BRANCH    3    4
ATOM      4  C2  UNL A   1      32.968  29.460  24.978  1.00  0.00    +0.000 C 
ATOM     93  H2  UNL A   1      33.538  30.211  24.473  1.00  0.00    +0.000 H 
ATOM     94  H3  UNL A   1      31.983  29.375  24.572  1.00  0.00    +0.000 H 
BRANCH    4    5
ATOM      5  C3  UNL A   1      33.663  28.114  24.799  1.00  0.00    +0.000 C 
ATOM     95  H4  UNL A   1      33.737  27.649  25.761  1.00  0.00    +0.000 H 
ATOM     96  H5  UNL A   1      34.613  28.325  24.354  1.00  0.00    +0.000 H 
BRANCH    5    6
ATOM     97  H6  UNL A   1      33.146  26.146  24.206  1.00  0.00    +0.000 H 
ATOM     98  H7  UNL A   1      33.352  27.335  22.880  1.00  0.00    +0.000 H 
ATOM      6  C4  UNL A   1      32.957  27.139  23.856  1.00  0.00    +0.000 C 
BRANCH    6    7
ATOM     99  H8  UNL A   1      31.190  27.312  22.696  1.00  0.00    +0.000 H 
ATOM    100  H9  UNL A   1      31.214  28.237  24.233  1.00  0.00    +0.000 H 
ATOM      7  C5  UNL A   1      31.440  27.316  23.737  1.00  0.00    +0.000 C 
BRANCH    7    8
ATOM    101  H10 UNL A   1      30.824  25.300  23.987  1.00  0.00    +0.000 H 
ATOM    102  H11 UNL A   1      29.573  26.542  24.294  1.00  0.00    +0.000 H 
ATOM      8  C6  UNL A   1      30.591  26.246  24.430  1.00  0.00    +0.000 C 
BRANCH    8    9
ATOM      9  C7  UNL A   1      30.801  26.126  25.938  1.00  0.00    +0.000 C 
ATOM    103  H12 UNL A   1      29.938  26.515  26.438  1.00  0.00    +0.000 H 
ATOM    104  H13 UNL A   1      31.680  26.682  26.194  1.00  0.00    +0.000 H 
BRANCH    9   10
ATOM    105  H14 UNL A   1      30.891  24.577  27.316  1.00  0.00    +0.000 H 
ATOM     10  N2  UNL A   1      31.003  24.750  26.354  1.00  0.00    +0.000 N 
BRANCH   10   11
ATOM     11  C8  UNL A   1      31.328  23.659  25.589  1.00  0.00    +0.000 C 
ATOM     12  O2  UNL A   1      30.581  22.687  25.552  1.00  0.00    +0.000 O 
BRANCH   11   13
ATOM    106  H15 UNL A   1      31.622  23.074  23.014  1.00  0.00    +0.000 H 
ATOM    107  H16 UNL A   1      33.662  23.080  21.697  1.00  0.00    +0.000 H 
ATOM    108  H17 UNL A   1      35.772  23.658  22.731  1.00  0.00    +0.000 H 
ATOM     13  C9  UNL A   1      32.581  23.652  24.806  1.00  0.00    +0.000 C 
ATOM     14  C10 UNL A   1      32.524  23.318  23.453  1.00  0.00    +0.000 C 
ATOM     15  C11 UNL A   1      33.694  23.317  22.700  1.00  0.00    +0.000 C 
ATOM     16  C12 UNL A   1      34.914  23.639  23.304  1.00  0.00    +0.000 C 
ATOM     17  C13 UNL A   1      34.995  23.934  24.672  1.00  0.00    +0.000 C 
ATOM    114  H23 UNL A   1      33.842  24.141  26.427  1.00  0.00    +0.000 H 
ATOM     28  C20 UNL A   1      33.810  23.934  25.417  1.00  0.00    +0.000 C 
BRANCH   17   18
ATOM     18  N3  UNL A   1      36.195  24.304  25.320  1.00  0.00    +0.000 N 
ATOM    109  H18 UNL A   1      36.253  25.244  25.608  1.00  0.00    +0.000 H 
BRANCH   18   19
ATOM    110  H19 UNL A   1      38.318  25.019  26.690  1.00  0.00    +0.000 H 
ATOM    111  H20 UNL A   1      40.181  23.625  27.373  1.00  0.00    +0.000 H 
ATOM    112  H21 UNL A   1      38.514  20.376  25.275  1.00  0.00    +0.000 H 
ATOM    113  H22 UNL A   1      36.650  21.775  24.604  1.00  0.00    +0.000 H 
ATOM     19  C14 UNL A   1      37.319  23.507  25.608  1.00  0.00    +0.000 C 
ATOM     20  C15 UNL A   1      38.351  24.030  26.397  1.00  0.00    +0.000 C 
ATOM     21  C16 UNL A   1      39.425  23.229  26.791  1.00  0.00    +0.000 C 
ATOM     22  C17 UNL A   1      39.475  21.889  26.395  1.00  0.00    +0.000 C 
ATOM     26  C18 UNL A   1      38.467  21.359  25.585  1.00  0.00    +0.000 C 
ATOM     27  C19 UNL A   1      37.396  22.169  25.199  1.00  0.00    +0.000 C 
BRANCH   22   23
ATOM     25  O4  UNL A   1      41.272  21.353  27.979  1.00  0.00    +0.000 O 
ATOM     23  N4  UNL A   1      40.556  21.044  26.845  1.00  0.00    +0.000 N 
ATOM     24  O3  UNL A   1      40.880  20.056  26.220  1.00  0.00    +0.000 O 
ENDBRANCH   22   23
ENDBRANCH   18   19
ENDBRANCH   17   18
ENDBRANCH   11   13
ENDBRANCH   10   11
ENDBRANCH    9   10
ENDBRANCH    8    9
ENDBRANCH    7    8
ENDBRANCH    6    7
ENDBRANCH    5    6
ENDBRANCH    4    5
ENDBRANCH    3    4
ENDBRANCH    2    3
ENDBRANCH   29    2
ENDBRANCH   33   32
BRANCH   37   38
ATOM     38  C29 UNL A   1      42.963  26.892  27.625  1.00  0.00    +0.000 C 
ATOM     39  C30 UNL A   1      42.556  25.559  27.468  1.00  0.00    +0.000 C 
ATOM     40  F1  UNL A   1      41.782  24.975  28.397  1.00  0.00    +0.000 F 
ATOM     41  C31 UNL A   1      42.977  24.804  26.376  1.00  0.00    +0.000 C 
ATOM     42  F2  UNL A   1      42.619  23.516  26.276  1.00  0.00    +0.000 F 
ATOM     43  C32 UNL A   1      43.784  25.375  25.403  1.00  0.00    +0.000 C 
ATOM     44  F3  UNL A   1      44.189  24.646  24.354  1.00  0.00    +0.000 F 
ATOM     45  C33 UNL A   1      44.176  26.699  25.523  1.00  0.00    +0.000 C 
ATOM     46  F4  UNL A   1      44.946  27.257  24.578  1.00  0.00    +0.000 F 
ATOM     47  C34 UNL A   1      43.779  27.448  26.628  1.00  0.00    +0.000 C 
ATOM     48  F5  UNL A   1      44.191  28.721  26.724  1.00  0.00    +0.000 F 
ENDBRANCH   37   38
BRANCH   54   55
ATOM     65  F10 UNL A   1      44.487  26.700  35.099  1.00  0.00    +0.000 F 
ATOM     55  C40 UNL A   1      45.435  28.668  34.154  1.00  0.00    +0.000 C 
ATOM     56  C41 UNL A   1      46.519  29.556  34.123  1.00  0.00    +0.000 C 
ATOM     57  F6  UNL A   1      46.509  30.605  33.287  1.00  0.00    +0.000 F 
ATOM     58  C42 UNL A   1      47.630  29.354  34.937  1.00  0.00    +0.000 C 
ATOM     59  F7  UNL A   1      48.668  30.199  34.873  1.00  0.00    +0.000 F 
ATOM     60  C43 UNL A   1      47.667  28.278  35.813  1.00  0.00    +0.000 C 
ATOM     61  F8  UNL A   1      48.730  28.094  36.607  1.00  0.00    +0.000 F 
ATOM     62  C44 UNL A   1      46.603  27.390  35.862  1.00  0.00    +0.000 C 
ATOM     63  F9  UNL A   1      46.631  26.356  36.715  1.00  0.00    +0.000 F 
ATOM     64  C45 UNL A   1      45.501  27.576  35.033  1.00  0.00    +0.000 C 
ENDBRANCH   54   55
BRANCH   69   70
ATOM     70  C49 UNL A   1      39.478  32.097  35.393  1.00  0.00    +0.000 C 
ATOM     71  C50 UNL A   1      39.697  33.466  35.586  1.00  0.00    +0.000 C 
ATOM     72  F11 UNL A   1      40.496  34.140  34.747  1.00  0.00    +0.000 F 
ATOM     73  C51 UNL A   1      39.104  34.145  36.648  1.00  0.00    +0.000 C 
ATOM     74  F12 UNL A   1      39.343  35.452  36.822  1.00  0.00    +0.000 F 
ATOM     75  C52 UNL A   1      38.266  33.471  37.524  1.00  0.00    +0.000 C 
ATOM     76  F13 UNL A   1      37.679  34.129  38.533  1.00  0.00    +0.000 F 
ATOM     77  C53 UNL A   1      38.035  32.114  37.353  1.00  0.00    +0.000 C 
ATOM     78  F14 UNL A   1      37.211  31.463  38.186  1.00  0.00    +0.000 F 
ATOM     79  C54 UNL A   1      38.647  31.430  36.305  1.00  0.00    +0.000 C 
ATOM     80  F15 UNL A   1      38.398  30.121  36.155  1.00  0.00    +0.000 F 
ENDBRANCH   69   70
TORSDOF 18
ENDMDL
