MODEL 1
REMARK VINA RESULT:     -10.7      0.000      0.000
ROOT
ATOM     27  C21 UNL A   1      53.351  19.660  11.572  1.00  0.00    +0.000 C 
ATOM     28  C22 UNL A   1      54.719  19.045  11.434  1.00  0.00    +0.000 C 
ATOM     29  N3  UNL A   1      55.718  19.043  12.281  1.00  0.00    +0.000 N 
ATOM     30  C23 UNL A   1      56.728  18.307  11.677  1.00  0.00    +0.000 C 
ATOM     31  C24 UNL A   1      57.988  18.075  12.118  1.00  0.00    +0.000 C 
ATOM     43  C31 UNL A   1      58.516  18.573  13.362  1.00  0.00    +0.000 C 
ATOM     44  C32 UNL A   1      59.794  18.434  13.874  1.00  0.00    +0.000 C 
ATOM     45  C33 UNL A   1      59.827  19.034  15.137  1.00  0.00    +0.000 C 
ATOM     46  C34 UNL A   1      58.589  19.604  15.383  1.00  0.00    +0.000 C 
ATOM     47  N4  UNL A   1      57.791  19.307  14.290  1.00  0.00    +0.000 N 
ATOM     48  C35 UNL A   1      58.165  20.363  16.533  1.00  0.00    +0.000 C 
ATOM     60  C42 UNL A   1      56.929  20.893  16.696  1.00  0.00    +0.000 C 
ATOM     61  N5  UNL A   1      55.836  20.845  15.840  1.00  0.00    +0.000 N 
ATOM     62  C43 UNL A   1      54.871  21.490  16.451  1.00  0.00    +0.000 C 
ATOM     63  C44 UNL A   1      53.472  21.784  15.974  1.00  0.00    +0.000 C 
ATOM     75  C51 UNL A   1      53.091  21.355  14.755  1.00  0.00    +0.000 C 
ATOM     76  C52 UNL A   1      51.776  21.568  14.159  1.00  0.00    +0.000 C 
ATOM     77  C53 UNL A   1      51.733  20.957  12.963  1.00  0.00    +0.000 C 
ATOM     78  C54 UNL A   1      53.034  20.346  12.688  1.00  0.00    +0.000 C 
ATOM     79  N6  UNL A   1      53.779  20.639  13.804  1.00  0.00    +0.000 N 
ATOM     80  C55 UNL A   1      55.236  21.989  17.783  1.00  0.00    +0.000 C 
ATOM     81  C56 UNL A   1      56.513  21.644  17.862  1.00  0.00    +0.000 C 
ATOM     82  C57 UNL A   1      56.204  17.825  10.418  1.00  0.00    +0.000 C 
ATOM     83  C58 UNL A   1      54.993  18.313  10.188  1.00  0.00    +0.000 C 
ATOM    109  H24 UNL A   1      60.586  17.966  13.405  1.00  0.00    +0.000 H 
ATOM    110  H25 UNL A   1      60.637  19.048  15.776  1.00  0.00    +0.000 H 
ATOM    111  H26 UNL A   1      56.850  19.576  14.187  1.00  0.00    +0.000 H 
ATOM    112  H27 UNL A   1      51.003  22.102  14.586  1.00  0.00    +0.000 H 
ATOM    113  H28 UNL A   1      50.913  20.924  12.338  1.00  0.00    +0.000 H 
ATOM    114  H29 UNL A   1      54.717  20.363  13.914  1.00  0.00    +0.000 H 
ATOM    115  H30 UNL A   1      54.651  22.482  18.476  1.00  0.00    +0.000 H 
ATOM    116  H31 UNL A   1      57.131  21.880  18.654  1.00  0.00    +0.000 H 
ATOM    117  H32 UNL A   1      56.706  17.186   9.782  1.00  0.00    +0.000 H 
ATOM    118  H33 UNL A   1      54.398  18.207   9.352  1.00  0.00    +0.000 H 
ENDROOT
BRANCH   27   26
ATOM    107  H22 UNL A   1      50.144  17.208   9.308  1.00  0.00    +0.000 H 
ATOM    108  H23 UNL A   1      51.706  17.547  11.134  1.00  0.00    +0.000 H 
ATOM     84  C59 UNL A   1      52.095  20.486   9.570  1.00  0.00    +0.000 C 
ATOM     85  C60 UNL A   1      51.122  20.329   8.582  1.00  0.00    +0.000 C 
ATOM    120  H35 UNL A   1      50.894  21.117   7.955  1.00  0.00    +0.000 H 
ATOM     23  C17 UNL A   1      50.455  19.109   8.441  1.00  0.00    +0.000 C 
ATOM     24  C18 UNL A   1      50.666  18.096   9.382  1.00  0.00    +0.000 C 
ATOM     25  C19 UNL A   1      51.581  18.284  10.423  1.00  0.00    +0.000 C 
ATOM    119  H34 UNL A   1      52.646  21.357   9.611  1.00  0.00    +0.000 H 
ATOM     26  C20 UNL A   1      52.331  19.469  10.506  1.00  0.00    +0.000 C 
BRANCH   23   21
ATOM     21  C16 UNL A   1      49.490  18.867   7.341  1.00  0.00    +0.000 C 
ATOM     22  O4  UNL A   1      49.142  17.716   7.088  1.00  0.00    +0.000 O 
BRANCH   21   20
ATOM    106  H21 UNL A   1      48.979  20.777   7.043  1.00  0.00    +0.000 H 
ATOM     20  N2  UNL A   1      48.994  19.904   6.588  1.00  0.00    +0.000 N 
BRANCH   20   19
ATOM    105  H20 UNL A   1      48.430  18.898   4.901  1.00  0.00    +0.000 H 
ATOM     19  C15 UNL A   1      48.491  19.915   5.227  1.00  0.00    +0.000 C 
ATOM    104  H19 UNL A   1      49.158  20.492   4.622  1.00  0.00    +0.000 H 
BRANCH   19   18
ATOM     18  C14 UNL A   1      47.093  20.512   5.113  1.00  0.00    +0.000 C 
ATOM    102  H17 UNL A   1      46.706  20.622   6.104  1.00  0.00    +0.000 H 
ATOM    103  H18 UNL A   1      47.222  21.431   4.579  1.00  0.00    +0.000 H 
BRANCH   18   17
ATOM     17  C13 UNL A   1      46.070  19.715   4.301  1.00  0.00    +0.000 C 
ATOM    100  H15 UNL A   1      46.582  19.302   3.457  1.00  0.00    +0.000 H 
ATOM    101  H16 UNL A   1      45.673  18.998   4.988  1.00  0.00    +0.000 H 
BRANCH   17   16
ATOM     98  H13 UNL A   1      43.979  19.911   4.041  1.00  0.00    +0.000 H 
ATOM     99  H14 UNL A   1      44.921  21.447   4.215  1.00  0.00    +0.000 H 
ATOM     16  C12 UNL A   1      44.847  20.476   3.772  1.00  0.00    +0.000 C 
BRANCH   16   15
ATOM     97  H12 UNL A   1      45.049  19.818   1.802  1.00  0.00    +0.000 H 
ATOM     15  C11 UNL A   1      44.770  20.742   2.264  1.00  0.00    +0.000 C 
ATOM     96  H11 UNL A   1      45.418  21.566   2.048  1.00  0.00    +0.000 H 
BRANCH   15   14
ATOM     94  H9  UNL A   1      42.715  21.153   2.514  1.00  0.00    +0.000 H 
ATOM     14  C10 UNL A   1      43.397  21.074   1.694  1.00  0.00    +0.000 C 
ATOM     95  H10 UNL A   1      43.530  21.980   1.140  1.00  0.00    +0.000 H 
BRANCH   14   13
ATOM     13  N1  UNL A   1      42.849  20.127   0.756  1.00  0.00    +0.000 N 
ATOM     93  H8  UNL A   1      43.506  19.529   0.332  1.00  0.00    +0.000 H 
BRANCH   13   11
ATOM     11  C9  UNL A   1      41.542  19.934   0.365  1.00  0.00    +0.000 C 
ATOM     12  O3  UNL A   1      41.361  19.559  -0.796  1.00  0.00    +0.000 O 
BRANCH   11   10
ATOM      5  C3  UNL A   1      39.346  21.004   1.289  1.00  0.00    +0.000 C 
ATOM      6  C4  UNL A   1      38.333  20.989   2.263  1.00  0.00    +0.000 C 
ATOM      7  C5  UNL A   1      38.271  19.962   3.199  1.00  0.00    +0.000 C 
ATOM      8  C6  UNL A   1      39.219  18.946   3.163  1.00  0.00    +0.000 C 
ATOM      9  C7  UNL A   1      40.245  18.983   2.211  1.00  0.00    +0.000 C 
ATOM     10  C8  UNL A   1      40.355  20.032   1.273  1.00  0.00    +0.000 C 
ATOM     89  H4  UNL A   1      37.631  21.744   2.284  1.00  0.00    +0.000 H 
ATOM     90  H5  UNL A   1      37.529  19.955   3.916  1.00  0.00    +0.000 H 
ATOM     91  H6  UNL A   1      39.166  18.166   3.836  1.00  0.00    +0.000 H 
ATOM     92  H7  UNL A   1      40.941  18.221   2.195  1.00  0.00    +0.000 H 
BRANCH    5    4
ATOM      4  O2  UNL A   1      39.284  22.101   0.424  1.00  0.00    +0.000 O 
BRANCH    4    2
ATOM      2  C2  UNL A   1      38.608  21.912  -0.774  1.00  0.00    +0.000 C 
ATOM      3  O1  UNL A   1      39.075  21.471  -1.817  1.00  0.00    +0.000 O 
BRANCH    2    1
ATOM      1  C1  UNL A   1      37.182  22.344  -0.591  1.00  0.00    +0.000 C 
ATOM     86  H1  UNL A   1      36.534  21.504  -0.727  1.00  0.00    +0.000 H 
ATOM     87  H2  UNL A   1      36.942  23.098  -1.311  1.00  0.00    +0.000 H 
ATOM     88  H3  UNL A   1      37.052  22.739   0.395  1.00  0.00    +0.000 H 
ENDBRANCH    2    1
ENDBRANCH    4    2
ENDBRANCH    5    4
ENDBRANCH   11   10
ENDBRANCH   13   11
ENDBRANCH   14   13
ENDBRANCH   15   14
ENDBRANCH   16   15
ENDBRANCH   17   16
ENDBRANCH   18   17
ENDBRANCH   19   18
ENDBRANCH   20   19
ENDBRANCH   21   20
ENDBRANCH   23   21
ENDBRANCH   27   26
BRANCH   31   32
ATOM     33  C26 UNL A   1      59.717  17.832  10.276  1.00  0.00    +0.000 C 
ATOM     34  F1  UNL A   1      59.669  19.155  10.057  1.00  0.00    +0.000 F 
ATOM     35  C27 UNL A   1      60.571  17.056   9.497  1.00  0.00    +0.000 C 
ATOM     36  F2  UNL A   1      61.314  17.632   8.542  1.00  0.00    +0.000 F 
ATOM     37  C28 UNL A   1      60.648  15.687   9.701  1.00  0.00    +0.000 C 
ATOM     38  F3  UNL A   1      61.480  14.942   8.960  1.00  0.00    +0.000 F 
ATOM     39  C29 UNL A   1      59.857  15.088  10.670  1.00  0.00    +0.000 C 
ATOM     40  F4  UNL A   1      59.941  13.766  10.880  1.00  0.00    +0.000 F 
ATOM     41  C30 UNL A   1      58.978  15.857  11.428  1.00  0.00    +0.000 C 
ATOM     42  F5  UNL A   1      58.217  15.245  12.349  1.00  0.00    +0.000 F 
ATOM     32  C25 UNL A   1      58.893  17.246  11.249  1.00  0.00    +0.000 C 
ENDBRANCH   31   32
BRANCH   48   49
ATOM     49  C36 UNL A   1      59.175  20.612  17.618  1.00  0.00    +0.000 C 
ATOM     50  C37 UNL A   1      59.948  21.780  17.654  1.00  0.00    +0.000 C 
ATOM     51  F6  UNL A   1      59.838  22.694  16.678  1.00  0.00    +0.000 F 
ATOM     52  C38 UNL A   1      60.872  21.996  18.675  1.00  0.00    +0.000 C 
ATOM     53  F7  UNL A   1      61.638  23.095  18.659  1.00  0.00    +0.000 F 
ATOM     54  C39 UNL A   1      61.009  21.069  19.698  1.00  0.00    +0.000 C 
ATOM     55  F8  UNL A   1      61.891  21.283  20.682  1.00  0.00    +0.000 F 
ATOM     56  C40 UNL A   1      60.238  19.918  19.694  1.00  0.00    +0.000 C 
ATOM     57  F9  UNL A   1      60.356  19.029  20.690  1.00  0.00    +0.000 F 
ATOM     58  C41 UNL A   1      59.340  19.683  18.657  1.00  0.00    +0.000 C 
ATOM     59  F10 UNL A   1      58.619  18.551  18.675  1.00  0.00    +0.000 F 
ENDBRANCH   48   49
BRANCH   63   64
ATOM     65  C46 UNL A   1      52.358  23.931  16.667  1.00  0.00    +0.000 C 
ATOM     66  F11 UNL A   1      53.053  24.582  15.723  1.00  0.00    +0.000 F 
ATOM     67  C47 UNL A   1      51.516  24.659  17.505  1.00  0.00    +0.000 C 
ATOM     68  F12 UNL A   1      51.422  25.989  17.365  1.00  0.00    +0.000 F 
ATOM     69  C48 UNL A   1      50.796  24.015  18.499  1.00  0.00    +0.000 C 
ATOM     70  F13 UNL A   1      49.988  24.716  19.306  1.00  0.00    +0.000 F 
ATOM     71  C49 UNL A   1      50.923  22.644  18.663  1.00  0.00    +0.000 C 
ATOM     72  F14 UNL A   1      50.216  22.014  19.611  1.00  0.00    +0.000 F 
ATOM     73  C50 UNL A   1      51.790  21.919  17.847  1.00  0.00    +0.000 C 
ATOM     74  F15 UNL A   1      51.908  20.598  18.045  1.00  0.00    +0.000 F 
ATOM     64  C45 UNL A   1      52.525  22.547  16.831  1.00  0.00    +0.000 C 
ENDBRANCH   63   64
TORSDOF 18
ENDMDL
MODEL 2
REMARK VINA RESULT:     -10.7     42.320     48.369
ROOT
ATOM     27  C21 UNL A   1      10.749   2.885  21.501  1.00  0.00    +0.000 C 
ATOM     28  C22 UNL A   1       9.781   3.814  22.187  1.00  0.00    +0.000 C 
ATOM     29  N3  UNL A   1       9.321   4.974  21.791  1.00  0.00    +0.000 N 
ATOM     30  C23 UNL A   1       8.434   5.387  22.776  1.00  0.00    +0.000 C 
ATOM     31  C24 UNL A   1       7.752   6.555  22.867  1.00  0.00    +0.000 C 
ATOM     43  C31 UNL A   1       7.831   7.617  21.899  1.00  0.00    +0.000 C 
ATOM     44  C32 UNL A   1       7.218   8.857  21.927  1.00  0.00    +0.000 C 
ATOM     45  C33 UNL A   1       7.539   9.531  20.744  1.00  0.00    +0.000 C 
ATOM     46  C34 UNL A   1       8.405   8.739  20.010  1.00  0.00    +0.000 C 
ATOM     47  N4  UNL A   1       8.570   7.563  20.725  1.00  0.00    +0.000 N 
ATOM     48  C35 UNL A   1       9.036   9.031  18.747  1.00  0.00    +0.000 C 
ATOM     60  C42 UNL A   1       9.880   8.197  18.093  1.00  0.00    +0.000 C 
ATOM     61  N5  UNL A   1      10.324   6.934  18.463  1.00  0.00    +0.000 N 
ATOM     62  C43 UNL A   1      11.110   6.530  17.495  1.00  0.00    +0.000 C 
ATOM     63  C44 UNL A   1      11.898   5.251  17.379  1.00  0.00    +0.000 C 
ATOM     75  C51 UNL A   1      11.836   4.349  18.378  1.00  0.00    +0.000 C 
ATOM     76  C52 UNL A   1      12.544   3.073  18.410  1.00  0.00    +0.000 C 
ATOM     77  C53 UNL A   1      12.203   2.411  19.527  1.00  0.00    +0.000 C 
ATOM     78  C54 UNL A   1      11.285   3.234  20.314  1.00  0.00    +0.000 C 
ATOM     79  N6  UNL A   1      11.129   4.370  19.557  1.00  0.00    +0.000 N 
ATOM     80  C55 UNL A   1      11.224   7.481  16.381  1.00  0.00    +0.000 C 
ATOM     81  C56 UNL A   1      10.497   8.499  16.818  1.00  0.00    +0.000 C 
ATOM     82  C57 UNL A   1       8.372   4.328  23.760  1.00  0.00    +0.000 C 
ATOM     83  C58 UNL A   1       9.239   3.366  23.480  1.00  0.00    +0.000 C 
ATOM    109  H24 UNL A   1       6.624   9.221  22.689  1.00  0.00    +0.000 H 
ATOM    110  H25 UNL A   1       7.190  10.462  20.466  1.00  0.00    +0.000 H 
ATOM    111  H26 UNL A   1       9.128   6.803  20.443  1.00  0.00    +0.000 H 
ATOM    112  H27 UNL A   1      13.202   2.735  17.690  1.00  0.00    +0.000 H 
ATOM    113  H28 UNL A   1      12.536   1.470  19.788  1.00  0.00    +0.000 H 
ATOM    114  H29 UNL A   1      10.564   5.127  19.832  1.00  0.00    +0.000 H 
ATOM    115  H30 UNL A   1      11.737   7.383  15.491  1.00  0.00    +0.000 H 
ATOM    116  H31 UNL A   1      10.385   9.393  16.315  1.00  0.00    +0.000 H 
ATOM    117  H32 UNL A   1       7.737   4.323  24.574  1.00  0.00    +0.000 H 
ATOM    118  H33 UNL A   1       9.474   2.523  24.026  1.00  0.00    +0.000 H 
ENDROOT
BRANCH   27   26
ATOM    107  H22 UNL A   1      13.377   0.016  24.006  1.00  0.00    +0.000 H 
ATOM    108  H23 UNL A   1      12.794   2.210  23.151  1.00  0.00    +0.000 H 
ATOM     84  C59 UNL A   1      10.245   0.459  21.858  1.00  0.00    +0.000 C 
ATOM     85  C60 UNL A   1      10.526  -0.779  22.437  1.00  0.00    +0.000 C 
ATOM    120  H35 UNL A   1       9.861  -1.562  22.326  1.00  0.00    +0.000 H 
ATOM     23  C17 UNL A   1      11.704  -0.963  23.166  1.00  0.00    +0.000 C 
ATOM     24  C18 UNL A   1      12.527   0.136  23.432  1.00  0.00    +0.000 C 
ATOM     25  C19 UNL A   1      12.201   1.397  22.921  1.00  0.00    +0.000 C 
ATOM    119  H34 UNL A   1       9.420   0.563  21.247  1.00  0.00    +0.000 H 
ATOM     26  C20 UNL A   1      11.075   1.563  22.100  1.00  0.00    +0.000 C 
BRANCH   23   21
ATOM     21  C16 UNL A   1      12.091  -2.288  23.709  1.00  0.00    +0.000 C 
ATOM     22  O4  UNL A   1      11.795  -3.304  23.086  1.00  0.00    +0.000 O 
BRANCH   21   20
ATOM    106  H21 UNL A   1      13.738  -2.413  24.835  1.00  0.00    +0.000 H 
ATOM     20  N2  UNL A   1      12.756  -2.399  24.906  1.00  0.00    +0.000 N 
BRANCH   20   19
ATOM    105  H20 UNL A   1      12.971  -3.016  26.843  1.00  0.00    +0.000 H 
ATOM     19  C15 UNL A   1      12.240  -2.497  26.258  1.00  0.00    +0.000 C 
ATOM    104  H19 UNL A   1      11.305  -3.018  26.229  1.00  0.00    +0.000 H 
BRANCH   19   18
ATOM     18  C14 UNL A   1      12.018  -1.138  26.913  1.00  0.00    +0.000 C 
ATOM    102  H17 UNL A   1      12.336  -1.214  27.932  1.00  0.00    +0.000 H 
ATOM    103  H18 UNL A   1      12.578  -0.445  26.321  1.00  0.00    +0.000 H 
BRANCH   18   17
ATOM     17  C13 UNL A   1      10.586  -0.601  26.913  1.00  0.00    +0.000 C 
ATOM    100  H15 UNL A   1      10.001  -1.246  26.292  1.00  0.00    +0.000 H 
ATOM    101  H16 UNL A   1      10.300  -0.581  27.944  1.00  0.00    +0.000 H 
BRANCH   17   16
ATOM     98  H13 UNL A   1      11.341   1.280  26.302  1.00  0.00    +0.000 H 
ATOM     99  H14 UNL A   1       9.805   0.729  25.517  1.00  0.00    +0.000 H 
ATOM     16  C12 UNL A   1      10.374   0.835  26.417  1.00  0.00    +0.000 C 
BRANCH   16   15
ATOM     97  H12 UNL A   1       9.655   1.406  28.291  1.00  0.00    +0.000 H 
ATOM     15  C11 UNL A   1       9.539   1.776  27.294  1.00  0.00    +0.000 C 
ATOM     96  H11 UNL A   1       8.536   1.759  26.922  1.00  0.00    +0.000 H 
BRANCH   15   14
ATOM     94  H9  UNL A   1      10.452   3.469  26.424  1.00  0.00    +0.000 H 
ATOM     14  C10 UNL A   1       9.983   3.233  27.355  1.00  0.00    +0.000 C 
ATOM     95  H10 UNL A   1       9.093   3.793  27.557  1.00  0.00    +0.000 H 
BRANCH   14   13
ATOM     13  N1  UNL A   1      10.901   3.576  28.410  1.00  0.00    +0.000 N 
ATOM     93  H8  UNL A   1      10.556   3.450  29.324  1.00  0.00    +0.000 H 
BRANCH   13   11
ATOM     11  C9  UNL A   1      12.190   4.056  28.332  1.00  0.00    +0.000 C 
ATOM     12  O3  UNL A   1      12.331   5.281  28.389  1.00  0.00    +0.000 O 
BRANCH   11   10
ATOM      5  C3  UNL A   1      14.468   3.147  29.227  1.00  0.00    +0.000 C 
ATOM      6  C4  UNL A   1      15.594   2.334  29.010  1.00  0.00    +0.000 C 
ATOM      7  C5  UNL A   1      15.660   1.507  27.892  1.00  0.00    +0.000 C 
ATOM      8  C6  UNL A   1      14.601   1.488  26.993  1.00  0.00    +0.000 C 
ATOM      9  C7  UNL A   1      13.496   2.324  27.197  1.00  0.00    +0.000 C 
ATOM     10  C8  UNL A   1      13.419   3.201  28.301  1.00  0.00    +0.000 C 
ATOM     89  H4  UNL A   1      16.376   2.350  29.681  1.00  0.00    +0.000 H 
ATOM     90  H5  UNL A   1      16.488   0.913  27.733  1.00  0.00    +0.000 H 
ATOM     91  H6  UNL A   1      14.628   0.858  26.176  1.00  0.00    +0.000 H 
ATOM     92  H7  UNL A   1      12.717   2.298  26.521  1.00  0.00    +0.000 H 
BRANCH    5    4
ATOM      4  O2  UNL A   1      14.550   3.927  30.384  1.00  0.00    +0.000 O 
BRANCH    4    2
ATOM      2  C2  UNL A   1      13.977   3.399  31.533  1.00  0.00    +0.000 C 
ATOM      3  O1  UNL A   1      14.394   2.453  32.191  1.00  0.00    +0.000 O 
BRANCH    2    1
ATOM      1  C1  UNL A   1      12.736   4.183  31.852  1.00  0.00    +0.000 C 
ATOM     86  H1  UNL A   1      12.871   4.703  32.777  1.00  0.00    +0.000 H 
ATOM     87  H2  UNL A   1      11.905   3.515  31.938  1.00  0.00    +0.000 H 
ATOM     88  H3  UNL A   1      12.548   4.887  31.070  1.00  0.00    +0.000 H 
ENDBRANCH    2    1
ENDBRANCH    4    2
ENDBRANCH    5    4
ENDBRANCH   11   10
ENDBRANCH   13   11
ENDBRANCH   14   13
ENDBRANCH   15   14
ENDBRANCH   16   15
ENDBRANCH   17   16
ENDBRANCH   18   17
ENDBRANCH   19   18
ENDBRANCH   20   19
ENDBRANCH   21   20
ENDBRANCH   23   21
ENDBRANCH   27   26
BRANCH   31   32
ATOM     33  C26 UNL A   1       5.554   6.236  24.096  1.00  0.00    +0.000 C 
ATOM     34  F1  UNL A   1       5.050   5.600  23.029  1.00  0.00    +0.000 F 
ATOM     35  C27 UNL A   1       4.747   6.402  25.219  1.00  0.00    +0.000 C 
ATOM     36  F2  UNL A   1       3.489   5.941  25.212  1.00  0.00    +0.000 F 
ATOM     37  C28 UNL A   1       5.240   7.051  26.341  1.00  0.00    +0.000 C 
ATOM     38  F3  UNL A   1       4.467   7.199  27.426  1.00  0.00    +0.000 F 
ATOM     39  C29 UNL A   1       6.533   7.553  26.336  1.00  0.00    +0.000 C 
ATOM     40  F4  UNL A   1       7.016   8.167  27.425  1.00  0.00    +0.000 F 
ATOM     41  C30 UNL A   1       7.330   7.417  25.202  1.00  0.00    +0.000 C 
ATOM     42  F5  UNL A   1       8.572   7.925  25.226  1.00  0.00    +0.000 F 
ATOM     32  C25 UNL A   1       6.859   6.752  24.061  1.00  0.00    +0.000 C 
ENDBRANCH   31   32
BRANCH   48   49
ATOM     49  C36 UNL A   1       8.763  10.370  18.123  1.00  0.00    +0.000 C 
ATOM     50  C37 UNL A   1       7.679  10.576  17.259  1.00  0.00    +0.000 C 
ATOM     51  F6  UNL A   1       6.877   9.554  16.926  1.00  0.00    +0.000 F 
ATOM     52  C38 UNL A   1       7.438  11.829  16.699  1.00  0.00    +0.000 C 
ATOM     53  F7  UNL A   1       6.427  11.990  15.833  1.00  0.00    +0.000 F 
ATOM     54  C39 UNL A   1       8.250  12.906  17.023  1.00  0.00    +0.000 C 
ATOM     55  F8  UNL A   1       8.011  14.111  16.490  1.00  0.00    +0.000 F 
ATOM     56  C40 UNL A   1       9.314  12.730  17.894  1.00  0.00    +0.000 C 
ATOM     57  F9  UNL A   1      10.090  13.772  18.222  1.00  0.00    +0.000 F 
ATOM     58  C41 UNL A   1       9.579  11.472  18.427  1.00  0.00    +0.000 C 
ATOM     59  F10 UNL A   1      10.626  11.331  19.255  1.00  0.00    +0.000 F 
ENDBRANCH   48   49
BRANCH   63   64
ATOM     65  C46 UNL A   1      14.080   5.422  16.137  1.00  0.00    +0.000 C 
ATOM     66  F11 UNL A   1      14.608   6.079  17.179  1.00  0.00    +0.000 F 
ATOM     67  C47 UNL A   1      14.859   5.231  14.997  1.00  0.00    +0.000 C 
ATOM     68  F12 UNL A   1      16.110   5.709  14.956  1.00  0.00    +0.000 F 
ATOM     69  C48 UNL A   1      14.335   4.569  13.898  1.00  0.00    +0.000 C 
ATOM     70  F13 UNL A   1      15.083   4.387  12.802  1.00  0.00    +0.000 F 
ATOM     71  C49 UNL A   1      13.028   4.106  13.932  1.00  0.00    +0.000 C 
ATOM     72  F14 UNL A   1      12.521   3.451  12.879  1.00  0.00    +0.000 F 
ATOM     73  C50 UNL A   1      12.237   4.327  15.058  1.00  0.00    +0.000 C 
ATOM     74  F15 UNL A   1      10.970   3.887  15.052  1.00  0.00    +0.000 F 
ATOM     64  C45 UNL A   1      12.746   4.989  16.185  1.00  0.00    +0.000 C 
ENDBRANCH   63   64
TORSDOF 18
ENDMDL
MODEL 3
REMARK VINA RESULT:     -10.7      0.642      2.169
ROOT
ATOM     27  C21 UNL A   1      53.315  19.716  11.618  1.00  0.00    +0.000 C 
ATOM     28  C22 UNL A   1      54.672  19.081  11.465  1.00  0.00    +0.000 C 
ATOM     29  N3  UNL A   1      55.672  19.047  12.309  1.00  0.00    +0.000 N 
ATOM     30  C23 UNL A   1      56.668  18.304  11.690  1.00  0.00    +0.000 C 
ATOM     31  C24 UNL A   1      57.925  18.042  12.123  1.00  0.00    +0.000 C 
ATOM     43  C31 UNL A   1      58.465  18.510  13.373  1.00  0.00    +0.000 C 
ATOM     44  C32 UNL A   1      59.741  18.340  13.879  1.00  0.00    +0.000 C 
ATOM     45  C33 UNL A   1      59.789  18.918  15.152  1.00  0.00    +0.000 C 
ATOM     46  C34 UNL A   1      58.562  19.505  15.412  1.00  0.00    +0.000 C 
ATOM     47  N4  UNL A   1      57.756  19.241  14.316  1.00  0.00    +0.000 N 
ATOM     48  C35 UNL A   1      58.154  20.252  16.575  1.00  0.00    +0.000 C 
ATOM     60  C42 UNL A   1      56.928  20.801  16.751  1.00  0.00    +0.000 C 
ATOM     61  N5  UNL A   1      55.832  20.786  15.897  1.00  0.00    +0.000 N 
ATOM     62  C43 UNL A   1      54.880  21.437  16.522  1.00  0.00    +0.000 C 
ATOM     63  C44 UNL A   1      53.485  21.763  16.054  1.00  0.00    +0.000 C 
ATOM     75  C51 UNL A   1      53.093  21.363  14.829  1.00  0.00    +0.000 C 
ATOM     76  C52 UNL A   1      51.780  21.608  14.241  1.00  0.00    +0.000 C 
ATOM     77  C53 UNL A   1      51.723  21.019  13.035  1.00  0.00    +0.000 C 
ATOM     78  C54 UNL A   1      53.013  20.390  12.746  1.00  0.00    +0.000 C 
ATOM     79  N6  UNL A   1      53.766  20.651  13.865  1.00  0.00    +0.000 N 
ATOM     80  C55 UNL A   1      55.257  21.908  17.861  1.00  0.00    +0.000 C 
ATOM     81  C56 UNL A   1      56.528  21.539  17.931  1.00  0.00    +0.000 C 
ATOM     82  C57 UNL A   1      56.132  17.852  10.425  1.00  0.00    +0.000 C 
ATOM     83  C58 UNL A   1      54.929  18.365  10.206  1.00  0.00    +0.000 C 
ATOM    109  H24 UNL A   1      60.524  17.867  13.400  1.00  0.00    +0.000 H 
ATOM    110  H25 UNL A   1      60.601  18.908  15.789  1.00  0.00    +0.000 H 
ATOM    111  H26 UNL A   1      56.819  19.528  14.221  1.00  0.00    +0.000 H 
ATOM    112  H27 UNL A   1      51.018  22.148  14.679  1.00  0.00    +0.000 H 
ATOM    113  H28 UNL A   1      50.901  21.010  12.412  1.00  0.00    +0.000 H 
ATOM    114  H29 UNL A   1      54.699  20.356  13.967  1.00  0.00    +0.000 H 
ATOM    115  H30 UNL A   1      54.682  22.399  18.564  1.00  0.00    +0.000 H 
ATOM    116  H31 UNL A   1      57.152  21.751  18.724  1.00  0.00    +0.000 H 
ATOM    117  H32 UNL A   1      56.622  17.215   9.776  1.00  0.00    +0.000 H 
ATOM    118  H33 UNL A   1      54.330  18.283   9.370  1.00  0.00    +0.000 H 
ENDROOT
BRANCH   27   26
ATOM    107  H22 UNL A   1      50.018  17.383   9.360  1.00  0.00    +0.000 H 
ATOM    108  H23 UNL A   1      51.590  17.667  11.185  1.00  0.00    +0.000 H 
ATOM     84  C59 UNL A   1      52.092  20.583   9.611  1.00  0.00    +0.000 C 
ATOM     85  C60 UNL A   1      51.114  20.461   8.624  1.00  0.00    +0.000 C 
ATOM    120  H35 UNL A   1      50.917  21.255   7.994  1.00  0.00    +0.000 H 
ATOM     23  C17 UNL A   1      50.402  19.267   8.486  1.00  0.00    +0.000 C 
ATOM     24  C18 UNL A   1      50.573  18.250   9.431  1.00  0.00    +0.000 C 
ATOM     25  C19 UNL A   1      51.494  18.407  10.472  1.00  0.00    +0.000 C 
ATOM    119  H34 UNL A   1      52.677  21.433   9.651  1.00  0.00    +0.000 H 
ATOM     26  C20 UNL A   1      52.289  19.561  10.552  1.00  0.00    +0.000 C 
BRANCH   23   21
ATOM     21  C16 UNL A   1      49.428  19.058   7.387  1.00  0.00    +0.000 C 
ATOM     22  O4  UNL A   1      49.633  18.172   6.561  1.00  0.00    +0.000 O 
BRANCH   21   20
ATOM    106  H21 UNL A   1      47.511  19.514   7.727  1.00  0.00    +0.000 H 
ATOM     20  N2  UNL A   1      48.313  19.851   7.264  1.00  0.00    +0.000 N 
BRANCH   20   19
ATOM    105  H20 UNL A   1      49.102  21.473   6.302  1.00  0.00    +0.000 H 
ATOM     19  C15 UNL A   1      48.130  21.107   6.562  1.00  0.00    +0.000 C 
ATOM    104  H19 UNL A   1      47.606  21.784   7.205  1.00  0.00    +0.000 H 
BRANCH   19   18
ATOM     18  C14 UNL A   1      47.340  20.959   5.267  1.00  0.00    +0.000 C 
ATOM    102  H17 UNL A   1      46.473  21.581   5.343  1.00  0.00    +0.000 H 
ATOM    103  H18 UNL A   1      48.021  21.234   4.489  1.00  0.00    +0.000 H 
BRANCH   18   17
ATOM     17  C13 UNL A   1      46.868  19.548   4.908  1.00  0.00    +0.000 C 
ATOM    100  H15 UNL A   1      47.630  19.098   4.308  1.00  0.00    +0.000 H 
ATOM    101  H16 UNL A   1      46.688  19.071   5.849  1.00  0.00    +0.000 H 
BRANCH   17   16
ATOM     98  H13 UNL A   1      45.712  18.761   3.319  1.00  0.00    +0.000 H 
ATOM     99  H14 UNL A   1      44.841  19.082   4.874  1.00  0.00    +0.000 H 
ATOM     16  C12 UNL A   1      45.544  19.424   4.143  1.00  0.00    +0.000 C 
BRANCH   16   15
ATOM     97  H12 UNL A   1      45.626  21.481   3.807  1.00  0.00    +0.000 H 
ATOM     15  C11 UNL A   1      44.924  20.707   3.579  1.00  0.00    +0.000 C 
ATOM     96  H11 UNL A   1      43.961  20.827   4.031  1.00  0.00    +0.000 H 
BRANCH   15   14
ATOM     94  H9  UNL A   1      44.200  21.672   1.847  1.00  0.00    +0.000 H 
ATOM     14  C10 UNL A   1      44.734  20.773   2.069  1.00  0.00    +0.000 C 
ATOM     95  H10 UNL A   1      45.721  20.731   1.655  1.00  0.00    +0.000 H 
BRANCH   14   13
ATOM     13  N1  UNL A   1      44.019  19.677   1.467  1.00  0.00    +0.000 N 
ATOM     93  H8  UNL A   1      44.539  18.849   1.353  1.00  0.00    +0.000 H 
BRANCH   13   11
ATOM     11  C9  UNL A   1      42.714  19.615   1.027  1.00  0.00    +0.000 C 
ATOM     12  O3  UNL A   1      42.524  19.829  -0.174  1.00  0.00    +0.000 O 
BRANCH   11   10
ATOM      5  C3  UNL A   1      40.182  19.292   1.573  1.00  0.00    +0.000 C 
ATOM      6  C4  UNL A   1      39.205  18.916   2.512  1.00  0.00    +0.000 C 
ATOM      7  C5  UNL A   1      39.578  18.375   3.738  1.00  0.00    +0.000 C 
ATOM      8  C6  UNL A   1      40.926  18.204   4.028  1.00  0.00    +0.000 C 
ATOM      9  C7  UNL A   1      41.896  18.610   3.103  1.00  0.00    +0.000 C 
ATOM     10  C8  UNL A   1      41.548  19.197   1.868  1.00  0.00    +0.000 C 
ATOM     89  H4  UNL A   1      38.206  19.043   2.291  1.00  0.00    +0.000 H 
ATOM     90  H5  UNL A   1      38.859  18.103   4.427  1.00  0.00    +0.000 H 
ATOM     91  H6  UNL A   1      41.212  17.779   4.923  1.00  0.00    +0.000 H 
ATOM     92  H7  UNL A   1      42.893  18.476   3.332  1.00  0.00    +0.000 H 
BRANCH    5    4
ATOM      4  O2  UNL A   1      39.656  19.827   0.393  1.00  0.00    +0.000 O 
BRANCH    4    2
ATOM      2  C2  UNL A   1      39.120  21.105   0.475  1.00  0.00    +0.000 C 
ATOM      3  O1  UNL A   1      39.623  22.077   1.025  1.00  0.00    +0.000 O 
BRANCH    2    1
ATOM      1  C1  UNL A   1      37.795  21.112  -0.232  1.00  0.00    +0.000 C 
ATOM     86  H1  UNL A   1      37.900  20.650  -1.191  1.00  0.00    +0.000 H 
ATOM     87  H2  UNL A   1      37.464  22.122  -0.359  1.00  0.00    +0.000 H 
ATOM     88  H3  UNL A   1      37.078  20.573   0.349  1.00  0.00    +0.000 H 
ENDBRANCH    2    1
ENDBRANCH    4    2
ENDBRANCH    5    4
ENDBRANCH   11   10
ENDBRANCH   13   11
ENDBRANCH   14   13
ENDBRANCH   15   14
ENDBRANCH   16   15
ENDBRANCH   17   16
ENDBRANCH   18   17
ENDBRANCH   19   18
ENDBRANCH   20   19
ENDBRANCH   21   20
ENDBRANCH   23   21
ENDBRANCH   27   26
BRANCH   31   32
ATOM     33  C26 UNL A   1      58.886  15.817  11.370  1.00  0.00    +0.000 C 
ATOM     34  F1  UNL A   1      58.203  15.193  12.341  1.00  0.00    +0.000 F 
ATOM     35  C27 UNL A   1      59.690  15.057  10.524  1.00  0.00    +0.000 C 
ATOM     36  F2  UNL A   1      59.780  13.732  10.700  1.00  0.00    +0.000 F 
ATOM     37  C28 UNL A   1      60.405  15.671   9.507  1.00  0.00    +0.000 C 
ATOM     38  F3  UNL A   1      61.169  14.938   8.685  1.00  0.00    +0.000 F 
ATOM     39  C29 UNL A   1      60.333  17.047   9.345  1.00  0.00    +0.000 C 
ATOM     40  F4  UNL A   1      61.012  17.640   8.352  1.00  0.00    +0.000 F 
ATOM     41  C30 UNL A   1      59.556  17.812  10.210  1.00  0.00    +0.000 C 
ATOM     42  F5  UNL A   1      59.517  19.142  10.034  1.00  0.00    +0.000 F 
ATOM     32  C25 UNL A   1      58.812  17.213  11.238  1.00  0.00    +0.000 C 
ENDBRANCH   31   32
BRANCH   48   49
ATOM     49  C36 UNL A   1      59.170  20.465  17.661  1.00  0.00    +0.000 C 
ATOM     50  C37 UNL A   1      59.423  19.491  18.638  1.00  0.00    +0.000 C 
ATOM     51  F6  UNL A   1      58.717  18.351  18.654  1.00  0.00    +0.000 F 
ATOM     52  C38 UNL A   1      60.378  19.704  19.631  1.00  0.00    +0.000 C 
ATOM     53  F7  UNL A   1      60.565  18.782  20.585  1.00  0.00    +0.000 F 
ATOM     54  C39 UNL A   1      61.123  20.875  19.641  1.00  0.00    +0.000 C 
ATOM     55  F8  UNL A   1      62.046  21.073  20.591  1.00  0.00    +0.000 F 
ATOM     56  C40 UNL A   1      60.906  21.841  18.671  1.00  0.00    +0.000 C 
ATOM     57  F9  UNL A   1      61.636  22.964  18.669  1.00  0.00    +0.000 F 
ATOM     58  C41 UNL A   1      59.928  21.646  17.700  1.00  0.00    +0.000 C 
ATOM     59  F10 UNL A   1      59.731  22.607  16.784  1.00  0.00    +0.000 F 
ENDBRANCH   48   49
BRANCH   63   64
ATOM     65  C46 UNL A   1      51.802  21.885  17.921  1.00  0.00    +0.000 C 
ATOM     66  F11 UNL A   1      51.920  20.561  18.098  1.00  0.00    +0.000 F 
ATOM     67  C47 UNL A   1      50.885  22.588  18.700  1.00  0.00    +0.000 C 
ATOM     68  F12 UNL A   1      50.136  21.937  19.601  1.00  0.00    +0.000 F 
ATOM     69  C48 UNL A   1      50.730  23.955  18.530  1.00  0.00    +0.000 C 
ATOM     70  F13 UNL A   1      49.848  24.631  19.278  1.00  0.00    +0.000 F 
ATOM     71  C49 UNL A   1      51.483  24.619  17.573  1.00  0.00    +0.000 C 
ATOM     72  F14 UNL A   1      51.349  25.943  17.415  1.00  0.00    +0.000 F 
ATOM     73  C50 UNL A   1      52.375  23.911  16.769  1.00  0.00    +0.000 C 
ATOM     74  F15 UNL A   1      53.072  24.578  15.838  1.00  0.00    +0.000 F 
ATOM     64  C45 UNL A   1      52.554  22.529  16.927  1.00  0.00    +0.000 C 
ENDBRANCH   63   64
TORSDOF 18
ENDMDL
MODEL 4
REMARK VINA RESULT:     -10.7     40.190     47.151
ROOT
ATOM     27  C21 UNL A   1      25.771  35.208  45.469  1.00  0.00    +0.000 C 
ATOM     28  C22 UNL A   1      25.503  36.369  46.391  1.00  0.00    +0.000 C 
ATOM     29  N3  UNL A   1      26.271  37.386  46.690  1.00  0.00    +0.000 N 
ATOM     30  C23 UNL A   1      25.529  38.181  47.553  1.00  0.00    +0.000 C 
ATOM     31  C24 UNL A   1      25.906  39.311  48.200  1.00  0.00    +0.000 C 
ATOM     43  C31 UNL A   1      27.209  39.914  48.086  1.00  0.00    +0.000 C 
ATOM     44  C32 UNL A   1      27.703  41.029  48.739  1.00  0.00    +0.000 C 
ATOM     45  C33 UNL A   1      28.998  41.274  48.268  1.00  0.00    +0.000 C 
ATOM     46  C34 UNL A   1      29.334  40.273  47.372  1.00  0.00    +0.000 C 
ATOM     47  N4  UNL A   1      28.225  39.450  47.263  1.00  0.00    +0.000 N 
ATOM     48  C35 UNL A   1      30.576  40.083  46.666  1.00  0.00    +0.000 C 
ATOM     60  C42 UNL A   1      30.827  39.068  45.804  1.00  0.00    +0.000 C 
ATOM     61  N5  UNL A   1      30.000  38.021  45.421  1.00  0.00    +0.000 N 
ATOM     62  C43 UNL A   1      30.691  37.314  44.558  1.00  0.00    +0.000 C 
ATOM     63  C44 UNL A   1      30.306  36.043  43.844  1.00  0.00    +0.000 C 
ATOM     75  C51 UNL A   1      29.097  35.498  44.081  1.00  0.00    +0.000 C 
ATOM     76  C52 UNL A   1      28.590  34.273  43.470  1.00  0.00    +0.000 C 
ATOM     77  C53 UNL A   1      27.333  34.062  43.892  1.00  0.00    +0.000 C 
ATOM     78  C54 UNL A   1      26.960  35.113  44.839  1.00  0.00    +0.000 C 
ATOM     79  N6  UNL A   1      28.072  35.918  44.894  1.00  0.00    +0.000 N 
ATOM     80  C55 UNL A   1      32.024  37.858  44.271  1.00  0.00    +0.000 C 
ATOM     81  C56 UNL A   1      32.077  38.896  45.092  1.00  0.00    +0.000 C 
ATOM     82  C57 UNL A   1      24.228  37.563  47.684  1.00  0.00    +0.000 C 
ATOM     83  C58 UNL A   1      24.185  36.404  47.043  1.00  0.00    +0.000 C 
ATOM    109  H24 UNL A   1      27.202  41.586  49.449  1.00  0.00    +0.000 H 
ATOM    110  H25 UNL A   1      29.599  42.067  48.543  1.00  0.00    +0.000 H 
ATOM    111  H26 UNL A   1      28.166  38.654  46.687  1.00  0.00    +0.000 H 
ATOM    112  H27 UNL A   1      29.112  33.667  42.819  1.00  0.00    +0.000 H 
ATOM    113  H28 UNL A   1      26.726  33.282  43.596  1.00  0.00    +0.000 H 
ATOM    114  H29 UNL A   1      28.129  36.720  45.462  1.00  0.00    +0.000 H 
ATOM    115  H30 UNL A   1      32.736  37.519  43.604  1.00  0.00    +0.000 H 
ATOM    116  H31 UNL A   1      32.902  39.505  45.209  1.00  0.00    +0.000 H 
ATOM    117  H32 UNL A   1      23.437  37.971  48.208  1.00  0.00    +0.000 H 
ATOM    118  H33 UNL A   1      23.425  35.707  47.012  1.00  0.00    +0.000 H 
ENDROOT
BRANCH   27   26
ATOM    107  H22 UNL A   1      21.964  33.655  43.345  1.00  0.00    +0.000 H 
ATOM    108  H23 UNL A   1      23.753  35.264  43.656  1.00  0.00    +0.000 H 
ATOM     84  C59 UNL A   1      24.698  32.995  45.935  1.00  0.00    +0.000 C 
ATOM     85  C60 UNL A   1      23.727  32.025  45.681  1.00  0.00    +0.000 C 
ATOM    120  H35 UNL A   1      23.778  31.110  46.157  1.00  0.00    +0.000 H 
ATOM     23  C17 UNL A   1      22.688  32.290  44.786  1.00  0.00    +0.000 C 
ATOM     24  C18 UNL A   1      22.706  33.473  44.041  1.00  0.00    +0.000 C 
ATOM     25  C19 UNL A   1      23.726  34.409  44.234  1.00  0.00    +0.000 C 
ATOM    119  H34 UNL A   1      25.410  32.828  46.663  1.00  0.00    +0.000 H 
ATOM     26  C20 UNL A   1      24.714  34.195  45.209  1.00  0.00    +0.000 C 
BRANCH   23   21
ATOM     21  C16 UNL A   1      21.580  31.328  44.566  1.00  0.00    +0.000 C 
ATOM     22  O4  UNL A   1      21.732  30.151  44.881  1.00  0.00    +0.000 O 
BRANCH   21   20
ATOM    106  H21 UNL A   1      20.485  32.213  43.145  1.00  0.00    +0.000 H 
ATOM     20  N2  UNL A   1      20.395  31.728  43.997  1.00  0.00    +0.000 N 
BRANCH   20   19
ATOM    105  H20 UNL A   1      18.800  32.363  45.106  1.00  0.00    +0.000 H 
ATOM     19  C15 UNL A   1      19.029  31.546  44.454  1.00  0.00    +0.000 C 
ATOM    104  H19 UNL A   1      18.960  30.602  44.954  1.00  0.00    +0.000 H 
BRANCH   19   18
ATOM     18  C14 UNL A   1      18.011  31.570  43.320  1.00  0.00    +0.000 C 
ATOM    102  H17 UNL A   1      17.403  32.441  43.450  1.00  0.00    +0.000 H 
ATOM    103  H18 UNL A   1      18.591  31.561  42.421  1.00  0.00    +0.000 H 
BRANCH   18   17
ATOM     17  C13 UNL A   1      17.078  30.364  43.209  1.00  0.00    +0.000 C 
ATOM    100  H15 UNL A   1      16.229  30.556  43.830  1.00  0.00    +0.000 H 
ATOM    101  H16 UNL A   1      16.865  30.276  42.164  1.00  0.00    +0.000 H 
BRANCH   17   16
ATOM     98  H13 UNL A   1      18.631  28.925  43.201  1.00  0.00    +0.000 H 
ATOM     99  H14 UNL A   1      17.590  28.986  44.681  1.00  0.00    +0.000 H 
ATOM     16  C12 UNL A   1      17.645  28.997  43.612  1.00  0.00    +0.000 C 
BRANCH   16   15
ATOM     97  H12 UNL A   1      17.501  27.272  42.447  1.00  0.00    +0.000 H 
ATOM     15  C11 UNL A   1      16.874  27.747  43.172  1.00  0.00    +0.000 C 
ATOM     96  H11 UNL A   1      15.922  28.068  42.802  1.00  0.00    +0.000 H 
BRANCH   15   14
ATOM     94  H9  UNL A   1      17.568  26.288  44.531  1.00  0.00    +0.000 H 
ATOM     14  C10 UNL A   1      16.620  26.686  44.236  1.00  0.00    +0.000 C 
ATOM     95  H10 UNL A   1      16.088  27.188  45.018  1.00  0.00    +0.000 H 
BRANCH   14   13
ATOM     13  N1  UNL A   1      15.781  25.582  43.849  1.00  0.00    +0.000 N 
ATOM     93  H8  UNL A   1      16.032  24.710  44.230  1.00  0.00    +0.000 H 
BRANCH   13   11
ATOM     11  C9  UNL A   1      14.677  25.564  43.023  1.00  0.00    +0.000 C 
ATOM     12  O3  UNL A   1      13.621  25.986  43.502  1.00  0.00    +0.000 O 
BRANCH   11   10
ATOM      5  C3  UNL A   1      14.674  23.905  41.008  1.00  0.00    +0.000 C 
ATOM      6  C4  UNL A   1      14.775  23.720  39.618  1.00  0.00    +0.000 C 
ATOM      7  C5  UNL A   1      14.834  24.817  38.764  1.00  0.00    +0.000 C 
ATOM      8  C6  UNL A   1      14.789  26.100  39.295  1.00  0.00    +0.000 C 
ATOM      9  C7  UNL A   1      14.721  26.279  40.682  1.00  0.00    +0.000 C 
ATOM     10  C8  UNL A   1      14.699  25.185  41.575  1.00  0.00    +0.000 C 
ATOM     89  H4  UNL A   1      14.806  22.765  39.228  1.00  0.00    +0.000 H 
ATOM     90  H5  UNL A   1      14.911  24.679  37.744  1.00  0.00    +0.000 H 
ATOM     91  H6  UNL A   1      14.805  26.920  38.669  1.00  0.00    +0.000 H 
ATOM     92  H7  UNL A   1      14.688  27.238  41.063  1.00  0.00    +0.000 H 
BRANCH    5    4
ATOM      4  O2  UNL A   1      14.633  22.712  41.735  1.00  0.00    +0.000 O 
BRANCH    4    2
ATOM      2  C2  UNL A   1      13.375  22.185  41.997  1.00  0.00    +0.000 C 
ATOM      3  O1  UNL A   1      12.492  22.698  42.672  1.00  0.00    +0.000 O 
BRANCH    2    1
ATOM      1  C1  UNL A   1      13.263  20.855  41.308  1.00  0.00    +0.000 C 
ATOM     86  H1  UNL A   1      14.136  20.686  40.714  1.00  0.00    +0.000 H 
ATOM     87  H2  UNL A   1      12.398  20.850  40.679  1.00  0.00    +0.000 H 
ATOM     88  H3  UNL A   1      13.174  20.080  42.041  1.00  0.00    +0.000 H 
ENDBRANCH    2    1
ENDBRANCH    4    2
ENDBRANCH    5    4
ENDBRANCH   11   10
ENDBRANCH   13   11
ENDBRANCH   14   13
ENDBRANCH   15   14
ENDBRANCH   16   15
ENDBRANCH   17   16
ENDBRANCH   18   17
ENDBRANCH   19   18
ENDBRANCH   20   19
ENDBRANCH   21   20
ENDBRANCH   23   21
ENDBRANCH   27   26
BRANCH   31   32
ATOM     33  C26 UNL A   1      24.032  40.970  48.621  1.00  0.00    +0.000 C 
ATOM     34  F1  UNL A   1      24.128  41.400  47.354  1.00  0.00    +0.000 F 
ATOM     35  C27 UNL A   1      23.083  41.555  49.456  1.00  0.00    +0.000 C 
ATOM     36  F2  UNL A   1      22.299  42.538  48.991  1.00  0.00    +0.000 F 
ATOM     37  C28 UNL A   1      22.955  41.130  50.769  1.00  0.00    +0.000 C 
ATOM     38  F3  UNL A   1      22.033  41.685  51.568  1.00  0.00    +0.000 F 
ATOM     39  C29 UNL A   1      23.787  40.133  51.257  1.00  0.00    +0.000 C 
ATOM     40  F4  UNL A   1      23.653  39.710  52.522  1.00  0.00    +0.000 F 
ATOM     41  C30 UNL A   1      24.758  39.570  50.434  1.00  0.00    +0.000 C 
ATOM     42  F5  UNL A   1      25.555  38.616  50.940  1.00  0.00    +0.000 F 
ATOM     32  C25 UNL A   1      24.898  39.973  49.098  1.00  0.00    +0.000 C 
ENDBRANCH   31   32
BRANCH   48   49
ATOM     49  C36 UNL A   1      31.685  41.063  46.926  1.00  0.00    +0.000 C 
ATOM     50  C37 UNL A   1      31.640  42.377  46.440  1.00  0.00    +0.000 C 
ATOM     51  F6  UNL A   1      30.612  42.780  45.678  1.00  0.00    +0.000 F 
ATOM     52  C38 UNL A   1      32.674  43.273  46.701  1.00  0.00    +0.000 C 
ATOM     53  F7  UNL A   1      32.635  44.507  46.180  1.00  0.00    +0.000 F 
ATOM     54  C39 UNL A   1      33.751  42.885  47.485  1.00  0.00    +0.000 C 
ATOM     55  F8  UNL A   1      34.740  43.751  47.741  1.00  0.00    +0.000 F 
ATOM     56  C40 UNL A   1      33.805  41.597  47.995  1.00  0.00    +0.000 C 
ATOM     57  F9  UNL A   1      34.836  41.226  48.767  1.00  0.00    +0.000 F 
ATOM     58  C41 UNL A   1      32.791  40.690  47.707  1.00  0.00    +0.000 C 
ATOM     59  F10 UNL A   1      32.880  39.446  48.203  1.00  0.00    +0.000 F 
ENDBRANCH   48   49
BRANCH   63   64
ATOM     65  C46 UNL A   1      31.359  35.823  41.569  1.00  0.00    +0.000 C 
ATOM     66  F11 UNL A   1      30.603  36.842  41.135  1.00  0.00    +0.000 F 
ATOM     67  C47 UNL A   1      32.200  35.176  40.666  1.00  0.00    +0.000 C 
ATOM     68  F12 UNL A   1      32.236  35.571  39.386  1.00  0.00    +0.000 F 
ATOM     69  C48 UNL A   1      32.981  34.109  41.083  1.00  0.00    +0.000 C 
ATOM     70  F13 UNL A   1      33.789  33.487  40.214  1.00  0.00    +0.000 F 
ATOM     71  C49 UNL A   1      32.915  33.682  42.400  1.00  0.00    +0.000 C 
ATOM     72  F14 UNL A   1      33.681  32.662  42.813  1.00  0.00    +0.000 F 
ATOM     73  C50 UNL A   1      32.049  34.306  43.296  1.00  0.00    +0.000 C 
ATOM     74  F15 UNL A   1      31.991  33.854  44.558  1.00  0.00    +0.000 F 
ATOM     64  C45 UNL A   1      31.252  35.390  42.900  1.00  0.00    +0.000 C 
ENDBRANCH   63   64
TORSDOF 18
ENDMDL
MODEL 5
REMARK VINA RESULT:     -10.6     44.928     50.913
ROOT
ATOM     27  C21 UNL A   1       9.524   0.931  25.213  1.00  0.00    +0.000 C 
ATOM     28  C22 UNL A   1       9.732   1.393  23.795  1.00  0.00    +0.000 C 
ATOM     29  N3  UNL A   1       9.549   0.742  22.674  1.00  0.00    +0.000 N 
ATOM     30  C23 UNL A   1       9.850   1.640  21.658  1.00  0.00    +0.000 C 
ATOM     31  C24 UNL A   1       9.884   1.427  20.321  1.00  0.00    +0.000 C 
ATOM     43  C31 UNL A   1       9.587   0.166  19.693  1.00  0.00    +0.000 C 
ATOM     44  C32 UNL A   1       9.641  -0.163  18.350  1.00  0.00    +0.000 C 
ATOM     45  C33 UNL A   1       9.210  -1.486  18.206  1.00  0.00    +0.000 C 
ATOM     46  C34 UNL A   1       8.952  -2.002  19.465  1.00  0.00    +0.000 C 
ATOM     47  N4  UNL A   1       9.178  -0.976  20.368  1.00  0.00    +0.000 N 
ATOM     48  C35 UNL A   1       8.527  -3.333  19.818  1.00  0.00    +0.000 C 
ATOM     60  C42 UNL A   1       8.298  -3.761  21.083  1.00  0.00    +0.000 C 
ATOM     61  N5  UNL A   1       8.418  -3.064  22.278  1.00  0.00    +0.000 N 
ATOM     62  C43 UNL A   1       8.070  -3.905  23.222  1.00  0.00    +0.000 C 
ATOM     63  C44 UNL A   1       8.047  -3.704  24.716  1.00  0.00    +0.000 C 
ATOM     75  C51 UNL A   1       8.429  -2.515  25.223  1.00  0.00    +0.000 C 
ATOM     76  C52 UNL A   1       8.464  -2.175  26.642  1.00  0.00    +0.000 C 
ATOM     77  C53 UNL A   1       8.839  -0.893  26.776  1.00  0.00    +0.000 C 
ATOM     78  C54 UNL A   1       9.114  -0.331  25.453  1.00  0.00    +0.000 C 
ATOM     79  N6  UNL A   1       8.850  -1.369  24.592  1.00  0.00    +0.000 N 
ATOM     80  C55 UNL A   1       7.654  -5.223  22.725  1.00  0.00    +0.000 C 
ATOM     81  C56 UNL A   1       7.860  -5.099  21.422  1.00  0.00    +0.000 C 
ATOM     82  C57 UNL A   1      10.169   2.901  22.291  1.00  0.00    +0.000 C 
ATOM     83  C58 UNL A   1      10.180   2.782  23.611  1.00  0.00    +0.000 C 
ATOM    109  H24 UNL A   1       9.945   0.461  17.586  1.00  0.00    +0.000 H 
ATOM    110  H25 UNL A   1       9.105  -1.992  17.312  1.00  0.00    +0.000 H 
ATOM    111  H26 UNL A   1       9.066  -1.046  21.343  1.00  0.00    +0.000 H 
ATOM    112  H27 UNL A   1       8.238  -2.816  27.418  1.00  0.00    +0.000 H 
ATOM    113  H28 UNL A   1       8.920  -0.384  27.670  1.00  0.00    +0.000 H 
ATOM    114  H29 UNL A   1       8.952  -1.298  23.616  1.00  0.00    +0.000 H 
ATOM    115  H30 UNL A   1       7.296  -6.035  23.254  1.00  0.00    +0.000 H 
ATOM    116  H31 UNL A   1       7.724  -5.859  20.737  1.00  0.00    +0.000 H 
ATOM    117  H32 UNL A   1      10.363   3.778  21.782  1.00  0.00    +0.000 H 
ATOM    118  H33 UNL A   1      10.439   3.482  24.324  1.00  0.00    +0.000 H 
ENDROOT
BRANCH   27   26
ATOM    107  H22 UNL A   1      11.981   2.811  28.654  1.00  0.00    +0.000 H 
ATOM    108  H23 UNL A   1      11.735   1.360  26.726  1.00  0.00    +0.000 H 
ATOM     84  C59 UNL A   1       8.673   2.724  26.740  1.00  0.00    +0.000 C 
ATOM     85  C60 UNL A   1       8.852   3.632  27.783  1.00  0.00    +0.000 C 
ATOM    120  H35 UNL A   1       8.109   4.314  28.005  1.00  0.00    +0.000 H 
ATOM     23  C17 UNL A   1      10.033   3.621  28.529  1.00  0.00    +0.000 C 
ATOM     24  C18 UNL A   1      11.089   2.793  28.134  1.00  0.00    +0.000 C 
ATOM     25  C19 UNL A   1      10.940   1.942  27.034  1.00  0.00    +0.000 C 
ATOM    119  H34 UNL A   1       7.765   2.678  26.252  1.00  0.00    +0.000 H 
ATOM     26  C20 UNL A   1       9.717   1.874  26.347  1.00  0.00    +0.000 C 
BRANCH   23   21
ATOM     21  C16 UNL A   1      10.222   4.497  29.711  1.00  0.00    +0.000 C 
ATOM     22  O4  UNL A   1      10.006   5.702  29.609  1.00  0.00    +0.000 O 
BRANCH   21   20
ATOM    106  H21 UNL A   1      10.541   3.015  31.015  1.00  0.00    +0.000 H 
ATOM     20  N2  UNL A   1      10.654   3.988  30.912  1.00  0.00    +0.000 N 
BRANCH   20   19
ATOM    105  H20 UNL A   1      10.988   4.098  32.926  1.00  0.00    +0.000 H 
ATOM     19  C15 UNL A   1      11.251   4.658  32.052  1.00  0.00    +0.000 C 
ATOM    104  H19 UNL A   1      10.880   5.660  32.092  1.00  0.00    +0.000 H 
BRANCH   19   18
ATOM     18  C14 UNL A   1      12.773   4.707  31.987  1.00  0.00    +0.000 C 
ATOM    102  H17 UNL A   1      13.047   5.615  31.491  1.00  0.00    +0.000 H 
ATOM    103  H18 UNL A   1      13.101   4.637  33.003  1.00  0.00    +0.000 H 
BRANCH   18   17
ATOM     17  C13 UNL A   1      13.467   3.554  31.259  1.00  0.00    +0.000 C 
ATOM    100  H15 UNL A   1      14.162   3.114  31.943  1.00  0.00    +0.000 H 
ATOM    101  H16 UNL A   1      12.672   2.911  30.943  1.00  0.00    +0.000 H 
BRANCH   17   16
ATOM     98  H13 UNL A   1      13.518   4.218  29.250  1.00  0.00    +0.000 H 
ATOM     99  H14 UNL A   1      14.952   4.629  30.276  1.00  0.00    +0.000 H 
ATOM     16  C12 UNL A   1      14.235   3.893  29.976  1.00  0.00    +0.000 C 
BRANCH   16   15
ATOM     97  H12 UNL A   1      14.557   1.873  29.567  1.00  0.00    +0.000 H 
ATOM     15  C11 UNL A   1      15.070   2.782  29.329  1.00  0.00    +0.000 C 
ATOM     96  H11 UNL A   1      16.063   2.853  29.720  1.00  0.00    +0.000 H 
BRANCH   15   14
ATOM     94  H9  UNL A   1      14.870   3.764  27.471  1.00  0.00    +0.000 H 
ATOM     14  C10 UNL A   1      15.172   2.795  27.809  1.00  0.00    +0.000 C 
ATOM     95  H10 UNL A   1      16.190   2.548  27.590  1.00  0.00    +0.000 H 
BRANCH   14   13
ATOM     13  N1  UNL A   1      14.380   1.818  27.107  1.00  0.00    +0.000 N 
ATOM     93  H8  UNL A   1      13.406   1.912  27.216  1.00  0.00    +0.000 H 
BRANCH   13   11
ATOM     11  C9  UNL A   1      14.783   0.772  26.305  1.00  0.00    +0.000 C 
ATOM     12  O3  UNL A   1      15.791   0.157  26.661  1.00  0.00    +0.000 O 
BRANCH   11   10
ATOM      5  C3  UNL A   1      13.476  -1.004  24.907  1.00  0.00    +0.000 C 
ATOM      6  C4  UNL A   1      12.853  -1.340  23.693  1.00  0.00    +0.000 C 
ATOM      7  C5  UNL A   1      12.707  -0.388  22.689  1.00  0.00    +0.000 C 
ATOM      8  C6  UNL A   1      13.181   0.902  22.896  1.00  0.00    +0.000 C 
ATOM      9  C7  UNL A   1      13.830   1.223  24.095  1.00  0.00    +0.000 C 
ATOM     10  C8  UNL A   1      14.026   0.267  25.115  1.00  0.00    +0.000 C 
ATOM     89  H4  UNL A   1      12.501  -2.298  23.544  1.00  0.00    +0.000 H 
ATOM     90  H5  UNL A   1      12.253  -0.637  21.797  1.00  0.00    +0.000 H 
ATOM     91  H6  UNL A   1      13.054   1.622  22.169  1.00  0.00    +0.000 H 
ATOM     92  H7  UNL A   1      14.175   2.185  24.235  1.00  0.00    +0.000 H 
BRANCH    5    4
ATOM      4  O2  UNL A   1      13.556  -2.065  25.814  1.00  0.00    +0.000 O 
BRANCH    4    2
ATOM      2  C2  UNL A   1      12.355  -2.553  26.310  1.00  0.00    +0.000 C 
ATOM      3  O1  UNL A   1      11.605  -3.350  25.760  1.00  0.00    +0.000 O 
BRANCH    2    1
ATOM      1  C1  UNL A   1      12.109  -1.934  27.656  1.00  0.00    +0.000 C 
ATOM     86  H1  UNL A   1      12.376  -0.899  27.628  1.00  0.00    +0.000 H 
ATOM     87  H2  UNL A   1      12.702  -2.435  28.393  1.00  0.00    +0.000 H 
ATOM     88  H3  UNL A   1      11.074  -2.029  27.909  1.00  0.00    +0.000 H 
ENDBRANCH    2    1
ENDBRANCH    4    2
ENDBRANCH    5    4
ENDBRANCH   11   10
ENDBRANCH   13   11
ENDBRANCH   14   13
ENDBRANCH   15   14
ENDBRANCH   16   15
ENDBRANCH   17   16
ENDBRANCH   18   17
ENDBRANCH   19   18
ENDBRANCH   20   19
ENDBRANCH   21   20
ENDBRANCH   23   21
ENDBRANCH   27   26
BRANCH   31   32
ATOM     33  C26 UNL A   1       9.287   3.417  18.862  1.00  0.00    +0.000 C 
ATOM     34  F1  UNL A   1       7.983   3.158  19.043  1.00  0.00    +0.000 F 
ATOM     35  C27 UNL A   1       9.650   4.503  18.069  1.00  0.00    +0.000 C 
ATOM     36  F2  UNL A   1       8.702   5.255  17.492  1.00  0.00    +0.000 F 
ATOM     37  C28 UNL A   1      10.988   4.800  17.866  1.00  0.00    +0.000 C 
ATOM     38  F3  UNL A   1      11.337   5.853  17.113  1.00  0.00    +0.000 F 
ATOM     39  C29 UNL A   1      11.967   4.002  18.440  1.00  0.00    +0.000 C 
ATOM     40  F4  UNL A   1      13.262   4.298  18.258  1.00  0.00    +0.000 F 
ATOM     41  C30 UNL A   1      11.607   2.898  19.206  1.00  0.00    +0.000 C 
ATOM     42  F5  UNL A   1      12.579   2.139  19.737  1.00  0.00    +0.000 F 
ATOM     32  C25 UNL A   1      10.259   2.584  19.437  1.00  0.00    +0.000 C 
ENDBRANCH   31   32
BRANCH   48   49
ATOM     49  C36 UNL A   1       8.354  -4.330  18.707  1.00  0.00    +0.000 C 
ATOM     50  C37 UNL A   1       9.365  -5.241  18.367  1.00  0.00    +0.000 C 
ATOM     51  F6  UNL A   1      10.545  -5.209  19.004  1.00  0.00    +0.000 F 
ATOM     52  C38 UNL A   1       9.180  -6.164  17.340  1.00  0.00    +0.000 C 
ATOM     53  F7  UNL A   1      10.179  -6.989  16.997  1.00  0.00    +0.000 F 
ATOM     54  C39 UNL A   1       7.971  -6.220  16.662  1.00  0.00    +0.000 C 
ATOM     55  F8  UNL A   1       7.793  -7.115  15.681  1.00  0.00    +0.000 F 
ATOM     56  C40 UNL A   1       6.950  -5.345  16.997  1.00  0.00    +0.000 C 
ATOM     57  F9  UNL A   1       5.775  -5.409  16.356  1.00  0.00    +0.000 F 
ATOM     58  C41 UNL A   1       7.144  -4.398  17.999  1.00  0.00    +0.000 C 
ATOM     59  F10 UNL A   1       6.141  -3.554  18.289  1.00  0.00    +0.000 F 
ENDBRANCH   48   49
BRANCH   63   64
ATOM     65  C46 UNL A   1       8.434  -5.930  25.822  1.00  0.00    +0.000 C 
ATOM     66  F11 UNL A   1       9.616  -6.023  25.195  1.00  0.00    +0.000 F 
ATOM     67  C47 UNL A   1       8.013  -6.990  26.623  1.00  0.00    +0.000 C 
ATOM     68  F12 UNL A   1       8.783  -8.080  26.747  1.00  0.00    +0.000 F 
ATOM     69  C48 UNL A   1       6.790  -6.929  27.272  1.00  0.00    +0.000 C 
ATOM     70  F13 UNL A   1       6.384  -7.948  28.041  1.00  0.00    +0.000 F 
ATOM     71  C49 UNL A   1       5.981  -5.814  27.113  1.00  0.00    +0.000 C 
ATOM     72  F14 UNL A   1       4.805  -5.742  27.751  1.00  0.00    +0.000 F 
ATOM     73  C50 UNL A   1       6.386  -4.768  26.284  1.00  0.00    +0.000 C 
ATOM     74  F15 UNL A   1       5.572  -3.713  26.133  1.00  0.00    +0.000 F 
ATOM     64  C45 UNL A   1       7.621  -4.804  25.622  1.00  0.00    +0.000 C 
ENDBRANCH   63   64
TORSDOF 18
ENDMDL
MODEL 6
REMARK VINA RESULT:     -10.5     43.484     46.898
ROOT
ATOM     27  C21 UNL A   1      29.201 -13.936  30.938  1.00  0.00    +0.000 C 
ATOM     28  C22 UNL A   1      28.928 -14.069  32.413  1.00  0.00    +0.000 C 
ATOM     29  N3  UNL A   1      27.909 -13.636  33.112  1.00  0.00    +0.000 N 
ATOM     30  C23 UNL A   1      28.134 -14.058  34.415  1.00  0.00    +0.000 C 
ATOM     31  C24 UNL A   1      27.403 -13.801  35.527  1.00  0.00    +0.000 C 
ATOM     43  C31 UNL A   1      26.200 -13.011  35.542  1.00  0.00    +0.000 C 
ATOM     44  C32 UNL A   1      25.417 -12.652  36.625  1.00  0.00    +0.000 C 
ATOM     45  C33 UNL A   1      24.317 -11.930  36.150  1.00  0.00    +0.000 C 
ATOM     46  C34 UNL A   1      24.450 -11.781  34.779  1.00  0.00    +0.000 C 
ATOM     47  N4  UNL A   1      25.605 -12.456  34.418  1.00  0.00    +0.000 N 
ATOM     48  C35 UNL A   1      23.586 -11.077  33.866  1.00  0.00    +0.000 C 
ATOM     60  C42 UNL A   1      23.790 -10.976  32.530  1.00  0.00    +0.000 C 
ATOM     61  N5  UNL A   1      24.828 -11.488  31.763  1.00  0.00    +0.000 N 
ATOM     62  C43 UNL A   1      24.570 -11.136  30.526  1.00  0.00    +0.000 C 
ATOM     63  C44 UNL A   1      25.374 -11.386  29.277  1.00  0.00    +0.000 C 
ATOM     75  C51 UNL A   1      26.538 -12.059  29.370  1.00  0.00    +0.000 C 
ATOM     76  C52 UNL A   1      27.424 -12.372  28.253  1.00  0.00    +0.000 C 
ATOM     77  C53 UNL A   1      28.458 -13.099  28.705  1.00  0.00    +0.000 C 
ATOM     78  C54 UNL A   1      28.332 -13.268  30.153  1.00  0.00    +0.000 C 
ATOM     79  N6  UNL A   1      27.165 -12.612  30.461  1.00  0.00    +0.000 N 
ATOM     80  C55 UNL A   1      23.315 -10.388  30.367  1.00  0.00    +0.000 C 
ATOM     81  C56 UNL A   1      22.906 -10.274  31.623  1.00  0.00    +0.000 C 
ATOM     82  C57 UNL A   1      29.354 -14.834  34.403  1.00  0.00    +0.000 C 
ATOM     83  C58 UNL A   1      29.922 -14.811  33.205  1.00  0.00    +0.000 C 
ATOM    109  H24 UNL A   1      25.610 -12.880  37.613  1.00  0.00    +0.000 H 
ATOM    110  H25 UNL A   1      23.539 -11.568  36.724  1.00  0.00    +0.000 H 
ATOM    111  H26 UNL A   1      25.952 -12.532  33.499  1.00  0.00    +0.000 H 
ATOM    112  H27 UNL A   1      27.280 -12.081  27.274  1.00  0.00    +0.000 H 
ATOM    113  H28 UNL A   1      29.221 -13.479  28.123  1.00  0.00    +0.000 H 
ATOM    114  H29 UNL A   1      26.811 -12.543  31.377  1.00  0.00    +0.000 H 
ATOM    115  H30 UNL A   1      22.869 -10.041  29.504  1.00  0.00    +0.000 H 
ATOM    116  H31 UNL A   1      22.065  -9.753  31.916  1.00  0.00    +0.000 H 
ATOM    117  H32 UNL A   1      29.734 -15.339  35.219  1.00  0.00    +0.000 H 
ATOM    118  H33 UNL A   1      30.826 -15.208  32.907  1.00  0.00    +0.000 H 
ENDROOT
BRANCH   27   26
ATOM    107  H22 UNL A   1      33.636 -14.017  29.620  1.00  0.00    +0.000 H 
ATOM    108  H23 UNL A   1      31.737 -12.994  30.728  1.00  0.00    +0.000 H 
ATOM     84  C59 UNL A   1      30.301 -15.877  29.800  1.00  0.00    +0.000 C 
ATOM     85  C60 UNL A   1      31.422 -16.505  29.256  1.00  0.00    +0.000 C 
ATOM    120  H35 UNL A   1      31.362 -17.488  28.949  1.00  0.00    +0.000 H 
ATOM     23  C17 UNL A   1      32.624 -15.805  29.126  1.00  0.00    +0.000 C 
ATOM     24  C18 UNL A   1      32.737 -14.523  29.674  1.00  0.00    +0.000 C 
ATOM     25  C19 UNL A   1      31.636 -13.925  30.295  1.00  0.00    +0.000 C 
ATOM    119  H34 UNL A   1      29.394 -16.369  29.811  1.00  0.00    +0.000 H 
ATOM     26  C20 UNL A   1      30.396 -14.583  30.334  1.00  0.00    +0.000 C 
BRANCH   23   21
ATOM     21  C16 UNL A   1      33.808 -16.399  28.459  1.00  0.00    +0.000 C 
ATOM     22  O4  UNL A   1      34.589 -17.083  29.116  1.00  0.00    +0.000 O 
BRANCH   21   20
ATOM    106  H21 UNL A   1      34.781 -16.730  26.743  1.00  0.00    +0.000 H 
ATOM     20  N2  UNL A   1      34.057 -16.182  27.125  1.00  0.00    +0.000 N 
BRANCH   20   19
ATOM    105  H20 UNL A   1      32.479 -14.988  26.613  1.00  0.00    +0.000 H 
ATOM     19  C15 UNL A   1      33.421 -15.272  26.191  1.00  0.00    +0.000 C 
ATOM    104  H19 UNL A   1      33.305 -15.774  25.253  1.00  0.00    +0.000 H 
BRANCH   19   18
ATOM     18  C14 UNL A   1      34.220 -13.995  25.963  1.00  0.00    +0.000 C 
ATOM    102  H17 UNL A   1      35.210 -14.162  26.333  1.00  0.00    +0.000 H 
ATOM    103  H18 UNL A   1      34.162 -13.811  24.910  1.00  0.00    +0.000 H 
BRANCH   18   17
ATOM     17  C13 UNL A   1      33.687 -12.723  26.624  1.00  0.00    +0.000 C 
ATOM    100  H15 UNL A   1      33.023 -12.253  25.928  1.00  0.00    +0.000 H 
ATOM    101  H16 UNL A   1      33.231 -13.056  27.533  1.00  0.00    +0.000 H 
BRANCH   17   16
ATOM     98  H13 UNL A   1      34.271 -11.095  27.844  1.00  0.00    +0.000 H 
ATOM     99  H14 UNL A   1      35.580 -12.240  27.339  1.00  0.00    +0.000 H 
ATOM     16  C12 UNL A   1      34.716 -11.672  27.060  1.00  0.00    +0.000 C 
BRANCH   16   15
ATOM     97  H12 UNL A   1      34.724 -10.969  25.096  1.00  0.00    +0.000 H 
ATOM     15  C11 UNL A   1      35.225 -10.690  26.000  1.00  0.00    +0.000 C 
ATOM     96  H11 UNL A   1      36.292 -10.773  25.966  1.00  0.00    +0.000 H 
BRANCH   15   14
ATOM     94  H9  UNL A   1      35.749  -8.740  26.615  1.00  0.00    +0.000 H 
ATOM     14  C10 UNL A   1      34.885  -9.219  26.206  1.00  0.00    +0.000 C 
ATOM     95  H10 UNL A   1      34.594  -8.856  25.242  1.00  0.00    +0.000 H 
BRANCH   14   13
ATOM     13  N1  UNL A   1      33.772  -8.936  27.075  1.00  0.00    +0.000 N 
ATOM     93  H8  UNL A   1      34.012  -8.582  27.962  1.00  0.00    +0.000 H 
BRANCH   13   11
ATOM     11  C9  UNL A   1      32.421  -9.088  26.850  1.00  0.00    +0.000 C 
ATOM     12  O3  UNL A   1      32.059  -9.151  25.672  1.00  0.00    +0.000 O 
BRANCH   11   10
ATOM      5  C3  UNL A   1      30.109  -8.750  28.016  1.00  0.00    +0.000 C 
ATOM      6  C4  UNL A   1      29.292  -8.994  29.133  1.00  0.00    +0.000 C 
ATOM      7  C5  UNL A   1      29.721  -9.846  30.147  1.00  0.00    +0.000 C 
ATOM      8  C6  UNL A   1      30.964 -10.458  30.044  1.00  0.00    +0.000 C 
ATOM      9  C7  UNL A   1      31.788 -10.187  28.945  1.00  0.00    +0.000 C 
ATOM     10  C8  UNL A   1      31.395  -9.297  27.921  1.00  0.00    +0.000 C 
ATOM     89  H4  UNL A   1      28.370  -8.539  29.204  1.00  0.00    +0.000 H 
ATOM     90  H5  UNL A   1      29.122 -10.021  30.968  1.00  0.00    +0.000 H 
ATOM     91  H6  UNL A   1      31.280 -11.112  30.777  1.00  0.00    +0.000 H 
ATOM     92  H7  UNL A   1      32.708 -10.649  28.882  1.00  0.00    +0.000 H 
BRANCH    5    4
ATOM      4  O2  UNL A   1      29.548  -7.868  27.087  1.00  0.00    +0.000 O 
BRANCH    4    2
ATOM      2  C2  UNL A   1      28.829  -8.437  26.045  1.00  0.00    +0.000 C 
ATOM      3  O1  UNL A   1      28.579  -9.625  25.889  1.00  0.00    +0.000 O 
BRANCH    2    1
ATOM      1  C1  UNL A   1      28.395  -7.342  25.112  1.00  0.00    +0.000 C 
ATOM     86  H1  UNL A   1      28.090  -6.489  25.681  1.00  0.00    +0.000 H 
ATOM     87  H2  UNL A   1      27.575  -7.684  24.517  1.00  0.00    +0.000 H 
ATOM     88  H3  UNL A   1      29.210  -7.073  24.474  1.00  0.00    +0.000 H 
ENDBRANCH    2    1
ENDBRANCH    4    2
ENDBRANCH    5    4
ENDBRANCH   11   10
ENDBRANCH   13   11
ENDBRANCH   14   13
ENDBRANCH   15   14
ENDBRANCH   16   15
ENDBRANCH   17   16
ENDBRANCH   18   17
ENDBRANCH   19   18
ENDBRANCH   20   19
ENDBRANCH   21   20
ENDBRANCH   23   21
ENDBRANCH   27   26
BRANCH   31   32
ATOM     33  C26 UNL A   1      27.371 -15.579  37.338  1.00  0.00    +0.000 C 
ATOM     34  F1  UNL A   1      26.383 -16.217  36.693  1.00  0.00    +0.000 F 
ATOM     35  C27 UNL A   1      27.848 -16.116  38.532  1.00  0.00    +0.000 C 
ATOM     36  F2  UNL A   1      27.308 -17.242  39.020  1.00  0.00    +0.000 F 
ATOM     37  C28 UNL A   1      28.872 -15.484  39.219  1.00  0.00    +0.000 C 
ATOM     38  F3  UNL A   1      29.338 -16.008  40.361  1.00  0.00    +0.000 F 
ATOM     39  C29 UNL A   1      29.409 -14.304  38.727  1.00  0.00    +0.000 C 
ATOM     40  F4  UNL A   1      30.410 -13.700  39.383  1.00  0.00    +0.000 F 
ATOM     41  C30 UNL A   1      28.912 -13.748  37.551  1.00  0.00    +0.000 C 
ATOM     42  F5  UNL A   1      29.445 -12.599  37.108  1.00  0.00    +0.000 F 
ATOM     32  C25 UNL A   1      27.886 -14.376  36.830  1.00  0.00    +0.000 C 
ENDBRANCH   31   32
BRANCH   48   49
ATOM     49  C36 UNL A   1      22.385 -10.377  34.438  1.00  0.00    +0.000 C 
ATOM     50  C37 UNL A   1      21.107 -10.954  34.403  1.00  0.00    +0.000 C 
ATOM     51  F6  UNL A   1      20.917 -12.138  33.804  1.00  0.00    +0.000 F 
ATOM     52  C38 UNL A   1      20.009 -10.293  34.949  1.00  0.00    +0.000 C 
ATOM     53  F7  UNL A   1      18.788 -10.838  34.856  1.00  0.00    +0.000 F 
ATOM     54  C39 UNL A   1      20.174  -9.065  35.574  1.00  0.00    +0.000 C 
ATOM     55  F8  UNL A   1      19.118  -8.436  36.105  1.00  0.00    +0.000 F 
ATOM     56  C40 UNL A   1      21.432  -8.488  35.641  1.00  0.00    +0.000 C 
ATOM     57  F9  UNL A   1      21.597  -7.311  36.259  1.00  0.00    +0.000 F 
ATOM     58  C41 UNL A   1      22.525  -9.129  35.066  1.00  0.00    +0.000 C 
ATOM     59  F10 UNL A   1      23.728  -8.537  35.133  1.00  0.00    +0.000 F 
ENDBRANCH   48   49
BRANCH   63   64
ATOM     65  C46 UNL A   1      23.973 -11.619  27.200  1.00  0.00    +0.000 C 
ATOM     66  F11 UNL A   1      23.499 -12.784  27.665  1.00  0.00    +0.000 F 
ATOM     67  C47 UNL A   1      23.571 -11.185  25.938  1.00  0.00    +0.000 C 
ATOM     68  F12 UNL A   1      22.732 -11.934  25.210  1.00  0.00    +0.000 F 
ATOM     69  C48 UNL A   1      24.056  -9.991  25.425  1.00  0.00    +0.000 C 
ATOM     70  F13 UNL A   1      23.670  -9.575  24.212  1.00  0.00    +0.000 F 
ATOM     71  C49 UNL A   1      24.950  -9.236  26.168  1.00  0.00    +0.000 C 
ATOM     72  F14 UNL A   1      25.410  -8.074  25.684  1.00  0.00    +0.000 F 
ATOM     73  C50 UNL A   1      25.380  -9.686  27.415  1.00  0.00    +0.000 C 
ATOM     74  F15 UNL A   1      26.263  -8.944  28.099  1.00  0.00    +0.000 F 
ATOM     64  C45 UNL A   1      24.900 -10.887  27.958  1.00  0.00    +0.000 C 
ENDBRANCH   63   64
TORSDOF 18
ENDMDL
MODEL 7
REMARK VINA RESULT:     -10.5      1.173      1.713
ROOT
ATOM     27  C21 UNL A   1      52.651  20.632  11.339  1.00  0.00    +0.000 C 
ATOM     28  C22 UNL A   1      53.943  19.921  11.035  1.00  0.00    +0.000 C 
ATOM     29  N3  UNL A   1      54.976  19.707  11.812  1.00  0.00    +0.000 N 
ATOM     30  C23 UNL A   1      55.878  18.975  11.052  1.00  0.00    +0.000 C 
ATOM     31  C24 UNL A   1      57.128  18.568  11.380  1.00  0.00    +0.000 C 
ATOM     43  C31 UNL A   1      57.761  18.833  12.645  1.00  0.00    +0.000 C 
ATOM     44  C32 UNL A   1      59.042  18.506  13.055  1.00  0.00    +0.000 C 
ATOM     45  C33 UNL A   1      59.194  18.913  14.385  1.00  0.00    +0.000 C 
ATOM     46  C34 UNL A   1      58.032  19.553  14.782  1.00  0.00    +0.000 C 
ATOM     47  N4  UNL A   1      57.158  19.490  13.708  1.00  0.00    +0.000 N 
ATOM     48  C35 UNL A   1      57.740  20.176  16.048  1.00  0.00    +0.000 C 
ATOM     60  C42 UNL A   1      56.571  20.788  16.357  1.00  0.00    +0.000 C 
ATOM     61  N5  UNL A   1      55.440  20.963  15.571  1.00  0.00    +0.000 N 
ATOM     62  C43 UNL A   1      54.574  21.599  16.322  1.00  0.00    +0.000 C 
ATOM     63  C44 UNL A   1      53.189  22.084  15.977  1.00  0.00    +0.000 C 
ATOM     75  C51 UNL A   1      52.710  21.872  14.735  1.00  0.00    +0.000 C 
ATOM     76  C52 UNL A   1      51.396  22.287  14.255  1.00  0.00    +0.000 C 
ATOM     77  C53 UNL A   1      51.237  21.860  12.992  1.00  0.00    +0.000 C 
ATOM     78  C54 UNL A   1      52.456  21.178  12.557  1.00  0.00    +0.000 C 
ATOM     79  N6  UNL A   1      53.279  21.239  13.655  1.00  0.00    +0.000 N 
ATOM     80  C55 UNL A   1      55.048  21.867  17.686  1.00  0.00    +0.000 C 
ATOM     81  C56 UNL A   1      56.287  21.399  17.639  1.00  0.00    +0.000 C 
ATOM     82  C57 UNL A   1      55.250  18.728   9.773  1.00  0.00    +0.000 C 
ATOM     83  C58 UNL A   1      54.084  19.352   9.686  1.00  0.00    +0.000 C 
ATOM    109  H24 UNL A   1      59.760  18.040  12.479  1.00  0.00    +0.000 H 
ATOM    110  H25 UNL A   1      60.031  18.762  14.969  1.00  0.00    +0.000 H 
ATOM    111  H26 UNL A   1      56.244  19.856  13.701  1.00  0.00    +0.000 H 
ATOM    112  H27 UNL A   1      50.701  22.822  14.798  1.00  0.00    +0.000 H 
ATOM    113  H28 UNL A   1      50.388  21.991  12.419  1.00  0.00    +0.000 H 
ATOM    114  H29 UNL A   1      54.189  20.865  13.668  1.00  0.00    +0.000 H 
ATOM    115  H30 UNL A   1      54.548  22.307  18.475  1.00  0.00    +0.000 H 
ATOM    116  H31 UNL A   1      56.962  21.461  18.417  1.00  0.00    +0.000 H 
ATOM    117  H32 UNL A   1      55.656  18.144   9.025  1.00  0.00    +0.000 H 
ATOM    118  H33 UNL A   1      53.443  19.422   8.881  1.00  0.00    +0.000 H 
ENDROOT
BRANCH   27   26
ATOM    107  H22 UNL A   1      49.126  18.827   8.944  1.00  0.00    +0.000 H 
ATOM    108  H23 UNL A   1      50.798  18.755  10.701  1.00  0.00    +0.000 H 
ATOM     84  C59 UNL A   1      51.382  21.851   9.557  1.00  0.00    +0.000 C 
ATOM     85  C60 UNL A   1      50.353  21.927   8.619  1.00  0.00    +0.000 C 
ATOM    120  H35 UNL A   1      50.169  22.816   8.127  1.00  0.00    +0.000 H 
ATOM     23  C17 UNL A   1      49.570  20.803   8.344  1.00  0.00    +0.000 C 
ATOM     24  C18 UNL A   1      49.731  19.647   9.113  1.00  0.00    +0.000 C 
ATOM     25  C19 UNL A   1      50.708  19.599  10.113  1.00  0.00    +0.000 C 
ATOM    119  H34 UNL A   1      52.013  22.657   9.691  1.00  0.00    +0.000 H 
ATOM     26  C20 UNL A   1      51.567  20.690  10.321  1.00  0.00    +0.000 C 
BRANCH   23   21
ATOM     21  C16 UNL A   1      48.535  20.810   7.281  1.00  0.00    +0.000 C 
ATOM     22  O4  UNL A   1      47.998  21.870   6.970  1.00  0.00    +0.000 O 
BRANCH   21   20
ATOM    106  H21 UNL A   1      47.643  19.022   7.215  1.00  0.00    +0.000 H 
ATOM     20  N2  UNL A   1      48.153  19.649   6.653  1.00  0.00    +0.000 N 
BRANCH   20   19
ATOM    105  H20 UNL A   1      49.362  18.775   5.256  1.00  0.00    +0.000 H 
ATOM     19  C15 UNL A   1      48.381  19.203   5.291  1.00  0.00    +0.000 C 
ATOM    104  H19 UNL A   1      48.287  20.044   4.637  1.00  0.00    +0.000 H 
BRANCH   19   18
ATOM     18  C14 UNL A   1      47.400  18.127   4.843  1.00  0.00    +0.000 C 
ATOM    102  H17 UNL A   1      47.808  17.660   3.971  1.00  0.00    +0.000 H 
ATOM    103  H18 UNL A   1      47.289  17.478   5.687  1.00  0.00    +0.000 H 
BRANCH   18   17
ATOM     17  C13 UNL A   1      45.982  18.588   4.501  1.00  0.00    +0.000 C 
ATOM    100  H15 UNL A   1      45.576  17.889   3.802  1.00  0.00    +0.000 H 
ATOM    101  H16 UNL A   1      45.475  18.637   5.442  1.00  0.00    +0.000 H 
BRANCH   17   16
ATOM     98  H13 UNL A   1      46.290  20.681   4.568  1.00  0.00    +0.000 H 
ATOM     99  H14 UNL A   1      46.274  19.916   2.927  1.00  0.00    +0.000 H 
ATOM     16  C12 UNL A   1      45.826  19.989   3.896  1.00  0.00    +0.000 C 
BRANCH   16   15
ATOM     97  H12 UNL A   1      44.528  21.483   3.235  1.00  0.00    +0.000 H 
ATOM     15  C11 UNL A   1      44.404  20.495   3.628  1.00  0.00    +0.000 C 
ATOM     96  H11 UNL A   1      43.862  20.443   4.549  1.00  0.00    +0.000 H 
BRANCH   15   14
ATOM     94  H9  UNL A   1      44.265  19.097   2.052  1.00  0.00    +0.000 H 
ATOM     14  C10 UNL A   1      43.595  19.746   2.576  1.00  0.00    +0.000 C 
ATOM     95  H10 UNL A   1      42.822  19.241   3.117  1.00  0.00    +0.000 H 
BRANCH   14   13
ATOM     13  N1  UNL A   1      42.914  20.556   1.599  1.00  0.00    +0.000 N 
ATOM     93  H8  UNL A   1      43.339  21.422   1.402  1.00  0.00    +0.000 H 
BRANCH   13   11
ATOM     11  C9  UNL A   1      41.755  20.299   0.898  1.00  0.00    +0.000 C 
ATOM     12  O3  UNL A   1      41.886  19.924  -0.271  1.00  0.00    +0.000 O 
BRANCH   11   10
ATOM      5  C3  UNL A   1      39.349  21.247   1.249  1.00  0.00    +0.000 C 
ATOM      6  C4  UNL A   1      38.128  21.171   1.943  1.00  0.00    +0.000 C 
ATOM      7  C5  UNL A   1      37.889  20.131   2.835  1.00  0.00    +0.000 C 
ATOM      8  C6  UNL A   1      38.867  19.164   3.035  1.00  0.00    +0.000 C 
ATOM      9  C7  UNL A   1      40.093  19.262   2.366  1.00  0.00    +0.000 C 
ATOM     10  C8  UNL A   1      40.377  20.327   1.484  1.00  0.00    +0.000 C 
ATOM     89  H4  UNL A   1      37.405  21.891   1.790  1.00  0.00    +0.000 H 
ATOM     90  H5  UNL A   1      36.994  20.078   3.346  1.00  0.00    +0.000 H 
ATOM     91  H6  UNL A   1      38.689  18.373   3.673  1.00  0.00    +0.000 H 
ATOM     92  H7  UNL A   1      40.809  18.535   2.523  1.00  0.00    +0.000 H 
BRANCH    5    4
ATOM      4  O2  UNL A   1      39.446  22.351   0.396  1.00  0.00    +0.000 O 
BRANCH    4    2
ATOM      2  C2  UNL A   1      38.601  22.362  -0.705  1.00  0.00    +0.000 C 
ATOM      3  O1  UNL A   1      37.549  22.979  -0.816  1.00  0.00    +0.000 O 
BRANCH    2    1
ATOM      1  C1  UNL A   1      39.190  21.477  -1.767  1.00  0.00    +0.000 C 
ATOM     86  H1  UNL A   1      39.824  20.747  -1.311  1.00  0.00    +0.000 H 
ATOM     87  H2  UNL A   1      39.763  22.070  -2.449  1.00  0.00    +0.000 H 
ATOM     88  H3  UNL A   1      38.402  20.985  -2.298  1.00  0.00    +0.000 H 
ENDBRANCH    2    1
ENDBRANCH    4    2
ENDBRANCH    5    4
ENDBRANCH   11   10
ENDBRANCH   13   11
ENDBRANCH   14   13
ENDBRANCH   15   14
ENDBRANCH   16   15
ENDBRANCH   17   16
ENDBRANCH   18   17
ENDBRANCH   19   18
ENDBRANCH   20   19
ENDBRANCH   21   20
ENDBRANCH   23   21
ENDBRANCH   27   26
BRANCH   31   32
ATOM     33  C26 UNL A   1      58.707  18.437   9.396  1.00  0.00    +0.000 C 
ATOM     34  F1  UNL A   1      58.751  19.776   9.343  1.00  0.00    +0.000 F 
ATOM     35  C27 UNL A   1      59.443  17.705   8.467  1.00  0.00    +0.000 C 
ATOM     36  F2  UNL A   1      60.165  18.344   7.536  1.00  0.00    +0.000 F 
ATOM     37  C28 UNL A   1      59.423  16.320   8.499  1.00  0.00    +0.000 C 
ATOM     38  F3  UNL A   1      60.142  15.617   7.612  1.00  0.00    +0.000 F 
ATOM     39  C29 UNL A   1      58.652  15.662   9.445  1.00  0.00    +0.000 C 
ATOM     40  F4  UNL A   1      58.644  14.322   9.487  1.00  0.00    +0.000 F 
ATOM     41  C30 UNL A   1      57.890  16.390  10.354  1.00  0.00    +0.000 C 
ATOM     42  F5  UNL A   1      57.145  15.723  11.249  1.00  0.00    +0.000 F 
ATOM     32  C25 UNL A   1      57.904  17.793  10.351  1.00  0.00    +0.000 C 
ENDBRANCH   31   32
BRANCH   48   49
ATOM     49  C36 UNL A   1      58.819  20.173  17.094  1.00  0.00    +0.000 C 
ATOM     50  C37 UNL A   1      59.561  21.325  17.392  1.00  0.00    +0.000 C 
ATOM     51  F6  UNL A   1      59.356  22.458  16.706  1.00  0.00    +0.000 F 
ATOM     52  C38 UNL A   1      60.551  21.304  18.373  1.00  0.00    +0.000 C 
ATOM     53  F7  UNL A   1      61.285  22.401  18.604  1.00  0.00    +0.000 F 
ATOM     54  C39 UNL A   1      60.788  20.145  19.100  1.00  0.00    +0.000 C 
ATOM     55  F8  UNL A   1      61.734  20.131  20.048  1.00  0.00    +0.000 F 
ATOM     56  C40 UNL A   1      60.049  19.002  18.837  1.00  0.00    +0.000 C 
ATOM     57  F9  UNL A   1      60.265  17.888  19.549  1.00  0.00    +0.000 F 
ATOM     58  C41 UNL A   1      59.085  19.010  17.834  1.00  0.00    +0.000 C 
ATOM     59  F10 UNL A   1      58.397  17.883  17.594  1.00  0.00    +0.000 F 
ENDBRANCH   48   49
BRANCH   63   64
ATOM     65  C46 UNL A   1      51.610  22.095  17.935  1.00  0.00    +0.000 C 
ATOM     66  F11 UNL A   1      51.630  20.754  17.943  1.00  0.00    +0.000 F 
ATOM     67  C47 UNL A   1      50.790  22.760  18.844  1.00  0.00    +0.000 C 
ATOM     68  F12 UNL A   1      50.033  22.058  19.699  1.00  0.00    +0.000 F 
ATOM     69  C48 UNL A   1      50.738  24.146  18.851  1.00  0.00    +0.000 C 
ATOM     70  F13 UNL A   1      49.948  24.785  19.724  1.00  0.00    +0.000 F 
ATOM     71  C49 UNL A   1      51.496  24.867  17.941  1.00  0.00    +0.000 C 
ATOM     72  F14 UNL A   1      51.462  26.206  17.953  1.00  0.00    +0.000 F 
ATOM     73  C50 UNL A   1      52.290  24.201  17.009  1.00  0.00    +0.000 C 
ATOM     74  F15 UNL A   1      52.995  24.927  16.128  1.00  0.00    +0.000 F 
ATOM     64  C45 UNL A   1      52.364  22.801  16.986  1.00  0.00    +0.000 C 
ENDBRANCH   63   64
TORSDOF 18
ENDMDL
MODEL 8
REMARK VINA RESULT:     -10.5     40.303     47.239
ROOT
ATOM     27  C21 UNL A   1      25.929  36.779  45.676  1.00  0.00    +0.000 C 
ATOM     28  C22 UNL A   1      25.919  37.961  46.609  1.00  0.00    +0.000 C 
ATOM     29  N3  UNL A   1      26.888  38.789  46.910  1.00  0.00    +0.000 N 
ATOM     30  C23 UNL A   1      26.338  39.715  47.786  1.00  0.00    +0.000 C 
ATOM     31  C24 UNL A   1      26.951  40.732  48.439  1.00  0.00    +0.000 C 
ATOM     43  C31 UNL A   1      28.351  41.046  48.319  1.00  0.00    +0.000 C 
ATOM     44  C32 UNL A   1      29.075  42.024  48.976  1.00  0.00    +0.000 C 
ATOM     45  C33 UNL A   1      30.390  41.993  48.497  1.00  0.00    +0.000 C 
ATOM     46  C34 UNL A   1      30.500  40.952  47.590  1.00  0.00    +0.000 C 
ATOM     47  N4  UNL A   1      29.240  40.384  47.484  1.00  0.00    +0.000 N 
ATOM     48  C35 UNL A   1      31.668  40.509  46.872  1.00  0.00    +0.000 C 
ATOM     60  C42 UNL A   1      31.692  39.472  46.000  1.00  0.00    +0.000 C 
ATOM     61  N5  UNL A   1      30.659  38.628  45.615  1.00  0.00    +0.000 N 
ATOM     62  C43 UNL A   1      31.177  37.799  44.741  1.00  0.00    +0.000 C 
ATOM     63  C44 UNL A   1      30.527  36.646  44.021  1.00  0.00    +0.000 C 
ATOM     75  C51 UNL A   1      29.231  36.368  44.263  1.00  0.00    +0.000 C 
ATOM     76  C52 UNL A   1      28.471  35.285  43.646  1.00  0.00    +0.000 C 
ATOM     77  C53 UNL A   1      27.201  35.342  44.078  1.00  0.00    +0.000 C 
ATOM     78  C54 UNL A   1      27.066  36.439  45.036  1.00  0.00    +0.000 C 
ATOM     79  N6  UNL A   1      28.324  36.989  45.088  1.00  0.00    +0.000 N 
ATOM     80  C55 UNL A   1      32.594  38.049  44.447  1.00  0.00    +0.000 C 
ATOM     81  C56 UNL A   1      32.872  39.045  45.276  1.00  0.00    +0.000 C 
ATOM     82  C57 UNL A   1      24.936  39.387  47.922  1.00  0.00    +0.000 C 
ATOM     83  C58 UNL A   1      24.643  38.269  47.273  1.00  0.00    +0.000 C 
ATOM    109  H24 UNL A   1      28.709  42.668  49.695  1.00  0.00    +0.000 H 
ATOM    110  H25 UNL A   1      31.147  42.636  48.773  1.00  0.00    +0.000 H 
ATOM    111  H26 UNL A   1      29.010  39.624  46.902  1.00  0.00    +0.000 H 
ATOM    112  H27 UNL A   1      28.848  34.587  42.987  1.00  0.00    +0.000 H 
ATOM    113  H28 UNL A   1      26.440  34.711  43.780  1.00  0.00    +0.000 H 
ATOM    114  H29 UNL A   1      28.554  37.754  45.662  1.00  0.00    +0.000 H 
ATOM    115  H30 UNL A   1      33.213  37.574  43.771  1.00  0.00    +0.000 H 
ATOM    116  H31 UNL A   1      33.808  39.463  45.391  1.00  0.00    +0.000 H 
ATOM    117  H32 UNL A   1      24.253  39.948  48.456  1.00  0.00    +0.000 H 
ATOM    118  H33 UNL A   1      23.752  37.750  47.242  1.00  0.00    +0.000 H 
ENDROOT
BRANCH   27   26
ATOM    107  H22 UNL A   1      21.872  36.083  43.561  1.00  0.00    +0.000 H 
ATOM    108  H23 UNL A   1      23.964  37.271  43.870  1.00  0.00    +0.000 H 
ATOM     84  C59 UNL A   1      24.408  34.844  46.140  1.00  0.00    +0.000 C 
ATOM     85  C60 UNL A   1      23.252  34.105  45.887  1.00  0.00    +0.000 C 
ATOM    120  H35 UNL A   1      23.106  33.199  46.359  1.00  0.00    +0.000 H 
ATOM     23  C17 UNL A   1      22.291  34.589  44.995  1.00  0.00    +0.000 C 
ATOM     24  C18 UNL A   1      22.559  35.744  44.253  1.00  0.00    +0.000 C 
ATOM     25  C19 UNL A   1      23.757  36.440  44.446  1.00  0.00    +0.000 C 
ATOM    119  H34 UNL A   1      25.070  34.527  46.865  1.00  0.00    +0.000 H 
ATOM     26  C20 UNL A   1      24.678  36.016  45.417  1.00  0.00    +0.000 C 
BRANCH   23   21
ATOM     21  C16 UNL A   1      21.002  33.888  44.776  1.00  0.00    +0.000 C 
ATOM     22  O4  UNL A   1      19.967  34.544  44.683  1.00  0.00    +0.000 O 
BRANCH   21   20
ATOM    106  H21 UNL A   1      21.563  32.039  45.292  1.00  0.00    +0.000 H 
ATOM     20  N2  UNL A   1      20.943  32.518  44.695  1.00  0.00    +0.000 N 
BRANCH   20   19
ATOM    105  H20 UNL A   1      20.697  30.813  43.595  1.00  0.00    +0.000 H 
ATOM     19  C15 UNL A   1      20.109  31.664  43.869  1.00  0.00    +0.000 C 
ATOM    104  H19 UNL A   1      19.791  32.223  43.014  1.00  0.00    +0.000 H 
BRANCH   19   18
ATOM     18  C14 UNL A   1      18.875  31.148  44.599  1.00  0.00    +0.000 C 
ATOM    102  H17 UNL A   1      19.211  30.551  45.421  1.00  0.00    +0.000 H 
ATOM    103  H18 UNL A   1      18.326  32.023  44.877  1.00  0.00    +0.000 H 
BRANCH   18   17
ATOM     17  C13 UNL A   1      17.897  30.302  43.781  1.00  0.00    +0.000 C 
ATOM    100  H15 UNL A   1      16.908  30.573  44.083  1.00  0.00    +0.000 H 
ATOM    101  H16 UNL A   1      18.136  30.517  42.760  1.00  0.00    +0.000 H 
BRANCH   17   16
ATOM     98  H13 UNL A   1      18.865  28.476  43.323  1.00  0.00    +0.000 H 
ATOM     99  H14 UNL A   1      18.086  28.594  44.953  1.00  0.00    +0.000 H 
ATOM     16  C12 UNL A   1      18.016  28.777  43.901  1.00  0.00    +0.000 C 
BRANCH   16   15
ATOM     97  H12 UNL A   1      17.161  27.433  42.554  1.00  0.00    +0.000 H 
ATOM     15  C11 UNL A   1      16.824  27.931  43.439  1.00  0.00    +0.000 C 
ATOM     96  H11 UNL A   1      15.995  28.592  43.294  1.00  0.00    +0.000 H 
BRANCH   15   14
ATOM     94  H9  UNL A   1      17.205  26.537  44.978  1.00  0.00    +0.000 H 
ATOM     14  C10 UNL A   1      16.368  26.818  44.374  1.00  0.00    +0.000 C 
ATOM     95  H10 UNL A   1      15.544  27.226  44.922  1.00  0.00    +0.000 H 
BRANCH   14   13
ATOM     13  N1  UNL A   1      15.859  25.625  43.747  1.00  0.00    +0.000 N 
ATOM     93  H8  UNL A   1      16.403  24.816  43.881  1.00  0.00    +0.000 H 
BRANCH   13   11
ATOM     11  C9  UNL A   1      14.723  25.449  42.987  1.00  0.00    +0.000 C 
ATOM     12  O3  UNL A   1      13.644  25.674  43.542  1.00  0.00    +0.000 O 
BRANCH   11   10
ATOM      5  C3  UNL A   1      14.714  23.864  40.912  1.00  0.00    +0.000 C 
ATOM      6  C4  UNL A   1      14.780  23.733  39.514  1.00  0.00    +0.000 C 
ATOM      7  C5  UNL A   1      14.780  24.861  38.699  1.00  0.00    +0.000 C 
ATOM      8  C6  UNL A   1      14.710  26.122  39.279  1.00  0.00    +0.000 C 
ATOM      9  C7  UNL A   1      14.677  26.249  40.673  1.00  0.00    +0.000 C 
ATOM     10  C8  UNL A   1      14.715  25.123  41.525  1.00  0.00    +0.000 C 
ATOM     89  H4  UNL A   1      14.829  22.795  39.088  1.00  0.00    +0.000 H 
ATOM     90  H5  UNL A   1      14.831  24.763  37.674  1.00  0.00    +0.000 H 
ATOM     91  H6  UNL A   1      14.682  26.964  38.683  1.00  0.00    +0.000 H 
ATOM     92  H7  UNL A   1      14.624  27.192  41.090  1.00  0.00    +0.000 H 
BRANCH    5    4
ATOM      4  O2  UNL A   1      14.732  22.645  41.596  1.00  0.00    +0.000 O 
BRANCH    4    2
ATOM      2  C2  UNL A   1      13.578  21.875  41.526  1.00  0.00    +0.000 C 
ATOM      3  O1  UNL A   1      13.368  20.937  40.768  1.00  0.00    +0.000 O 
BRANCH    2    1
ATOM      1  C1  UNL A   1      12.602  22.386  42.547  1.00  0.00    +0.000 C 
ATOM     86  H1  UNL A   1      13.133  22.711  43.417  1.00  0.00    +0.000 H 
ATOM     87  H2  UNL A   1      11.924  21.603  42.816  1.00  0.00    +0.000 H 
ATOM     88  H3  UNL A   1      12.052  23.206  42.137  1.00  0.00    +0.000 H 
ENDBRANCH    2    1
ENDBRANCH    4    2
ENDBRANCH    5    4
ENDBRANCH   11   10
ENDBRANCH   13   11
ENDBRANCH   14   13
ENDBRANCH   15   14
ENDBRANCH   16   15
ENDBRANCH   17   16
ENDBRANCH   18   17
ENDBRANCH   19   18
ENDBRANCH   20   19
ENDBRANCH   21   20
ENDBRANCH   23   21
ENDBRANCH   27   26
BRANCH   31   32
ATOM     33  C26 UNL A   1      26.002  41.308  50.721  1.00  0.00    +0.000 C 
ATOM     34  F1  UNL A   1      26.600  40.227  51.243  1.00  0.00    +0.000 F 
ATOM     35  C27 UNL A   1      25.245  42.124  51.560  1.00  0.00    +0.000 C 
ATOM     36  F2  UNL A   1      25.116  41.812  52.857  1.00  0.00    +0.000 F 
ATOM     37  C28 UNL A   1      24.617  43.251  51.053  1.00  0.00    +0.000 C 
ATOM     38  F3  UNL A   1      23.899  44.042  51.862  1.00  0.00    +0.000 F 
ATOM     39  C29 UNL A   1      24.728  43.555  49.704  1.00  0.00    +0.000 C 
ATOM     40  F4  UNL A   1      24.135  44.654  49.216  1.00  0.00    +0.000 F 
ATOM     41  C30 UNL A   1      25.457  42.724  48.858  1.00  0.00    +0.000 C 
ATOM     42  F5  UNL A   1      25.535  43.040  47.556  1.00  0.00    +0.000 F 
ATOM     32  C25 UNL A   1      26.112  41.586  49.350  1.00  0.00    +0.000 C 
ENDBRANCH   31   32
BRANCH   48   49
ATOM     49  C36 UNL A   1      32.962  41.227  47.131  1.00  0.00    +0.000 C 
ATOM     50  C37 UNL A   1      33.914  40.734  48.034  1.00  0.00    +0.000 C 
ATOM     51  F6  UNL A   1      33.665  39.619  48.736  1.00  0.00    +0.000 F 
ATOM     52  C38 UNL A   1      35.112  41.411  48.252  1.00  0.00    +0.000 C 
ATOM     53  F7  UNL A   1      35.983  40.950  49.160  1.00  0.00    +0.000 F 
ATOM     54  C39 UNL A   1      35.398  42.568  47.542  1.00  0.00    +0.000 C 
ATOM     55  F8  UNL A   1      36.554  43.212  47.747  1.00  0.00    +0.000 F 
ATOM     56  C40 UNL A   1      34.481  43.061  46.627  1.00  0.00    +0.000 C 
ATOM     57  F9  UNL A   1      34.762  44.169  45.928  1.00  0.00    +0.000 F 
ATOM     58  C41 UNL A   1      33.268  42.406  46.433  1.00  0.00    +0.000 C 
ATOM     59  F10 UNL A   1      32.395  42.918  45.551  1.00  0.00    +0.000 F 
ENDBRANCH   48   49
BRANCH   63   64
ATOM     65  C46 UNL A   1      31.426  36.187  41.715  1.00  0.00    +0.000 C 
ATOM     66  F11 UNL A   1      30.836  37.309  41.276  1.00  0.00    +0.000 F 
ATOM     67  C47 UNL A   1      32.105  35.382  40.803  1.00  0.00    +0.000 C 
ATOM     68  F12 UNL A   1      32.151  35.732  39.510  1.00  0.00    +0.000 F 
ATOM     69  C48 UNL A   1      32.712  34.210  41.226  1.00  0.00    +0.000 C 
ATOM     70  F13 UNL A   1      33.363  33.435  40.348  1.00  0.00    +0.000 F 
ATOM     71  C49 UNL A   1      32.632  33.835  42.558  1.00  0.00    +0.000 C 
ATOM     72  F14 UNL A   1      33.231  32.711  42.976  1.00  0.00    +0.000 F 
ATOM     73  C50 UNL A   1      31.924  34.622  43.465  1.00  0.00    +0.000 C 
ATOM     74  F15 UNL A   1      31.846  34.221  44.742  1.00  0.00    +0.000 F 
ATOM     64  C45 UNL A   1      31.306  35.815  43.063  1.00  0.00    +0.000 C 
ENDBRANCH   63   64
TORSDOF 18
ENDMDL
MODEL 9
REMARK VINA RESULT:     -10.5      0.993      1.742
ROOT
ATOM     27  C21 UNL A   1      53.171  19.732  11.435  1.00  0.00    +0.000 C 
ATOM     28  C22 UNL A   1      54.515  19.069  11.287  1.00  0.00    +0.000 C 
ATOM     29  N3  UNL A   1      55.511  19.012  12.136  1.00  0.00    +0.000 N 
ATOM     30  C23 UNL A   1      56.494  18.250  11.518  1.00  0.00    +0.000 C 
ATOM     31  C24 UNL A   1      57.743  17.961  11.957  1.00  0.00    +0.000 C 
ATOM     43  C31 UNL A   1      58.287  18.413  13.211  1.00  0.00    +0.000 C 
ATOM     44  C32 UNL A   1      59.557  18.215  13.722  1.00  0.00    +0.000 C 
ATOM     45  C33 UNL A   1      59.610  18.788  14.997  1.00  0.00    +0.000 C 
ATOM     46  C34 UNL A   1      58.395  19.400  15.253  1.00  0.00    +0.000 C 
ATOM     47  N4  UNL A   1      57.589  19.156  14.153  1.00  0.00    +0.000 N 
ATOM     48  C35 UNL A   1      57.997  20.152  16.416  1.00  0.00    +0.000 C 
ATOM     60  C42 UNL A   1      56.782  20.726  16.588  1.00  0.00    +0.000 C 
ATOM     61  N5  UNL A   1      55.690  20.737  15.729  1.00  0.00    +0.000 N 
ATOM     62  C43 UNL A   1      54.749  21.406  16.351  1.00  0.00    +0.000 C 
ATOM     63  C44 UNL A   1      53.363  21.762  15.879  1.00  0.00    +0.000 C 
ATOM     75  C51 UNL A   1      52.968  21.373  14.650  1.00  0.00    +0.000 C 
ATOM     76  C52 UNL A   1      51.664  21.647  14.057  1.00  0.00    +0.000 C 
ATOM     77  C53 UNL A   1      51.601  21.063  12.849  1.00  0.00    +0.000 C 
ATOM     78  C54 UNL A   1      52.878  20.408  12.564  1.00  0.00    +0.000 C 
ATOM     79  N6  UNL A   1      53.631  20.650  13.687  1.00  0.00    +0.000 N 
ATOM     80  C55 UNL A   1      55.129  21.864  17.694  1.00  0.00    +0.000 C 
ATOM     81  C56 UNL A   1      56.392  21.469  17.768  1.00  0.00    +0.000 C 
ATOM     82  C57 UNL A   1      55.954  17.813  10.249  1.00  0.00    +0.000 C 
ATOM     83  C58 UNL A   1      54.764  18.351  10.027  1.00  0.00    +0.000 C 
ATOM    109  H24 UNL A   1      60.332  17.727  13.245  1.00  0.00    +0.000 H 
ATOM    110  H25 UNL A   1      60.419  18.759  15.637  1.00  0.00    +0.000 H 
ATOM    111  H26 UNL A   1      56.658  19.463  14.054  1.00  0.00    +0.000 H 
ATOM    112  H27 UNL A   1      50.911  22.202  14.493  1.00  0.00    +0.000 H 
ATOM    113  H28 UNL A   1      50.781  21.073  12.222  1.00  0.00    +0.000 H 
ATOM    114  H29 UNL A   1      54.558  20.336  13.792  1.00  0.00    +0.000 H 
ATOM    115  H30 UNL A   1      54.562  22.365  18.396  1.00  0.00    +0.000 H 
ATOM    116  H31 UNL A   1      57.017  21.665  18.566  1.00  0.00    +0.000 H 
ATOM    117  H32 UNL A   1      56.434  17.168   9.601  1.00  0.00    +0.000 H 
ATOM    118  H33 UNL A   1      54.167  18.285   9.188  1.00  0.00    +0.000 H 
ENDROOT
BRANCH   27   26
ATOM    107  H22 UNL A   1      50.732  21.307   7.831  1.00  0.00    +0.000 H 
ATOM    108  H23 UNL A   1      52.498  21.494   9.484  1.00  0.00    +0.000 H 
ATOM     84  C59 UNL A   1      51.396  18.422  10.249  1.00  0.00    +0.000 C 
ATOM     85  C60 UNL A   1      50.453  18.277   9.232  1.00  0.00    +0.000 C 
ATOM    120  H35 UNL A   1      49.971  17.374   9.102  1.00  0.00    +0.000 H 
ATOM     23  C17 UNL A   1      50.158  19.352   8.390  1.00  0.00    +0.000 C 
ATOM     24  C18 UNL A   1      50.915  20.525   8.480  1.00  0.00    +0.000 C 
ATOM     25  C19 UNL A   1      51.920  20.639   9.446  1.00  0.00    +0.000 C 
ATOM    119  H34 UNL A   1      51.544  17.655  10.924  1.00  0.00    +0.000 H 
ATOM     26  C20 UNL A   1      52.147  19.602  10.364  1.00  0.00    +0.000 C 
BRANCH   23   21
ATOM     21  C16 UNL A   1      49.090  19.274   7.364  1.00  0.00    +0.000 C 
ATOM     22  O4  UNL A   1      48.197  20.118   7.359  1.00  0.00    +0.000 O 
BRANCH   21   20
ATOM    106  H21 UNL A   1      49.801  18.294   5.773  1.00  0.00    +0.000 H 
ATOM     20  N2  UNL A   1      49.071  18.264   6.433  1.00  0.00    +0.000 N 
BRANCH   20   19
ATOM    105  H20 UNL A   1      47.934  16.771   7.243  1.00  0.00    +0.000 H 
ATOM     19  C15 UNL A   1      48.143  17.161   6.268  1.00  0.00    +0.000 C 
ATOM    104  H19 UNL A   1      48.595  16.428   5.632  1.00  0.00    +0.000 H 
BRANCH   19   18
ATOM     18  C14 UNL A   1      46.814  17.583   5.654  1.00  0.00    +0.000 C 
ATOM    102  H17 UNL A   1      46.221  16.702   5.527  1.00  0.00    +0.000 H 
ATOM    103  H18 UNL A   1      46.406  18.302   6.334  1.00  0.00    +0.000 H 
BRANCH   18   17
ATOM     17  C13 UNL A   1      46.877  18.298   4.303  1.00  0.00    +0.000 C 
ATOM    100  H15 UNL A   1      47.804  18.831   4.264  1.00  0.00    +0.000 H 
ATOM    101  H16 UNL A   1      46.769  17.521   3.576  1.00  0.00    +0.000 H 
BRANCH   17   16
ATOM     98  H13 UNL A   1      45.240  19.501   4.898  1.00  0.00    +0.000 H 
ATOM     99  H14 UNL A   1      46.259  20.133   3.541  1.00  0.00    +0.000 H 
ATOM     16  C12 UNL A   1      45.757  19.297   3.983  1.00  0.00    +0.000 C 
BRANCH   16   15
ATOM     97  H12 UNL A   1      44.425  17.887   3.217  1.00  0.00    +0.000 H 
ATOM     15  C11 UNL A   1      44.708  18.883   2.946  1.00  0.00    +0.000 C 
ATOM     96  H11 UNL A   1      45.155  18.975   1.978  1.00  0.00    +0.000 H 
BRANCH   15   14
ATOM     94  H9  UNL A   1      43.162  19.920   3.942  1.00  0.00    +0.000 H 
ATOM     14  C10 UNL A   1      43.407  19.676   2.930  1.00  0.00    +0.000 C 
ATOM     95  H10 UNL A   1      43.598  20.524   2.304  1.00  0.00    +0.000 H 
BRANCH   14   13
ATOM     13  N1  UNL A   1      42.266  19.019   2.347  1.00  0.00    +0.000 N 
ATOM     93  H8  UNL A   1      42.363  18.769   1.400  1.00  0.00    +0.000 H 
BRANCH   13   11
ATOM     11  C9  UNL A   1      41.056  18.686   2.919  1.00  0.00    +0.000 C 
ATOM     12  O3  UNL A   1      41.071  17.784   3.762  1.00  0.00    +0.000 O 
BRANCH   11   10
ATOM      5  C3  UNL A   1      39.513  20.464   1.791  1.00  0.00    +0.000 C 
ATOM      6  C4  UNL A   1      38.254  21.087   1.740  1.00  0.00    +0.000 C 
ATOM      7  C5  UNL A   1      37.207  20.625   2.531  1.00  0.00    +0.000 C 
ATOM      8  C6  UNL A   1      37.414  19.538   3.371  1.00  0.00    +0.000 C 
ATOM      9  C7  UNL A   1      38.678  18.940   3.441  1.00  0.00    +0.000 C 
ATOM     10  C8  UNL A   1      39.769  19.412   2.679  1.00  0.00    +0.000 C 
ATOM     89  H4  UNL A   1      38.106  21.893   1.113  1.00  0.00    +0.000 H 
ATOM     90  H5  UNL A   1      36.285  21.086   2.495  1.00  0.00    +0.000 H 
ATOM     91  H6  UNL A   1      36.636  19.170   3.941  1.00  0.00    +0.000 H 
ATOM     92  H7  UNL A   1      38.816  18.133   4.069  1.00  0.00    +0.000 H 
BRANCH    5    4
ATOM      4  O2  UNL A   1      40.466  21.044   0.947  1.00  0.00    +0.000 O 
BRANCH    4    2
ATOM      2  C2  UNL A   1      40.178  21.044  -0.411  1.00  0.00    +0.000 C 
ATOM      3  O1  UNL A   1      39.827  22.003  -1.086  1.00  0.00    +0.000 O 
BRANCH    2    1
ATOM      1  C1  UNL A   1      40.364  19.649  -0.937  1.00  0.00    +0.000 C 
ATOM     86  H1  UNL A   1      40.372  18.958  -0.121  1.00  0.00    +0.000 H 
ATOM     87  H2  UNL A   1      41.293  19.588  -1.465  1.00  0.00    +0.000 H 
ATOM     88  H3  UNL A   1      39.561  19.409  -1.602  1.00  0.00    +0.000 H 
ENDBRANCH    2    1
ENDBRANCH    4    2
ENDBRANCH    5    4
ENDBRANCH   11   10
ENDBRANCH   13   11
ENDBRANCH   14   13
ENDBRANCH   15   14
ENDBRANCH   16   15
ENDBRANCH   17   16
ENDBRANCH   18   17
ENDBRANCH   19   18
ENDBRANCH   20   19
ENDBRANCH   21   20
ENDBRANCH   23   21
ENDBRANCH   27   26
BRANCH   31   32
ATOM     33  C26 UNL A   1      58.635  15.716  11.177  1.00  0.00    +0.000 C 
ATOM     34  F1  UNL A   1      57.908  15.100  12.121  1.00  0.00    +0.000 F 
ATOM     35  C27 UNL A   1      59.428  14.943  10.332  1.00  0.00    +0.000 C 
ATOM     36  F2  UNL A   1      59.463  13.611  10.482  1.00  0.00    +0.000 F 
ATOM     37  C28 UNL A   1      60.187  15.549   9.343  1.00  0.00    +0.000 C 
ATOM     38  F3  UNL A   1      60.940  14.803   8.523  1.00  0.00    +0.000 F 
ATOM     39  C29 UNL A   1      60.171  16.929   9.209  1.00  0.00    +0.000 C 
ATOM     40  F4  UNL A   1      60.893  17.515   8.243  1.00  0.00    +0.000 F 
ATOM     41  C30 UNL A   1      59.405  17.706  10.073  1.00  0.00    +0.000 C 
ATOM     42  F5  UNL A   1      59.421  19.040   9.924  1.00  0.00    +0.000 F 
ATOM     32  C25 UNL A   1      58.617  17.115  11.072  1.00  0.00    +0.000 C 
ENDBRANCH   31   32
BRANCH   48   49
ATOM     49  C36 UNL A   1      59.013  20.340  17.508  1.00  0.00    +0.000 C 
ATOM     50  C37 UNL A   1      59.730  21.537  17.652  1.00  0.00    +0.000 C 
ATOM     51  F6  UNL A   1      59.558  22.537  16.775  1.00  0.00    +0.000 F 
ATOM     52  C38 UNL A   1      60.660  21.695  18.677  1.00  0.00    +0.000 C 
ATOM     53  F7  UNL A   1      61.373  22.826  18.763  1.00  0.00    +0.000 F 
ATOM     54  C39 UNL A   1      60.860  20.677  19.599  1.00  0.00    +0.000 C 
ATOM     55  F8  UNL A   1      61.749  20.835  20.589  1.00  0.00    +0.000 F 
ATOM     56  C40 UNL A   1      60.145  19.495  19.489  1.00  0.00    +0.000 C 
ATOM     57  F9  UNL A   1      60.325  18.518  20.388  1.00  0.00    +0.000 F 
ATOM     58  C41 UNL A   1      59.242  19.321  18.445  1.00  0.00    +0.000 C 
ATOM     59  F10 UNL A   1      58.576  18.159  18.358  1.00  0.00    +0.000 F 
ENDBRANCH   48   49
BRANCH   63   64
ATOM     65  C46 UNL A   1      52.304  23.931  16.589  1.00  0.00    +0.000 C 
ATOM     66  F11 UNL A   1      53.000  24.569  15.637  1.00  0.00    +0.000 F 
ATOM     67  C47 UNL A   1      51.489  24.676  17.440  1.00  0.00    +0.000 C 
ATOM     68  F12 UNL A   1      51.421  26.007  17.302  1.00  0.00    +0.000 F 
ATOM     69  C48 UNL A   1      50.768  24.045  18.442  1.00  0.00    +0.000 C 
ATOM     70  F13 UNL A   1      49.986  24.762  19.261  1.00  0.00    +0.000 F 
ATOM     71  C49 UNL A   1      50.868  22.672  18.602  1.00  0.00    +0.000 C 
ATOM     72  F14 UNL A   1      50.162  22.055  19.559  1.00  0.00    +0.000 F 
ATOM     73  C50 UNL A   1      51.709  21.930  17.774  1.00  0.00    +0.000 C 
ATOM     74  F15 UNL A   1      51.802  20.607  17.968  1.00  0.00    +0.000 F 
ATOM     64  C45 UNL A   1      52.444  22.544  16.749  1.00  0.00    +0.000 C 
ENDBRANCH   63   64
TORSDOF 18
ENDMDL
MODEL 10
REMARK VINA RESULT:     -10.5     46.128     51.330
ROOT
ATOM     27  C21 UNL A   1      13.075  49.963   3.361  1.00  0.00    +0.000 C 
ATOM     28  C22 UNL A   1      13.105  51.426   3.720  1.00  0.00    +0.000 C 
ATOM     29  N3  UNL A   1      13.829  52.391   3.212  1.00  0.00    +0.000 N 
ATOM     30  C23 UNL A   1      13.440  53.547   3.875  1.00  0.00    +0.000 C 
ATOM     31  C24 UNL A   1      13.944  54.800   3.760  1.00  0.00    +0.000 C 
ATOM     43  C31 UNL A   1      15.020  55.163   2.874  1.00  0.00    +0.000 C 
ATOM     44  C32 UNL A   1      15.633  56.394   2.721  1.00  0.00    +0.000 C 
ATOM     45  C33 UNL A   1      16.587  56.285   1.704  1.00  0.00    +0.000 C 
ATOM     46  C34 UNL A   1      16.615  54.970   1.270  1.00  0.00    +0.000 C 
ATOM     47  N4  UNL A   1      15.642  54.294   1.990  1.00  0.00    +0.000 N 
ATOM     48  C35 UNL A   1      17.465  54.374   0.270  1.00  0.00    +0.000 C 
ATOM     60  C42 UNL A   1      17.430  53.070  -0.096  1.00  0.00    +0.000 C 
ATOM     61  N5  UNL A   1      16.621  52.048   0.382  1.00  0.00    +0.000 N 
ATOM     62  C43 UNL A   1      16.955  50.977  -0.297  1.00  0.00    +0.000 C 
ATOM     63  C44 UNL A   1      16.430  49.569  -0.173  1.00  0.00    +0.000 C 
ATOM     75  C51 UNL A   1      15.484  49.300   0.748  1.00  0.00    +0.000 C 
ATOM     76  C52 UNL A   1      14.887  47.990   0.986  1.00  0.00    +0.000 C 
ATOM     77  C53 UNL A   1      13.943  48.106   1.935  1.00  0.00    +0.000 C 
ATOM     78  C54 UNL A   1      13.899  49.491   2.404  1.00  0.00    +0.000 C 
ATOM     79  N6  UNL A   1      14.853  50.127   1.647  1.00  0.00    +0.000 N 
ATOM     80  C55 UNL A   1      17.993  51.210  -1.310  1.00  0.00    +0.000 C 
ATOM     81  C56 UNL A   1      18.283  52.488  -1.112  1.00  0.00    +0.000 C 
ATOM     82  C57 UNL A   1      12.374  53.178   4.779  1.00  0.00    +0.000 C 
ATOM     83  C58 UNL A   1      12.178  51.867   4.774  1.00  0.00    +0.000 C 
ATOM    109  H24 UNL A   1      15.421  57.247   3.264  1.00  0.00    +0.000 H 
ATOM    110  H25 UNL A   1      17.172  57.054   1.341  1.00  0.00    +0.000 H 
ATOM    111  H26 UNL A   1      15.425  53.339   1.888  1.00  0.00    +0.000 H 
ATOM    112  H27 UNL A   1      15.147  47.116   0.505  1.00  0.00    +0.000 H 
ATOM    113  H28 UNL A   1      13.344  47.339   2.278  1.00  0.00    +0.000 H 
ATOM    114  H29 UNL A   1      15.065  51.083   1.740  1.00  0.00    +0.000 H 
ATOM    115  H30 UNL A   1      18.392  50.551  -1.997  1.00  0.00    +0.000 H 
ATOM    116  H31 UNL A   1      19.022  53.002  -1.617  1.00  0.00    +0.000 H 
ATOM    117  H32 UNL A   1      11.837  53.846   5.354  1.00  0.00    +0.000 H 
ATOM    118  H33 UNL A   1      11.542  51.303   5.359  1.00  0.00    +0.000 H 
ENDROOT
BRANCH   27   26
ATOM    107  H22 UNL A   1       8.932  47.947   3.796  1.00  0.00    +0.000 H 
ATOM    108  H23 UNL A   1      10.536  49.343   2.629  1.00  0.00    +0.000 H 
ATOM     84  C59 UNL A   1      12.479  48.337   5.169  1.00  0.00    +0.000 C 
ATOM     85  C60 UNL A   1      11.587  47.454   5.779  1.00  0.00    +0.000 C 
ATOM    120  H35 UNL A   1      11.901  46.870   6.570  1.00  0.00    +0.000 H 
ATOM     23  C17 UNL A   1      10.270  47.360   5.322  1.00  0.00    +0.000 C 
ATOM     24  C18 UNL A   1       9.892  48.047   4.164  1.00  0.00    +0.000 C 
ATOM     25  C19 UNL A   1      10.811  48.867   3.503  1.00  0.00    +0.000 C 
ATOM    119  H34 UNL A   1      13.422  48.468   5.567  1.00  0.00    +0.000 H 
ATOM     26  C20 UNL A   1      12.104  49.048   4.019  1.00  0.00    +0.000 C 
BRANCH   23   21
ATOM     21  C16 UNL A   1       9.262  46.513   6.006  1.00  0.00    +0.000 C 
ATOM     22  O4  UNL A   1       8.722  45.600   5.387  1.00  0.00    +0.000 O 
BRANCH   21   20
ATOM    106  H21 UNL A   1       8.155  47.368   7.435  1.00  0.00    +0.000 H 
ATOM     20  N2  UNL A   1       8.908  46.745   7.314  1.00  0.00    +0.000 N 
BRANCH   20   19
ATOM    105  H20 UNL A   1      10.506  46.027   8.366  1.00  0.00    +0.000 H 
ATOM     19  C15 UNL A   1       9.467  46.215   8.543  1.00  0.00    +0.000 C 
ATOM    104  H19 UNL A   1       8.937  45.323   8.802  1.00  0.00    +0.000 H 
BRANCH   19   18
ATOM     18  C14 UNL A   1       9.376  47.191   9.710  1.00  0.00    +0.000 C 
ATOM    102  H17 UNL A   1       9.473  48.180   9.313  1.00  0.00    +0.000 H 
ATOM    103  H18 UNL A   1       8.434  46.987  10.175  1.00  0.00    +0.000 H 
BRANCH   18   17
ATOM     17  C13 UNL A   1      10.415  47.033  10.821  1.00  0.00    +0.000 C 
ATOM    100  H15 UNL A   1      10.912  47.973  10.934  1.00  0.00    +0.000 H 
ATOM    101  H16 UNL A   1       9.858  46.708  11.675  1.00  0.00    +0.000 H 
BRANCH   17   16
ATOM     98  H13 UNL A   1      11.548  45.391  11.530  1.00  0.00    +0.000 H 
ATOM     99  H14 UNL A   1      11.184  45.419   9.756  1.00  0.00    +0.000 H 
ATOM     16  C12 UNL A   1      11.496  45.961  10.625  1.00  0.00    +0.000 C 
BRANCH   16   15
ATOM     97  H12 UNL A   1      13.449  45.547  10.020  1.00  0.00    +0.000 H 
ATOM     15  C11 UNL A   1      12.917  46.433  10.298  1.00  0.00    +0.000 C 
ATOM     96  H11 UNL A   1      13.299  46.933  11.164  1.00  0.00    +0.000 H 
BRANCH   15   14
ATOM     94  H9  UNL A   1      12.162  47.349   8.553  1.00  0.00    +0.000 H 
ATOM     14  C10 UNL A   1      13.072  47.380   9.115  1.00  0.00    +0.000 C 
ATOM     95  H10 UNL A   1      13.295  48.336   9.542  1.00  0.00    +0.000 H 
BRANCH   14   13
ATOM     13  N1  UNL A   1      14.157  47.099   8.210  1.00  0.00    +0.000 N 
ATOM     93  H8  UNL A   1      13.977  46.397   7.544  1.00  0.00    +0.000 H 
BRANCH   13   11
ATOM     11  C9  UNL A   1      15.410  47.668   8.139  1.00  0.00    +0.000 C 
ATOM     12  O3  UNL A   1      16.201  47.382   9.042  1.00  0.00    +0.000 O 
BRANCH   11   10
ATOM      5  C3  UNL A   1      16.212  49.867   6.982  1.00  0.00    +0.000 C 
ATOM      6  C4  UNL A   1      16.601  50.515   5.797  1.00  0.00    +0.000 C 
ATOM      7  C5  UNL A   1      16.759  49.793   4.618  1.00  0.00    +0.000 C 
ATOM      8  C6  UNL A   1      16.531  48.422   4.621  1.00  0.00    +0.000 C 
ATOM      9  C7  UNL A   1      16.112  47.787   5.797  1.00  0.00    +0.000 C 
ATOM     10  C8  UNL A   1      15.907  48.500   6.997  1.00  0.00    +0.000 C 
ATOM     89  H4  UNL A   1      16.771  51.533   5.801  1.00  0.00    +0.000 H 
ATOM     90  H5  UNL A   1      17.042  50.271   3.749  1.00  0.00    +0.000 H 
ATOM     91  H6  UNL A   1      16.671  47.873   3.759  1.00  0.00    +0.000 H 
ATOM     92  H7  UNL A   1      15.948  46.768   5.784  1.00  0.00    +0.000 H 
BRANCH    5    4
ATOM      4  O2  UNL A   1      16.087  50.723   8.080  1.00  0.00    +0.000 O 
BRANCH    4    2
ATOM      2  C2  UNL A   1      17.163  50.773   8.956  1.00  0.00    +0.000 C 
ATOM      3  O1  UNL A   1      18.346  50.877   8.658  1.00  0.00    +0.000 O 
BRANCH    2    1
ATOM      1  C1  UNL A   1      16.639  50.675  10.361  1.00  0.00    +0.000 C 
ATOM     86  H1  UNL A   1      15.573  50.602  10.339  1.00  0.00    +0.000 H 
ATOM     87  H2  UNL A   1      16.925  51.548  10.910  1.00  0.00    +0.000 H 
ATOM     88  H3  UNL A   1      17.048  49.808  10.834  1.00  0.00    +0.000 H 
ENDBRANCH    2    1
ENDBRANCH    4    2
ENDBRANCH    5    4
ENDBRANCH   11   10
ENDBRANCH   13   11
ENDBRANCH   14   13
ENDBRANCH   15   14
ENDBRANCH   16   15
ENDBRANCH   17   16
ENDBRANCH   18   17
ENDBRANCH   19   18
ENDBRANCH   20   19
ENDBRANCH   21   20
ENDBRANCH   23   21
ENDBRANCH   27   26
BRANCH   31   32
ATOM     33  C26 UNL A   1      12.275  56.670   4.160  1.00  0.00    +0.000 C 
ATOM     34  F1  UNL A   1      11.808  56.520   2.912  1.00  0.00    +0.000 F 
ATOM     35  C27 UNL A   1      11.707  57.647   4.975  1.00  0.00    +0.000 C 
ATOM     36  F2  UNL A   1      10.722  58.422   4.500  1.00  0.00    +0.000 F 
ATOM     37  C28 UNL A   1      12.164  57.824   6.271  1.00  0.00    +0.000 C 
ATOM     38  F3  UNL A   1      11.608  58.755   7.059  1.00  0.00    +0.000 F 
ATOM     39  C29 UNL A   1      13.203  57.040   6.750  1.00  0.00    +0.000 C 
ATOM     40  F4  UNL A   1      13.636  57.200   8.009  1.00  0.00    +0.000 F 
ATOM     41  C30 UNL A   1      13.795  56.086   5.927  1.00  0.00    +0.000 C 
ATOM     42  F5  UNL A   1      14.806  55.353   6.417  1.00  0.00    +0.000 F 
ATOM     32  C25 UNL A   1      13.340  55.879   4.616  1.00  0.00    +0.000 C 
ENDBRANCH   31   32
BRANCH   48   49
ATOM     49  C36 UNL A   1      18.485  55.254  -0.395  1.00  0.00    +0.000 C 
ATOM     50  C37 UNL A   1      18.324  55.707  -1.712  1.00  0.00    +0.000 C 
ATOM     51  F6  UNL A   1      17.264  55.319  -2.435  1.00  0.00    +0.000 F 
ATOM     52  C38 UNL A   1      19.278  56.531  -2.307  1.00  0.00    +0.000 C 
ATOM     53  F7  UNL A   1      19.130  56.908  -3.584  1.00  0.00    +0.000 F 
ATOM     54  C39 UNL A   1      20.386  56.949  -1.584  1.00  0.00    +0.000 C 
ATOM     55  F8  UNL A   1      21.296  57.749  -2.155  1.00  0.00    +0.000 F 
ATOM     56  C40 UNL A   1      20.553  56.532  -0.273  1.00  0.00    +0.000 C 
ATOM     57  F9  UNL A   1      21.613  56.949   0.432  1.00  0.00    +0.000 F 
ATOM     58  C41 UNL A   1      19.620  55.681   0.312  1.00  0.00    +0.000 C 
ATOM     59  F10 UNL A   1      19.819  55.282   1.578  1.00  0.00    +0.000 F 
ENDBRANCH   48   49
BRANCH   63   64
ATOM     65  C46 UNL A   1      16.287  48.115  -2.222  1.00  0.00    +0.000 C 
ATOM     66  F11 UNL A   1      15.157  48.745  -2.575  1.00  0.00    +0.000 F 
ATOM     67  C47 UNL A   1      16.744  47.062  -3.011  1.00  0.00    +0.000 C 
ATOM     68  F12 UNL A   1      16.050  46.690  -4.096  1.00  0.00    +0.000 F 
ATOM     69  C48 UNL A   1      17.902  46.383  -2.663  1.00  0.00    +0.000 C 
ATOM     70  F13 UNL A   1      18.340  45.369  -3.421  1.00  0.00    +0.000 F 
ATOM     71  C49 UNL A   1      18.597  46.749  -1.521  1.00  0.00    +0.000 C 
ATOM     72  F14 UNL A   1      19.725  46.106  -1.189  1.00  0.00    +0.000 F 
ATOM     73  C50 UNL A   1      18.122  47.779  -0.712  1.00  0.00    +0.000 C 
ATOM     74  F15 UNL A   1      18.805  48.095   0.398  1.00  0.00    +0.000 F 
ATOM     64  C45 UNL A   1      16.957  48.485  -1.046  1.00  0.00    +0.000 C 
ENDBRANCH   63   64
TORSDOF 18
ENDMDL
