MODEL 1
REMARK VINA RESULT:      -6.5      0.000      0.000
ROOT
ATOM    141  H46 UNL A   1      50.220  25.160  28.398  1.00  0.00    +0.000 H 
ATOM    142  H47 UNL A   1      51.462  24.393  30.559  1.00  0.00    +0.000 H 
ATOM    143  H48 UNL A   1      47.872  26.135  31.669  1.00  0.00    +0.000 H 
ATOM    144  H49 UNL A   1      43.978  28.302  36.229  1.00  0.00    +0.000 H 
ATOM    145  H50 UNL A   1      42.729  28.962  34.119  1.00  0.00    +0.000 H 
ATOM    146  H51 UNL A   1      46.306  27.180  32.974  1.00  0.00    +0.000 H 
ATOM    147  H52 UNL A   1      48.495  25.642  37.240  1.00  0.00    +0.000 H 
ATOM    148  H53 UNL A   1      50.414  24.763  35.790  1.00  0.00    +0.000 H 
ATOM    149  H54 UNL A   1      45.430  27.392  27.468  1.00  0.00    +0.000 H 
ATOM    150  H55 UNL A   1      43.677  28.598  28.893  1.00  0.00    +0.000 H 
ATOM     37  C32 UNL A   1      44.081  28.301  31.698  1.00  0.00    +0.000 C 
ATOM     38  C33 UNL A   1      44.968  27.816  30.587  1.00  0.00    +0.000 C 
ATOM     39  N3  UNL A   1      46.101  27.165  30.658  1.00  0.00    +0.000 N 
ATOM     40  C34 UNL A   1      46.483  26.927  29.345  1.00  0.00    +0.000 C 
ATOM     41  C35 UNL A   1      47.610  26.328  28.891  1.00  0.00    +0.000 C 
ATOM     53  C42 UNL A   1      48.657  25.815  29.735  1.00  0.00    +0.000 C 
ATOM     54  C43 UNL A   1      49.871  25.261  29.365  1.00  0.00    +0.000 C 
ATOM     55  C44 UNL A   1      50.543  24.862  30.525  1.00  0.00    +0.000 C 
ATOM     56  C45 UNL A   1      49.765  25.202  31.620  1.00  0.00    +0.000 C 
ATOM     57  N4  UNL A   1      48.613  25.789  31.121  1.00  0.00    +0.000 N 
ATOM     58  C46 UNL A   1      50.048  25.003  33.018  1.00  0.00    +0.000 C 
ATOM     70  C53 UNL A   1      49.253  25.413  34.036  1.00  0.00    +0.000 C 
ATOM     71  N5  UNL A   1      48.037  26.079  33.977  1.00  0.00    +0.000 N 
ATOM     72  C54 UNL A   1      47.654  26.239  35.221  1.00  0.00    +0.000 C 
ATOM     73  C55 UNL A   1      46.419  26.910  35.753  1.00  0.00    +0.000 C 
ATOM     85  C62 UNL A   1      45.543  27.460  34.892  1.00  0.00    +0.000 C 
ATOM     86  C63 UNL A   1      44.302  28.131  35.264  1.00  0.00    +0.000 C 
ATOM     87  C64 UNL A   1      43.646  28.491  34.149  1.00  0.00    +0.000 C 
ATOM     88  C65 UNL A   1      44.442  28.108  32.981  1.00  0.00    +0.000 C 
ATOM     89  N6  UNL A   1      45.561  27.523  33.519  1.00  0.00    +0.000 N 
ATOM     90  C66 UNL A   1      48.580  25.673  36.211  1.00  0.00    +0.000 C 
ATOM     91  C67 UNL A   1      49.552  25.210  35.438  1.00  0.00    +0.000 C 
ATOM     92  C68 UNL A   1      45.444  27.470  28.496  1.00  0.00    +0.000 C 
ATOM     93  C69 UNL A   1      44.509  28.077  29.214  1.00  0.00    +0.000 C 
ENDROOT
BRANCH   37   36
ATOM     33  C28 UNL A   1      40.236  30.078  31.073  1.00  0.00    +0.000 C 
ATOM     34  C29 UNL A   1      41.384  30.872  30.990  1.00  0.00    +0.000 C 
ATOM     35  C30 UNL A   1      42.644  30.290  31.136  1.00  0.00    +0.000 C 
ATOM     36  C31 UNL A   1      42.763  28.915  31.398  1.00  0.00    +0.000 C 
ATOM    139  H44 UNL A   1      41.299  31.887  30.821  1.00  0.00    +0.000 H 
ATOM    140  H45 UNL A   1      43.492  30.871  31.052  1.00  0.00    +0.000 H 
ATOM    151  H56 UNL A   1      41.686  27.104  31.590  1.00  0.00    +0.000 H 
ATOM    152  H57 UNL A   1      39.513  28.095  31.174  1.00  0.00    +0.000 H 
ATOM     94  C70 UNL A   1      41.607  28.119  31.421  1.00  0.00    +0.000 C 
ATOM     95  C71 UNL A   1      40.353  28.692  31.217  1.00  0.00    +0.000 C 
BRANCH   33   31
ATOM     31  C27 UNL A   1      38.912  30.731  31.006  1.00  0.00    +0.000 C 
ATOM     32  O3  UNL A   1      38.841  31.947  30.849  1.00  0.00    +0.000 O 
BRANCH   31   30
ATOM    138  H43 UNL A   1      37.483  29.822  32.075  1.00  0.00    +0.000 H 
ATOM     30  N2  UNL A   1      37.767  29.986  31.147  1.00  0.00    +0.000 N 
BRANCH   30   29
ATOM    137  H42 UNL A   1      36.045  30.023  30.033  1.00  0.00    +0.000 H 
ATOM     29  C26 UNL A   1      36.911  29.401  30.125  1.00  0.00    +0.000 C 
ATOM    136  H41 UNL A   1      36.652  28.406  30.424  1.00  0.00    +0.000 H 
BRANCH   29   28
ATOM     28  C25 UNL A   1      37.586  29.341  28.759  1.00  0.00    +0.000 C 
ATOM    134  H39 UNL A   1      38.451  29.972  28.788  1.00  0.00    +0.000 H 
ATOM    135  H40 UNL A   1      37.817  28.311  28.586  1.00  0.00    +0.000 H 
BRANCH   28   27
ATOM     27  C24 UNL A   1      36.716  29.787  27.583  1.00  0.00    +0.000 C 
ATOM    132  H37 UNL A   1      37.304  30.427  26.959  1.00  0.00    +0.000 H 
ATOM    133  H38 UNL A   1      36.396  28.888  27.097  1.00  0.00    +0.000 H 
BRANCH   27   26
ATOM     26  C23 UNL A   1      35.435  30.541  27.957  1.00  0.00    +0.000 C 
ATOM    130  H35 UNL A   1      35.241  30.365  28.995  1.00  0.00    +0.000 H 
ATOM    131  H36 UNL A   1      35.621  31.568  27.719  1.00  0.00    +0.000 H 
BRANCH   26   25
ATOM     25  C22 UNL A   1      34.178  30.149  27.169  1.00  0.00    +0.000 C 
ATOM    129  H34 UNL A   1      34.251  30.640  26.220  1.00  0.00    +0.000 H 
ATOM    128  H33 UNL A   1      33.321  30.451  27.733  1.00  0.00    +0.000 H 
BRANCH   25   24
ATOM    126  H31 UNL A   1      35.011  28.271  26.596  1.00  0.00    +0.000 H 
ATOM    127  H32 UNL A   1      33.686  28.167  27.752  1.00  0.00    +0.000 H 
ATOM     24  C21 UNL A   1      34.052  28.654  26.872  1.00  0.00    +0.000 C 
BRANCH   24   23
ATOM    125  H30 UNL A   1      32.653  29.196  25.435  1.00  0.00    +0.000 H 
ATOM     23  N1  UNL A   1      33.118  28.405  25.792  1.00  0.00    +0.000 N 
BRANCH   23   21
ATOM     21  C20 UNL A   1      32.802  27.213  25.208  1.00  0.00    +0.000 C 
ATOM     22  O2  UNL A   1      31.755  26.649  25.533  1.00  0.00    +0.000 O 
BRANCH   21   20
ATOM    124  H29 UNL A   1      34.703  27.102  24.371  1.00  0.00    +0.000 H 
ATOM    123  H28 UNL A   1      33.353  26.745  23.219  1.00  0.00    +0.000 H 
ATOM     20  C19 UNL A   1      33.775  26.601  24.192  1.00  0.00    +0.000 C 
BRANCH   20   19
ATOM     19  O1  UNL A   1      34.084  25.218  24.320  1.00  0.00    +0.000 O 
BRANCH   19   18
ATOM    121  H26 UNL A   1      35.404  25.771  25.783  1.00  0.00    +0.000 H 
ATOM     18  C18 UNL A   1      34.864  24.901  25.473  1.00  0.00    +0.000 C 
ATOM    122  H27 UNL A   1      34.210  24.573  26.254  1.00  0.00    +0.000 H 
BRANCH   18   17
ATOM     17  C17 UNL A   1      35.836  23.803  25.165  1.00  0.00    +0.000 C 
ATOM    120  H25 UNL A   1      35.719  23.274  24.288  1.00  0.00    +0.000 H 
BRANCH   17   16
ATOM    119  H24 UNL A   1      36.677  22.760  26.700  1.00  0.00    +0.000 H 
ATOM     16  C16 UNL A   1      36.850  23.479  25.982  1.00  0.00    +0.000 C 
BRANCH   16   15
ATOM    117  H22 UNL A   1      38.640  23.908  24.955  1.00  0.00    +0.000 H 
ATOM    118  H23 UNL A   1      38.120  25.140  26.113  1.00  0.00    +0.000 H 
ATOM     15  C15 UNL A   1      38.221  24.092  25.923  1.00  0.00    +0.000 C 
BRANCH   15   14
ATOM    115  H20 UNL A   1      38.580  23.065  27.761  1.00  0.00    +0.000 H 
ATOM    116  H21 UNL A   1      39.797  22.797  26.500  1.00  0.00    +0.000 H 
ATOM     14  C14 UNL A   1      39.168  23.512  26.987  1.00  0.00    +0.000 C 
BRANCH   14   13
ATOM    114  H19 UNL A   1      41.064  24.318  27.723  1.00  0.00    +0.000 H 
ATOM     13  C13 UNL A   1      40.064  24.550  27.607  1.00  0.00    +0.000 C 
BRANCH   13   12
ATOM    113  H18 UNL A   1      38.652  25.878  28.247  1.00  0.00    +0.000 H 
ATOM     12  C12 UNL A   1      39.650  25.759  28.018  1.00  0.00    +0.000 C 
BRANCH   12   11
ATOM     11  C11 UNL A   1      40.556  26.948  28.163  1.00  0.00    +0.000 C 
ATOM    111  H16 UNL A   1      40.178  27.588  28.932  1.00  0.00    +0.000 H 
ATOM    112  H17 UNL A   1      41.538  26.609  28.418  1.00  0.00    +0.000 H 
BRANCH   11   10
ATOM     10  C10 UNL A   1      40.623  27.713  26.872  1.00  0.00    +0.000 C 
ATOM    110  H15 UNL A   1      39.865  28.381  26.665  1.00  0.00    +0.000 H 
BRANCH   10    9
ATOM      9  C9  UNL A   1      41.610  27.582  25.970  1.00  0.00    +0.000 C 
ATOM    109  H14 UNL A   1      41.548  28.136  25.103  1.00  0.00    +0.000 H 
BRANCH    9    8
ATOM    107  H12 UNL A   1      43.691  27.233  25.955  1.00  0.00    +0.000 H 
ATOM    108  H13 UNL A   1      42.801  26.301  27.145  1.00  0.00    +0.000 H 
ATOM      8  C8  UNL A   1      42.796  26.679  26.144  1.00  0.00    +0.000 C 
BRANCH    8    7
ATOM    106  H11 UNL A   1      42.113  25.619  24.360  1.00  0.00    +0.000 H 
ATOM      7  C7  UNL A   1      42.720  25.522  25.189  1.00  0.00    +0.000 C 
BRANCH    7    6
ATOM    105  H10 UNL A   1      44.423  24.403  25.311  1.00  0.00    +0.000 H 
ATOM      6  C6  UNL A   1      43.391  24.369  25.345  1.00  0.00    +0.000 C 
BRANCH    6    5
ATOM      5  C5  UNL A   1      42.738  23.036  25.563  1.00  0.00    +0.000 C 
ATOM    103  H8  UNL A   1      41.692  23.181  25.736  1.00  0.00    +0.000 H 
ATOM    104  H9  UNL A   1      42.891  22.432  24.693  1.00  0.00    +0.000 H 
BRANCH    5    4
ATOM      4  C4  UNL A   1      43.342  22.334  26.747  1.00  0.00    +0.000 C 
ATOM    102  H7  UNL A   1      44.176  21.749  26.588  1.00  0.00    +0.000 H 
BRANCH    4    3
ATOM      3  C3  UNL A   1      42.863  22.421  27.998  1.00  0.00    +0.000 C 
ATOM    101  H6  UNL A   1      41.923  22.040  28.187  1.00  0.00    +0.000 H 
BRANCH    3    2
ATOM      2  C2  UNL A   1      43.615  23.042  29.140  1.00  0.00    +0.000 C 
ATOM     99  H4  UNL A   1      43.293  22.590  30.055  1.00  0.00    +0.000 H 
ATOM    100  H5  UNL A   1      44.661  22.879  28.985  1.00  0.00    +0.000 H 
BRANCH    2    1
ATOM      1  C1  UNL A   1      43.367  24.541  29.213  1.00  0.00    +0.000 C 
ATOM     98  H3  UNL A   1      43.052  24.802  30.202  1.00  0.00    +0.000 H 
ATOM     97  H2  UNL A   1      44.271  25.063  28.977  1.00  0.00    +0.000 H 
ATOM     96  H1  UNL A   1      42.605  24.812  28.513  1.00  0.00    +0.000 H 
ENDBRANCH    2    1
ENDBRANCH    3    2
ENDBRANCH    4    3
ENDBRANCH    5    4
ENDBRANCH    6    5
ENDBRANCH    7    6
ENDBRANCH    8    7
ENDBRANCH    9    8
ENDBRANCH   10    9
ENDBRANCH   11   10
ENDBRANCH   12   11
ENDBRANCH   13   12
ENDBRANCH   14   13
ENDBRANCH   15   14
ENDBRANCH   16   15
ENDBRANCH   17   16
ENDBRANCH   18   17
ENDBRANCH   19   18
ENDBRANCH   20   19
ENDBRANCH   21   20
ENDBRANCH   23   21
ENDBRANCH   24   23
ENDBRANCH   25   24
ENDBRANCH   26   25
ENDBRANCH   27   26
ENDBRANCH   28   27
ENDBRANCH   29   28
ENDBRANCH   30   29
ENDBRANCH   31   30
ENDBRANCH   33   31
ENDBRANCH   37   36
BRANCH   41   42
ATOM     42  C36 UNL A   1      47.777  26.196  27.406  1.00  0.00    +0.000 C 
ATOM     43  C37 UNL A   1      47.154  25.165  26.688  1.00  0.00    +0.000 C 
ATOM     44  F1  UNL A   1      46.436  24.232  27.331  1.00  0.00    +0.000 F 
ATOM     45  C38 UNL A   1      47.293  25.071  25.306  1.00  0.00    +0.000 C 
ATOM     46  F2  UNL A   1      46.721  24.055  24.644  1.00  0.00    +0.000 F 
ATOM     47  C39 UNL A   1      48.030  26.020  24.613  1.00  0.00    +0.000 C 
ATOM     48  F3  UNL A   1      48.154  25.933  23.282  1.00  0.00    +0.000 F 
ATOM     49  C40 UNL A   1      48.641  27.057  25.302  1.00  0.00    +0.000 C 
ATOM     50  F4  UNL A   1      49.344  27.982  24.633  1.00  0.00    +0.000 F 
ATOM     51  C41 UNL A   1      48.525  27.140  26.687  1.00  0.00    +0.000 C 
ATOM     52  F5  UNL A   1      49.135  28.149  27.327  1.00  0.00    +0.000 F 
ENDBRANCH   41   42
BRANCH   58   59
ATOM     65  F8  UNL A   1      54.890  22.398  34.306  1.00  0.00    +0.000 F 
ATOM     66  C51 UNL A   1      53.703  24.394  33.875  1.00  0.00    +0.000 C 
ATOM     67  F9  UNL A   1      54.824  25.111  34.037  1.00  0.00    +0.000 F 
ATOM     68  C52 UNL A   1      52.505  25.038  33.579  1.00  0.00    +0.000 C 
ATOM     69  F10 UNL A   1      52.498  26.375  33.472  1.00  0.00    +0.000 F 
ATOM     59  C47 UNL A   1      51.323  24.306  33.383  1.00  0.00    +0.000 C 
ATOM     60  C48 UNL A   1      51.384  22.910  33.503  1.00  0.00    +0.000 C 
ATOM     61  F6  UNL A   1      50.277  22.171  33.343  1.00  0.00    +0.000 F 
ATOM     62  C49 UNL A   1      52.580  22.273  33.824  1.00  0.00    +0.000 C 
ATOM     63  F7  UNL A   1      52.608  20.942  33.973  1.00  0.00    +0.000 F 
ATOM     64  C50 UNL A   1      53.739  23.014  34.003  1.00  0.00    +0.000 C 
ENDBRANCH   58   59
BRANCH   73   74
ATOM     74  C56 UNL A   1      46.163  26.982  37.214  1.00  0.00    +0.000 C 
ATOM     75  C57 UNL A   1      46.487  28.134  37.941  1.00  0.00    +0.000 C 
ATOM     76  F11 UNL A   1      47.055  29.179  37.322  1.00  0.00    +0.000 F 
ATOM     77  C58 UNL A   1      46.264  28.203  39.315  1.00  0.00    +0.000 C 
ATOM     78  F12 UNL A   1      46.619  29.302  39.994  1.00  0.00    +0.000 F 
ATOM     79  C59 UNL A   1      45.689  27.131  39.981  1.00  0.00    +0.000 C 
ATOM     80  F13 UNL A   1      45.471  27.199  41.302  1.00  0.00    +0.000 F 
ATOM     81  C60 UNL A   1      45.347  25.985  39.278  1.00  0.00    +0.000 C 
ATOM     82  F14 UNL A   1      44.781  24.953  39.916  1.00  0.00    +0.000 F 
ATOM     83  C61 UNL A   1      45.592  25.906  37.909  1.00  0.00    +0.000 C 
ATOM     84  F15 UNL A   1      45.262  24.783  37.256  1.00  0.00    +0.000 F 
ENDBRANCH   73   74
TORSDOF 34
ENDMDL
MODEL 2
REMARK VINA RESULT:      -6.4      1.923      3.943
ROOT
ATOM    141  H46 UNL A   1      50.533  25.213  28.499  1.00  0.00    +0.000 H 
ATOM    142  H47 UNL A   1      51.616  24.300  30.688  1.00  0.00    +0.000 H 
ATOM    143  H48 UNL A   1      47.970  26.010  31.655  1.00  0.00    +0.000 H 
ATOM    144  H49 UNL A   1      43.784  27.935  36.062  1.00  0.00    +0.000 H 
ATOM    145  H50 UNL A   1      42.689  28.740  33.916  1.00  0.00    +0.000 H 
ATOM    146  H51 UNL A   1      46.324  26.991  32.911  1.00  0.00    +0.000 H 
ATOM    147  H52 UNL A   1      48.201  25.166  37.213  1.00  0.00    +0.000 H 
ATOM    148  H53 UNL A   1      50.209  24.357  35.846  1.00  0.00    +0.000 H 
ATOM    149  H54 UNL A   1      45.835  27.554  27.382  1.00  0.00    +0.000 H 
ATOM    150  H55 UNL A   1      43.996  28.688  28.756  1.00  0.00    +0.000 H 
ATOM     37  C32 UNL A   1      44.201  28.214  31.557  1.00  0.00    +0.000 C 
ATOM     38  C33 UNL A   1      45.160  27.789  30.482  1.00  0.00    +0.000 C 
ATOM     39  N3  UNL A   1      46.281  27.121  30.591  1.00  0.00    +0.000 N 
ATOM     40  C34 UNL A   1      46.752  26.961  29.295  1.00  0.00    +0.000 C 
ATOM     41  C35 UNL A   1      47.903  26.379  28.882  1.00  0.00    +0.000 C 
ATOM     53  C42 UNL A   1      48.885  25.802  29.763  1.00  0.00    +0.000 C 
ATOM     54  C43 UNL A   1      50.118  25.259  29.444  1.00  0.00    +0.000 C 
ATOM     55  C44 UNL A   1      50.704  24.781  30.620  1.00  0.00    +0.000 C 
ATOM     56  C45 UNL A   1      49.855  25.061  31.678  1.00  0.00    +0.000 C 
ATOM     57  N4  UNL A   1      48.744  25.690  31.138  1.00  0.00    +0.000 N 
ATOM     58  C46 UNL A   1      50.038  24.773  33.077  1.00  0.00    +0.000 C 
ATOM     70  C53 UNL A   1      49.177  25.127  34.061  1.00  0.00    +0.000 C 
ATOM     71  N5  UNL A   1      47.974  25.810  33.961  1.00  0.00    +0.000 N 
ATOM     72  C54 UNL A   1      47.506  25.897  35.182  1.00  0.00    +0.000 C 
ATOM     73  C55 UNL A   1      46.242  26.548  35.669  1.00  0.00    +0.000 C 
ATOM     85  C62 UNL A   1      45.431  27.160  34.785  1.00  0.00    +0.000 C 
ATOM     86  C63 UNL A   1      44.172  27.821  35.113  1.00  0.00    +0.000 C 
ATOM     87  C64 UNL A   1      43.599  28.257  33.979  1.00  0.00    +0.000 C 
ATOM     88  C65 UNL A   1      44.471  27.937  32.848  1.00  0.00    +0.000 C 
ATOM     89  N6  UNL A   1      45.546  27.308  33.424  1.00  0.00    +0.000 N 
ATOM     90  C66 UNL A   1      48.357  25.260  36.197  1.00  0.00    +0.000 C 
ATOM     91  C67 UNL A   1      49.377  24.835  35.465  1.00  0.00    +0.000 C 
ATOM     92  C68 UNL A   1      45.777  27.567  28.412  1.00  0.00    +0.000 C 
ATOM     93  C69 UNL A   1      44.800  28.140  29.100  1.00  0.00    +0.000 C 
ENDROOT
BRANCH   37   36
ATOM     33  C28 UNL A   1      40.412  30.048  30.776  1.00  0.00    +0.000 C 
ATOM     34  C29 UNL A   1      41.544  30.851  30.946  1.00  0.00    +0.000 C 
ATOM     35  C30 UNL A   1      42.793  30.259  31.145  1.00  0.00    +0.000 C 
ATOM     36  C31 UNL A   1      42.912  28.861  31.207  1.00  0.00    +0.000 C 
ATOM    139  H44 UNL A   1      41.456  31.879  30.925  1.00  0.00    +0.000 H 
ATOM    140  H45 UNL A   1      43.632  30.850  31.248  1.00  0.00    +0.000 H 
ATOM    151  H56 UNL A   1      41.861  27.036  30.997  1.00  0.00    +0.000 H 
ATOM    152  H57 UNL A   1      39.726  28.069  30.491  1.00  0.00    +0.000 H 
ATOM     94  C70 UNL A   1      41.779  28.065  30.976  1.00  0.00    +0.000 C 
ATOM     95  C71 UNL A   1      40.542  28.657  30.720  1.00  0.00    +0.000 C 
BRANCH   33   31
ATOM     31  C27 UNL A   1      39.089  30.697  30.660  1.00  0.00    +0.000 C 
ATOM     32  O3  UNL A   1      39.016  31.865  30.290  1.00  0.00    +0.000 O 
BRANCH   31   30
ATOM    138  H43 UNL A   1      37.792  29.890  31.954  1.00  0.00    +0.000 H 
ATOM     30  N2  UNL A   1      37.949  30.005  30.989  1.00  0.00    +0.000 N 
BRANCH   30   29
ATOM    137  H42 UNL A   1      36.113  30.093  30.081  1.00  0.00    +0.000 H 
ATOM     29  C26 UNL A   1      36.941  29.416  30.122  1.00  0.00    +0.000 C 
ATOM    136  H41 UNL A   1      36.654  28.466  30.525  1.00  0.00    +0.000 H 
BRANCH   29   28
ATOM     28  C25 UNL A   1      37.442  29.210  28.696  1.00  0.00    +0.000 C 
ATOM    134  H39 UNL A   1      38.490  29.428  28.678  1.00  0.00    +0.000 H 
ATOM    135  H40 UNL A   1      37.212  28.197  28.443  1.00  0.00    +0.000 H 
BRANCH   28   27
ATOM     27  C24 UNL A   1      36.761  30.078  27.635  1.00  0.00    +0.000 C 
ATOM    132  H37 UNL A   1      37.473  30.274  26.861  1.00  0.00    +0.000 H 
ATOM    133  H38 UNL A   1      35.907  29.523  27.305  1.00  0.00    +0.000 H 
BRANCH   27   26
ATOM     26  C23 UNL A   1      36.222  31.424  28.131  1.00  0.00    +0.000 C 
ATOM    130  H35 UNL A   1      36.321  31.448  29.196  1.00  0.00    +0.000 H 
ATOM    131  H36 UNL A   1      36.796  32.173  27.625  1.00  0.00    +0.000 H 
BRANCH   26   25
ATOM     25  C22 UNL A   1      34.755  31.719  27.788  1.00  0.00    +0.000 C 
ATOM    129  H34 UNL A   1      34.767  32.342  26.917  1.00  0.00    +0.000 H 
ATOM    128  H33 UNL A   1      34.302  32.190  28.635  1.00  0.00    +0.000 H 
BRANCH   25   24
ATOM    126  H31 UNL A   1      34.425  29.945  26.652  1.00  0.00    +0.000 H 
ATOM    127  H32 UNL A   1      33.816  29.886  28.304  1.00  0.00    +0.000 H 
ATOM     24  C21 UNL A   1      33.924  30.488  27.426  1.00  0.00    +0.000 C 
BRANCH   24   23
ATOM    125  H30 UNL A   1      32.091  31.457  27.552  1.00  0.00    +0.000 H 
ATOM     23  N1  UNL A   1      32.602  30.857  26.962  1.00  0.00    +0.000 N 
BRANCH   23   21
ATOM     21  C20 UNL A   1      31.976  30.479  25.810  1.00  0.00    +0.000 C 
ATOM     22  O2  UNL A   1      30.920  31.033  25.497  1.00  0.00    +0.000 O 
BRANCH   21   20
ATOM    124  H29 UNL A   1      33.329  28.914  25.597  1.00  0.00    +0.000 H 
ATOM    123  H28 UNL A   1      32.960  29.802  24.063  1.00  0.00    +0.000 H 
ATOM     20  C19 UNL A   1      32.590  29.357  24.963  1.00  0.00    +0.000 C 
BRANCH   20   19
ATOM     19  O1  UNL A   1      31.746  28.275  24.585  1.00  0.00    +0.000 O 
BRANCH   19   18
ATOM    121  H26 UNL A   1      32.120  27.167  26.265  1.00  0.00    +0.000 H 
ATOM     18  C18 UNL A   1      31.282  27.488  25.683  1.00  0.00    +0.000 C 
ATOM    122  H27 UNL A   1      30.622  28.083  26.280  1.00  0.00    +0.000 H 
BRANCH   18   17
ATOM     17  C17 UNL A   1      30.536  26.287  25.190  1.00  0.00    +0.000 C 
ATOM    120  H25 UNL A   1      30.214  26.274  24.210  1.00  0.00    +0.000 H 
BRANCH   17   16
ATOM    119  H24 UNL A   1      29.569  25.347  26.719  1.00  0.00    +0.000 H 
ATOM     16  C16 UNL A   1      30.267  25.227  25.969  1.00  0.00    +0.000 C 
BRANCH   16   15
ATOM    117  H22 UNL A   1      30.150  23.127  25.839  1.00  0.00    +0.000 H 
ATOM    118  H23 UNL A   1      31.453  23.870  24.902  1.00  0.00    +0.000 H 
ATOM     15  C15 UNL A   1      30.913  23.878  25.825  1.00  0.00    +0.000 C 
BRANCH   15   14
ATOM    115  H20 UNL A   1      31.770  24.303  27.734  1.00  0.00    +0.000 H 
ATOM    116  H21 UNL A   1      31.728  22.586  27.295  1.00  0.00    +0.000 H 
ATOM     14  C14 UNL A   1      31.913  23.584  26.956  1.00  0.00    +0.000 C 
BRANCH   14   13
ATOM    114  H19 UNL A   1      33.948  22.828  26.693  1.00  0.00    +0.000 H 
ATOM     13  C13 UNL A   1      33.347  23.645  26.504  1.00  0.00    +0.000 C 
BRANCH   13   12
ATOM    113  H18 UNL A   1      33.874  25.612  26.342  1.00  0.00    +0.000 H 
ATOM     12  C12 UNL A   1      33.897  24.694  25.872  1.00  0.00    +0.000 C 
BRANCH   12   11
ATOM     11  C11 UNL A   1      34.543  24.609  24.519  1.00  0.00    +0.000 C 
ATOM    111  H16 UNL A   1      35.471  25.143  24.536  1.00  0.00    +0.000 H 
ATOM    112  H17 UNL A   1      34.717  23.581  24.279  1.00  0.00    +0.000 H 
BRANCH   11   10
ATOM     10  C10 UNL A   1      33.647  25.209  23.474  1.00  0.00    +0.000 C 
ATOM    110  H15 UNL A   1      33.642  26.236  23.372  1.00  0.00    +0.000 H 
BRANCH   10    9
ATOM      9  C9  UNL A   1      32.851  24.493  22.663  1.00  0.00    +0.000 C 
ATOM    109  H14 UNL A   1      32.034  24.965  22.248  1.00  0.00    +0.000 H 
BRANCH    9    8
ATOM    107  H12 UNL A   1      32.787  22.876  21.308  1.00  0.00    +0.000 H 
ATOM    108  H13 UNL A   1      34.112  22.818  22.456  1.00  0.00    +0.000 H 
ATOM      8  C8  UNL A   1      33.075  23.048  22.323  1.00  0.00    +0.000 C 
BRANCH    8    7
ATOM    106  H11 UNL A   1      31.419  22.567  23.663  1.00  0.00    +0.000 H 
ATOM      7  C7  UNL A   1      32.262  22.164  23.225  1.00  0.00    +0.000 C 
BRANCH    7    6
ATOM    105  H10 UNL A   1      32.504  20.200  22.725  1.00  0.00    +0.000 H 
ATOM      6  C6  UNL A   1      32.562  20.883  23.496  1.00  0.00    +0.000 C 
BRANCH    6    5
ATOM      5  C5  UNL A   1      32.974  20.382  24.850  1.00  0.00    +0.000 C 
ATOM    103  H8  UNL A   1      32.699  21.104  25.590  1.00  0.00    +0.000 H 
ATOM    104  H9  UNL A   1      32.479  19.451  25.036  1.00  0.00    +0.000 H 
BRANCH    5    4
ATOM      4  C4  UNL A   1      34.458  20.158  24.906  1.00  0.00    +0.000 C 
ATOM    102  H7  UNL A   1      34.816  19.227  24.646  1.00  0.00    +0.000 H 
BRANCH    4    3
ATOM      3  C3  UNL A   1      35.348  21.094  25.273  1.00  0.00    +0.000 C 
ATOM    101  H6  UNL A   1      35.213  21.563  26.183  1.00  0.00    +0.000 H 
BRANCH    3    2
ATOM      2  C2  UNL A   1      36.526  21.502  24.438  1.00  0.00    +0.000 C 
ATOM     99  H4  UNL A   1      36.523  20.935  23.530  1.00  0.00    +0.000 H 
ATOM    100  H5  UNL A   1      36.448  22.549  24.230  1.00  0.00    +0.000 H 
BRANCH    2    1
ATOM      1  C1  UNL A   1      37.835  21.254  25.171  1.00  0.00    +0.000 C 
ATOM     98  H3  UNL A   1      37.766  20.342  25.726  1.00  0.00    +0.000 H 
ATOM     97  H2  UNL A   1      38.634  21.181  24.462  1.00  0.00    +0.000 H 
ATOM     96  H1  UNL A   1      38.028  22.066  25.842  1.00  0.00    +0.000 H 
ENDBRANCH    2    1
ENDBRANCH    3    2
ENDBRANCH    4    3
ENDBRANCH    5    4
ENDBRANCH    6    5
ENDBRANCH    7    6
ENDBRANCH    8    7
ENDBRANCH    9    8
ENDBRANCH   10    9
ENDBRANCH   11   10
ENDBRANCH   12   11
ENDBRANCH   13   12
ENDBRANCH   14   13
ENDBRANCH   15   14
ENDBRANCH   16   15
ENDBRANCH   17   16
ENDBRANCH   18   17
ENDBRANCH   19   18
ENDBRANCH   20   19
ENDBRANCH   21   20
ENDBRANCH   23   21
ENDBRANCH   24   23
ENDBRANCH   25   24
ENDBRANCH   26   25
ENDBRANCH   27   26
ENDBRANCH   28   27
ENDBRANCH   29   28
ENDBRANCH   30   29
ENDBRANCH   31   30
ENDBRANCH   33   31
ENDBRANCH   37   36
BRANCH   41   42
ATOM     42  C36 UNL A   1      48.171  26.337  27.407  1.00  0.00    +0.000 C 
ATOM     43  C37 UNL A   1      47.592  25.359  26.584  1.00  0.00    +0.000 C 
ATOM     44  F1  UNL A   1      46.824  24.397  27.117  1.00  0.00    +0.000 F 
ATOM     45  C38 UNL A   1      47.827  25.349  25.212  1.00  0.00    +0.000 C 
ATOM     46  F2  UNL A   1      47.294  24.384  24.450  1.00  0.00    +0.000 F 
ATOM     47  C39 UNL A   1      48.617  26.331  24.633  1.00  0.00    +0.000 C 
ATOM     48  F3  UNL A   1      48.833  26.326  23.311  1.00  0.00    +0.000 F 
ATOM     49  C40 UNL A   1      49.186  27.316  25.426  1.00  0.00    +0.000 C 
ATOM     50  F4  UNL A   1      49.942  28.272  24.866  1.00  0.00    +0.000 F 
ATOM     51  C41 UNL A   1      48.975  27.315  26.802  1.00  0.00    +0.000 C 
ATOM     52  F5  UNL A   1      49.547  28.274  27.545  1.00  0.00    +0.000 F 
ENDBRANCH   41   42
BRANCH   58   59
ATOM     65  F8  UNL A   1      54.757  22.030  34.526  1.00  0.00    +0.000 F 
ATOM     66  C51 UNL A   1      53.648  24.058  34.040  1.00  0.00    +0.000 C 
ATOM     67  F9  UNL A   1      54.787  24.740  34.224  1.00  0.00    +0.000 F 
ATOM     68  C52 UNL A   1      52.480  24.736  33.704  1.00  0.00    +0.000 C 
ATOM     69  F10 UNL A   1      52.518  26.071  33.580  1.00  0.00    +0.000 F 
ATOM     59  C47 UNL A   1      51.280  24.040  33.484  1.00  0.00    +0.000 C 
ATOM     60  C48 UNL A   1      51.293  22.644  33.623  1.00  0.00    +0.000 C 
ATOM     61  F6  UNL A   1      50.167  21.938  33.442  1.00  0.00    +0.000 F 
ATOM     62  C49 UNL A   1      52.458  21.973  33.984  1.00  0.00    +0.000 C 
ATOM     63  F7  UNL A   1      52.439  20.643  34.149  1.00  0.00    +0.000 F 
ATOM     64  C50 UNL A   1      53.635  22.679  34.185  1.00  0.00    +0.000 C 
ENDBRANCH   58   59
BRANCH   73   74
ATOM     74  C56 UNL A   1      45.886  26.532  37.110  1.00  0.00    +0.000 C 
ATOM     75  C57 UNL A   1      45.439  25.354  37.725  1.00  0.00    +0.000 C 
ATOM     76  F11 UNL A   1      45.308  24.232  37.004  1.00  0.00    +0.000 F 
ATOM     77  C58 UNL A   1      45.089  25.336  39.073  1.00  0.00    +0.000 C 
ATOM     78  F12 UNL A   1      44.627  24.207  39.627  1.00  0.00    +0.000 F 
ATOM     79  C59 UNL A   1      45.204  26.488  39.837  1.00  0.00    +0.000 C 
ATOM     80  F13 UNL A   1      44.870  26.468  41.135  1.00  0.00    +0.000 F 
ATOM     81  C60 UNL A   1      45.657  27.661  39.253  1.00  0.00    +0.000 C 
ATOM     82  F14 UNL A   1      45.781  28.772  39.992  1.00  0.00    +0.000 F 
ATOM     83  C61 UNL A   1      45.985  27.686  37.900  1.00  0.00    +0.000 C 
ATOM     84  F15 UNL A   1      46.411  28.837  37.358  1.00  0.00    +0.000 F 
ENDBRANCH   73   74
TORSDOF 34
ENDMDL
MODEL 3
REMARK VINA RESULT:      -6.0     45.640     49.402
ROOT
ATOM    141  H46 UNL A   1      15.144  46.832   0.829  1.00  0.00    +0.000 H 
ATOM    142  H47 UNL A   1      13.483  46.483   2.808  1.00  0.00    +0.000 H 
ATOM    143  H48 UNL A   1      14.813  50.405   2.900  1.00  0.00    +0.000 H 
ATOM    144  H49 UNL A   1      15.121  56.050   5.848  1.00  0.00    +0.000 H 
ATOM    145  H50 UNL A   1      16.665  56.413   3.864  1.00  0.00    +0.000 H 
ATOM    146  H51 UNL A   1      15.313  52.483   3.723  1.00  0.00    +0.000 H 
ATOM    147  H52 UNL A   1      12.026  52.030   7.510  1.00  0.00    +0.000 H 
ATOM    148  H53 UNL A   1      11.717  49.595   6.783  1.00  0.00    +0.000 H 
ATOM    149  H54 UNL A   1      17.832  51.078  -1.053  1.00  0.00    +0.000 H 
ATOM    150  H55 UNL A   1      18.439  53.395  -0.146  1.00  0.00    +0.000 H 
ATOM     37  C32 UNL A   1      16.987  54.125   2.193  1.00  0.00    +0.000 C 
ATOM     38  C33 UNL A   1      16.955  52.811   1.467  1.00  0.00    +0.000 C 
ATOM     39  N3  UNL A   1      16.268  51.731   1.742  1.00  0.00    +0.000 N 
ATOM     40  C34 UNL A   1      16.573  50.824   0.736  1.00  0.00    +0.000 C 
ATOM     41  C35 UNL A   1      16.152  49.544   0.600  1.00  0.00    +0.000 C 
ATOM     53  C42 UNL A   1      15.276  48.871   1.524  1.00  0.00    +0.000 C 
ATOM     54  C43 UNL A   1      14.857  47.552   1.512  1.00  0.00    +0.000 C 
ATOM     55  C44 UNL A   1      13.976  47.362   2.581  1.00  0.00    +0.000 C 
ATOM     56  C45 UNL A   1      13.877  48.552   3.284  1.00  0.00    +0.000 C 
ATOM     57  N4  UNL A   1      14.682  49.469   2.626  1.00  0.00    +0.000 N 
ATOM     58  C46 UNL A   1      13.102  48.836   4.463  1.00  0.00    +0.000 C 
ATOM     70  C53 UNL A   1      13.099  50.020   5.123  1.00  0.00    +0.000 C 
ATOM     71  N5  UNL A   1      13.798  51.182   4.830  1.00  0.00    +0.000 N 
ATOM     72  C54 UNL A   1      13.452  52.051   5.748  1.00  0.00    +0.000 C 
ATOM     73  C55 UNL A   1      13.912  53.470   5.930  1.00  0.00    +0.000 C 
ATOM     85  C62 UNL A   1      14.819  53.986   5.078  1.00  0.00    +0.000 C 
ATOM     86  C63 UNL A   1      15.346  55.345   5.128  1.00  0.00    +0.000 C 
ATOM     87  C64 UNL A   1      16.172  55.534   4.086  1.00  0.00    +0.000 C 
ATOM     88  C65 UNL A   1      16.260  54.293   3.315  1.00  0.00    +0.000 C 
ATOM     89  N6  UNL A   1      15.442  53.422   3.991  1.00  0.00    +0.000 N 
ATOM     90  C66 UNL A   1      12.474  51.542   6.719  1.00  0.00    +0.000 C 
ATOM     91  C67 UNL A   1      12.318  50.289   6.312  1.00  0.00    +0.000 C 
ATOM     92  C68 UNL A   1      17.477  51.491  -0.177  1.00  0.00    +0.000 C 
ATOM     93  C69 UNL A   1      17.786  52.705   0.257  1.00  0.00    +0.000 C 
ENDROOT
BRANCH   37   36
ATOM     33  C28 UNL A   1      19.074  57.582   0.772  1.00  0.00    +0.000 C 
ATOM     34  C29 UNL A   1      19.757  56.631   1.537  1.00  0.00    +0.000 C 
ATOM     35  C30 UNL A   1      19.099  55.474   1.956  1.00  0.00    +0.000 C 
ATOM     36  C31 UNL A   1      17.745  55.275   1.640  1.00  0.00    +0.000 C 
ATOM    139  H44 UNL A   1      20.746  56.786   1.791  1.00  0.00    +0.000 H 
ATOM    140  H45 UNL A   1      19.608  54.761   2.501  1.00  0.00    +0.000 H 
ATOM    151  H56 UNL A   1      16.099  56.060   0.566  1.00  0.00    +0.000 H 
ATOM    152  H57 UNL A   1      17.295  57.985  -0.294  1.00  0.00    +0.000 H 
ATOM     94  C70 UNL A   1      17.088  56.208   0.823  1.00  0.00    +0.000 C 
ATOM     95  C71 UNL A   1      17.763  57.335   0.356  1.00  0.00    +0.000 C 
BRANCH   33   31
ATOM     31  C27 UNL A   1      19.765  58.841   0.418  1.00  0.00    +0.000 C 
ATOM     32  O3  UNL A   1      19.106  59.847   0.172  1.00  0.00    +0.000 O 
BRANCH   31   30
ATOM    138  H43 UNL A   1      21.604  58.972   1.199  1.00  0.00    +0.000 H 
ATOM     30  N2  UNL A   1      21.136  58.876   0.338  1.00  0.00    +0.000 N 
BRANCH   30   29
ATOM    137  H42 UNL A   1      21.877  59.702  -1.387  1.00  0.00    +0.000 H 
ATOM     29  C26 UNL A   1      21.998  58.795  -0.831  1.00  0.00    +0.000 C 
ATOM    136  H41 UNL A   1      21.714  57.939  -1.407  1.00  0.00    +0.000 H 
BRANCH   29   28
ATOM     28  C25 UNL A   1      23.473  58.670  -0.464  1.00  0.00    +0.000 C 
ATOM    134  H39 UNL A   1      23.824  59.637  -0.165  1.00  0.00    +0.000 H 
ATOM    135  H40 UNL A   1      23.526  57.938   0.314  1.00  0.00    +0.000 H 
BRANCH   28   27
ATOM     27  C24 UNL A   1      24.382  58.165  -1.586  1.00  0.00    +0.000 C 
ATOM    132  H37 UNL A   1      24.606  58.991  -2.229  1.00  0.00    +0.000 H 
ATOM    133  H38 UNL A   1      25.242  57.750  -1.103  1.00  0.00    +0.000 H 
BRANCH   27   26
ATOM     26  C23 UNL A   1      23.801  57.041  -2.451  1.00  0.00    +0.000 C 
ATOM    130  H35 UNL A   1      23.363  56.315  -1.797  1.00  0.00    +0.000 H 
ATOM    131  H36 UNL A   1      23.099  57.511  -3.109  1.00  0.00    +0.000 H 
BRANCH   26   25
ATOM     25  C22 UNL A   1      24.804  56.314  -3.358  1.00  0.00    +0.000 C 
ATOM    129  H34 UNL A   1      24.547  55.275  -3.322  1.00  0.00    +0.000 H 
ATOM    128  H33 UNL A   1      25.790  56.515  -2.995  1.00  0.00    +0.000 H 
BRANCH   25   24
ATOM    126  H31 UNL A   1      23.727  56.696  -5.158  1.00  0.00    +0.000 H 
ATOM    127  H32 UNL A   1      25.149  57.709  -4.922  1.00  0.00    +0.000 H 
ATOM     24  C21 UNL A   1      24.744  56.722  -4.830  1.00  0.00    +0.000 C 
BRANCH   24   23
ATOM    125  H30 UNL A   1      26.456  56.110  -5.836  1.00  0.00    +0.000 H 
ATOM     23  N1  UNL A   1      25.529  55.830  -5.660  1.00  0.00    +0.000 N 
BRANCH   23   21
ATOM     21  C20 UNL A   1      25.144  54.650  -6.229  1.00  0.00    +0.000 C 
ATOM     22  O2  UNL A   1      25.996  53.951  -6.781  1.00  0.00    +0.000 O 
BRANCH   21   20
ATOM    124  H29 UNL A   1      23.245  54.847  -5.403  1.00  0.00    +0.000 H 
ATOM    123  H28 UNL A   1      23.621  53.194  -6.038  1.00  0.00    +0.000 H 
ATOM     20  C19 UNL A   1      23.663  54.253  -6.188  1.00  0.00    +0.000 C 
BRANCH   20   19
ATOM     19  O1  UNL A   1      22.866  54.551  -7.328  1.00  0.00    +0.000 O 
BRANCH   19   18
ATOM    121  H26 UNL A   1      22.818  56.597  -7.272  1.00  0.00    +0.000 H 
ATOM     18  C18 UNL A   1      22.136  55.774  -7.223  1.00  0.00    +0.000 C 
ATOM    122  H27 UNL A   1      21.433  55.828  -8.029  1.00  0.00    +0.000 H 
BRANCH   18   17
ATOM     17  C17 UNL A   1      21.388  55.832  -5.927  1.00  0.00    +0.000 C 
ATOM    120  H25 UNL A   1      21.735  56.459  -5.185  1.00  0.00    +0.000 H 
BRANCH   17   16
ATOM    119  H24 UNL A   1      19.393  55.443  -6.067  1.00  0.00    +0.000 H 
ATOM     16  C16 UNL A   1      20.288  55.101  -5.688  1.00  0.00    +0.000 C 
BRANCH   16   15
ATOM    117  H22 UNL A   1      21.156  53.261  -5.136  1.00  0.00    +0.000 H 
ATOM    118  H23 UNL A   1      20.226  54.069  -3.866  1.00  0.00    +0.000 H 
ATOM     15  C15 UNL A   1      20.271  53.818  -4.905  1.00  0.00    +0.000 C 
BRANCH   15   14
ATOM    115  H20 UNL A   1      18.502  53.411  -6.030  1.00  0.00    +0.000 H 
ATOM    116  H21 UNL A   1      19.402  51.978  -5.500  1.00  0.00    +0.000 H 
ATOM     14  C14 UNL A   1      19.044  52.950  -5.231  1.00  0.00    +0.000 C 
BRANCH   14   13
ATOM    114  H19 UNL A   1      17.631  51.872  -3.956  1.00  0.00    +0.000 H 
ATOM     13  C13 UNL A   1      18.116  52.777  -4.059  1.00  0.00    +0.000 C 
BRANCH   13   12
ATOM    113  H18 UNL A   1      18.384  53.666  -2.240  1.00  0.00    +0.000 H 
ATOM     12  C12 UNL A   1      17.878  53.724  -3.137  1.00  0.00    +0.000 C 
BRANCH   12   11
ATOM     11  C11 UNL A   1      16.916  54.860  -3.335  1.00  0.00    +0.000 C 
ATOM    111  H16 UNL A   1      17.466  55.763  -3.504  1.00  0.00    +0.000 H 
ATOM    112  H17 UNL A   1      16.295  54.648  -4.180  1.00  0.00    +0.000 H 
BRANCH   11   10
ATOM     10  C10 UNL A   1      16.049  55.028  -2.121  1.00  0.00    +0.000 C 
ATOM    110  H15 UNL A   1      16.432  55.557  -1.322  1.00  0.00    +0.000 H 
BRANCH   10    9
ATOM      9  C9  UNL A   1      14.805  54.534  -2.011  1.00  0.00    +0.000 C 
ATOM    109  H14 UNL A   1      14.020  55.134  -2.306  1.00  0.00    +0.000 H 
BRANCH    9    8
ATOM    107  H12 UNL A   1      15.366  52.737  -1.056  1.00  0.00    +0.000 H 
ATOM    108  H13 UNL A   1      13.718  53.249  -0.744  1.00  0.00    +0.000 H 
ATOM      8  C8  UNL A   1      14.485  53.165  -1.485  1.00  0.00    +0.000 C 
BRANCH    8    7
ATOM    106  H11 UNL A   1      12.976  52.143  -2.688  1.00  0.00    +0.000 H 
ATOM      7  C7  UNL A   1      13.994  52.279  -2.594  1.00  0.00    +0.000 C 
BRANCH    7    6
ATOM    105  H10 UNL A   1      15.777  51.485  -3.193  1.00  0.00    +0.000 H 
ATOM      6  C6  UNL A   1      14.797  51.653  -3.470  1.00  0.00    +0.000 C 
BRANCH    6    5
ATOM      5  C5  UNL A   1      14.360  51.184  -4.828  1.00  0.00    +0.000 C 
ATOM    103  H8  UNL A   1      14.645  50.161  -4.955  1.00  0.00    +0.000 H 
ATOM    104  H9  UNL A   1      13.297  51.286  -4.900  1.00  0.00    +0.000 H 
BRANCH    5    4
ATOM      4  C4  UNL A   1      14.997  52.011  -5.908  1.00  0.00    +0.000 C 
ATOM    102  H7  UNL A   1      15.538  51.521  -6.636  1.00  0.00    +0.000 H 
BRANCH    4    3
ATOM      3  C3  UNL A   1      14.907  53.349  -5.985  1.00  0.00    +0.000 C 
ATOM    101  H6  UNL A   1      14.121  53.811  -5.502  1.00  0.00    +0.000 H 
BRANCH    3    2
ATOM      2  C2  UNL A   1      15.881  54.212  -6.733  1.00  0.00    +0.000 C 
ATOM     99  H4  UNL A   1      16.794  54.268  -6.179  1.00  0.00    +0.000 H 
ATOM    100  H5  UNL A   1      16.050  53.775  -7.695  1.00  0.00    +0.000 H 
BRANCH    2    1
ATOM      1  C1  UNL A   1      15.334  55.617  -6.932  1.00  0.00    +0.000 C 
ATOM     98  H3  UNL A   1      16.127  56.268  -7.238  1.00  0.00    +0.000 H 
ATOM     97  H2  UNL A   1      14.575  55.601  -7.687  1.00  0.00    +0.000 H 
ATOM     96  H1  UNL A   1      14.917  55.971  -6.013  1.00  0.00    +0.000 H 
ENDBRANCH    2    1
ENDBRANCH    3    2
ENDBRANCH    4    3
ENDBRANCH    5    4
ENDBRANCH    6    5
ENDBRANCH    7    6
ENDBRANCH    8    7
ENDBRANCH    9    8
ENDBRANCH   10    9
ENDBRANCH   11   10
ENDBRANCH   12   11
ENDBRANCH   13   12
ENDBRANCH   14   13
ENDBRANCH   15   14
ENDBRANCH   16   15
ENDBRANCH   17   16
ENDBRANCH   18   17
ENDBRANCH   19   18
ENDBRANCH   20   19
ENDBRANCH   21   20
ENDBRANCH   23   21
ENDBRANCH   24   23
ENDBRANCH   25   24
ENDBRANCH   26   25
ENDBRANCH   27   26
ENDBRANCH   28   27
ENDBRANCH   29   28
ENDBRANCH   30   29
ENDBRANCH   31   30
ENDBRANCH   33   31
ENDBRANCH   37   36
BRANCH   41   42
ATOM     42  C36 UNL A   1      16.637  48.776  -0.594  1.00  0.00    +0.000 C 
ATOM     43  C37 UNL A   1      17.912  48.192  -0.621  1.00  0.00    +0.000 C 
ATOM     44  F1  UNL A   1      18.754  48.362   0.409  1.00  0.00    +0.000 F 
ATOM     45  C38 UNL A   1      18.338  47.457  -1.724  1.00  0.00    +0.000 C 
ATOM     46  F2  UNL A   1      19.575  46.940  -1.745  1.00  0.00    +0.000 F 
ATOM     47  C39 UNL A   1      17.490  47.265  -2.804  1.00  0.00    +0.000 C 
ATOM     48  F3  UNL A   1      17.899  46.549  -3.861  1.00  0.00    +0.000 F 
ATOM     49  C40 UNL A   1      16.219  47.820  -2.791  1.00  0.00    +0.000 C 
ATOM     50  F4  UNL A   1      15.394  47.627  -3.830  1.00  0.00    +0.000 F 
ATOM     51  C41 UNL A   1      15.798  48.578  -1.702  1.00  0.00    +0.000 C 
ATOM     52  F5  UNL A   1      14.567  49.110  -1.721  1.00  0.00    +0.000 F 
ENDBRANCH   41   42
BRANCH   58   59
ATOM     65  F8  UNL A   1       9.930  44.640   6.519  1.00  0.00    +0.000 F 
ATOM     66  C51 UNL A   1      11.940  45.881   6.557  1.00  0.00    +0.000 C 
ATOM     67  F9  UNL A   1      12.416  45.105   7.541  1.00  0.00    +0.000 F 
ATOM     68  C52 UNL A   1      12.713  46.928   6.065  1.00  0.00    +0.000 C 
ATOM     69  F10 UNL A   1      13.924  47.146   6.599  1.00  0.00    +0.000 F 
ATOM     59  C47 UNL A   1      12.245  47.740   5.020  1.00  0.00    +0.000 C 
ATOM     60  C48 UNL A   1      10.973  47.469   4.493  1.00  0.00    +0.000 C 
ATOM     61  F6  UNL A   1      10.475  48.229   3.507  1.00  0.00    +0.000 F 
ATOM     62  C49 UNL A   1      10.194  46.436   5.006  1.00  0.00    +0.000 C 
ATOM     63  F7  UNL A   1       8.966  46.219   4.515  1.00  0.00    +0.000 F 
ATOM     64  C50 UNL A   1      10.680  45.638   6.032  1.00  0.00    +0.000 C 
ENDBRANCH   58   59
BRANCH   73   74
ATOM     74  C56 UNL A   1      13.388  54.301   7.043  1.00  0.00    +0.000 C 
ATOM     75  C57 UNL A   1      13.972  54.244   8.316  1.00  0.00    +0.000 C 
ATOM     76  F11 UNL A   1      15.000  53.415   8.544  1.00  0.00    +0.000 F 
ATOM     77  C58 UNL A   1      13.476  55.010   9.369  1.00  0.00    +0.000 C 
ATOM     78  F12 UNL A   1      14.027  54.907  10.586  1.00  0.00    +0.000 F 
ATOM     79  C59 UNL A   1      12.405  55.866   9.162  1.00  0.00    +0.000 C 
ATOM     80  F13 UNL A   1      11.931  56.606  10.174  1.00  0.00    +0.000 F 
ATOM     81  C60 UNL A   1      11.821  55.950   7.907  1.00  0.00    +0.000 C 
ATOM     82  F14 UNL A   1      10.794  56.785   7.701  1.00  0.00    +0.000 F 
ATOM     83  C61 UNL A   1      12.301  55.167   6.860  1.00  0.00    +0.000 C 
ATOM     84  F15 UNL A   1      11.711  55.259   5.659  1.00  0.00    +0.000 F 
ENDBRANCH   73   74
TORSDOF 34
ENDMDL
MODEL 4
REMARK VINA RESULT:      -5.9     22.085     29.025
ROOT
ATOM    141  H46 UNL A   1      18.675  34.003  47.225  1.00  0.00    +0.000 H 
ATOM    142  H47 UNL A   1      18.300  35.806  49.071  1.00  0.00    +0.000 H 
ATOM    143  H48 UNL A   1      22.264  35.967  47.881  1.00  0.00    +0.000 H 
ATOM    144  H49 UNL A   1      28.167  38.242  48.676  1.00  0.00    +0.000 H 
ATOM    145  H50 UNL A   1      28.507  36.550  46.813  1.00  0.00    +0.000 H 
ATOM    146  H51 UNL A   1      24.513  36.396  47.957  1.00  0.00    +0.000 H 
ATOM    147  H52 UNL A   1      23.938  40.019  51.407  1.00  0.00    +0.000 H 
ATOM    148  H53 UNL A   1      21.482  39.310  51.559  1.00  0.00    +0.000 H 
ATOM    149  H54 UNL A   1      22.875  32.631  44.180  1.00  0.00    +0.000 H 
ATOM    150  H55 UNL A   1      25.398  33.063  44.259  1.00  0.00    +0.000 H 
ATOM     37  C32 UNL A   1      26.150  35.122  46.078  1.00  0.00    +0.000 C 
ATOM     38  C33 UNL A   1      24.780  34.548  45.859  1.00  0.00    +0.000 C 
ATOM     39  N3  UNL A   1      23.650  34.858  46.443  1.00  0.00    +0.000 N 
ATOM     40  C34 UNL A   1      22.685  34.060  45.845  1.00  0.00    +0.000 C 
ATOM     41  C35 UNL A   1      21.365  33.974  46.135  1.00  0.00    +0.000 C 
ATOM     53  C42 UNL A   1      20.707  34.730  47.169  1.00  0.00    +0.000 C 
ATOM     54  C43 UNL A   1      19.390  34.655  47.588  1.00  0.00    +0.000 C 
ATOM     55  C44 UNL A   1      19.192  35.613  48.588  1.00  0.00    +0.000 C 
ATOM     56  C45 UNL A   1      20.396  36.259  48.819  1.00  0.00    +0.000 C 
ATOM     57  N4  UNL A   1      21.317  35.705  47.943  1.00  0.00    +0.000 N 
ATOM     58  C46 UNL A   1      20.685  37.307  49.763  1.00  0.00    +0.000 C 
ATOM     70  C53 UNL A   1      21.908  37.854  49.963  1.00  0.00    +0.000 C 
ATOM     71  N5  UNL A   1      23.109  37.557  49.335  1.00  0.00    +0.000 N 
ATOM     72  C54 UNL A   1      23.999  38.363  49.861  1.00  0.00    +0.000 C 
ATOM     73  C55 UNL A   1      25.469  38.470  49.567  1.00  0.00    +0.000 C 
ATOM     85  C62 UNL A   1      26.024  37.646  48.659  1.00  0.00    +0.000 C 
ATOM     86  C63 UNL A   1      27.430  37.645  48.268  1.00  0.00    +0.000 C 
ATOM     87  C64 UNL A   1      27.613  36.742  47.291  1.00  0.00    +0.000 C 
ATOM     88  C65 UNL A   1      26.340  36.074  47.013  1.00  0.00    +0.000 C 
ATOM     89  N6  UNL A   1      25.459  36.659  47.889  1.00  0.00    +0.000 N 
ATOM     90  C66 UNL A   1      23.457  39.279  50.873  1.00  0.00    +0.000 C 
ATOM     91  C67 UNL A   1      22.185  38.905  50.921  1.00  0.00    +0.000 C 
ATOM     92  C68 UNL A   1      23.353  33.278  44.826  1.00  0.00    +0.000 C 
ATOM     93  C69 UNL A   1      24.659  33.504  44.829  1.00  0.00    +0.000 C 
ENDROOT
BRANCH   37   36
ATOM     33  C28 UNL A   1      29.561  34.123  43.692  1.00  0.00    +0.000 C 
ATOM     34  C29 UNL A   1      29.243  33.335  44.803  1.00  0.00    +0.000 C 
ATOM     35  C30 UNL A   1      28.101  33.621  45.552  1.00  0.00    +0.000 C 
ATOM     36  C31 UNL A   1      27.287  34.715  45.215  1.00  0.00    +0.000 C 
ATOM    139  H44 UNL A   1      29.852  32.545  45.067  1.00  0.00    +0.000 H 
ATOM    140  H45 UNL A   1      27.853  33.026  46.358  1.00  0.00    +0.000 H 
ATOM    151  H56 UNL A   1      26.980  36.253  43.796  1.00  0.00    +0.000 H 
ATOM    152  H57 UNL A   1      28.873  35.652  42.406  1.00  0.00    +0.000 H 
ATOM     94  C70 UNL A   1      27.585  35.461  44.065  1.00  0.00    +0.000 C 
ATOM     95  C71 UNL A   1      28.694  35.140  43.283  1.00  0.00    +0.000 C 
BRANCH   33   31
ATOM     31  C27 UNL A   1      30.824  33.858  42.969  1.00  0.00    +0.000 C 
ATOM     32  O3  UNL A   1      30.790  33.346  41.854  1.00  0.00    +0.000 O 
BRANCH   31   30
ATOM    138  H43 UNL A   1      32.689  34.586  42.960  1.00  0.00    +0.000 H 
ATOM     30  N2  UNL A   1      32.030  34.160  43.554  1.00  0.00    +0.000 N 
BRANCH   30   29
ATOM    137  H42 UNL A   1      31.629  34.064  45.563  1.00  0.00    +0.000 H 
ATOM     29  C26 UNL A   1      32.476  33.940  44.921  1.00  0.00    +0.000 C 
ATOM    136  H41 UNL A   1      33.248  34.647  45.147  1.00  0.00    +0.000 H 
BRANCH   29   28
ATOM     28  C25 UNL A   1      33.023  32.534  45.141  1.00  0.00    +0.000 C 
ATOM    134  H39 UNL A   1      32.748  32.221  46.127  1.00  0.00    +0.000 H 
ATOM    135  H40 UNL A   1      32.601  31.926  44.368  1.00  0.00    +0.000 H 
BRANCH   28   27
ATOM     27  C24 UNL A   1      34.541  32.398  45.009  1.00  0.00    +0.000 C 
ATOM    132  H37 UNL A   1      34.949  33.375  44.857  1.00  0.00    +0.000 H 
ATOM    133  H38 UNL A   1      34.873  31.927  45.911  1.00  0.00    +0.000 H 
BRANCH   27   26
ATOM     26  C23 UNL A   1      35.026  31.502  43.864  1.00  0.00    +0.000 C 
ATOM    130  H35 UNL A   1      34.270  30.769  43.675  1.00  0.00    +0.000 H 
ATOM    131  H36 UNL A   1      35.210  32.158  43.038  1.00  0.00    +0.000 H 
BRANCH   26   25
ATOM     25  C22 UNL A   1      36.348  30.763  44.113  1.00  0.00    +0.000 C 
ATOM    129  H34 UNL A   1      36.538  30.178  43.237  1.00  0.00    +0.000 H 
ATOM    128  H33 UNL A   1      36.238  30.170  44.997  1.00  0.00    +0.000 H 
BRANCH   25   24
ATOM    126  H31 UNL A   1      38.245  31.510  43.488  1.00  0.00    +0.000 H 
ATOM    127  H32 UNL A   1      37.224  32.687  44.311  1.00  0.00    +0.000 H 
ATOM     24  C21 UNL A   1      37.563  31.673  44.296  1.00  0.00    +0.000 C 
BRANCH   24   23
ATOM    125  H30 UNL A   1      38.427  32.186  46.114  1.00  0.00    +0.000 H 
ATOM     23  N1  UNL A   1      38.244  31.403  45.547  1.00  0.00    +0.000 N 
BRANCH   23   21
ATOM     21  C20 UNL A   1      38.664  30.200  46.037  1.00  0.00    +0.000 C 
ATOM     22  O2  UNL A   1      39.454  29.529  45.371  1.00  0.00    +0.000 O 
BRANCH   21   20
ATOM    124  H29 UNL A   1      38.812  30.071  48.108  1.00  0.00    +0.000 H 
ATOM    123  H28 UNL A   1      38.017  28.648  47.321  1.00  0.00    +0.000 H 
ATOM     20  C19 UNL A   1      38.113  29.712  47.383  1.00  0.00    +0.000 C 
BRANCH   20   19
ATOM     19  O1  UNL A   1      36.858  30.227  47.810  1.00  0.00    +0.000 O 
BRANCH   19   18
ATOM    121  H26 UNL A   1      36.281  28.265  47.870  1.00  0.00    +0.000 H 
ATOM     18  C18 UNL A   1      35.905  29.223  48.161  1.00  0.00    +0.000 C 
ATOM    122  H27 UNL A   1      35.745  29.253  49.219  1.00  0.00    +0.000 H 
BRANCH   18   17
ATOM     17  C17 UNL A   1      34.600  29.470  47.469  1.00  0.00    +0.000 C 
ATOM    120  H25 UNL A   1      33.954  30.167  47.870  1.00  0.00    +0.000 H 
BRANCH   17   16
ATOM    119  H24 UNL A   1      34.952  28.261  45.867  1.00  0.00    +0.000 H 
ATOM     16  C16 UNL A   1      34.235  28.823  46.352  1.00  0.00    +0.000 C 
BRANCH   16   15
ATOM    117  H22 UNL A   1      32.163  29.170  46.512  1.00  0.00    +0.000 H 
ATOM    118  H23 UNL A   1      32.873  29.547  44.935  1.00  0.00    +0.000 H 
ATOM     15  C15 UNL A   1      32.856  28.861  45.756  1.00  0.00    +0.000 C 
BRANCH   15   14
ATOM    115  H20 UNL A   1      32.252  27.578  44.159  1.00  0.00    +0.000 H 
ATOM    116  H21 UNL A   1      33.191  26.792  45.440  1.00  0.00    +0.000 H 
ATOM     14  C14 UNL A   1      32.414  27.491  45.213  1.00  0.00    +0.000 C 
BRANCH   14   13
ATOM    114  H19 UNL A   1      30.367  26.724  45.234  1.00  0.00    +0.000 H 
ATOM     13  C13 UNL A   1      31.151  26.983  45.853  1.00  0.00    +0.000 C 
BRANCH   13   12
ATOM    113  H18 UNL A   1      30.220  27.384  47.626  1.00  0.00    +0.000 H 
ATOM     12  C12 UNL A   1      30.976  26.845  47.177  1.00  0.00    +0.000 C 
BRANCH   12   11
ATOM     11  C11 UNL A   1      31.819  25.952  48.042  1.00  0.00    +0.000 C 
ATOM    111  H16 UNL A   1      31.181  25.319  48.622  1.00  0.00    +0.000 H 
ATOM    112  H17 UNL A   1      32.453  25.359  47.417  1.00  0.00    +0.000 H 
BRANCH   11   10
ATOM     10  C10 UNL A   1      32.672  26.774  48.965  1.00  0.00    +0.000 C 
ATOM    110  H15 UNL A   1      33.624  27.021  48.652  1.00  0.00    +0.000 H 
BRANCH   10    9
ATOM      9  C9  UNL A   1      32.273  27.208  50.171  1.00  0.00    +0.000 C 
ATOM    109  H14 UNL A   1      31.501  26.705  50.635  1.00  0.00    +0.000 H 
BRANCH    9    8
ATOM    107  H12 UNL A   1      33.779  28.068  51.376  1.00  0.00    +0.000 H 
ATOM    108  H13 UNL A   1      33.094  29.149  50.176  1.00  0.00    +0.000 H 
ATOM      8  C8  UNL A   1      32.879  28.379  50.888  1.00  0.00    +0.000 C 
BRANCH    8    7
ATOM    106  H11 UNL A   1      32.289  29.583  52.613  1.00  0.00    +0.000 H 
ATOM      7  C7  UNL A   1      31.923  28.920  51.913  1.00  0.00    +0.000 C 
BRANCH    7    6
ATOM    105  H10 UNL A   1      30.376  27.592  52.026  1.00  0.00    +0.000 H 
ATOM      6  C6  UNL A   1      30.622  28.593  51.975  1.00  0.00    +0.000 C 
BRANCH    6    5
ATOM      5  C5  UNL A   1      29.501  29.592  51.974  1.00  0.00    +0.000 C 
ATOM    103  H8  UNL A   1      28.598  29.107  52.282  1.00  0.00    +0.000 H 
ATOM    104  H9  UNL A   1      29.747  30.384  52.650  1.00  0.00    +0.000 H 
BRANCH    5    4
ATOM      4  C4  UNL A   1      29.306  30.173  50.602  1.00  0.00    +0.000 C 
ATOM    102  H7  UNL A   1      28.973  31.146  50.533  1.00  0.00    +0.000 H 
BRANCH    4    3
ATOM      3  C3  UNL A   1      29.539  29.504  49.461  1.00  0.00    +0.000 C 
ATOM    101  H6  UNL A   1      29.410  28.481  49.463  1.00  0.00    +0.000 H 
BRANCH    3    2
ATOM      2  C2  UNL A   1      29.978  30.158  48.183  1.00  0.00    +0.000 C 
ATOM     99  H4  UNL A   1      30.052  29.413  47.418  1.00  0.00    +0.000 H 
ATOM    100  H5  UNL A   1      29.255  30.901  47.918  1.00  0.00    +0.000 H 
BRANCH    2    1
ATOM      1  C1  UNL A   1      31.329  30.837  48.346  1.00  0.00    +0.000 C 
ATOM     98  H3  UNL A   1      31.983  30.200  48.904  1.00  0.00    +0.000 H 
ATOM     97  H2  UNL A   1      31.752  31.026  47.381  1.00  0.00    +0.000 H 
ATOM     96  H1  UNL A   1      31.202  31.763  48.868  1.00  0.00    +0.000 H 
ENDBRANCH    2    1
ENDBRANCH    3    2
ENDBRANCH    4    3
ENDBRANCH    5    4
ENDBRANCH    6    5
ENDBRANCH    7    6
ENDBRANCH    8    7
ENDBRANCH    9    8
ENDBRANCH   10    9
ENDBRANCH   11   10
ENDBRANCH   12   11
ENDBRANCH   13   12
ENDBRANCH   14   13
ENDBRANCH   15   14
ENDBRANCH   16   15
ENDBRANCH   17   16
ENDBRANCH   18   17
ENDBRANCH   19   18
ENDBRANCH   20   19
ENDBRANCH   21   20
ENDBRANCH   23   21
ENDBRANCH   24   23
ENDBRANCH   25   24
ENDBRANCH   26   25
ENDBRANCH   27   26
ENDBRANCH   28   27
ENDBRANCH   29   28
ENDBRANCH   30   29
ENDBRANCH   31   30
ENDBRANCH   33   31
ENDBRANCH   37   36
BRANCH   41   42
ATOM     42  C36 UNL A   1      20.536  33.021  45.326  1.00  0.00    +0.000 C 
ATOM     43  C37 UNL A   1      20.470  31.656  45.643  1.00  0.00    +0.000 C 
ATOM     44  F1  UNL A   1      21.203  31.161  46.652  1.00  0.00    +0.000 F 
ATOM     45  C38 UNL A   1      19.674  30.788  44.901  1.00  0.00    +0.000 C 
ATOM     46  F2  UNL A   1      19.655  29.481  45.198  1.00  0.00    +0.000 F 
ATOM     47  C39 UNL A   1      18.906  31.270  43.852  1.00  0.00    +0.000 C 
ATOM     48  F3  UNL A   1      18.132  30.434  43.146  1.00  0.00    +0.000 F 
ATOM     49  C40 UNL A   1      18.944  32.619  43.532  1.00  0.00    +0.000 C 
ATOM     50  F4  UNL A   1      18.194  33.089  42.525  1.00  0.00    +0.000 F 
ATOM     51  C41 UNL A   1      19.758  33.486  44.254  1.00  0.00    +0.000 C 
ATOM     52  F5  UNL A   1      19.782  34.784  43.916  1.00  0.00    +0.000 F 
ENDBRANCH   41   42
BRANCH   58   59
ATOM     65  F8  UNL A   1      16.387  39.175  52.914  1.00  0.00    +0.000 F 
ATOM     66  C51 UNL A   1      18.250  37.747  52.652  1.00  0.00    +0.000 C 
ATOM     67  F9  UNL A   1      18.032  37.218  53.864  1.00  0.00    +0.000 F 
ATOM     68  C52 UNL A   1      19.322  37.302  51.884  1.00  0.00    +0.000 C 
ATOM     69  F10 UNL A   1      20.126  36.352  52.383  1.00  0.00    +0.000 F 
ATOM     59  C47 UNL A   1      19.557  37.825  50.603  1.00  0.00    +0.000 C 
ATOM     60  C48 UNL A   1      18.685  38.814  50.124  1.00  0.00    +0.000 C 
ATOM     61  F6  UNL A   1      18.881  39.358  48.914  1.00  0.00    +0.000 F 
ATOM     62  C49 UNL A   1      17.630  39.274  50.907  1.00  0.00    +0.000 C 
ATOM     63  F7  UNL A   1      16.832  40.248  50.447  1.00  0.00    +0.000 F 
ATOM     64  C50 UNL A   1      17.408  38.736  52.166  1.00  0.00    +0.000 C 
ENDBRANCH   58   59
BRANCH   73   74
ATOM     74  C56 UNL A   1      26.314  39.465  50.276  1.00  0.00    +0.000 C 
ATOM     75  C57 UNL A   1      26.927  39.145  51.495  1.00  0.00    +0.000 C 
ATOM     76  F11 UNL A   1      26.734  37.937  52.044  1.00  0.00    +0.000 F 
ATOM     77  C58 UNL A   1      27.709  40.078  52.173  1.00  0.00    +0.000 C 
ATOM     78  F12 UNL A   1      28.251  39.760  53.356  1.00  0.00    +0.000 F 
ATOM     79  C59 UNL A   1      27.913  41.338  51.632  1.00  0.00    +0.000 C 
ATOM     80  F13 UNL A   1      28.668  42.234  52.283  1.00  0.00    +0.000 F 
ATOM     81  C60 UNL A   1      27.328  41.672  50.419  1.00  0.00    +0.000 C 
ATOM     82  F14 UNL A   1      27.533  42.884  49.888  1.00  0.00    +0.000 F 
ATOM     83  C61 UNL A   1      26.527  40.748  49.753  1.00  0.00    +0.000 C 
ATOM     84  F15 UNL A   1      25.964  41.100  48.588  1.00  0.00    +0.000 F 
ENDBRANCH   73   74
TORSDOF 34
ENDMDL
MODEL 5
REMARK VINA RESULT:      -5.8     28.298     37.995
ROOT
ATOM    141  H46 UNL A   1      16.479  17.407   1.384  1.00  0.00    +0.000 H 
ATOM    142  H47 UNL A   1      17.453  19.811   1.647  1.00  0.00    +0.000 H 
ATOM    143  H48 UNL A   1      20.287  17.104   2.988  1.00  0.00    +0.000 H 
ATOM    144  H49 UNL A   1      25.859  15.929   5.856  1.00  0.00    +0.000 H 
ATOM    145  H50 UNL A   1      24.945  13.585   5.512  1.00  0.00    +0.000 H 
ATOM    146  H51 UNL A   1      22.099  16.277   4.119  1.00  0.00    +0.000 H 
ATOM    147  H52 UNL A   1      24.193  20.835   4.567  1.00  0.00    +0.000 H 
ATOM    148  H53 UNL A   1      22.021  21.788   3.602  1.00  0.00    +0.000 H 
ATOM    149  H54 UNL A   1      18.447  12.492   2.258  1.00  0.00    +0.000 H 
ATOM    150  H55 UNL A   1      20.443  11.533   3.545  1.00  0.00    +0.000 H 
ATOM     37  C32 UNL A   1      22.360  13.496   4.311  1.00  0.00    +0.000 C 
ATOM     38  C33 UNL A   1      21.035  13.721   3.641  1.00  0.00    +0.000 C 
ATOM     39  N3  UNL A   1      20.476  14.845   3.270  1.00  0.00    +0.000 N 
ATOM     40  C34 UNL A   1      19.278  14.490   2.667  1.00  0.00    +0.000 C 
ATOM     41  C35 UNL A   1      18.317  15.299   2.161  1.00  0.00    +0.000 C 
ATOM     53  C42 UNL A   1      18.376  16.737   2.167  1.00  0.00    +0.000 C 
ATOM     54  C43 UNL A   1      17.416  17.643   1.748  1.00  0.00    +0.000 C 
ATOM     55  C44 UNL A   1      17.934  18.933   1.901  1.00  0.00    +0.000 C 
ATOM     56  C45 UNL A   1      19.201  18.834   2.452  1.00  0.00    +0.000 C 
ATOM     57  N4  UNL A   1      19.458  17.481   2.613  1.00  0.00    +0.000 N 
ATOM     58  C46 UNL A   1      20.113  19.891   2.802  1.00  0.00    +0.000 C 
ATOM     70  C53 UNL A   1      21.322  19.711   3.387  1.00  0.00    +0.000 C 
ATOM     71  N5  UNL A   1      21.940  18.527   3.762  1.00  0.00    +0.000 N 
ATOM     72  C54 UNL A   1      23.099  18.871   4.270  1.00  0.00    +0.000 C 
ATOM     73  C55 UNL A   1      24.176  17.997   4.848  1.00  0.00    +0.000 C 
ATOM     85  C62 UNL A   1      23.990  16.665   4.901  1.00  0.00    +0.000 C 
ATOM     86  C63 UNL A   1      24.950  15.699   5.424  1.00  0.00    +0.000 C 
ATOM     87  C64 UNL A   1      24.462  14.459   5.253  1.00  0.00    +0.000 C 
ATOM     88  C65 UNL A   1      23.135  14.548   4.640  1.00  0.00    +0.000 C 
ATOM     89  N6  UNL A   1      22.928  15.897   4.489  1.00  0.00    +0.000 N 
ATOM     90  C66 UNL A   1      23.355  20.318   4.256  1.00  0.00    +0.000 C 
ATOM     91  C67 UNL A   1      22.228  20.786   3.738  1.00  0.00    +0.000 C 
ATOM     92  C68 UNL A   1      19.206  13.044   2.686  1.00  0.00    +0.000 C 
ATOM     93  C69 UNL A   1      20.243  12.522   3.325  1.00  0.00    +0.000 C 
ENDROOT
BRANCH   37   36
ATOM     33  C28 UNL A   1      23.602   9.445   4.919  1.00  0.00    +0.000 C 
ATOM     34  C29 UNL A   1      23.893  10.080   3.707  1.00  0.00    +0.000 C 
ATOM     35  C30 UNL A   1      23.541  11.418   3.523  1.00  0.00    +0.000 C 
ATOM     36  C31 UNL A   1      22.869  12.120   4.536  1.00  0.00    +0.000 C 
ATOM    139  H44 UNL A   1      24.366   9.559   2.952  1.00  0.00    +0.000 H 
ATOM    140  H45 UNL A   1      23.775  11.894   2.638  1.00  0.00    +0.000 H 
ATOM    151  H56 UNL A   1      22.163  12.005   6.528  1.00  0.00    +0.000 H 
ATOM    152  H57 UNL A   1      22.921   9.732   6.899  1.00  0.00    +0.000 H 
ATOM     94  C70 UNL A   1      22.636  11.489   5.768  1.00  0.00    +0.000 C 
ATOM     95  C71 UNL A   1      23.039  10.170   5.973  1.00  0.00    +0.000 C 
BRANCH   33   31
ATOM     31  C27 UNL A   1      23.901   8.003   5.057  1.00  0.00    +0.000 C 
ATOM     32  O3  UNL A   1      24.586   7.441   4.208  1.00  0.00    +0.000 O 
BRANCH   31   30
ATOM    138  H43 UNL A   1      24.044   7.064   6.819  1.00  0.00    +0.000 H 
ATOM     30  N2  UNL A   1      23.393   7.292   6.117  1.00  0.00    +0.000 N 
BRANCH   30   29
ATOM    137  H42 UNL A   1      21.552   7.541   6.983  1.00  0.00    +0.000 H 
ATOM     29  C26 UNL A   1      22.036   6.825   6.353  1.00  0.00    +0.000 C 
ATOM    136  H41 UNL A   1      22.081   5.859   6.814  1.00  0.00    +0.000 H 
BRANCH   29   28
ATOM     28  C25 UNL A   1      21.222   6.714   5.067  1.00  0.00    +0.000 C 
ATOM    134  H39 UNL A   1      21.836   7.047   4.256  1.00  0.00    +0.000 H 
ATOM    135  H40 UNL A   1      20.930   5.688   4.987  1.00  0.00    +0.000 H 
BRANCH   28   27
ATOM     27  C24 UNL A   1      19.927   7.529   5.045  1.00  0.00    +0.000 C 
ATOM    132  H37 UNL A   1      19.170   6.933   4.579  1.00  0.00    +0.000 H 
ATOM    133  H38 UNL A   1      19.716   7.773   6.066  1.00  0.00    +0.000 H 
BRANCH   27   26
ATOM     26  C23 UNL A   1      20.001   8.865   4.300  1.00  0.00    +0.000 C 
ATOM    130  H35 UNL A   1      19.194   9.479   4.643  1.00  0.00    +0.000 H 
ATOM    131  H36 UNL A   1      20.971   9.266   4.512  1.00  0.00    +0.000 H 
BRANCH   26   25
ATOM     25  C22 UNL A   1      19.910   8.779   2.770  1.00  0.00    +0.000 C 
ATOM    129  H34 UNL A   1      19.886   7.737   2.526  1.00  0.00    +0.000 H 
ATOM    128  H33 UNL A   1      20.755   9.287   2.355  1.00  0.00    +0.000 H 
BRANCH   25   24
ATOM    126  H31 UNL A   1      18.736  10.456   2.174  1.00  0.00    +0.000 H 
ATOM    127  H32 UNL A   1      18.532   9.022   1.172  1.00  0.00    +0.000 H 
ATOM     24  C21 UNL A   1      18.643   9.390   2.170  1.00  0.00    +0.000 C 
BRANCH   24   23
ATOM    125  H30 UNL A   1      17.509   8.152   3.393  1.00  0.00    +0.000 H 
ATOM     23  N1  UNL A   1      17.465   9.018   2.927  1.00  0.00    +0.000 N 
BRANCH   23   21
ATOM     21  C20 UNL A   1      16.301   9.716   3.075  1.00  0.00    +0.000 C 
ATOM     22  O2  UNL A   1      15.308   9.358   2.440  1.00  0.00    +0.000 O 
BRANCH   21   20
ATOM    124  H29 UNL A   1      15.435  10.782   4.637  1.00  0.00    +0.000 H 
ATOM    123  H28 UNL A   1      16.235  11.809   3.379  1.00  0.00    +0.000 H 
ATOM     20  C19 UNL A   1      16.280  10.939   4.001  1.00  0.00    +0.000 C 
BRANCH   20   19
ATOM     19  O1  UNL A   1      17.374  11.113   4.893  1.00  0.00    +0.000 O 
BRANCH   19   18
ATOM    121  H26 UNL A   1      16.790  13.028   5.319  1.00  0.00    +0.000 H 
ATOM     18  C18 UNL A   1      17.201  12.180   5.826  1.00  0.00    +0.000 C 
ATOM    122  H27 UNL A   1      16.539  11.857   6.603  1.00  0.00    +0.000 H 
BRANCH   18   17
ATOM     17  C17 UNL A   1      18.513  12.562   6.439  1.00  0.00    +0.000 C 
ATOM    120  H25 UNL A   1      19.153  11.812   6.740  1.00  0.00    +0.000 H 
BRANCH   17   16
ATOM    119  H24 UNL A   1      19.745  14.015   7.163  1.00  0.00    +0.000 H 
ATOM     16  C16 UNL A   1      18.891  13.838   6.613  1.00  0.00    +0.000 C 
BRANCH   16   15
ATOM    117  H22 UNL A   1      17.908  14.835   5.038  1.00  0.00    +0.000 H 
ATOM    118  H23 UNL A   1      17.278  15.175   6.656  1.00  0.00    +0.000 H 
ATOM     15  C15 UNL A   1      18.156  15.028   6.062  1.00  0.00    +0.000 C 
BRANCH   15   14
ATOM    115  H20 UNL A   1      19.651  16.343   5.291  1.00  0.00    +0.000 H 
ATOM    116  H21 UNL A   1      18.308  17.141   6.129  1.00  0.00    +0.000 H 
ATOM     14  C14 UNL A   1      18.991  16.317   6.132  1.00  0.00    +0.000 C 
BRANCH   14   13
ATOM    114  H19 UNL A   1      19.356  16.185   8.285  1.00  0.00    +0.000 H 
ATOM     13  C13 UNL A   1      19.812  16.419   7.389  1.00  0.00    +0.000 C 
BRANCH   13   12
ATOM    113  H18 UNL A   1      21.768  16.296   6.813  1.00  0.00    +0.000 H 
ATOM     12  C12 UNL A   1      21.101  16.794   7.422  1.00  0.00    +0.000 C 
BRANCH   12   11
ATOM     11  C11 UNL A   1      21.628  17.896   8.295  1.00  0.00    +0.000 C 
ATOM    111  H16 UNL A   1      22.245  18.546   7.710  1.00  0.00    +0.000 H 
ATOM    112  H17 UNL A   1      20.804  18.443   8.703  1.00  0.00    +0.000 H 
BRANCH   11   10
ATOM     10  C10 UNL A   1      22.441  17.326   9.422  1.00  0.00    +0.000 C 
ATOM    110  H15 UNL A   1      22.221  16.369   9.741  1.00  0.00    +0.000 H 
BRANCH   10    9
ATOM      9  C9  UNL A   1      23.437  17.982  10.039  1.00  0.00    +0.000 C 
ATOM    109  H14 UNL A   1      23.806  18.833   9.588  1.00  0.00    +0.000 H 
BRANCH    9    8
ATOM    107  H12 UNL A   1      23.933  16.500  11.457  1.00  0.00    +0.000 H 
ATOM    108  H13 UNL A   1      25.084  17.818  11.341  1.00  0.00    +0.000 H 
ATOM      8  C8  UNL A   1      24.047  17.557  11.343  1.00  0.00    +0.000 C 
BRANCH    8    7
ATOM    106  H11 UNL A   1      22.529  17.817  12.892  1.00  0.00    +0.000 H 
ATOM      7  C7  UNL A   1      23.373  18.254  12.489  1.00  0.00    +0.000 C 
BRANCH    7    6
ATOM    105  H10 UNL A   1      23.615  19.575  14.027  1.00  0.00    +0.000 H 
ATOM      6  C6  UNL A   1      23.798  19.411  13.024  1.00  0.00    +0.000 C 
BRANCH    6    5
ATOM      5  C5  UNL A   1      24.520  20.480  12.257  1.00  0.00    +0.000 C 
ATOM    103  H8  UNL A   1      24.371  20.321  11.209  1.00  0.00    +0.000 H 
ATOM    104  H9  UNL A   1      24.131  21.433  12.548  1.00  0.00    +0.000 H 
BRANCH    5    4
ATOM      4  C4  UNL A   1      25.992  20.449  12.556  1.00  0.00    +0.000 C 
ATOM    102  H7  UNL A   1      26.284  20.238  13.523  1.00  0.00    +0.000 H 
BRANCH    4    3
ATOM      3  C3  UNL A   1      26.951  20.680  11.645  1.00  0.00    +0.000 C 
ATOM    101  H6  UNL A   1      27.045  21.636  11.270  1.00  0.00    +0.000 H 
BRANCH    3    2
ATOM      2  C2  UNL A   1      27.894  19.628  11.139  1.00  0.00    +0.000 C 
ATOM     99  H4  UNL A   1      27.379  19.007  10.436  1.00  0.00    +0.000 H 
ATOM    100  H5  UNL A   1      28.726  20.115  10.675  1.00  0.00    +0.000 H 
BRANCH    2    1
ATOM      1  C1  UNL A   1      28.417  18.761  12.275  1.00  0.00    +0.000 C 
ATOM     98  H3  UNL A   1      27.684  18.715  13.053  1.00  0.00    +0.000 H 
ATOM     97  H2  UNL A   1      28.612  17.774  11.910  1.00  0.00    +0.000 H 
ATOM     96  H1  UNL A   1      29.321  19.185  12.660  1.00  0.00    +0.000 H 
ENDBRANCH    2    1
ENDBRANCH    3    2
ENDBRANCH    4    3
ENDBRANCH    5    4
ENDBRANCH    6    5
ENDBRANCH    7    6
ENDBRANCH    8    7
ENDBRANCH    9    8
ENDBRANCH   10    9
ENDBRANCH   11   10
ENDBRANCH   12   11
ENDBRANCH   13   12
ENDBRANCH   14   13
ENDBRANCH   15   14
ENDBRANCH   16   15
ENDBRANCH   17   16
ENDBRANCH   18   17
ENDBRANCH   19   18
ENDBRANCH   20   19
ENDBRANCH   21   20
ENDBRANCH   23   21
ENDBRANCH   24   23
ENDBRANCH   25   24
ENDBRANCH   26   25
ENDBRANCH   27   26
ENDBRANCH   28   27
ENDBRANCH   29   28
ENDBRANCH   30   29
ENDBRANCH   31   30
ENDBRANCH   33   31
ENDBRANCH   37   36
BRANCH   41   42
ATOM     42  C36 UNL A   1      17.107  14.648   1.557  1.00  0.00    +0.000 C 
ATOM     43  C37 UNL A   1      17.025  14.390   0.181  1.00  0.00    +0.000 C 
ATOM     44  F1  UNL A   1      18.013  14.776  -0.639  1.00  0.00    +0.000 F 
ATOM     45  C38 UNL A   1      15.909  13.759  -0.363  1.00  0.00    +0.000 C 
ATOM     46  F2  UNL A   1      15.834  13.556  -1.685  1.00  0.00    +0.000 F 
ATOM     47  C39 UNL A   1      14.871  13.349   0.461  1.00  0.00    +0.000 C 
ATOM     48  F3  UNL A   1      13.802  12.733  -0.063  1.00  0.00    +0.000 F 
ATOM     49  C40 UNL A   1      14.939  13.581   1.826  1.00  0.00    +0.000 C 
ATOM     50  F4  UNL A   1      13.941  13.175   2.624  1.00  0.00    +0.000 F 
ATOM     51  C41 UNL A   1      16.041  14.234   2.370  1.00  0.00    +0.000 C 
ATOM     52  F5  UNL A   1      16.075  14.453   3.693  1.00  0.00    +0.000 F 
ENDBRANCH   41   42
BRANCH   58   59
ATOM     65  F8  UNL A   1      18.444  25.175   1.714  1.00  0.00    +0.000 F 
ATOM     66  C51 UNL A   1      18.516  23.323   3.178  1.00  0.00    +0.000 C 
ATOM     67  F9  UNL A   1      17.785  23.991   4.081  1.00  0.00    +0.000 F 
ATOM     68  C52 UNL A   1      18.946  22.028   3.454  1.00  0.00    +0.000 C 
ATOM     69  F10 UNL A   1      18.624  21.477   4.634  1.00  0.00    +0.000 F 
ATOM     59  C47 UNL A   1      19.695  21.301   2.515  1.00  0.00    +0.000 C 
ATOM     60  C48 UNL A   1      20.003  21.921   1.295  1.00  0.00    +0.000 C 
ATOM     61  F6  UNL A   1      20.732  21.273   0.375  1.00  0.00    +0.000 F 
ATOM     62  C49 UNL A   1      19.592  23.225   1.034  1.00  0.00    +0.000 C 
ATOM     63  F7  UNL A   1      19.930  23.813  -0.122  1.00  0.00    +0.000 F 
ATOM     64  C50 UNL A   1      18.843  23.922   1.971  1.00  0.00    +0.000 C 
ENDBRANCH   58   59
BRANCH   73   74
ATOM     74  C56 UNL A   1      25.433  18.589   5.372  1.00  0.00    +0.000 C 
ATOM     75  C57 UNL A   1      26.621  18.519   4.631  1.00  0.00    +0.000 C 
ATOM     76  F11 UNL A   1      26.634  17.894   3.446  1.00  0.00    +0.000 F 
ATOM     77  C58 UNL A   1      27.808  19.058   5.124  1.00  0.00    +0.000 C 
ATOM     78  F12 UNL A   1      28.938  18.944   4.413  1.00  0.00    +0.000 F 
ATOM     79  C59 UNL A   1      27.823  19.700   6.354  1.00  0.00    +0.000 C 
ATOM     80  F13 UNL A   1      28.964  20.222   6.825  1.00  0.00    +0.000 F 
ATOM     81  C60 UNL A   1      26.656  19.793   7.097  1.00  0.00    +0.000 C 
ATOM     82  F14 UNL A   1      26.665  20.422   8.280  1.00  0.00    +0.000 F 
ATOM     83  C61 UNL A   1      25.475  19.233   6.617  1.00  0.00    +0.000 C 
ATOM     84  F15 UNL A   1      24.363  19.328   7.362  1.00  0.00    +0.000 F 
ENDBRANCH   73   74
TORSDOF 34
ENDMDL
MODEL 6
REMARK VINA RESULT:      -5.8      5.603     11.967
ROOT
ATOM    141  H46 UNL A   1      39.636  28.145  26.805  1.00  0.00    +0.000 H 
ATOM    142  H47 UNL A   1      37.755  29.870  27.343  1.00  0.00    +0.000 H 
ATOM    143  H48 UNL A   1      40.143  29.456  30.702  1.00  0.00    +0.000 H 
ATOM    144  H49 UNL A   1      41.251  30.689  36.858  1.00  0.00    +0.000 H 
ATOM    145  H50 UNL A   1      43.136  29.081  36.301  1.00  0.00    +0.000 H 
ATOM    146  H51 UNL A   1      40.783  29.509  32.901  1.00  0.00    +0.000 H 
ATOM    147  H52 UNL A   1      37.307  32.961  34.069  1.00  0.00    +0.000 H 
ATOM    148  H53 UNL A   1      36.387  32.652  31.699  1.00  0.00    +0.000 H 
ATOM    149  H54 UNL A   1      43.866  26.296  29.539  1.00  0.00    +0.000 H 
ATOM    150  H55 UNL A   1      44.590  26.307  31.996  1.00  0.00    +0.000 H 
ATOM     37  C32 UNL A   1      43.092  28.102  33.623  1.00  0.00    +0.000 C 
ATOM     38  C33 UNL A   1      42.869  27.773  32.175  1.00  0.00    +0.000 C 
ATOM     39  N3  UNL A   1      41.954  28.226  31.356  1.00  0.00    +0.000 N 
ATOM     40  C34 UNL A   1      42.218  27.633  30.129  1.00  0.00    +0.000 C 
ATOM     41  C35 UNL A   1      41.524  27.745  28.972  1.00  0.00    +0.000 C 
ATOM     53  C42 UNL A   1      40.331  28.535  28.810  1.00  0.00    +0.000 C 
ATOM     54  C43 UNL A   1      39.515  28.649  27.698  1.00  0.00    +0.000 C 
ATOM     55  C44 UNL A   1      38.498  29.564  27.991  1.00  0.00    +0.000 C 
ATOM     56  C45 UNL A   1      38.658  29.991  29.300  1.00  0.00    +0.000 C 
ATOM     57  N4  UNL A   1      39.784  29.349  29.791  1.00  0.00    +0.000 N 
ATOM     58  C46 UNL A   1      37.849  30.918  30.046  1.00  0.00    +0.000 C 
ATOM     70  C53 UNL A   1      38.044  31.246  31.347  1.00  0.00    +0.000 C 
ATOM     71  N5  UNL A   1      39.023  30.797  32.220  1.00  0.00    +0.000 N 
ATOM     72  C54 UNL A   1      38.803  31.413  33.356  1.00  0.00    +0.000 C 
ATOM     73  C55 UNL A   1      39.548  31.298  34.656  1.00  0.00    +0.000 C 
ATOM     85  C62 UNL A   1      40.590  30.451  34.749  1.00  0.00    +0.000 C 
ATOM     86  C63 UNL A   1      41.408  30.245  35.939  1.00  0.00    +0.000 C 
ATOM     87  C64 UNL A   1      42.397  29.386  35.649  1.00  0.00    +0.000 C 
ATOM     88  C65 UNL A   1      42.261  28.951  34.257  1.00  0.00    +0.000 C 
ATOM     89  N6  UNL A   1      41.147  29.617  33.809  1.00  0.00    +0.000 N 
ATOM     90  C66 UNL A   1      37.665  32.342  33.324  1.00  0.00    +0.000 C 
ATOM     91  C67 UNL A   1      37.218  32.178  32.086  1.00  0.00    +0.000 C 
ATOM     92  C68 UNL A   1      43.402  26.817  30.299  1.00  0.00    +0.000 C 
ATOM     93  C69 UNL A   1      43.812  26.827  31.560  1.00  0.00    +0.000 C 
ENDROOT
BRANCH   37   36
ATOM     33  C28 UNL A   1      46.530  26.402  35.526  1.00  0.00    +0.000 C 
ATOM     34  C29 UNL A   1      46.653  27.609  34.832  1.00  0.00    +0.000 C 
ATOM     35  C30 UNL A   1      45.526  28.198  34.257  1.00  0.00    +0.000 C 
ATOM     36  C31 UNL A   1      44.274  27.568  34.345  1.00  0.00    +0.000 C 
ATOM    139  H44 UNL A   1      47.577  28.064  34.745  1.00  0.00    +0.000 H 
ATOM    140  H45 UNL A   1      45.612  29.101  33.764  1.00  0.00    +0.000 H 
ATOM    151  H56 UNL A   1      43.233  25.928  35.184  1.00  0.00    +0.000 H 
ATOM    152  H57 UNL A   1      45.164  24.997  36.316  1.00  0.00    +0.000 H 
ATOM     94  C70 UNL A   1      44.153  26.387  35.094  1.00  0.00    +0.000 C 
ATOM     95  C71 UNL A   1      45.269  25.830  35.717  1.00  0.00    +0.000 C 
BRANCH   33   31
ATOM     31  C27 UNL A   1      47.752  25.751  36.046  1.00  0.00    +0.000 C 
ATOM     32  O3  UNL A   1      47.914  25.645  37.258  1.00  0.00    +0.000 O 
BRANCH   31   30
ATOM    138  H43 UNL A   1      48.452  24.511  34.639  1.00  0.00    +0.000 H 
ATOM     30  N2  UNL A   1      48.712  25.292  35.178  1.00  0.00    +0.000 N 
BRANCH   30   29
ATOM    137  H42 UNL A   1      50.697  25.369  35.686  1.00  0.00    +0.000 H 
ATOM     29  C26 UNL A   1      50.058  25.791  34.939  1.00  0.00    +0.000 C 
ATOM    136  H41 UNL A   1      50.042  26.860  34.990  1.00  0.00    +0.000 H 
BRANCH   29   28
ATOM     28  C25 UNL A   1      50.603  25.376  33.576  1.00  0.00    +0.000 C 
ATOM    134  H39 UNL A   1      51.150  26.203  33.171  1.00  0.00    +0.000 H 
ATOM    135  H40 UNL A   1      51.206  24.510  33.747  1.00  0.00    +0.000 H 
BRANCH   28   27
ATOM     27  C24 UNL A   1      49.545  24.962  32.551  1.00  0.00    +0.000 C 
ATOM    132  H37 UNL A   1      49.958  24.179  31.948  1.00  0.00    +0.000 H 
ATOM    133  H38 UNL A   1      48.688  24.663  33.117  1.00  0.00    +0.000 H 
BRANCH   27   26
ATOM     26  C23 UNL A   1      49.064  26.074  31.613  1.00  0.00    +0.000 C 
ATOM    130  H35 UNL A   1      49.370  27.011  32.029  1.00  0.00    +0.000 H 
ATOM    131  H36 UNL A   1      49.498  25.860  30.658  1.00  0.00    +0.000 H 
BRANCH   26   25
ATOM     25  C22 UNL A   1      47.548  26.136  31.379  1.00  0.00    +0.000 C 
ATOM    129  H34 UNL A   1      47.175  26.916  32.010  1.00  0.00    +0.000 H 
ATOM    128  H33 UNL A   1      47.135  25.176  31.611  1.00  0.00    +0.000 H 
BRANCH   25   24
ATOM    126  H31 UNL A   1      47.551  25.782  29.277  1.00  0.00    +0.000 H 
ATOM    127  H32 UNL A   1      46.068  26.501  29.900  1.00  0.00    +0.000 H 
ATOM     24  C21 UNL A   1      47.137  26.500  29.953  1.00  0.00    +0.000 C 
BRANCH   24   23
ATOM    125  H30 UNL A   1      48.520  28.048  29.882  1.00  0.00    +0.000 H 
ATOM     23  N1  UNL A   1      47.610  27.820  29.585  1.00  0.00    +0.000 N 
BRANCH   23   21
ATOM     21  C20 UNL A   1      46.954  28.786  28.878  1.00  0.00    +0.000 C 
ATOM     22  O2  UNL A   1      47.056  28.797  27.650  1.00  0.00    +0.000 O 
BRANCH   21   20
ATOM    124  H29 UNL A   1      46.504  30.777  29.275  1.00  0.00    +0.000 H 
ATOM    123  H28 UNL A   1      46.285  29.662  30.684  1.00  0.00    +0.000 H 
ATOM     20  C19 UNL A   1      46.139  29.840  29.639  1.00  0.00    +0.000 C 
BRANCH   20   19
ATOM     19  O1  UNL A   1      44.736  29.886  29.408  1.00  0.00    +0.000 O 
BRANCH   19   18
ATOM    121  H26 UNL A   1      43.142  31.152  29.195  1.00  0.00    +0.000 H 
ATOM     18  C18 UNL A   1      44.197  31.208  29.365  1.00  0.00    +0.000 C 
ATOM    122  H27 UNL A   1      44.396  31.693  30.298  1.00  0.00    +0.000 H 
BRANCH   18   17
ATOM     17  C17 UNL A   1      44.831  32.001  28.265  1.00  0.00    +0.000 C 
ATOM    120  H25 UNL A   1      45.702  32.515  28.467  1.00  0.00    +0.000 H 
BRANCH   17   16
ATOM    119  H24 UNL A   1      43.557  31.415  26.786  1.00  0.00    +0.000 H 
ATOM     16  C16 UNL A   1      44.315  32.071  27.028  1.00  0.00    +0.000 C 
BRANCH   16   15
ATOM    117  H22 UNL A   1      45.525  33.671  26.382  1.00  0.00    +0.000 H 
ATOM    118  H23 UNL A   1      45.136  32.471  25.143  1.00  0.00    +0.000 H 
ATOM     15  C15 UNL A   1      44.766  33.039  25.970  1.00  0.00    +0.000 C 
BRANCH   15   14
ATOM    115  H20 UNL A   1      43.737  34.059  24.401  1.00  0.00    +0.000 H 
ATOM    116  H21 UNL A   1      42.700  33.422  25.690  1.00  0.00    +0.000 H 
ATOM     14  C14 UNL A   1      43.616  33.921  25.455  1.00  0.00    +0.000 C 
BRANCH   14   13
ATOM    114  H19 UNL A   1      44.469  35.733  26.335  1.00  0.00    +0.000 H 
ATOM     13  C13 UNL A   1      43.572  35.274  26.113  1.00  0.00    +0.000 C 
BRANCH   13   12
ATOM    113  H18 UNL A   1      41.945  36.430  25.679  1.00  0.00    +0.000 H 
ATOM     12  C12 UNL A   1      42.441  35.924  26.429  1.00  0.00    +0.000 C 
BRANCH   12   11
ATOM     11  C11 UNL A   1      41.856  35.959  27.812  1.00  0.00    +0.000 C 
ATOM    111  H16 UNL A   1      41.135  36.748  27.871  1.00  0.00    +0.000 H 
ATOM    112  H17 UNL A   1      41.388  35.019  28.017  1.00  0.00    +0.000 H 
BRANCH   11   10
ATOM     10  C10 UNL A   1      42.935  36.199  28.829  1.00  0.00    +0.000 C 
ATOM    110  H15 UNL A   1      43.415  37.113  28.819  1.00  0.00    +0.000 H 
BRANCH   10    9
ATOM      9  C9  UNL A   1      43.312  35.300  29.752  1.00  0.00    +0.000 C 
ATOM    109  H14 UNL A   1      44.266  35.375  30.137  1.00  0.00    +0.000 H 
BRANCH    9    8
ATOM    107  H12 UNL A   1      41.422  34.387  29.975  1.00  0.00    +0.000 H 
ATOM    108  H13 UNL A   1      42.765  33.267  29.834  1.00  0.00    +0.000 H 
ATOM      8  C8  UNL A   1      42.435  34.192  30.258  1.00  0.00    +0.000 C 
BRANCH    8    7
ATOM    106  H11 UNL A   1      42.885  33.223  32.163  1.00  0.00    +0.000 H 
ATOM      7  C7  UNL A   1      42.521  34.098  31.755  1.00  0.00    +0.000 C 
BRANCH    7    6
ATOM    105  H10 UNL A   1      41.145  35.243  32.735  1.00  0.00    +0.000 H 
ATOM      6  C6  UNL A   1      42.154  35.080  32.595  1.00  0.00    +0.000 C 
BRANCH    6    5
ATOM      5  C5  UNL A   1      43.118  35.956  33.340  1.00  0.00    +0.000 C 
ATOM    103  H8  UNL A   1      44.091  35.860  32.904  1.00  0.00    +0.000 H 
ATOM    104  H9  UNL A   1      42.781  36.969  33.276  1.00  0.00    +0.000 H 
BRANCH    5    4
ATOM      4  C4  UNL A   1      43.186  35.562  34.788  1.00  0.00    +0.000 C 
ATOM    102  H7  UNL A   1      43.673  34.685  35.028  1.00  0.00    +0.000 H 
BRANCH    4    3
ATOM      3  C3  UNL A   1      42.655  36.281  35.790  1.00  0.00    +0.000 C 
ATOM    101  H6  UNL A   1      41.654  36.524  35.735  1.00  0.00    +0.000 H 
BRANCH    3    2
ATOM      2  C2  UNL A   1      43.431  36.752  36.985  1.00  0.00    +0.000 C 
ATOM     99  H4  UNL A   1      44.123  35.989  37.275  1.00  0.00    +0.000 H 
ATOM    100  H5  UNL A   1      43.948  37.651  36.720  1.00  0.00    +0.000 H 
BRANCH    2    1
ATOM      1  C1  UNL A   1      42.510  37.056  38.157  1.00  0.00    +0.000 C 
ATOM     98  H3  UNL A   1      42.082  38.028  38.032  1.00  0.00    +0.000 H 
ATOM     97  H2  UNL A   1      41.729  36.325  38.196  1.00  0.00    +0.000 H 
ATOM     96  H1  UNL A   1      43.071  37.027  39.068  1.00  0.00    +0.000 H 
ENDBRANCH    2    1
ENDBRANCH    3    2
ENDBRANCH    4    3
ENDBRANCH    5    4
ENDBRANCH    6    5
ENDBRANCH    7    6
ENDBRANCH    8    7
ENDBRANCH    9    8
ENDBRANCH   10    9
ENDBRANCH   11   10
ENDBRANCH   12   11
ENDBRANCH   13   12
ENDBRANCH   14   13
ENDBRANCH   15   14
ENDBRANCH   16   15
ENDBRANCH   17   16
ENDBRANCH   18   17
ENDBRANCH   19   18
ENDBRANCH   20   19
ENDBRANCH   21   20
ENDBRANCH   23   21
ENDBRANCH   24   23
ENDBRANCH   25   24
ENDBRANCH   26   25
ENDBRANCH   27   26
ENDBRANCH   28   27
ENDBRANCH   29   28
ENDBRANCH   30   29
ENDBRANCH   31   30
ENDBRANCH   33   31
ENDBRANCH   37   36
BRANCH   41   42
ATOM     42  C36 UNL A   1      42.034  26.991  27.779  1.00  0.00    +0.000 C 
ATOM     43  C37 UNL A   1      41.668  25.657  27.546  1.00  0.00    +0.000 C 
ATOM     44  F1  UNL A   1      40.894  25.005  28.426  1.00  0.00    +0.000 F 
ATOM     45  C38 UNL A   1      42.124  24.977  26.420  1.00  0.00    +0.000 C 
ATOM     46  F2  UNL A   1      41.794  23.691  26.236  1.00  0.00    +0.000 F 
ATOM     47  C39 UNL A   1      42.927  25.625  25.492  1.00  0.00    +0.000 C 
ATOM     48  F3  UNL A   1      43.357  24.972  24.404  1.00  0.00    +0.000 F 
ATOM     49  C40 UNL A   1      43.287  26.949  25.696  1.00  0.00    +0.000 C 
ATOM     50  F4  UNL A   1      44.054  27.580  24.795  1.00  0.00    +0.000 F 
ATOM     51  C41 UNL A   1      42.854  27.624  26.833  1.00  0.00    +0.000 C 
ATOM     52  F5  UNL A   1      43.226  28.901  27.008  1.00  0.00    +0.000 F 
ENDBRANCH   41   42
BRANCH   58   59
ATOM     65  F8  UNL A   1      33.510  33.293  27.321  1.00  0.00    +0.000 F 
ATOM     66  C51 UNL A   1      34.512  31.381  28.280  1.00  0.00    +0.000 C 
ATOM     67  F9  UNL A   1      33.463  30.631  27.915  1.00  0.00    +0.000 F 
ATOM     68  C52 UNL A   1      35.572  30.801  28.971  1.00  0.00    +0.000 C 
ATOM     69  F10 UNL A   1      35.513  29.494  29.267  1.00  0.00    +0.000 F 
ATOM     59  C47 UNL A   1      36.691  31.561  29.344  1.00  0.00    +0.000 C 
ATOM     60  C48 UNL A   1      36.705  32.923  29.009  1.00  0.00    +0.000 C 
ATOM     61  F6  UNL A   1      37.744  33.694  29.361  1.00  0.00    +0.000 F 
ATOM     62  C49 UNL A   1      35.631  33.504  28.340  1.00  0.00    +0.000 C 
ATOM     63  F7  UNL A   1      35.648  34.815  28.063  1.00  0.00    +0.000 F 
ATOM     64  C50 UNL A   1      34.539  32.732  27.970  1.00  0.00    +0.000 C 
ENDBRANCH   58   59
BRANCH   73   74
ATOM     74  C56 UNL A   1      39.138  32.097  35.839  1.00  0.00    +0.000 C 
ATOM     75  C57 UNL A   1      38.300  31.548  36.818  1.00  0.00    +0.000 C 
ATOM     76  F11 UNL A   1      37.839  30.297  36.681  1.00  0.00    +0.000 F 
ATOM     77  C58 UNL A   1      37.899  32.297  37.923  1.00  0.00    +0.000 C 
ATOM     78  F12 UNL A   1      37.065  31.763  38.824  1.00  0.00    +0.000 F 
ATOM     79  C59 UNL A   1      38.351  33.599  38.082  1.00  0.00    +0.000 C 
ATOM     80  F13 UNL A   1      37.969  34.317  39.147  1.00  0.00    +0.000 F 
ATOM     81  C60 UNL A   1      39.194  34.157  37.132  1.00  0.00    +0.000 C 
ATOM     82  F14 UNL A   1      39.642  35.410  37.289  1.00  0.00    +0.000 F 
ATOM     83  C61 UNL A   1      39.575  33.418  36.015  1.00  0.00    +0.000 C 
ATOM     84  F15 UNL A   1      40.382  33.985  35.107  1.00  0.00    +0.000 F 
ENDBRANCH   73   74
TORSDOF 34
ENDMDL
MODEL 7
REMARK VINA RESULT:      -5.8     45.755     49.531
ROOT
ATOM    141  H46 UNL A   1      15.323  47.104   0.590  1.00  0.00    +0.000 H 
ATOM    142  H47 UNL A   1      13.646  46.659   2.536  1.00  0.00    +0.000 H 
ATOM    143  H48 UNL A   1      14.893  50.601   2.768  1.00  0.00    +0.000 H 
ATOM    144  H49 UNL A   1      15.050  56.155   5.897  1.00  0.00    +0.000 H 
ATOM    145  H50 UNL A   1      16.610  56.611   3.946  1.00  0.00    +0.000 H 
ATOM    146  H51 UNL A   1      15.341  52.662   3.663  1.00  0.00    +0.000 H 
ATOM    147  H52 UNL A   1      12.019  52.022   7.392  1.00  0.00    +0.000 H 
ATOM    148  H53 UNL A   1      11.768  49.606   6.584  1.00  0.00    +0.000 H 
ATOM    149  H54 UNL A   1      17.946  51.461  -1.123  1.00  0.00    +0.000 H 
ATOM    150  H55 UNL A   1      18.494  53.759  -0.136  1.00  0.00    +0.000 H 
ATOM     37  C32 UNL A   1      16.999  54.385   2.207  1.00  0.00    +0.000 C 
ATOM     38  C33 UNL A   1      17.003  53.095   1.439  1.00  0.00    +0.000 C 
ATOM     39  N3  UNL A   1      16.335  51.993   1.671  1.00  0.00    +0.000 N 
ATOM     40  C34 UNL A   1      16.671  51.124   0.641  1.00  0.00    +0.000 C 
ATOM     41  C35 UNL A   1      16.278  49.841   0.459  1.00  0.00    +0.000 C 
ATOM     53  C42 UNL A   1      15.405  49.122   1.350  1.00  0.00    +0.000 C 
ATOM     54  C43 UNL A   1      15.013  47.796   1.291  1.00  0.00    +0.000 C 
ATOM     55  C44 UNL A   1      14.123  47.554   2.343  1.00  0.00    +0.000 C 
ATOM     56  C45 UNL A   1      13.991  48.719   3.081  1.00  0.00    +0.000 C 
ATOM     57  N4  UNL A   1      14.786  49.672   2.463  1.00  0.00    +0.000 N 
ATOM     58  C46 UNL A   1      13.197  48.949   4.260  1.00  0.00    +0.000 C 
ATOM     70  C53 UNL A   1      13.161  50.111   4.956  1.00  0.00    +0.000 C 
ATOM     71  N5  UNL A   1      13.840  51.296   4.709  1.00  0.00    +0.000 N 
ATOM     72  C54 UNL A   1      13.465  52.128   5.649  1.00  0.00    +0.000 C 
ATOM     73  C55 UNL A   1      13.894  53.550   5.882  1.00  0.00    +0.000 C 
ATOM     85  C62 UNL A   1      14.800  54.110   5.059  1.00  0.00    +0.000 C 
ATOM     86  C63 UNL A   1      15.298  55.478   5.158  1.00  0.00    +0.000 C 
ATOM     87  C64 UNL A   1      16.133  55.716   4.133  1.00  0.00    +0.000 C 
ATOM     88  C65 UNL A   1      16.256  54.502   3.324  1.00  0.00    +0.000 C 
ATOM     89  N6  UNL A   1      15.447  53.594   3.962  1.00  0.00    +0.000 N 
ATOM     90  C66 UNL A   1      12.487  51.569   6.592  1.00  0.00    +0.000 C 
ATOM     91  C67 UNL A   1      12.361  50.327   6.143  1.00  0.00    +0.000 C 
ATOM     92  C68 UNL A   1      17.571  51.839  -0.239  1.00  0.00    +0.000 C 
ATOM     93  C69 UNL A   1      17.850  53.044   0.238  1.00  0.00    +0.000 C 
ENDROOT
BRANCH   37   36
ATOM     33  C28 UNL A   1      19.237  57.651   0.579  1.00  0.00    +0.000 C 
ATOM     34  C29 UNL A   1      17.883  57.518   0.259  1.00  0.00    +0.000 C 
ATOM     35  C30 UNL A   1      17.133  56.488   0.831  1.00  0.00    +0.000 C 
ATOM     36  C31 UNL A   1      17.740  55.568   1.700  1.00  0.00    +0.000 C 
ATOM    139  H44 UNL A   1      17.439  58.179  -0.398  1.00  0.00    +0.000 H 
ATOM    140  H45 UNL A   1      16.127  56.403   0.613  1.00  0.00    +0.000 H 
ATOM    151  H56 UNL A   1      19.534  55.090   2.715  1.00  0.00    +0.000 H 
ATOM    152  H57 UNL A   1      20.787  56.974   1.845  1.00  0.00    +0.000 H 
ATOM     94  C70 UNL A   1      19.085  55.748   2.058  1.00  0.00    +0.000 C 
ATOM     95  C71 UNL A   1      19.818  56.810   1.532  1.00  0.00    +0.000 C 
BRANCH   33   31
ATOM     31  C27 UNL A   1      20.032  58.692  -0.109  1.00  0.00    +0.000 C 
ATOM     32  O3  UNL A   1      20.687  59.492   0.552  1.00  0.00    +0.000 O 
BRANCH   31   30
ATOM    138  H43 UNL A   1      19.391  59.444  -1.850  1.00  0.00    +0.000 H 
ATOM     30  N2  UNL A   1      20.015  58.779  -1.479  1.00  0.00    +0.000 N 
BRANCH   30   29
ATOM    137  H42 UNL A   1      20.388  58.269  -3.430  1.00  0.00    +0.000 H 
ATOM     29  C26 UNL A   1      20.782  58.033  -2.464  1.00  0.00    +0.000 C 
ATOM    136  H41 UNL A   1      20.694  56.988  -2.248  1.00  0.00    +0.000 H 
BRANCH   29   28
ATOM     28  C25 UNL A   1      22.261  58.408  -2.463  1.00  0.00    +0.000 C 
ATOM    134  H39 UNL A   1      22.607  58.397  -3.477  1.00  0.00    +0.000 H 
ATOM    135  H40 UNL A   1      22.323  59.371  -2.003  1.00  0.00    +0.000 H 
BRANCH   28   27
ATOM     27  C24 UNL A   1      23.166  57.485  -1.644  1.00  0.00    +0.000 C 
ATOM    132  H37 UNL A   1      23.497  58.027  -0.782  1.00  0.00    +0.000 H 
ATOM    133  H38 UNL A   1      22.574  56.625  -1.412  1.00  0.00    +0.000 H 
BRANCH   27   26
ATOM     26  C23 UNL A   1      24.406  56.959  -2.375  1.00  0.00    +0.000 C 
ATOM    130  H35 UNL A   1      25.165  57.710  -2.318  1.00  0.00    +0.000 H 
ATOM    131  H36 UNL A   1      24.665  56.042  -1.886  1.00  0.00    +0.000 H 
BRANCH   26   25
ATOM     25  C22 UNL A   1      24.204  56.602  -3.854  1.00  0.00    +0.000 C 
ATOM    129  H34 UNL A   1      24.366  57.504  -4.408  1.00  0.00    +0.000 H 
ATOM    128  H33 UNL A   1      23.216  56.209  -3.972  1.00  0.00    +0.000 H 
BRANCH   25   24
ATOM    126  H31 UNL A   1      25.688  55.095  -3.585  1.00  0.00    +0.000 H 
ATOM    127  H32 UNL A   1      24.651  54.864  -4.990  1.00  0.00    +0.000 H 
ATOM     24  C21 UNL A   1      25.194  55.575  -4.403  1.00  0.00    +0.000 C 
BRANCH   24   23
ATOM    125  H30 UNL A   1      26.101  57.171  -5.375  1.00  0.00    +0.000 H 
ATOM     23  N1  UNL A   1      26.190  56.199  -5.253  1.00  0.00    +0.000 N 
BRANCH   23   21
ATOM     21  C20 UNL A   1      27.233  55.608  -5.904  1.00  0.00    +0.000 C 
ATOM     22  O2  UNL A   1      27.252  54.380  -6.007  1.00  0.00    +0.000 O 
BRANCH   21   20
ATOM    124  H29 UNL A   1      29.132  55.801  -6.731  1.00  0.00    +0.000 H 
ATOM    123  H28 UNL A   1      28.622  57.190  -5.689  1.00  0.00    +0.000 H 
ATOM     20  C19 UNL A   1      28.362  56.489  -6.455  1.00  0.00    +0.000 C 
BRANCH   20   19
ATOM     19  O1  UNL A   1      28.102  57.233  -7.639  1.00  0.00    +0.000 O 
BRANCH   19   18
ATOM    121  H26 UNL A   1      27.363  59.134  -7.467  1.00  0.00    +0.000 H 
ATOM     18  C18 UNL A   1      28.311  58.639  -7.502  1.00  0.00    +0.000 C 
ATOM    122  H27 UNL A   1      28.857  58.821  -6.600  1.00  0.00    +0.000 H 
BRANCH   18   17
ATOM     17  C17 UNL A   1      29.100  59.169  -8.659  1.00  0.00    +0.000 C 
ATOM    120  H25 UNL A   1      29.680  58.512  -9.203  1.00  0.00    +0.000 H 
BRANCH   17   16
ATOM    119  H24 UNL A   1      28.519  60.728  -9.836  1.00  0.00    +0.000 H 
ATOM     16  C16 UNL A   1      29.088  60.463  -9.017  1.00  0.00    +0.000 C 
BRANCH   16   15
ATOM    117  H22 UNL A   1      30.500  61.103  -7.590  1.00  0.00    +0.000 H 
ATOM    118  H23 UNL A   1      30.389  62.104  -9.045  1.00  0.00    +0.000 H 
ATOM     15  C15 UNL A   1      29.844  61.551  -8.309  1.00  0.00    +0.000 C 
BRANCH   15   14
ATOM    115  H20 UNL A   1      29.030  63.503  -8.016  1.00  0.00    +0.000 H 
ATOM    116  H21 UNL A   1      27.913  62.166  -7.687  1.00  0.00    +0.000 H 
ATOM     14  C14 UNL A   1      28.913  62.533  -7.579  1.00  0.00    +0.000 C 
BRANCH   14   13
ATOM    114  H19 UNL A   1      29.623  63.507  -5.755  1.00  0.00    +0.000 H 
ATOM     13  C13 UNL A   1      29.199  62.634  -6.106  1.00  0.00    +0.000 C 
BRANCH   13   12
ATOM    113  H18 UNL A   1      27.952  61.417  -5.040  1.00  0.00    +0.000 H 
ATOM     12  C12 UNL A   1      28.938  61.662  -5.217  1.00  0.00    +0.000 C 
BRANCH   12   11
ATOM     11  C11 UNL A   1      29.999  60.912  -4.463  1.00  0.00    +0.000 C 
ATOM    111  H16 UNL A   1      29.855  59.861  -4.603  1.00  0.00    +0.000 H 
ATOM    112  H17 UNL A   1      30.960  61.202  -4.834  1.00  0.00    +0.000 H 
BRANCH   11   10
ATOM     10  C10 UNL A   1      29.923  61.231  -2.998  1.00  0.00    +0.000 C 
ATOM    110  H15 UNL A   1      30.803  61.237  -2.458  1.00  0.00    +0.000 H 
BRANCH   10    9
ATOM      9  C9  UNL A   1      28.783  61.512  -2.347  1.00  0.00    +0.000 C 
ATOM    109  H14 UNL A   1      28.056  62.043  -2.852  1.00  0.00    +0.000 H 
BRANCH    9    8
ATOM    107  H12 UNL A   1      28.331  60.046  -0.897  1.00  0.00    +0.000 H 
ATOM    108  H13 UNL A   1      29.335  61.364  -0.320  1.00  0.00    +0.000 H 
ATOM      8  C8  UNL A   1      28.497  61.102  -0.932  1.00  0.00    +0.000 C 
BRANCH    8    7
ATOM    106  H11 UNL A   1      27.417  62.596   0.240  1.00  0.00    +0.000 H 
ATOM      7  C7  UNL A   1      27.278  61.812  -0.416  1.00  0.00    +0.000 C 
BRANCH    7    6
ATOM    105  H10 UNL A   1      25.449  62.206  -1.234  1.00  0.00    +0.000 H 
ATOM      6  C6  UNL A   1      26.018  61.490  -0.754  1.00  0.00    +0.000 C 
BRANCH    6    5
ATOM      5  C5  UNL A   1      25.385  60.158  -0.477  1.00  0.00    +0.000 C 
ATOM    103  H8  UNL A   1      24.967  59.772  -1.384  1.00  0.00    +0.000 H 
ATOM    104  H9  UNL A   1      26.134  59.493  -0.101  1.00  0.00    +0.000 H 
BRANCH    5    4
ATOM      4  C4  UNL A   1      24.298  60.288   0.551  1.00  0.00    +0.000 C 
ATOM    102  H7  UNL A   1      23.603  59.529   0.618  1.00  0.00    +0.000 H 
BRANCH    4    3
ATOM      3  C3  UNL A   1      24.174  61.330   1.389  1.00  0.00    +0.000 C 
ATOM    101  H6  UNL A   1      24.308  62.279   1.007  1.00  0.00    +0.000 H 
BRANCH    3    2
ATOM      2  C2  UNL A   1      23.854  61.196   2.849  1.00  0.00    +0.000 C 
ATOM     99  H4  UNL A   1      23.652  60.168   3.069  1.00  0.00    +0.000 H 
ATOM    100  H5  UNL A   1      24.694  61.545   3.413  1.00  0.00    +0.000 H 
BRANCH    2    1
ATOM      1  C1  UNL A   1      22.641  62.031   3.228  1.00  0.00    +0.000 C 
ATOM     98  H3  UNL A   1      22.276  62.543   2.362  1.00  0.00    +0.000 H 
ATOM     97  H2  UNL A   1      21.873  61.392   3.613  1.00  0.00    +0.000 H 
ATOM     96  H1  UNL A   1      22.918  62.746   3.975  1.00  0.00    +0.000 H 
ENDBRANCH    2    1
ENDBRANCH    3    2
ENDBRANCH    4    3
ENDBRANCH    5    4
ENDBRANCH    6    5
ENDBRANCH    7    6
ENDBRANCH    8    7
ENDBRANCH    9    8
ENDBRANCH   10    9
ENDBRANCH   11   10
ENDBRANCH   12   11
ENDBRANCH   13   12
ENDBRANCH   14   13
ENDBRANCH   15   14
ENDBRANCH   16   15
ENDBRANCH   17   16
ENDBRANCH   18   17
ENDBRANCH   19   18
ENDBRANCH   20   19
ENDBRANCH   21   20
ENDBRANCH   23   21
ENDBRANCH   24   23
ENDBRANCH   25   24
ENDBRANCH   26   25
ENDBRANCH   27   26
ENDBRANCH   28   27
ENDBRANCH   29   28
ENDBRANCH   30   29
ENDBRANCH   31   30
ENDBRANCH   33   31
ENDBRANCH   37   36
BRANCH   41   42
ATOM     42  C36 UNL A   1      16.792  49.122  -0.753  1.00  0.00    +0.000 C 
ATOM     43  C37 UNL A   1      16.109  49.168  -1.977  1.00  0.00    +0.000 C 
ATOM     44  F1  UNL A   1      14.939  49.817  -2.073  1.00  0.00    +0.000 F 
ATOM     45  C38 UNL A   1      16.612  48.519  -3.101  1.00  0.00    +0.000 C 
ATOM     46  F2  UNL A   1      15.924  48.545  -4.251  1.00  0.00    +0.000 F 
ATOM     47  C39 UNL A   1      17.819  47.840  -3.032  1.00  0.00    +0.000 C 
ATOM     48  F3  UNL A   1      18.307  47.225  -4.118  1.00  0.00    +0.000 F 
ATOM     49  C40 UNL A   1      18.519  47.795  -1.835  1.00  0.00    +0.000 C 
ATOM     50  F4  UNL A   1      19.691  47.148  -1.769  1.00  0.00    +0.000 F 
ATOM     51  C41 UNL A   1      18.006  48.420  -0.702  1.00  0.00    +0.000 C 
ATOM     52  F5  UNL A   1      18.700  48.352   0.444  1.00  0.00    +0.000 F 
ENDBRANCH   41   42
BRANCH   58   59
ATOM     65  F8  UNL A   1       9.965  44.755   6.223  1.00  0.00    +0.000 F 
ATOM     66  C51 UNL A   1      10.284  46.547   4.717  1.00  0.00    +0.000 C 
ATOM     67  F9  UNL A   1       9.070  46.337   4.190  1.00  0.00    +0.000 F 
ATOM     68  C52 UNL A   1      11.089  47.566   4.219  1.00  0.00    +0.000 C 
ATOM     69  F10 UNL A   1      10.632  48.317   3.206  1.00  0.00    +0.000 F 
ATOM     59  C47 UNL A   1      12.355  47.819   4.770  1.00  0.00    +0.000 C 
ATOM     60  C48 UNL A   1      12.787  47.008   5.830  1.00  0.00    +0.000 C 
ATOM     61  F6  UNL A   1      13.997  47.200   6.376  1.00  0.00    +0.000 F 
ATOM     62  C49 UNL A   1      11.988  45.973   6.308  1.00  0.00    +0.000 C 
ATOM     63  F7  UNL A   1      12.436  45.185   7.295  1.00  0.00    +0.000 F 
ATOM     64  C50 UNL A   1      10.735  45.747   5.757  1.00  0.00    +0.000 C 
ENDBRANCH   58   59
BRANCH   73   74
ATOM     74  C56 UNL A   1      13.340  54.334   7.014  1.00  0.00    +0.000 C 
ATOM     75  C57 UNL A   1      13.905  54.243   8.293  1.00  0.00    +0.000 C 
ATOM     76  F11 UNL A   1      14.944  53.424   8.509  1.00  0.00    +0.000 F 
ATOM     77  C58 UNL A   1      13.381  54.965   9.364  1.00  0.00    +0.000 C 
ATOM     78  F12 UNL A   1      13.915  54.830  10.585  1.00  0.00    +0.000 F 
ATOM     79  C59 UNL A   1      12.299  55.811   9.169  1.00  0.00    +0.000 C 
ATOM     80  F13 UNL A   1      11.798  56.508  10.198  1.00  0.00    +0.000 F 
ATOM     81  C60 UNL A   1      11.733  55.927   7.908  1.00  0.00    +0.000 C 
ATOM     82  F14 UNL A   1      10.695  56.752   7.715  1.00  0.00    +0.000 F 
ATOM     83  C61 UNL A   1      12.241  55.188   6.843  1.00  0.00    +0.000 C 
ATOM     84  F15 UNL A   1      11.667  55.311   5.637  1.00  0.00    +0.000 F 
ENDBRANCH   73   74
TORSDOF 34
ENDMDL
MODEL 8
REMARK VINA RESULT:      -5.8     45.639     49.030
ROOT
ATOM    141  H46 UNL A   1      15.203  46.689   0.732  1.00  0.00    +0.000 H 
ATOM    142  H47 UNL A   1      13.534  46.404   2.714  1.00  0.00    +0.000 H 
ATOM    143  H48 UNL A   1      14.910  50.310   2.722  1.00  0.00    +0.000 H 
ATOM    144  H49 UNL A   1      15.279  56.015   5.544  1.00  0.00    +0.000 H 
ATOM    145  H50 UNL A   1      16.832  56.315   3.557  1.00  0.00    +0.000 H 
ATOM    146  H51 UNL A   1      15.434  52.401   3.499  1.00  0.00    +0.000 H 
ATOM    147  H52 UNL A   1      12.133  52.071   7.288  1.00  0.00    +0.000 H 
ATOM    148  H53 UNL A   1      11.796  49.623   6.614  1.00  0.00    +0.000 H 
ATOM    149  H54 UNL A   1      17.947  50.859  -1.237  1.00  0.00    +0.000 H 
ATOM    150  H55 UNL A   1      18.579  53.188  -0.381  1.00  0.00    +0.000 H 
ATOM     37  C32 UNL A   1      17.130  53.988   1.938  1.00  0.00    +0.000 C 
ATOM     38  C33 UNL A   1      17.084  52.658   1.241  1.00  0.00    +0.000 C 
ATOM     39  N3  UNL A   1      16.384  51.593   1.538  1.00  0.00    +0.000 N 
ATOM     40  C34 UNL A   1      16.680  50.660   0.553  1.00  0.00    +0.000 C 
ATOM     41  C35 UNL A   1      16.244  49.383   0.444  1.00  0.00    +0.000 C 
ATOM     53  C42 UNL A   1      15.359  48.741   1.381  1.00  0.00    +0.000 C 
ATOM     54  C43 UNL A   1      14.923  47.427   1.397  1.00  0.00    +0.000 C 
ATOM     55  C44 UNL A   1      14.038  47.271   2.468  1.00  0.00    +0.000 C 
ATOM     56  C45 UNL A   1      13.951  48.478   3.144  1.00  0.00    +0.000 C 
ATOM     57  N4  UNL A   1      14.769  49.370   2.468  1.00  0.00    +0.000 N 
ATOM     58  C46 UNL A   1      13.177  48.797   4.315  1.00  0.00    +0.000 C 
ATOM     70  C53 UNL A   1      13.187  49.995   4.948  1.00  0.00    +0.000 C 
ATOM     71  N5  UNL A   1      13.901  51.142   4.632  1.00  0.00    +0.000 N 
ATOM     72  C54 UNL A   1      13.563  52.035   5.529  1.00  0.00    +0.000 C 
ATOM     73  C55 UNL A   1      14.040  53.453   5.681  1.00  0.00    +0.000 C 
ATOM     85  C62 UNL A   1      14.954  53.938   4.820  1.00  0.00    +0.000 C 
ATOM     86  C63 UNL A   1      15.497  55.292   4.841  1.00  0.00    +0.000 C 
ATOM     87  C64 UNL A   1      16.328  55.448   3.797  1.00  0.00    +0.000 C 
ATOM     88  C65 UNL A   1      16.403  54.189   3.054  1.00  0.00    +0.000 C 
ATOM     89  N6  UNL A   1      15.573  53.343   3.747  1.00  0.00    +0.000 N 
ATOM     90  C66 UNL A   1      12.577  51.559   6.509  1.00  0.00    +0.000 C 
ATOM     91  C67 UNL A   1      12.407  50.300   6.129  1.00  0.00    +0.000 C 
ATOM     92  C68 UNL A   1      17.594  51.296  -0.372  1.00  0.00    +0.000 C 
ATOM     93  C69 UNL A   1      17.917  52.515   0.036  1.00  0.00    +0.000 C 
ENDROOT
BRANCH   37   36
ATOM     33  C28 UNL A   1      19.486  57.081   0.147  1.00  0.00    +0.000 C 
ATOM     34  C29 UNL A   1      18.191  56.843  -0.323  1.00  0.00    +0.000 C 
ATOM     35  C30 UNL A   1      17.396  55.874   0.293  1.00  0.00    +0.000 C 
ATOM     36  C31 UNL A   1      17.903  55.116   1.361  1.00  0.00    +0.000 C 
ATOM    139  H44 UNL A   1      17.824  57.382  -1.123  1.00  0.00    +0.000 H 
ATOM    140  H45 UNL A   1      16.432  55.714  -0.038  1.00  0.00    +0.000 H 
ATOM    151  H56 UNL A   1      19.556  54.869   2.660  1.00  0.00    +0.000 H 
ATOM    152  H57 UNL A   1      20.868  56.663   1.690  1.00  0.00    +0.000 H 
ATOM     94  C70 UNL A   1      19.183  55.406   1.860  1.00  0.00    +0.000 C 
ATOM     95  C71 UNL A   1      19.954  56.413   1.282  1.00  0.00    +0.000 C 
BRANCH   33   31
ATOM     31  C27 UNL A   1      20.340  58.046  -0.579  1.00  0.00    +0.000 C 
ATOM     32  O3  UNL A   1      20.711  57.790  -1.721  1.00  0.00    +0.000 O 
BRANCH   31   30
ATOM    138  H43 UNL A   1      20.134  59.545   0.731  1.00  0.00    +0.000 H 
ATOM     30  N2  UNL A   1      20.739  59.210   0.031  1.00  0.00    +0.000 N 
BRANCH   30   29
ATOM    137  H42 UNL A   1      21.742  60.989   0.215  1.00  0.00    +0.000 H 
ATOM     29  C26 UNL A   1      21.923  60.021  -0.206  1.00  0.00    +0.000 C 
ATOM    136  H41 UNL A   1      22.095  60.077  -1.261  1.00  0.00    +0.000 H 
BRANCH   29   28
ATOM     28  C25 UNL A   1      23.169  59.450   0.463  1.00  0.00    +0.000 C 
ATOM    134  H39 UNL A   1      23.386  60.047   1.325  1.00  0.00    +0.000 H 
ATOM    135  H40 UNL A   1      22.941  58.431   0.697  1.00  0.00    +0.000 H 
BRANCH   28   27
ATOM     27  C24 UNL A   1      24.420  59.415  -0.416  1.00  0.00    +0.000 C 
ATOM    132  H37 UNL A   1      24.659  60.421  -0.692  1.00  0.00    +0.000 H 
ATOM    133  H38 UNL A   1      25.178  58.938   0.171  1.00  0.00    +0.000 H 
BRANCH   27   26
ATOM     26  C23 UNL A   1      24.302  58.589  -1.702  1.00  0.00    +0.000 C 
ATOM    130  H35 UNL A   1      25.022  57.799  -1.654  1.00  0.00    +0.000 H 
ATOM    131  H36 UNL A   1      23.287  58.249  -1.738  1.00  0.00    +0.000 H 
BRANCH   26   25
ATOM     25  C22 UNL A   1      24.532  59.359  -3.009  1.00  0.00    +0.000 C 
ATOM    129  H34 UNL A   1      25.551  59.687  -2.993  1.00  0.00    +0.000 H 
ATOM    128  H33 UNL A   1      23.832  60.167  -3.049  1.00  0.00    +0.000 H 
BRANCH   25   24
ATOM    126  H31 UNL A   1      23.354  58.591  -4.612  1.00  0.00    +0.000 H 
ATOM    127  H32 UNL A   1      25.039  58.904  -5.021  1.00  0.00    +0.000 H 
ATOM     24  C21 UNL A   1      24.368  58.524  -4.279  1.00  0.00    +0.000 C 
BRANCH   24   23
ATOM    125  H30 UNL A   1      24.365  56.750  -3.197  1.00  0.00    +0.000 H 
ATOM     23  N1  UNL A   1      24.694  57.131  -4.044  1.00  0.00    +0.000 N 
BRANCH   23   21
ATOM     21  C20 UNL A   1      25.397  56.281  -4.847  1.00  0.00    +0.000 C 
ATOM     22  O2  UNL A   1      25.572  55.119  -4.475  1.00  0.00    +0.000 O 
BRANCH   21   20
ATOM    124  H29 UNL A   1      25.311  57.602  -6.451  1.00  0.00    +0.000 H 
ATOM    123  H28 UNL A   1      26.019  55.984  -6.848  1.00  0.00    +0.000 H 
ATOM     20  C19 UNL A   1      25.970  56.810  -6.168  1.00  0.00    +0.000 C 
BRANCH   20   19
ATOM     19  O1  UNL A   1      27.260  57.410  -6.136  1.00  0.00    +0.000 O 
BRANCH   19   18
ATOM    121  H26 UNL A   1      29.106  57.225  -7.001  1.00  0.00    +0.000 H 
ATOM     18  C18 UNL A   1      28.293  56.599  -6.697  1.00  0.00    +0.000 C 
ATOM    122  H27 UNL A   1      28.622  55.898  -5.958  1.00  0.00    +0.000 H 
BRANCH   18   17
ATOM     17  C17 UNL A   1      27.783  55.843  -7.885  1.00  0.00    +0.000 C 
ATOM    120  H25 UNL A   1      26.989  56.234  -8.414  1.00  0.00    +0.000 H 
BRANCH   17   16
ATOM    119  H24 UNL A   1      29.340  54.627  -8.386  1.00  0.00    +0.000 H 
ATOM     16  C16 UNL A   1      28.314  54.678  -8.289  1.00  0.00    +0.000 C 
BRANCH   16   15
ATOM    117  H22 UNL A   1      27.314  53.432  -9.663  1.00  0.00    +0.000 H 
ATOM    118  H23 UNL A   1      28.097  52.595  -8.316  1.00  0.00    +0.000 H 
ATOM     15  C15 UNL A   1      27.519  53.445  -8.612  1.00  0.00    +0.000 C 
BRANCH   15   14
ATOM    115  H20 UNL A   1      26.380  53.104  -6.838  1.00  0.00    +0.000 H 
ATOM    116  H21 UNL A   1      25.744  54.365  -7.908  1.00  0.00    +0.000 H 
ATOM     14  C14 UNL A   1      26.184  53.392  -7.849  1.00  0.00    +0.000 C 
BRANCH   14   13
ATOM    114  H19 UNL A   1      24.538  51.953  -7.807  1.00  0.00    +0.000 H 
ATOM     13  C13 UNL A   1      25.204  52.418  -8.444  1.00  0.00    +0.000 C 
BRANCH   13   12
ATOM    113  H18 UNL A   1      24.862  52.859 -10.408  1.00  0.00    +0.000 H 
ATOM     12  C12 UNL A   1      25.137  52.114  -9.750  1.00  0.00    +0.000 C 
BRANCH   12   11
ATOM     11  C11 UNL A   1      25.438  50.753 -10.308  1.00  0.00    +0.000 C 
ATOM    111  H16 UNL A   1      25.688  50.090  -9.506  1.00  0.00    +0.000 H 
ATOM    112  H17 UNL A   1      24.576  50.390 -10.828  1.00  0.00    +0.000 H 
BRANCH   11   10
ATOM     10  C10 UNL A   1      26.591  50.826 -11.267  1.00  0.00    +0.000 C 
ATOM    110  H15 UNL A   1      26.496  51.437 -12.094  1.00  0.00    +0.000 H 
BRANCH   10    9
ATOM      9  C9  UNL A   1      27.739  50.146 -11.117  1.00  0.00    +0.000 C 
ATOM    109  H14 UNL A   1      28.177  49.744 -11.960  1.00  0.00    +0.000 H 
BRANCH    9    8
ATOM    107  H12 UNL A   1      29.465  50.169  -9.901  1.00  0.00    +0.000 H 
ATOM    108  H13 UNL A   1      27.974  50.566  -9.066  1.00  0.00    +0.000 H 
ATOM      8  C8  UNL A   1      28.427  49.933  -9.799  1.00  0.00    +0.000 C 
BRANCH    8    7
ATOM    106  H11 UNL A   1      28.838  48.192  -8.545  1.00  0.00    +0.000 H 
ATOM      7  C7  UNL A   1      28.286  48.503  -9.359  1.00  0.00    +0.000 C 
BRANCH    7    6
ATOM    105  H10 UNL A   1      26.477  47.806  -9.997  1.00  0.00    +0.000 H 
ATOM      6  C6  UNL A   1      27.489  47.605  -9.959  1.00  0.00    +0.000 C 
BRANCH    6    5
ATOM      5  C5  UNL A   1      27.974  46.325 -10.576  1.00  0.00    +0.000 C 
ATOM    103  H8  UNL A   1      27.792  45.517  -9.899  1.00  0.00    +0.000 H 
ATOM    104  H9  UNL A   1      27.448  46.166 -11.495  1.00  0.00    +0.000 H 
BRANCH    5    4
ATOM      4  C4  UNL A   1      29.445  46.400 -10.871  1.00  0.00    +0.000 C 
ATOM    102  H7  UNL A   1      30.102  46.221 -10.096  1.00  0.00    +0.000 H 
BRANCH    4    3
ATOM      3  C3  UNL A   1      29.958  46.684 -12.079  1.00  0.00    +0.000 C 
ATOM    101  H6  UNL A   1      29.562  46.202 -12.900  1.00  0.00    +0.000 H 
BRANCH    3    2
ATOM      2  C2  UNL A   1      31.076  47.660 -12.304  1.00  0.00    +0.000 C 
ATOM     99  H4  UNL A   1      31.442  47.996 -11.357  1.00  0.00    +0.000 H 
ATOM    100  H5  UNL A   1      31.850  47.166 -12.854  1.00  0.00    +0.000 H 
BRANCH    2    1
ATOM      1  C1  UNL A   1      30.606  48.861 -13.109  1.00  0.00    +0.000 C 
ATOM     98  H3  UNL A   1      30.431  48.565 -14.123  1.00  0.00    +0.000 H 
ATOM     97  H2  UNL A   1      29.699  49.241 -12.687  1.00  0.00    +0.000 H 
ATOM     96  H1  UNL A   1      31.358  49.623 -13.085  1.00  0.00    +0.000 H 
ENDBRANCH    2    1
ENDBRANCH    3    2
ENDBRANCH    4    3
ENDBRANCH    5    4
ENDBRANCH    6    5
ENDBRANCH    7    6
ENDBRANCH    8    7
ENDBRANCH    9    8
ENDBRANCH   10    9
ENDBRANCH   11   10
ENDBRANCH   12   11
ENDBRANCH   13   12
ENDBRANCH   14   13
ENDBRANCH   15   14
ENDBRANCH   16   15
ENDBRANCH   17   16
ENDBRANCH   18   17
ENDBRANCH   19   18
ENDBRANCH   20   19
ENDBRANCH   21   20
ENDBRANCH   23   21
ENDBRANCH   24   23
ENDBRANCH   25   24
ENDBRANCH   26   25
ENDBRANCH   27   26
ENDBRANCH   28   27
ENDBRANCH   29   28
ENDBRANCH   30   29
ENDBRANCH   31   30
ENDBRANCH   33   31
ENDBRANCH   37   36
BRANCH   41   42
ATOM     42  C36 UNL A   1      16.722  48.582  -0.731  1.00  0.00    +0.000 C 
ATOM     43  C37 UNL A   1      15.936  48.432  -1.883  1.00  0.00    +0.000 C 
ATOM     44  F1  UNL A   1      14.703  48.959  -1.932  1.00  0.00    +0.000 F 
ATOM     45  C38 UNL A   1      16.403  47.711  -2.978  1.00  0.00    +0.000 C 
ATOM     46  F2  UNL A   1      15.620  47.548  -4.054  1.00  0.00    +0.000 F 
ATOM     47  C39 UNL A   1      17.673  47.154  -2.956  1.00  0.00    +0.000 C 
ATOM     48  F3  UNL A   1      18.125  46.469  -4.015  1.00  0.00    +0.000 F 
ATOM     49  C40 UNL A   1      18.473  47.304  -1.833  1.00  0.00    +0.000 C 
ATOM     50  F4  UNL A   1      19.705  46.776  -1.814  1.00  0.00    +0.000 F 
ATOM     51  C41 UNL A   1      18.000  48.003  -0.726  1.00  0.00    +0.000 C 
ATOM     52  F5  UNL A   1      18.793  48.124   0.350  1.00  0.00    +0.000 F 
ENDBRANCH   41   42
BRANCH   58   59
ATOM     65  F8  UNL A   1       9.952  44.686   6.457  1.00  0.00    +0.000 F 
ATOM     66  C51 UNL A   1      11.971  45.912   6.481  1.00  0.00    +0.000 C 
ATOM     67  F9  UNL A   1      12.430  45.162   7.492  1.00  0.00    +0.000 F 
ATOM     68  C52 UNL A   1      12.756  46.939   5.966  1.00  0.00    +0.000 C 
ATOM     69  F10 UNL A   1      13.963  47.164   6.507  1.00  0.00    +0.000 F 
ATOM     59  C47 UNL A   1      12.306  47.724   4.893  1.00  0.00    +0.000 C 
ATOM     60  C48 UNL A   1      11.038  47.447   4.361  1.00  0.00    +0.000 C 
ATOM     61  F6  UNL A   1      10.557  48.182   3.348  1.00  0.00    +0.000 F 
ATOM     62  C49 UNL A   1      10.245  46.435   4.895  1.00  0.00    +0.000 C 
ATOM     63  F7  UNL A   1       9.021  46.213   4.398  1.00  0.00    +0.000 F 
ATOM     64  C50 UNL A   1      10.714  45.664   5.949  1.00  0.00    +0.000 C 
ENDBRANCH   58   59
BRANCH   73   74
ATOM     74  C56 UNL A   1      13.523  54.315   6.774  1.00  0.00    +0.000 C 
ATOM     75  C57 UNL A   1      12.495  55.235   6.534  1.00  0.00    +0.000 C 
ATOM     76  F11 UNL A   1      11.982  55.361   5.302  1.00  0.00    +0.000 F 
ATOM     77  C58 UNL A   1      12.016  56.058   7.552  1.00  0.00    +0.000 C 
ATOM     78  F12 UNL A   1      11.059  56.958   7.288  1.00  0.00    +0.000 F 
ATOM     79  C59 UNL A   1      12.539  55.957   8.833  1.00  0.00    +0.000 C 
ATOM     80  F13 UNL A   1      12.075  56.746   9.812  1.00  0.00    +0.000 F 
ATOM     81  C60 UNL A   1      13.547  55.042   9.096  1.00  0.00    +0.000 C 
ATOM     82  F14 UNL A   1      14.046  54.933  10.334  1.00  0.00    +0.000 F 
ATOM     83  C61 UNL A   1      14.043  54.236   8.073  1.00  0.00    +0.000 C 
ATOM     84  F15 UNL A   1      15.026  53.368   8.353  1.00  0.00    +0.000 F 
ENDBRANCH   73   74
TORSDOF 34
ENDMDL
MODEL 9
REMARK VINA RESULT:      -5.7     21.531     28.562
ROOT
ATOM    141  H46 UNL A   1      18.732  34.090  47.214  1.00  0.00    +0.000 H 
ATOM    142  H47 UNL A   1      18.358  35.996  48.954  1.00  0.00    +0.000 H 
ATOM    143  H48 UNL A   1      22.296  36.148  47.682  1.00  0.00    +0.000 H 
ATOM    144  H49 UNL A   1      28.172  38.564  48.228  1.00  0.00    +0.000 H 
ATOM    145  H50 UNL A   1      28.508  36.767  46.465  1.00  0.00    +0.000 H 
ATOM    146  H51 UNL A   1      24.538  36.619  47.691  1.00  0.00    +0.000 H 
ATOM    147  H52 UNL A   1      23.961  40.437  50.923  1.00  0.00    +0.000 H 
ATOM    148  H53 UNL A   1      21.521  39.698  51.163  1.00  0.00    +0.000 H 
ATOM    149  H54 UNL A   1      22.901  32.603  44.181  1.00  0.00    +0.000 H 
ATOM    150  H55 UNL A   1      25.417  33.080  44.187  1.00  0.00    +0.000 H 
ATOM     37  C32 UNL A   1      26.165  35.259  45.863  1.00  0.00    +0.000 C 
ATOM     38  C33 UNL A   1      24.801  34.650  45.704  1.00  0.00    +0.000 C 
ATOM     39  N3  UNL A   1      23.677  34.976  46.289  1.00  0.00    +0.000 N 
ATOM     40  C34 UNL A   1      22.715  34.128  45.759  1.00  0.00    +0.000 C 
ATOM     41  C35 UNL A   1      21.402  34.038  46.078  1.00  0.00    +0.000 C 
ATOM     53  C42 UNL A   1      20.749  34.845  47.076  1.00  0.00    +0.000 C 
ATOM     54  C43 UNL A   1      19.441  34.774  47.524  1.00  0.00    +0.000 C 
ATOM     55  C44 UNL A   1      19.244  35.788  48.466  1.00  0.00    +0.000 C 
ATOM     56  C45 UNL A   1      20.440  36.467  48.635  1.00  0.00    +0.000 C 
ATOM     57  N4  UNL A   1      21.355  35.876  47.778  1.00  0.00    +0.000 N 
ATOM     58  C46 UNL A   1      20.727  37.575  49.508  1.00  0.00    +0.000 C 
ATOM     70  C53 UNL A   1      21.944  38.154  49.652  1.00  0.00    +0.000 C 
ATOM     71  N5  UNL A   1      23.139  37.839  49.021  1.00  0.00    +0.000 N 
ATOM     72  C54 UNL A   1      24.024  38.689  49.480  1.00  0.00    +0.000 C 
ATOM     73  C55 UNL A   1      25.487  38.803  49.153  1.00  0.00    +0.000 C 
ATOM     85  C62 UNL A   1      26.040  37.933  48.287  1.00  0.00    +0.000 C 
ATOM     86  C63 UNL A   1      27.439  37.931  47.871  1.00  0.00    +0.000 C 
ATOM     87  C64 UNL A   1      27.620  36.973  46.947  1.00  0.00    +0.000 C 
ATOM     88  C65 UNL A   1      26.354  36.269  46.734  1.00  0.00    +0.000 C 
ATOM     89  N6  UNL A   1      25.479  36.892  47.589  1.00  0.00    +0.000 N 
ATOM     90  C66 UNL A   1      23.483  39.657  50.444  1.00  0.00    +0.000 C 
ATOM     91  C67 UNL A   1      22.220  39.266  50.538  1.00  0.00    +0.000 C 
ATOM     92  C68 UNL A   1      23.379  33.296  44.777  1.00  0.00    +0.000 C 
ATOM     93  C69 UNL A   1      24.681  33.543  44.743  1.00  0.00    +0.000 C 
ENDROOT
BRANCH   37   36
ATOM     33  C28 UNL A   1      29.542  34.184  43.462  1.00  0.00    +0.000 C 
ATOM     34  C29 UNL A   1      29.329  33.533  44.681  1.00  0.00    +0.000 C 
ATOM     35  C30 UNL A   1      28.200  33.838  45.442  1.00  0.00    +0.000 C 
ATOM     36  C31 UNL A   1      27.293  34.818  45.006  1.00  0.00    +0.000 C 
ATOM    139  H44 UNL A   1      30.005  32.829  45.016  1.00  0.00    +0.000 H 
ATOM    140  H45 UNL A   1      28.029  33.341  46.331  1.00  0.00    +0.000 H 
ATOM    151  H56 UNL A   1      26.815  36.126  43.413  1.00  0.00    +0.000 H 
ATOM    152  H57 UNL A   1      28.691  35.475  42.022  1.00  0.00    +0.000 H 
ATOM     94  C70 UNL A   1      27.488  35.421  43.753  1.00  0.00    +0.000 C 
ATOM     95  C71 UNL A   1      28.586  35.074  42.966  1.00  0.00    +0.000 C 
BRANCH   33   31
ATOM     31  C27 UNL A   1      30.791  33.912  42.718  1.00  0.00    +0.000 C 
ATOM     32  O3  UNL A   1      30.761  33.193  41.723  1.00  0.00    +0.000 O 
BRANCH   31   30
ATOM    138  H43 UNL A   1      32.291  35.237  42.669  1.00  0.00    +0.000 H 
ATOM     30  N2  UNL A   1      31.982  34.438  43.154  1.00  0.00    +0.000 N 
BRANCH   30   29
ATOM    137  H42 UNL A   1      32.253  33.848  45.099  1.00  0.00    +0.000 H 
ATOM     29  C26 UNL A   1      32.856  33.988  44.226  1.00  0.00    +0.000 C 
ATOM    136  H41 UNL A   1      33.613  34.729  44.386  1.00  0.00    +0.000 H 
BRANCH   29   28
ATOM     28  C25 UNL A   1      33.533  32.658  43.913  1.00  0.00    +0.000 C 
ATOM    134  H39 UNL A   1      33.591  32.093  44.820  1.00  0.00    +0.000 H 
ATOM    135  H40 UNL A   1      32.936  32.191  43.158  1.00  0.00    +0.000 H 
BRANCH   28   27
ATOM     27  C24 UNL A   1      34.944  32.767  43.332  1.00  0.00    +0.000 C 
ATOM    132  H37 UNL A   1      35.029  33.715  42.843  1.00  0.00    +0.000 H 
ATOM    133  H38 UNL A   1      35.612  32.648  44.160  1.00  0.00    +0.000 H 
BRANCH   27   26
ATOM     26  C23 UNL A   1      35.328  31.680  42.322  1.00  0.00    +0.000 C 
ATOM    130  H35 UNL A   1      34.719  30.821  42.514  1.00  0.00    +0.000 H 
ATOM    131  H36 UNL A   1      35.175  32.112  41.355  1.00  0.00    +0.000 H 
BRANCH   26   25
ATOM     25  C22 UNL A   1      36.796  31.234  42.353  1.00  0.00    +0.000 C 
ATOM    129  H34 UNL A   1      36.956  30.655  41.467  1.00  0.00    +0.000 H 
ATOM    128  H33 UNL A   1      36.958  30.677  43.252  1.00  0.00    +0.000 H 
BRANCH   25   24
ATOM    126  H31 UNL A   1      38.444  32.248  41.456  1.00  0.00    +0.000 H 
ATOM    127  H32 UNL A   1      37.275  33.300  42.251  1.00  0.00    +0.000 H 
ATOM     24  C21 UNL A   1      37.812  32.376  42.309  1.00  0.00    +0.000 C 
BRANCH   24   23
ATOM    125  H30 UNL A   1      38.750  33.284  43.925  1.00  0.00    +0.000 H 
ATOM     23  N1  UNL A   1      38.633  32.402  43.503  1.00  0.00    +0.000 N 
BRANCH   23   21
ATOM     21  C20 UNL A   1      39.264  31.359  44.116  1.00  0.00    +0.000 C 
ATOM     22  O2  UNL A   1      40.181  30.787  43.524  1.00  0.00    +0.000 O 
BRANCH   21   20
ATOM    124  H29 UNL A   1      39.380  31.486  46.189  1.00  0.00    +0.000 H 
ATOM    123  H28 UNL A   1      38.915  29.853  45.561  1.00  0.00    +0.000 H 
ATOM     20  C19 UNL A   1      38.789  30.914  45.506  1.00  0.00    +0.000 C 
BRANCH   20   19
ATOM     19  O1  UNL A   1      37.443  31.201  45.868  1.00  0.00    +0.000 O 
BRANCH   19   18
ATOM    121  H26 UNL A   1      37.094  29.185  45.909  1.00  0.00    +0.000 H 
ATOM     18  C18 UNL A   1      36.723  30.075  46.372  1.00  0.00    +0.000 C 
ATOM    122  H27 UNL A   1      36.858  30.025  47.432  1.00  0.00    +0.000 H 
BRANCH   18   17
ATOM     17  C17 UNL A   1      35.261  30.211  46.077  1.00  0.00    +0.000 C 
ATOM    120  H25 UNL A   1      34.830  31.146  46.144  1.00  0.00    +0.000 H 
BRANCH   17   16
ATOM    119  H24 UNL A   1      34.951  28.345  45.320  1.00  0.00    +0.000 H 
ATOM     16  C16 UNL A   1      34.489  29.169  45.732  1.00  0.00    +0.000 C 
BRANCH   16   15
ATOM    117  H22 UNL A   1      32.770  29.086  46.949  1.00  0.00    +0.000 H 
ATOM    118  H23 UNL A   1      32.586  29.995  45.442  1.00  0.00    +0.000 H 
ATOM     15  C15 UNL A   1      32.996  29.121  45.903  1.00  0.00    +0.000 C 
BRANCH   15   14
ATOM    115  H20 UNL A   1      31.708  28.232  44.451  1.00  0.00    +0.000 H 
ATOM    116  H21 UNL A   1      33.168  27.301  44.830  1.00  0.00    +0.000 H 
ATOM     14  C14 UNL A   1      32.368  27.894  45.222  1.00  0.00    +0.000 C 
BRANCH   14   13
ATOM    114  H19 UNL A   1      30.578  26.911  46.005  1.00  0.00    +0.000 H 
ATOM     13  C13 UNL A   1      31.590  27.026  46.173  1.00  0.00    +0.000 C 
BRANCH   13   12
ATOM    113  H18 UNL A   1      31.866  26.710  48.172  1.00  0.00    +0.000 H 
ATOM     12  C12 UNL A   1      32.126  26.389  47.227  1.00  0.00    +0.000 C 
BRANCH   12   11
ATOM     11  C11 UNL A   1      33.083  25.238  47.109  1.00  0.00    +0.000 C 
ATOM    111  H16 UNL A   1      32.905  24.547  47.907  1.00  0.00    +0.000 H 
ATOM    112  H17 UNL A   1      32.933  24.754  46.166  1.00  0.00    +0.000 H 
BRANCH   11   10
ATOM     10  C10 UNL A   1      34.500  25.727  47.186  1.00  0.00    +0.000 C 
ATOM    110  H15 UNL A   1      35.051  25.756  46.313  1.00  0.00    +0.000 H 
BRANCH   10    9
ATOM      9  C9  UNL A   1      35.097  26.131  48.319  1.00  0.00    +0.000 C 
ATOM    109  H14 UNL A   1      35.575  25.420  48.893  1.00  0.00    +0.000 H 
BRANCH    9    8
ATOM    107  H12 UNL A   1      36.081  27.972  48.632  1.00  0.00    +0.000 H 
ATOM    108  H13 UNL A   1      34.370  28.108  48.272  1.00  0.00    +0.000 H 
ATOM      8  C8  UNL A   1      35.113  27.552  48.804  1.00  0.00    +0.000 C 
BRANCH    8    7
ATOM    106  H11 UNL A   1      33.841  27.853  50.554  1.00  0.00    +0.000 H 
ATOM      7  C7  UNL A   1      34.803  27.608  50.272  1.00  0.00    +0.000 C 
BRANCH    7    6
ATOM    105  H10 UNL A   1      35.366  26.891  52.099  1.00  0.00    +0.000 H 
ATOM      6  C6  UNL A   1      35.699  27.361  51.242  1.00  0.00    +0.000 C 
BRANCH    6    5
ATOM      5  C5  UNL A   1      37.152  27.727  51.161  1.00  0.00    +0.000 C 
ATOM    103  H8  UNL A   1      37.350  28.173  50.209  1.00  0.00    +0.000 H 
ATOM    104  H9  UNL A   1      37.377  28.416  51.948  1.00  0.00    +0.000 H 
BRANCH    5    4
ATOM      4  C4  UNL A   1      38.018  26.511  51.325  1.00  0.00    +0.000 C 
ATOM    102  H7  UNL A   1      37.841  25.898  52.136  1.00  0.00    +0.000 H 
BRANCH    4    3
ATOM      3  C3  UNL A   1      39.007  26.170  50.483  1.00  0.00    +0.000 C 
ATOM    101  H6  UNL A   1      39.900  26.683  50.551  1.00  0.00    +0.000 H 
BRANCH    3    2
ATOM      2  C2  UNL A   1      38.891  25.090  49.448  1.00  0.00    +0.000 C 
ATOM     99  H4  UNL A   1      38.642  25.534  48.507  1.00  0.00    +0.000 H 
ATOM    100  H5  UNL A   1      39.828  24.577  49.388  1.00  0.00    +0.000 H 
BRANCH    2    1
ATOM      1  C1  UNL A   1      37.814  24.082  49.820  1.00  0.00    +0.000 C 
ATOM     98  H3  UNL A   1      36.954  24.600  50.190  1.00  0.00    +0.000 H 
ATOM     97  H2  UNL A   1      37.544  23.513  48.955  1.00  0.00    +0.000 H 
ATOM     96  H1  UNL A   1      38.188  23.425  50.578  1.00  0.00    +0.000 H 
ENDBRANCH    2    1
ENDBRANCH    3    2
ENDBRANCH    4    3
ENDBRANCH    5    4
ENDBRANCH    6    5
ENDBRANCH    7    6
ENDBRANCH    8    7
ENDBRANCH    9    8
ENDBRANCH   10    9
ENDBRANCH   11   10
ENDBRANCH   12   11
ENDBRANCH   13   12
ENDBRANCH   14   13
ENDBRANCH   15   14
ENDBRANCH   16   15
ENDBRANCH   17   16
ENDBRANCH   18   17
ENDBRANCH   19   18
ENDBRANCH   20   19
ENDBRANCH   21   20
ENDBRANCH   23   21
ENDBRANCH   24   23
ENDBRANCH   25   24
ENDBRANCH   26   25
ENDBRANCH   27   26
ENDBRANCH   28   27
ENDBRANCH   29   28
ENDBRANCH   30   29
ENDBRANCH   31   30
ENDBRANCH   33   31
ENDBRANCH   37   36
BRANCH   41   42
ATOM     42  C36 UNL A   1      20.575  33.024  45.344  1.00  0.00    +0.000 C 
ATOM     43  C37 UNL A   1      19.789  33.382  44.239  1.00  0.00    +0.000 C 
ATOM     44  F1  UNL A   1      19.716  34.663  43.849  1.00  0.00    +0.000 F 
ATOM     45  C38 UNL A   1      19.049  32.425  43.549  1.00  0.00    +0.000 C 
ATOM     46  F2  UNL A   1      18.275  32.795  42.519  1.00  0.00    +0.000 F 
ATOM     47  C39 UNL A   1      19.105  31.093  43.929  1.00  0.00    +0.000 C 
ATOM     48  F3  UNL A   1      18.400  30.173  43.257  1.00  0.00    +0.000 F 
ATOM     49  C40 UNL A   1      19.888  30.715  45.010  1.00  0.00    +0.000 C 
ATOM     50  F4  UNL A   1      19.951  29.426  45.372  1.00  0.00    +0.000 F 
ATOM     51  C41 UNL A   1      20.609  31.672  45.718  1.00  0.00    +0.000 C 
ATOM     52  F5  UNL A   1      21.351  31.278  46.765  1.00  0.00    +0.000 F 
ENDBRANCH   41   42
BRANCH   58   59
ATOM     65  F8  UNL A   1      16.446  39.571  52.602  1.00  0.00    +0.000 F 
ATOM     66  C51 UNL A   1      18.174  37.990  52.297  1.00  0.00    +0.000 C 
ATOM     67  F9  UNL A   1      17.832  37.376  53.438  1.00  0.00    +0.000 F 
ATOM     68  C52 UNL A   1      19.243  37.512  51.545  1.00  0.00    +0.000 C 
ATOM     69  F10 UNL A   1      19.919  36.442  51.989  1.00  0.00    +0.000 F 
ATOM     59  C47 UNL A   1      19.605  38.125  50.335  1.00  0.00    +0.000 C 
ATOM     60  C48 UNL A   1      18.865  39.239  49.913  1.00  0.00    +0.000 C 
ATOM     61  F6  UNL A   1      19.186  39.870  48.774  1.00  0.00    +0.000 F 
ATOM     62  C49 UNL A   1      17.812  39.729  50.681  1.00  0.00    +0.000 C 
ATOM     63  F7  UNL A   1      17.142  40.818  50.279  1.00  0.00    +0.000 F 
ATOM     64  C50 UNL A   1      17.463  39.101  51.868  1.00  0.00    +0.000 C 
ENDBRANCH   58   59
BRANCH   73   74
ATOM     74  C56 UNL A   1      26.326  39.852  49.784  1.00  0.00    +0.000 C 
ATOM     75  C57 UNL A   1      26.510  41.094  49.160  1.00  0.00    +0.000 C 
ATOM     76  F11 UNL A   1      25.942  41.335  47.970  1.00  0.00    +0.000 F 
ATOM     77  C58 UNL A   1      27.309  42.078  49.739  1.00  0.00    +0.000 C 
ATOM     78  F12 UNL A   1      27.500  43.241  49.103  1.00  0.00    +0.000 F 
ATOM     79  C59 UNL A   1      27.917  41.848  50.964  1.00  0.00    +0.000 C 
ATOM     80  F13 UNL A   1      28.682  42.796  51.523  1.00  0.00    +0.000 F 
ATOM     81  C60 UNL A   1      27.737  40.632  51.607  1.00  0.00    +0.000 C 
ATOM     82  F14 UNL A   1      28.314  40.411  52.796  1.00  0.00    +0.000 F 
ATOM     83  C61 UNL A   1      26.959  39.639  51.017  1.00  0.00    +0.000 C 
ATOM     84  F15 UNL A   1      26.811  38.468  51.655  1.00  0.00    +0.000 F 
ENDBRANCH   73   74
TORSDOF 34
ENDMDL
MODEL 10
REMARK VINA RESULT:      -5.7      2.242      4.281
ROOT
ATOM    141  H46 UNL A   1      50.206  25.147  28.762  1.00  0.00    +0.000 H 
ATOM    142  H47 UNL A   1      51.431  24.366  30.927  1.00  0.00    +0.000 H 
ATOM    143  H48 UNL A   1      47.846  26.127  32.023  1.00  0.00    +0.000 H 
ATOM    144  H49 UNL A   1      43.941  28.305  36.568  1.00  0.00    +0.000 H 
ATOM    145  H50 UNL A   1      42.707  28.979  34.453  1.00  0.00    +0.000 H 
ATOM    146  H51 UNL A   1      46.279  27.178  33.322  1.00  0.00    +0.000 H 
ATOM    147  H52 UNL A   1      48.436  25.615  37.595  1.00  0.00    +0.000 H 
ATOM    148  H53 UNL A   1      50.357  24.728  36.153  1.00  0.00    +0.000 H 
ATOM    149  H54 UNL A   1      45.435  27.411  27.812  1.00  0.00    +0.000 H 
ATOM    150  H55 UNL A   1      43.681  28.623  29.231  1.00  0.00    +0.000 H 
ATOM     37  C32 UNL A   1      44.068  28.316  32.037  1.00  0.00    +0.000 C 
ATOM     38  C33 UNL A   1      44.958  27.829  30.930  1.00  0.00    +0.000 C 
ATOM     39  N3  UNL A   1      46.087  27.171  31.005  1.00  0.00    +0.000 N 
ATOM     40  C34 UNL A   1      46.475  26.934  29.694  1.00  0.00    +0.000 C 
ATOM     41  C35 UNL A   1      47.600  26.330  29.243  1.00  0.00    +0.000 C 
ATOM     53  C42 UNL A   1      48.640  25.807  30.092  1.00  0.00    +0.000 C 
ATOM     54  C43 UNL A   1      49.852  25.248  29.727  1.00  0.00    +0.000 C 
ATOM     55  C44 UNL A   1      50.515  24.841  30.889  1.00  0.00    +0.000 C 
ATOM     56  C45 UNL A   1      49.734  25.183  31.981  1.00  0.00    +0.000 C 
ATOM     57  N4  UNL A   1      48.587  25.778  31.478  1.00  0.00    +0.000 N 
ATOM     58  C46 UNL A   1      50.007  24.978  33.380  1.00  0.00    +0.000 C 
ATOM     70  C53 UNL A   1      49.209  25.390  34.395  1.00  0.00    +0.000 C 
ATOM     71  N5  UNL A   1      47.998  26.064  34.332  1.00  0.00    +0.000 N 
ATOM     72  C54 UNL A   1      47.610  26.223  35.574  1.00  0.00    +0.000 C 
ATOM     73  C55 UNL A   1      46.376  26.900  36.101  1.00  0.00    +0.000 C 
ATOM     85  C62 UNL A   1      45.507  27.458  35.236  1.00  0.00    +0.000 C 
ATOM     86  C63 UNL A   1      44.268  28.135  35.604  1.00  0.00    +0.000 C 
ATOM     87  C64 UNL A   1      43.621  28.503  34.486  1.00  0.00    +0.000 C 
ATOM     88  C65 UNL A   1      44.421  28.117  33.322  1.00  0.00    +0.000 C 
ATOM     89  N6  UNL A   1      45.534  27.524  33.864  1.00  0.00    +0.000 N 
ATOM     90  C66 UNL A   1      48.526  25.648  36.568  1.00  0.00    +0.000 C 
ATOM     91  C67 UNL A   1      49.500  25.181  35.798  1.00  0.00    +0.000 C 
ATOM     92  C68 UNL A   1      45.443  27.485  28.841  1.00  0.00    +0.000 C 
ATOM     93  C69 UNL A   1      44.508  28.097  29.555  1.00  0.00    +0.000 C 
ENDROOT
BRANCH   37   36
ATOM     33  C28 UNL A   1      40.222  30.083  31.391  1.00  0.00    +0.000 C 
ATOM     34  C29 UNL A   1      41.347  30.905  31.508  1.00  0.00    +0.000 C 
ATOM     35  C30 UNL A   1      42.612  30.335  31.662  1.00  0.00    +0.000 C 
ATOM     36  C31 UNL A   1      42.756  28.939  31.732  1.00  0.00    +0.000 C 
ATOM    139  H44 UNL A   1      41.242  31.932  31.480  1.00  0.00    +0.000 H 
ATOM    140  H45 UNL A   1      43.445  30.940  31.724  1.00  0.00    +0.000 H 
ATOM    151  H56 UNL A   1      41.725  27.097  31.583  1.00  0.00    +0.000 H 
ATOM    152  H57 UNL A   1      39.557  28.092  31.153  1.00  0.00    +0.000 H 
ATOM     94  C70 UNL A   1      41.627  28.125  31.556  1.00  0.00    +0.000 C 
ATOM     95  C71 UNL A   1      40.372  28.694  31.344  1.00  0.00    +0.000 C 
BRANCH   33   31
ATOM     31  C27 UNL A   1      38.885  30.711  31.322  1.00  0.00    +0.000 C 
ATOM     32  O3  UNL A   1      38.792  31.931  31.217  1.00  0.00    +0.000 O 
BRANCH   31   30
ATOM    138  H43 UNL A   1      37.419  29.774  32.311  1.00  0.00    +0.000 H 
ATOM     30  N2  UNL A   1      37.754  29.936  31.400  1.00  0.00    +0.000 N 
BRANCH   30   29
ATOM    137  H42 UNL A   1      36.002  29.757  30.350  1.00  0.00    +0.000 H 
ATOM     29  C26 UNL A   1      36.979  29.320  30.335  1.00  0.00    +0.000 C 
ATOM    136  H41 UNL A   1      36.940  28.264  30.505  1.00  0.00    +0.000 H 
BRANCH   29   28
ATOM     28  C25 UNL A   1      37.576  29.570  28.954  1.00  0.00    +0.000 C 
ATOM    134  H39 UNL A   1      38.127  30.488  28.992  1.00  0.00    +0.000 H 
ATOM    135  H40 UNL A   1      38.183  28.718  28.733  1.00  0.00    +0.000 H 
BRANCH   28   27
ATOM     27  C24 UNL A   1      36.561  29.676  27.815  1.00  0.00    +0.000 C 
ATOM    132  H37 UNL A   1      37.097  29.638  26.889  1.00  0.00    +0.000 H 
ATOM    133  H38 UNL A   1      35.879  28.862  27.952  1.00  0.00    +0.000 H 
BRANCH   27   26
ATOM     26  C23 UNL A   1      35.703  30.946  27.811  1.00  0.00    +0.000 C 
ATOM    130  H35 UNL A   1      35.713  31.354  28.800  1.00  0.00    +0.000 H 
ATOM    131  H36 UNL A   1      36.137  31.589  27.073  1.00  0.00    +0.000 H 
BRANCH   26   25
ATOM     25  C22 UNL A   1      34.238  30.757  27.393  1.00  0.00    +0.000 C 
ATOM    129  H34 UNL A   1      34.004  31.568  26.734  1.00  0.00    +0.000 H 
ATOM    128  H33 UNL A   1      33.637  30.748  28.277  1.00  0.00    +0.000 H 
BRANCH   25   24
ATOM    126  H31 UNL A   1      34.260  29.612  25.595  1.00  0.00    +0.000 H 
ATOM    127  H32 UNL A   1      34.508  28.676  27.067  1.00  0.00    +0.000 H 
ATOM     24  C21 UNL A   1      33.958  29.473  26.611  1.00  0.00    +0.000 C 
BRANCH   24   23
ATOM    125  H30 UNL A   1      31.940  29.845  26.936  1.00  0.00    +0.000 H 
ATOM     23  N1  UNL A   1      32.550  29.130  26.642  1.00  0.00    +0.000 N 
BRANCH   23   21
ATOM     21  C20 UNL A   1      31.964  27.943  26.313  1.00  0.00    +0.000 C 
ATOM     22  O2  UNL A   1      31.023  27.535  26.996  1.00  0.00    +0.000 O 
BRANCH   21   20
ATOM    124  H29 UNL A   1      33.576  27.286  25.174  1.00  0.00    +0.000 H 
ATOM    123  H28 UNL A   1      32.040  27.512  24.243  1.00  0.00    +0.000 H 
ATOM     20  C19 UNL A   1      32.517  27.142  25.127  1.00  0.00    +0.000 C 
BRANCH   20   19
ATOM     19  O1  UNL A   1      32.346  25.730  25.143  1.00  0.00    +0.000 O 
BRANCH   19   18
ATOM    121  H26 UNL A   1      34.030  24.840  25.890  1.00  0.00    +0.000 H 
ATOM     18  C18 UNL A   1      33.035  25.072  26.207  1.00  0.00    +0.000 C 
ATOM    122  H27 UNL A   1      33.059  25.721  27.057  1.00  0.00    +0.000 H 
BRANCH   18   17
ATOM     17  C17 UNL A   1      32.332  23.806  26.585  1.00  0.00    +0.000 C 
ATOM    120  H25 UNL A   1      31.383  23.639  26.216  1.00  0.00    +0.000 H 
BRANCH   17   16
ATOM    119  H24 UNL A   1      32.784  23.006  28.405  1.00  0.00    +0.000 H 
ATOM     16  C16 UNL A   1      32.882  22.879  27.386  1.00  0.00    +0.000 C 
BRANCH   16   15
ATOM    117  H22 UNL A   1      33.604  20.919  27.664  1.00  0.00    +0.000 H 
ATOM    118  H23 UNL A   1      33.160  21.332  26.002  1.00  0.00    +0.000 H 
ATOM     15  C15 UNL A   1      33.631  21.670  26.901  1.00  0.00    +0.000 C 
BRANCH   15   14
ATOM    115  H20 UNL A   1      35.327  22.967  26.929  1.00  0.00    +0.000 H 
ATOM    116  H21 UNL A   1      35.701  21.238  27.047  1.00  0.00    +0.000 H 
ATOM     14  C14 UNL A   1      35.100  21.984  26.572  1.00  0.00    +0.000 C 
BRANCH   14   13
ATOM    114  H19 UNL A   1      35.551  21.002  24.670  1.00  0.00    +0.000 H 
ATOM     13  C13 UNL A   1      35.398  21.929  25.098  1.00  0.00    +0.000 C 
BRANCH   13   12
ATOM    113  H18 UNL A   1      35.910  23.862  24.683  1.00  0.00    +0.000 H 
ATOM     12  C12 UNL A   1      35.477  23.007  24.301  1.00  0.00    +0.000 C 
BRANCH   12   11
ATOM     11  C11 UNL A   1      34.969  23.041  22.888  1.00  0.00    +0.000 C 
ATOM    111  H16 UNL A   1      35.597  23.681  22.303  1.00  0.00    +0.000 H 
ATOM    112  H17 UNL A   1      34.985  22.049  22.488  1.00  0.00    +0.000 H 
BRANCH   11   10
ATOM     10  C10 UNL A   1      33.561  23.561  22.852  1.00  0.00    +0.000 C 
ATOM    110  H15 UNL A   1      33.417  24.550  22.595  1.00  0.00    +0.000 H 
BRANCH   10    9
ATOM      9  C9  UNL A   1      32.478  22.818  23.131  1.00  0.00    +0.000 C 
ATOM    109  H14 UNL A   1      31.705  23.266  23.647  1.00  0.00    +0.000 H 
BRANCH    9    8
ATOM    107  H12 UNL A   1      31.457  21.274  22.116  1.00  0.00    +0.000 H 
ATOM    108  H13 UNL A   1      33.196  21.063  22.214  1.00  0.00    +0.000 H 
ATOM      8  C8  UNL A   1      32.319  21.378  22.741  1.00  0.00    +0.000 C 
BRANCH    8    7
ATOM    106  H11 UNL A   1      31.648  20.920  24.768  1.00  0.00    +0.000 H 
ATOM      7  C7  UNL A   1      32.151  20.519  23.961  1.00  0.00    +0.000 C 
BRANCH    7    6
ATOM    105  H10 UNL A   1      31.928  18.508  24.232  1.00  0.00    +0.000 H 
ATOM      6  C6  UNL A   1      32.613  19.262  24.069  1.00  0.00    +0.000 C 
BRANCH    6    5
ATOM      5  C5  UNL A   1      34.063  18.885  23.969  1.00  0.00    +0.000 C 
ATOM    103  H8  UNL A   1      34.302  18.675  22.948  1.00  0.00    +0.000 H 
ATOM    104  H9  UNL A   1      34.654  19.701  24.330  1.00  0.00    +0.000 H 
BRANCH    5    4
ATOM      4  C4  UNL A   1      34.356  17.672  24.805  1.00  0.00    +0.000 C 
ATOM    102  H7  UNL A   1      35.127  17.731  25.488  1.00  0.00    +0.000 H 
BRANCH    4    3
ATOM      3  C3  UNL A   1      33.679  16.516  24.719  1.00  0.00    +0.000 C 
ATOM    101  H6  UNL A   1      33.735  15.984  23.837  1.00  0.00    +0.000 H 
BRANCH    3    2
ATOM      2  C2  UNL A   1      32.841  15.952  25.830  1.00  0.00    +0.000 C 
ATOM     99  H4  UNL A   1      33.419  15.941  26.731  1.00  0.00    +0.000 H 
ATOM    100  H5  UNL A   1      31.973  16.567  25.945  1.00  0.00    +0.000 H 
BRANCH    2    1
ATOM      1  C1  UNL A   1      32.388  14.535  25.515  1.00  0.00    +0.000 C 
ATOM     98  H3  UNL A   1      31.779  14.169  26.316  1.00  0.00    +0.000 H 
ATOM     97  H2  UNL A   1      31.820  14.535  24.607  1.00  0.00    +0.000 H 
ATOM     96  H1  UNL A   1      33.244  13.903  25.400  1.00  0.00    +0.000 H 
ENDBRANCH    2    1
ENDBRANCH    3    2
ENDBRANCH    4    3
ENDBRANCH    5    4
ENDBRANCH    6    5
ENDBRANCH    7    6
ENDBRANCH    8    7
ENDBRANCH    9    8
ENDBRANCH   10    9
ENDBRANCH   11   10
ENDBRANCH   12   11
ENDBRANCH   13   12
ENDBRANCH   14   13
ENDBRANCH   15   14
ENDBRANCH   16   15
ENDBRANCH   17   16
ENDBRANCH   18   17
ENDBRANCH   19   18
ENDBRANCH   20   19
ENDBRANCH   21   20
ENDBRANCH   23   21
ENDBRANCH   24   23
ENDBRANCH   25   24
ENDBRANCH   26   25
ENDBRANCH   27   26
ENDBRANCH   28   27
ENDBRANCH   29   28
ENDBRANCH   30   29
ENDBRANCH   31   30
ENDBRANCH   33   31
ENDBRANCH   37   36
BRANCH   41   42
ATOM     42  C36 UNL A   1      47.774  26.201  27.759  1.00  0.00    +0.000 C 
ATOM     43  C37 UNL A   1      48.492  27.153  27.021  1.00  0.00    +0.000 C 
ATOM     44  F1  UNL A   1      48.993  28.239  27.627  1.00  0.00    +0.000 F 
ATOM     45  C38 UNL A   1      48.671  27.006  25.648  1.00  0.00    +0.000 C 
ATOM     46  F2  UNL A   1      49.328  27.947  24.956  1.00  0.00    +0.000 F 
ATOM     47  C39 UNL A   1      48.164  25.893  24.994  1.00  0.00    +0.000 C 
ATOM     48  F3  UNL A   1      48.346  25.749  23.674  1.00  0.00    +0.000 F 
ATOM     49  C40 UNL A   1      47.464  24.932  25.708  1.00  0.00    +0.000 C 
ATOM     50  F4  UNL A   1      46.982  23.850  25.079  1.00  0.00    +0.000 F 
ATOM     51  C41 UNL A   1      47.261  25.088  27.076  1.00  0.00    +0.000 C 
ATOM     52  F5  UNL A   1      46.571  24.147  27.739  1.00  0.00    +0.000 F 
ENDBRANCH   41   42
BRANCH   58   59
ATOM     65  F8  UNL A   1      54.828  22.343  34.688  1.00  0.00    +0.000 F 
ATOM     66  C51 UNL A   1      53.642  24.351  34.309  1.00  0.00    +0.000 C 
ATOM     67  F9  UNL A   1      54.754  25.065  34.531  1.00  0.00    +0.000 F 
ATOM     68  C52 UNL A   1      52.449  25.001  34.008  1.00  0.00    +0.000 C 
ATOM     69  F10 UNL A   1      52.437  26.341  33.956  1.00  0.00    +0.000 F 
ATOM     59  C47 UNL A   1      51.277  24.273  33.750  1.00  0.00    +0.000 C 
ATOM     60  C48 UNL A   1      51.342  22.873  33.814  1.00  0.00    +0.000 C 
ATOM     61  F6  UNL A   1      50.244  22.136  33.593  1.00  0.00    +0.000 F 
ATOM     62  C49 UNL A   1      52.532  22.229  34.140  1.00  0.00    +0.000 C 
ATOM     63  F7  UNL A   1      52.564  20.892  34.234  1.00  0.00    +0.000 F 
ATOM     64  C50 UNL A   1      53.682  22.966  34.381  1.00  0.00    +0.000 C 
ENDBRANCH   58   59
BRANCH   73   74
ATOM     74  C56 UNL A   1      46.113  26.969  37.560  1.00  0.00    +0.000 C 
ATOM     75  C57 UNL A   1      46.396  28.135  38.284  1.00  0.00    +0.000 C 
ATOM     76  F11 UNL A   1      46.932  29.195  37.663  1.00  0.00    +0.000 F 
ATOM     77  C58 UNL A   1      46.166  28.202  39.657  1.00  0.00    +0.000 C 
ATOM     78  F12 UNL A   1      46.483  29.314  40.333  1.00  0.00    +0.000 F 
ATOM     79  C59 UNL A   1      45.624  27.114  40.325  1.00  0.00    +0.000 C 
ATOM     80  F13 UNL A   1      45.399  27.181  41.645  1.00  0.00    +0.000 F 
ATOM     81  C60 UNL A   1      45.322  25.955  39.626  1.00  0.00    +0.000 C 
ATOM     82  F14 UNL A   1      44.787  24.907  40.267  1.00  0.00    +0.000 F 
ATOM     83  C61 UNL A   1      45.575  25.879  38.258  1.00  0.00    +0.000 C 
ATOM     84  F15 UNL A   1      45.283  24.742  37.609  1.00  0.00    +0.000 F 
ENDBRANCH   73   74
TORSDOF 34
ENDMDL
