MODEL 1
REMARK VINA RESULT:     -11.6      0.000      0.000
ROOT
ATOM    129  H31 UNL A   1      43.628  30.052  28.429  1.00  0.00    +0.000 H 
ATOM    130  H32 UNL A   1      48.025  32.086  27.108  1.00  0.00    +0.000 H 
ATOM    131  H33 UNL A   1      48.421  29.987  25.699  1.00  0.00    +0.000 H 
ATOM    132  H34 UNL A   1      39.863  25.974  29.096  1.00  0.00    +0.000 H 
ATOM    133  H35 UNL A   1      39.199  28.240  30.089  1.00  0.00    +0.000 H 
ATOM     36  C27 UNL A   1      41.233  30.230  29.866  1.00  0.00    +0.000 C 
ATOM     37  C28 UNL A   1      41.241  28.837  29.300  1.00  0.00    +0.000 C 
ATOM     38  N4  UNL A   1      42.164  28.238  28.590  1.00  0.00    +0.000 N 
ATOM     39  C29 UNL A   1      41.682  26.959  28.345  1.00  0.00    +0.000 C 
ATOM     40  C30 UNL A   1      42.231  25.982  27.585  1.00  0.00    +0.000 C 
ATOM     52  C37 UNL A   1      43.485  26.106  26.889  1.00  0.00    +0.000 C 
ATOM     53  C38 UNL A   1      44.113  25.183  26.071  1.00  0.00    +0.000 C 
ATOM     54  C39 UNL A   1      45.334  25.724  25.655  1.00  0.00    +0.000 C 
ATOM     55  C40 UNL A   1      45.439  27.008  26.165  1.00  0.00    +0.000 C 
ATOM     56  N5  UNL A   1      44.303  27.226  26.929  1.00  0.00    +0.000 N 
ATOM     57  C41 UNL A   1      46.497  27.966  25.969  1.00  0.00    +0.000 C 
ATOM     69  C48 UNL A   1      46.527  29.210  26.506  1.00  0.00    +0.000 C 
ATOM     70  N6  UNL A   1      45.595  29.832  27.327  1.00  0.00    +0.000 N 
ATOM     71  C49 UNL A   1      46.089  31.016  27.600  1.00  0.00    +0.000 C 
ATOM     72  C50 UNL A   1      45.492  32.131  28.417  1.00  0.00    +0.000 C 
ATOM     84  C57 UNL A   1      44.272  31.960  28.961  1.00  0.00    +0.000 C 
ATOM     85  C58 UNL A   1      43.558  32.947  29.763  1.00  0.00    +0.000 C 
ATOM     86  C59 UNL A   1      42.402  32.413  30.186  1.00  0.00    +0.000 C 
ATOM     87  C60 UNL A   1      42.273  31.057  29.649  1.00  0.00    +0.000 C 
ATOM     88  N7  UNL A   1      43.426  30.878  28.926  1.00  0.00    +0.000 N 
ATOM     89  C61 UNL A   1      47.410  31.264  27.006  1.00  0.00    +0.000 C 
ATOM     90  C62 UNL A   1      47.605  30.156  26.308  1.00  0.00    +0.000 C 
ATOM     91  C63 UNL A   1      40.418  26.842  29.039  1.00  0.00    +0.000 C 
ATOM     92  C64 UNL A   1      40.069  27.995  29.588  1.00  0.00    +0.000 C 
ATOM    124  H26 UNL A   1      43.743  24.255  25.810  1.00  0.00    +0.000 H 
ATOM    125  H27 UNL A   1      46.037  25.249  25.069  1.00  0.00    +0.000 H 
ATOM    126  H28 UNL A   1      44.106  28.051  27.428  1.00  0.00    +0.000 H 
ATOM    127  H29 UNL A   1      43.888  33.903  29.971  1.00  0.00    +0.000 H 
ATOM    128  H30 UNL A   1      41.713  32.883  30.795  1.00  0.00    +0.000 H 
ENDROOT
BRANCH   36   35
ATOM     33  C24 UNL A   1      39.014  30.896  32.870  1.00  0.00    +0.000 C 
ATOM     34  C25 UNL A   1      40.115  30.523  32.098  1.00  0.00    +0.000 C 
ATOM     35  C26 UNL A   1      40.097  30.692  30.704  1.00  0.00    +0.000 C 
ATOM    134  H36 UNL A   1      38.961  31.422  29.077  1.00  0.00    +0.000 H 
ATOM    135  H37 UNL A   1      37.150  32.270  30.445  1.00  0.00    +0.000 H 
ATOM    122  H24 UNL A   1      39.018  30.738  33.890  1.00  0.00    +0.000 H 
ATOM    123  H25 UNL A   1      40.949  30.121  32.555  1.00  0.00    +0.000 H 
ATOM     93  C65 UNL A   1      38.989  31.303  30.102  1.00  0.00    +0.000 C 
ATOM     94  C66 UNL A   1      37.925  31.747  30.880  1.00  0.00    +0.000 C 
ATOM     32  C23 UNL A   1      37.908  31.485  32.254  1.00  0.00    +0.000 C 
BRANCH   32   30
ATOM     30  C22 UNL A   1      36.738  31.849  33.082  1.00  0.00    +0.000 C 
ATOM     31  O4  UNL A   1      36.867  32.001  34.292  1.00  0.00    +0.000 O 
BRANCH   30   29
ATOM    121  H23 UNL A   1      35.296  31.390  31.768  1.00  0.00    +0.000 H 
ATOM     29  N3  UNL A   1      35.513  32.021  32.492  1.00  0.00    +0.000 N 
BRANCH   29   28
ATOM     28  C21 UNL A   1      34.490  33.011  32.795  1.00  0.00    +0.000 C 
ATOM    119  H21 UNL A   1      33.579  32.504  33.041  1.00  0.00    +0.000 H 
ATOM    120  H22 UNL A   1      34.832  33.604  33.616  1.00  0.00    +0.000 H 
BRANCH   28   27
ATOM     27  C20 UNL A   1      34.235  33.938  31.611  1.00  0.00    +0.000 C 
ATOM    117  H19 UNL A   1      33.584  33.436  30.925  1.00  0.00    +0.000 H 
ATOM    118  H20 UNL A   1      33.806  34.834  32.007  1.00  0.00    +0.000 H 
BRANCH   27   26
ATOM     26  C19 UNL A   1      35.502  34.349  30.857  1.00  0.00    +0.000 C 
ATOM    115  H17 UNL A   1      35.634  35.404  30.975  1.00  0.00    +0.000 H 
ATOM    116  H18 UNL A   1      36.303  33.774  31.275  1.00  0.00    +0.000 H 
BRANCH   26   25
ATOM     25  C18 UNL A   1      35.487  34.036  29.353  1.00  0.00    +0.000 C 
ATOM    114  H16 UNL A   1      36.423  33.567  29.133  1.00  0.00    +0.000 H 
ATOM    113  H15 UNL A   1      35.340  34.953  28.823  1.00  0.00    +0.000 H 
BRANCH   25   24
ATOM    112  H14 UNL A   1      33.620  33.617  28.444  1.00  0.00    +0.000 H 
ATOM    111  H13 UNL A   1      34.040  32.528  29.778  1.00  0.00    +0.000 H 
ATOM     24  C17 UNL A   1      34.395  33.049  28.915  1.00  0.00    +0.000 C 
BRANCH   24   23
ATOM    109  H11 UNL A   1      34.809  32.430  26.910  1.00  0.00    +0.000 H 
ATOM    110  H12 UNL A   1      35.910  31.780  28.108  1.00  0.00    +0.000 H 
ATOM     23  C16 UNL A   1      34.890  32.020  27.894  1.00  0.00    +0.000 C 
BRANCH   23   22
ATOM    108  H10 UNL A   1      34.351  30.235  28.730  1.00  0.00    +0.000 H 
ATOM     22  N2  UNL A   1      34.094  30.813  27.976  1.00  0.00    +0.000 N 
BRANCH   22   20
ATOM     20  C15 UNL A   1      33.058  30.295  27.233  1.00  0.00    +0.000 C 
ATOM     21  O3  UNL A   1      32.128  31.074  27.005  1.00  0.00    +0.000 O 
BRANCH   20   19
ATOM    136  H38 UNL A   1      34.562  27.087  24.522  1.00  0.00    +0.000 H 
ATOM    106  H8  UNL A   1      31.277  26.007  26.839  1.00  0.00    +0.000 H 
ATOM    107  H9  UNL A   1      31.448  28.138  27.996  1.00  0.00    +0.000 H 
ATOM     16  C11 UNL A   1      32.865  26.388  25.506  1.00  0.00    +0.000 C 
ATOM     17  C12 UNL A   1      31.987  26.696  26.547  1.00  0.00    +0.000 C 
ATOM     18  C13 UNL A   1      32.063  27.929  27.195  1.00  0.00    +0.000 C 
ATOM     19  C14 UNL A   1      32.977  28.870  26.746  1.00  0.00    +0.000 C 
ATOM     95  N8  UNL A   1      33.892  28.561  25.784  1.00  0.00    +0.000 N 
ATOM     96  C67 UNL A   1      33.836  27.332  25.214  1.00  0.00    +0.000 C 
BRANCH   16   15
ATOM    104  H6  UNL A   1      30.764  23.559  22.518  1.00  0.00    +0.000 H 
ATOM      9  C6  UNL A   1      31.672  25.004  23.771  1.00  0.00    +0.000 C 
ATOM     10  C7  UNL A   1      31.513  23.729  23.206  1.00  0.00    +0.000 C 
ATOM     11  C8  UNL A   1      32.367  22.694  23.575  1.00  0.00    +0.000 C 
ATOM     12 Cl1  UNL A   1      32.156  21.118  22.928  1.00  0.00    +0.000 Cl
ATOM     13  C9  UNL A   1      33.377  22.958  24.483  1.00  0.00    +0.000 C 
ATOM     14  N1  UNL A   1      33.570  24.166  25.063  1.00  0.00    +0.000 N 
ATOM     15  C10 UNL A   1      32.708  25.160  24.724  1.00  0.00    +0.000 C 
ATOM    105  H7  UNL A   1      34.021  22.191  24.732  1.00  0.00    +0.000 H 
BRANCH    9    8
ATOM     97  C68 UNL A   1      29.446  26.154  23.885  1.00  0.00    +0.000 C 
ATOM     98  C69 UNL A   1      28.622  27.256  23.635  1.00  0.00    +0.000 C 
ATOM      5  C2  UNL A   1      29.112  28.326  22.885  1.00  0.00    +0.000 C 
ATOM    102  H4  UNL A   1      30.768  29.097  21.824  1.00  0.00    +0.000 H 
ATOM      6  C3  UNL A   1      30.409  28.301  22.375  1.00  0.00    +0.000 C 
ATOM      7  C4  UNL A   1      31.220  27.189  22.616  1.00  0.00    +0.000 C 
ATOM    103  H5  UNL A   1      32.168  27.157  22.212  1.00  0.00    +0.000 H 
ATOM    138  H40 UNL A   1      27.658  27.277  24.001  1.00  0.00    +0.000 H 
ATOM      8  C5  UNL A   1      30.765  26.110  23.400  1.00  0.00    +0.000 C 
ATOM    137  H39 UNL A   1      29.081  25.361  24.436  1.00  0.00    +0.000 H 
BRANCH    5    2
ATOM      2  S1  UNL A   1      28.106  29.768  22.626  1.00  0.00    +0.000 S 
ATOM      3  O1  UNL A   1      26.838  29.524  23.291  1.00  0.00    +0.000 O 
ATOM      4  O2  UNL A   1      28.152  30.087  21.214  1.00  0.00    +0.000 O 
BRANCH    2    1
ATOM      1  C1  UNL A   1      28.971  31.043  23.505  1.00  0.00    +0.000 C 
ATOM     99  H1  UNL A   1      29.018  31.924  22.901  1.00  0.00    +0.000 H 
ATOM    100  H2  UNL A   1      29.962  30.711  23.732  1.00  0.00    +0.000 H 
ATOM    101  H3  UNL A   1      28.452  31.263  24.416  1.00  0.00    +0.000 H 
ENDBRANCH    2    1
ENDBRANCH    5    2
ENDBRANCH    9    8
ENDBRANCH   16   15
ENDBRANCH   20   19
ENDBRANCH   22   20
ENDBRANCH   23   22
ENDBRANCH   24   23
ENDBRANCH   25   24
ENDBRANCH   26   25
ENDBRANCH   27   26
ENDBRANCH   28   27
ENDBRANCH   29   28
ENDBRANCH   30   29
ENDBRANCH   32   30
ENDBRANCH   36   35
BRANCH   40   41
ATOM     41  C31 UNL A   1      41.471  24.693  27.446  1.00  0.00    +0.000 C 
ATOM     42  C32 UNL A   1      40.317  24.607  26.651  1.00  0.00    +0.000 C 
ATOM     43  F1  UNL A   1      39.827  25.702  26.052  1.00  0.00    +0.000 F 
ATOM     44  C33 UNL A   1      39.645  23.398  26.492  1.00  0.00    +0.000 C 
ATOM     45  F2  UNL A   1      38.524  23.349  25.759  1.00  0.00    +0.000 F 
ATOM     46  C34 UNL A   1      40.131  22.247  27.093  1.00  0.00    +0.000 C 
ATOM     47  F3  UNL A   1      39.493  21.081  26.924  1.00  0.00    +0.000 F 
ATOM     48  C35 UNL A   1      41.276  22.305  27.872  1.00  0.00    +0.000 C 
ATOM     49  F4  UNL A   1      41.756  21.191  28.441  1.00  0.00    +0.000 F 
ATOM     50  C36 UNL A   1      41.933  23.520  28.060  1.00  0.00    +0.000 C 
ATOM     51  F5  UNL A   1      43.034  23.544  28.827  1.00  0.00    +0.000 F 
ENDBRANCH   40   41
BRANCH   57   58
ATOM     65  C46 UNL A   1      48.612  27.400  22.856  1.00  0.00    +0.000 C 
ATOM     66  F9  UNL A   1      48.511  27.591  21.533  1.00  0.00    +0.000 F 
ATOM     67  C47 UNL A   1      47.572  27.786  23.696  1.00  0.00    +0.000 C 
ATOM     68  F10 UNL A   1      46.487  28.360  23.154  1.00  0.00    +0.000 F 
ATOM     58  C42 UNL A   1      47.643  27.572  25.081  1.00  0.00    +0.000 C 
ATOM     59  C43 UNL A   1      48.797  26.960  25.592  1.00  0.00    +0.000 C 
ATOM     60  F6  UNL A   1      48.922  26.747  26.911  1.00  0.00    +0.000 F 
ATOM     61  C44 UNL A   1      49.852  26.609  24.754  1.00  0.00    +0.000 C 
ATOM     62  F7  UNL A   1      50.969  26.081  25.272  1.00  0.00    +0.000 F 
ATOM     63  C45 UNL A   1      49.755  26.822  23.387  1.00  0.00    +0.000 C 
ATOM     64  F8  UNL A   1      50.770  26.478  22.580  1.00  0.00    +0.000 F 
ENDBRANCH   57   58
BRANCH   72   73
ATOM     73  C51 UNL A   1      46.234  33.405  28.620  1.00  0.00    +0.000 C 
ATOM     74  C52 UNL A   1      47.090  33.578  29.717  1.00  0.00    +0.000 C 
ATOM     75  F11 UNL A   1      47.266  32.579  30.594  1.00  0.00    +0.000 F 
ATOM     76  C53 UNL A   1      47.721  34.798  29.953  1.00  0.00    +0.000 C 
ATOM     77  F12 UNL A   1      48.475  34.957  31.049  1.00  0.00    +0.000 F 
ATOM     78  C54 UNL A   1      47.545  35.855  29.074  1.00  0.00    +0.000 C 
ATOM     79  F13 UNL A   1      48.146  37.030  29.305  1.00  0.00    +0.000 F 
ATOM     80  C55 UNL A   1      46.732  35.695  27.961  1.00  0.00    +0.000 C 
ATOM     81  F14 UNL A   1      46.572  36.709  27.099  1.00  0.00    +0.000 F 
ATOM     82  C56 UNL A   1      46.072  34.489  27.745  1.00  0.00    +0.000 C 
ATOM     83  F15 UNL A   1      45.271  34.376  26.675  1.00  0.00    +0.000 F 
ENDBRANCH   72   73
TORSDOF 19
ENDMDL
MODEL 2
REMARK VINA RESULT:     -10.8     36.846     41.654
ROOT
ATOM    129  H31 UNL A   1      14.473  51.523   3.472  1.00  0.00    +0.000 H 
ATOM    130  H32 UNL A   1      13.582  46.711   2.347  1.00  0.00    +0.000 H 
ATOM    131  H33 UNL A   1      15.338  46.956   0.502  1.00  0.00    +0.000 H 
ATOM    132  H34 UNL A   1      16.349  56.720   2.627  1.00  0.00    +0.000 H 
ATOM    133  H35 UNL A   1      15.005  56.386   4.781  1.00  0.00    +0.000 H 
ATOM     36  C27 UNL A   1      13.933  53.757   5.069  1.00  0.00    +0.000 C 
ATOM     37  C28 UNL A   1      14.852  54.265   3.993  1.00  0.00    +0.000 C 
ATOM     38  N4  UNL A   1      15.359  53.625   2.968  1.00  0.00    +0.000 N 
ATOM     39  C29 UNL A   1      16.120  54.560   2.278  1.00  0.00    +0.000 C 
ATOM     40  C30 UNL A   1      16.910  54.370   1.195  1.00  0.00    +0.000 C 
ATOM     52  C37 UNL A   1      17.078  53.105   0.527  1.00  0.00    +0.000 C 
ATOM     53  C38 UNL A   1      17.876  52.804  -0.562  1.00  0.00    +0.000 C 
ATOM     54  C39 UNL A   1      17.679  51.459  -0.892  1.00  0.00    +0.000 C 
ATOM     55  C40 UNL A   1      16.805  50.907   0.029  1.00  0.00    +0.000 C 
ATOM     56  N5  UNL A   1      16.434  51.930   0.888  1.00  0.00    +0.000 N 
ATOM     57  C41 UNL A   1      16.341  49.546   0.120  1.00  0.00    +0.000 C 
ATOM     69  C48 UNL A   1      15.479  49.081   1.057  1.00  0.00    +0.000 C 
ATOM     70  N6  UNL A   1      14.870  49.763   2.102  1.00  0.00    +0.000 N 
ATOM     71  C49 UNL A   1      14.107  48.886   2.709  1.00  0.00    +0.000 C 
ATOM     72  C50 UNL A   1      13.242  49.058   3.929  1.00  0.00    +0.000 C 
ATOM     84  C57 UNL A   1      13.213  50.257   4.544  1.00  0.00    +0.000 C 
ATOM     85  C58 UNL A   1      12.438  50.576   5.737  1.00  0.00    +0.000 C 
ATOM     86  C59 UNL A   1      12.604  51.875   6.031  1.00  0.00    +0.000 C 
ATOM     87  C60 UNL A   1      13.533  52.471   5.069  1.00  0.00    +0.000 C 
ATOM     88  N7  UNL A   1      13.849  51.433   4.229  1.00  0.00    +0.000 N 
ATOM     89  C61 UNL A   1      14.124  47.551   2.093  1.00  0.00    +0.000 C 
ATOM     90  C62 UNL A   1      15.015  47.712   1.126  1.00  0.00    +0.000 C 
ATOM     91  C63 UNL A   1      15.956  55.826   2.958  1.00  0.00    +0.000 C 
ATOM     92  C64 UNL A   1      15.237  55.684   4.061  1.00  0.00    +0.000 C 
ATOM    124  H26 UNL A   1      18.510  53.459  -1.048  1.00  0.00    +0.000 H 
ATOM    125  H27 UNL A   1      18.112  50.963  -1.686  1.00  0.00    +0.000 H 
ATOM    126  H28 UNL A   1      15.807  51.838   1.641  1.00  0.00    +0.000 H 
ATOM    127  H29 UNL A   1      11.856  49.911   6.270  1.00  0.00    +0.000 H 
ATOM    128  H30 UNL A   1      12.149  52.374   6.812  1.00  0.00    +0.000 H 
ENDROOT
BRANCH   36   35
ATOM     33  C24 UNL A   1      11.761  56.266   6.909  1.00  0.00    +0.000 C 
ATOM     34  C25 UNL A   1      12.198  55.348   5.953  1.00  0.00    +0.000 C 
ATOM     35  C26 UNL A   1      13.423  54.679   6.115  1.00  0.00    +0.000 C 
ATOM    134  H36 UNL A   1      15.076  54.413   7.406  1.00  0.00    +0.000 H 
ATOM    135  H37 UNL A   1      14.206  55.836   9.164  1.00  0.00    +0.000 H 
ATOM    122  H24 UNL A   1      10.878  56.780   6.769  1.00  0.00    +0.000 H 
ATOM    123  H25 UNL A   1      11.617  55.158   5.121  1.00  0.00    +0.000 H 
ATOM     93  C65 UNL A   1      14.170  54.891   7.282  1.00  0.00    +0.000 C 
ATOM     94  C66 UNL A   1      13.696  55.746   8.272  1.00  0.00    +0.000 C 
ATOM     32  C23 UNL A   1      12.526  56.482   8.057  1.00  0.00    +0.000 C 
BRANCH   32   30
ATOM     30  C22 UNL A   1      12.063  57.478   9.047  1.00  0.00    +0.000 C 
ATOM     31  O4  UNL A   1      12.363  58.661   8.912  1.00  0.00    +0.000 O 
BRANCH   30   29
ATOM    121  H23 UNL A   1      10.994  57.795  10.712  1.00  0.00    +0.000 H 
ATOM     29  N3  UNL A   1      11.296  57.078  10.110  1.00  0.00    +0.000 N 
BRANCH   29   28
ATOM     28  C21 UNL A   1      10.867  55.734  10.465  1.00  0.00    +0.000 C 
ATOM    119  H21 UNL A   1       9.824  55.755  10.707  1.00  0.00    +0.000 H 
ATOM    120  H22 UNL A   1      11.053  55.092   9.630  1.00  0.00    +0.000 H 
BRANCH   28   27
ATOM     27  C20 UNL A   1      11.641  55.193  11.663  1.00  0.00    +0.000 C 
ATOM    117  H19 UNL A   1      12.195  55.999  12.097  1.00  0.00    +0.000 H 
ATOM    118  H20 UNL A   1      10.919  54.779  12.336  1.00  0.00    +0.000 H 
BRANCH   27   26
ATOM     26  C19 UNL A   1      12.620  54.068  11.317  1.00  0.00    +0.000 C 
ATOM    115  H17 UNL A   1      12.144  53.134  11.529  1.00  0.00    +0.000 H 
ATOM    116  H18 UNL A   1      12.867  54.191  10.283  1.00  0.00    +0.000 H 
BRANCH   26   25
ATOM     25  C18 UNL A   1      13.949  54.112  12.086  1.00  0.00    +0.000 C 
ATOM    114  H16 UNL A   1      13.911  54.984  12.704  1.00  0.00    +0.000 H 
ATOM    113  H15 UNL A   1      14.746  54.133  11.372  1.00  0.00    +0.000 H 
BRANCH   25   24
ATOM    112  H14 UNL A   1      13.468  52.168  12.778  1.00  0.00    +0.000 H 
ATOM    111  H13 UNL A   1      14.072  53.260  14.037  1.00  0.00    +0.000 H 
ATOM     24  C17 UNL A   1      14.184  52.922  13.028  1.00  0.00    +0.000 C 
BRANCH   24   23
ATOM    109  H11 UNL A   1      16.202  52.967  12.322  1.00  0.00    +0.000 H 
ATOM    110  H12 UNL A   1      15.989  52.128  13.846  1.00  0.00    +0.000 H 
ATOM     23  C16 UNL A   1      15.575  52.300  12.875  1.00  0.00    +0.000 C 
BRANCH   23   22
ATOM    108  H10 UNL A   1      15.464  50.262  12.777  1.00  0.00    +0.000 H 
ATOM     22  N2  UNL A   1      15.482  51.037  12.172  1.00  0.00    +0.000 N 
BRANCH   22   20
ATOM     20  C15 UNL A   1      15.414  50.682  10.844  1.00  0.00    +0.000 C 
ATOM     21  O3  UNL A   1      16.407  50.964  10.167  1.00  0.00    +0.000 O 
BRANCH   20   19
ATOM    136  H38 UNL A   1      11.030  50.700  10.014  1.00  0.00    +0.000 H 
ATOM    106  H8  UNL A   1      13.066  47.385   8.536  1.00  0.00    +0.000 H 
ATOM    107  H9  UNL A   1      15.157  48.417   9.222  1.00  0.00    +0.000 H 
ATOM     16  C11 UNL A   1      11.838  48.923   9.292  1.00  0.00    +0.000 C 
ATOM     17  C12 UNL A   1      13.054  48.286   9.037  1.00  0.00    +0.000 C 
ATOM     18  C13 UNL A   1      14.255  48.861   9.454  1.00  0.00    +0.000 C 
ATOM     19  C14 UNL A   1      14.219  50.038  10.186  1.00  0.00    +0.000 C 
ATOM     95  N8  UNL A   1      13.050  50.712  10.380  1.00  0.00    +0.000 N 
ATOM     96  C67 UNL A   1      11.905  50.162   9.908  1.00  0.00    +0.000 C 
BRANCH   16   15
ATOM    104  H6  UNL A   1       8.360  45.971  10.025  1.00  0.00    +0.000 H 
ATOM      9  C6  UNL A   1       9.957  47.354   9.883  1.00  0.00    +0.000 C 
ATOM     10  C7  UNL A   1       8.831  46.659   9.416  1.00  0.00    +0.000 C 
ATOM     11  C8  UNL A   1       8.349  46.897   8.133  1.00  0.00    +0.000 C 
ATOM     12 Cl1  UNL A   1       7.000  46.021   7.532  1.00  0.00    +0.000 Cl
ATOM     13  C9  UNL A   1       8.987  47.843   7.350  1.00  0.00    +0.000 C 
ATOM     14  N1  UNL A   1      10.080  48.534   7.747  1.00  0.00    +0.000 N 
ATOM     15  C10 UNL A   1      10.565  48.267   8.988  1.00  0.00    +0.000 C 
ATOM    105  H7  UNL A   1       8.608  48.031   6.409  1.00  0.00    +0.000 H 
BRANCH    9    8
ATOM     97  C68 UNL A   1      10.028  47.840  12.342  1.00  0.00    +0.000 C 
ATOM     98  C69 UNL A   1      10.439  47.526  13.643  1.00  0.00    +0.000 C 
ATOM      5  C2  UNL A   1      11.327  46.470  13.847  1.00  0.00    +0.000 C 
ATOM    102  H4  UNL A   1      12.469  44.949  12.927  1.00  0.00    +0.000 H 
ATOM      6  C3  UNL A   1      11.816  45.732  12.770  1.00  0.00    +0.000 C 
ATOM      7  C4  UNL A   1      11.413  46.063  11.473  1.00  0.00    +0.000 C 
ATOM    103  H5  UNL A   1      11.799  45.538  10.674  1.00  0.00    +0.000 H 
ATOM    138  H40 UNL A   1      10.089  48.074  14.444  1.00  0.00    +0.000 H 
ATOM      8  C5  UNL A   1      10.490  47.101  11.239  1.00  0.00    +0.000 C 
ATOM    137  H39 UNL A   1       9.375  48.624  12.192  1.00  0.00    +0.000 H 
BRANCH    5    2
ATOM      2  S1  UNL A   1      11.797  46.007  15.498  1.00  0.00    +0.000 S 
ATOM      3  O1  UNL A   1      13.246  45.911  15.513  1.00  0.00    +0.000 O 
ATOM      4  O2  UNL A   1      10.976  44.879  15.888  1.00  0.00    +0.000 O 
BRANCH    2    1
ATOM      1  C1  UNL A   1      11.311  47.404  16.477  1.00  0.00    +0.000 C 
ATOM     99  H1  UNL A   1      10.813  47.064  17.360  1.00  0.00    +0.000 H 
ATOM    100  H2  UNL A   1      10.650  48.024  15.910  1.00  0.00    +0.000 H 
ATOM    101  H3  UNL A   1      12.180  47.966  16.752  1.00  0.00    +0.000 H 
ENDBRANCH    2    1
ENDBRANCH    5    2
ENDBRANCH    9    8
ENDBRANCH   16   15
ENDBRANCH   20   19
ENDBRANCH   22   20
ENDBRANCH   23   22
ENDBRANCH   24   23
ENDBRANCH   25   24
ENDBRANCH   26   25
ENDBRANCH   27   26
ENDBRANCH   28   27
ENDBRANCH   29   28
ENDBRANCH   30   29
ENDBRANCH   32   30
ENDBRANCH   36   35
BRANCH   40   41
ATOM     41  C31 UNL A   1      17.672  55.553   0.669  1.00  0.00    +0.000 C 
ATOM     42  C32 UNL A   1      18.960  55.860   1.137  1.00  0.00    +0.000 C 
ATOM     43  F1  UNL A   1      19.509  55.137   2.124  1.00  0.00    +0.000 F 
ATOM     44  C33 UNL A   1      19.677  56.931   0.612  1.00  0.00    +0.000 C 
ATOM     45  F2  UNL A   1      20.889  57.228   1.102  1.00  0.00    +0.000 F 
ATOM     46  C34 UNL A   1      19.139  57.693  -0.414  1.00  0.00    +0.000 C 
ATOM     47  F3  UNL A   1      19.838  58.713  -0.932  1.00  0.00    +0.000 F 
ATOM     48  C35 UNL A   1      17.874  57.400  -0.902  1.00  0.00    +0.000 C 
ATOM     49  F4  UNL A   1      17.359  58.126  -1.903  1.00  0.00    +0.000 F 
ATOM     50  C36 UNL A   1      17.140  56.349  -0.356  1.00  0.00    +0.000 C 
ATOM     51  F5  UNL A   1      15.916  56.097  -0.844  1.00  0.00    +0.000 F 
ENDBRANCH   40   41
BRANCH   57   58
ATOM     65  C46 UNL A   1      16.615  47.344  -2.972  1.00  0.00    +0.000 C 
ATOM     66  F9  UNL A   1      15.897  47.077  -4.072  1.00  0.00    +0.000 F 
ATOM     67  C47 UNL A   1      16.152  48.279  -2.051  1.00  0.00    +0.000 C 
ATOM     68  F10 UNL A   1      14.994  48.908  -2.299  1.00  0.00    +0.000 F 
ATOM     58  C42 UNL A   1      16.872  48.557  -0.878  1.00  0.00    +0.000 C 
ATOM     59  C43 UNL A   1      18.072  47.864  -0.666  1.00  0.00    +0.000 C 
ATOM     60  F6  UNL A   1      18.806  48.104   0.432  1.00  0.00    +0.000 F 
ATOM     61  C44 UNL A   1      18.551  46.956  -1.607  1.00  0.00    +0.000 C 
ATOM     62  F7  UNL A   1      19.730  46.350  -1.410  1.00  0.00    +0.000 F 
ATOM     63  C45 UNL A   1      17.818  46.692  -2.754  1.00  0.00    +0.000 C 
ATOM     64  F8  UNL A   1      18.278  45.812  -3.656  1.00  0.00    +0.000 F 
ENDBRANCH   57   58
BRANCH   72   73
ATOM     73  C51 UNL A   1      12.432  47.925   4.453  1.00  0.00    +0.000 C 
ATOM     74  C52 UNL A   1      11.186  47.605   3.894  1.00  0.00    +0.000 C 
ATOM     75  F11 UNL A   1      10.715  48.313   2.858  1.00  0.00    +0.000 F 
ATOM     76  C53 UNL A   1      10.391  46.597   4.436  1.00  0.00    +0.000 C 
ATOM     77  F12 UNL A   1       9.174  46.362   3.928  1.00  0.00    +0.000 F 
ATOM     78  C54 UNL A   1      10.844  45.860   5.519  1.00  0.00    +0.000 C 
ATOM     79  F13 UNL A   1      10.075  44.896   6.045  1.00  0.00    +0.000 F 
ATOM     80  C55 UNL A   1      12.089  46.133   6.065  1.00  0.00    +0.000 C 
ATOM     81  F14 UNL A   1      12.538  45.412   7.102  1.00  0.00    +0.000 F 
ATOM     82  C56 UNL A   1      12.868  47.165   5.548  1.00  0.00    +0.000 C 
ATOM     83  F15 UNL A   1      14.055  47.423   6.116  1.00  0.00    +0.000 F 
ENDBRANCH   72   73
TORSDOF 19
ENDMDL
MODEL 3
REMARK VINA RESULT:     -10.7     17.332     24.499
ROOT
ATOM    129  H31 UNL A   1      54.553  20.452  14.009  1.00  0.00    +0.000 H 
ATOM    130  H32 UNL A   1      54.521  22.617  18.539  1.00  0.00    +0.000 H 
ATOM    131  H33 UNL A   1      56.991  21.972  18.717  1.00  0.00    +0.000 H 
ATOM    132  H34 UNL A   1      56.473  17.170   9.911  1.00  0.00    +0.000 H 
ATOM    133  H35 UNL A   1      54.183  18.230   9.472  1.00  0.00    +0.000 H 
ATOM     36  C27 UNL A   1      53.185  19.754  11.669  1.00  0.00    +0.000 C 
ATOM     37  C28 UNL A   1      54.530  19.093  11.542  1.00  0.00    +0.000 C 
ATOM     38  N4  UNL A   1      55.524  19.072  12.393  1.00  0.00    +0.000 N 
ATOM     39  C29 UNL A   1      56.518  18.308  11.794  1.00  0.00    +0.000 C 
ATOM     40  C30 UNL A   1      57.773  18.059  12.238  1.00  0.00    +0.000 C 
ATOM     52  C37 UNL A   1      58.304  18.549  13.483  1.00  0.00    +0.000 C 
ATOM     53  C38 UNL A   1      59.572  18.374  14.008  1.00  0.00    +0.000 C 
ATOM     54  C39 UNL A   1      59.615  18.990  15.263  1.00  0.00    +0.000 C 
ATOM     55  C40 UNL A   1      58.393  19.600  15.493  1.00  0.00    +0.000 C 
ATOM     56  N5  UNL A   1      57.593  19.313  14.398  1.00  0.00    +0.000 N 
ATOM     57  C41 UNL A   1      57.984  20.388  16.627  1.00  0.00    +0.000 C 
ATOM     69  C48 UNL A   1      56.762  20.955  16.779  1.00  0.00    +0.000 C 
ATOM     70  N6  UNL A   1      55.669  20.920  15.924  1.00  0.00    +0.000 N 
ATOM     71  C49 UNL A   1      54.718  21.594  16.527  1.00  0.00    +0.000 C 
ATOM     72  C50 UNL A   1      53.326  21.911  16.049  1.00  0.00    +0.000 C 
ATOM     84  C57 UNL A   1      52.942  21.485  14.830  1.00  0.00    +0.000 C 
ATOM     85  C58 UNL A   1      51.637  21.723  14.224  1.00  0.00    +0.000 C 
ATOM     86  C59 UNL A   1      51.588  21.103  13.034  1.00  0.00    +0.000 C 
ATOM     87  C60 UNL A   1      52.877  20.459  12.774  1.00  0.00    +0.000 C 
ATOM     88  N7  UNL A   1      53.621  20.747  13.891  1.00  0.00    +0.000 N 
ATOM     89  C61 UNL A   1      55.095  22.105  17.851  1.00  0.00    +0.000 C 
ATOM     90  C62 UNL A   1      56.364  21.735  17.932  1.00  0.00    +0.000 C 
ATOM     91  C63 UNL A   1      55.983  17.825  10.540  1.00  0.00    +0.000 C 
ATOM     92  C64 UNL A   1      54.784  18.336  10.306  1.00  0.00    +0.000 C 
ATOM    124  H26 UNL A   1      60.352  17.877  13.552  1.00  0.00    +0.000 H 
ATOM    125  H27 UNL A   1      60.419  18.990  15.909  1.00  0.00    +0.000 H 
ATOM    126  H28 UNL A   1      56.660  19.606  14.285  1.00  0.00    +0.000 H 
ATOM    127  H29 UNL A   1      50.874  22.278  14.642  1.00  0.00    +0.000 H 
ATOM    128  H30 UNL A   1      50.771  21.084  12.403  1.00  0.00    +0.000 H 
ENDROOT
BRANCH   36   35
ATOM     33  C24 UNL A   1      50.530  18.246   9.416  1.00  0.00    +0.000 C 
ATOM     34  C25 UNL A   1      51.432  18.409  10.469  1.00  0.00    +0.000 C 
ATOM     35  C26 UNL A   1      52.169  19.598  10.598  1.00  0.00    +0.000 C 
ATOM    134  H36 UNL A   1      52.481  21.522   9.777  1.00  0.00    +0.000 H 
ATOM    135  H37 UNL A   1      50.755  21.317   8.089  1.00  0.00    +0.000 H 
ATOM    122  H24 UNL A   1      50.018  17.357   9.306  1.00  0.00    +0.000 H 
ATOM    123  H25 UNL A   1      51.559  17.651  11.158  1.00  0.00    +0.000 H 
ATOM     93  C65 UNL A   1      51.938  20.648   9.698  1.00  0.00    +0.000 C 
ATOM     94  C66 UNL A   1      50.981  20.515   8.696  1.00  0.00    +0.000 C 
ATOM     32  C23 UNL A   1      50.325  19.292   8.515  1.00  0.00    +0.000 C 
BRANCH   32   30
ATOM     30  C22 UNL A   1      49.388  19.093   7.390  1.00  0.00    +0.000 C 
ATOM     31  O4  UNL A   1      48.292  19.645   7.400  1.00  0.00    +0.000 O 
BRANCH   30   29
ATOM    121  H23 UNL A   1      49.079  17.635   6.050  1.00  0.00    +0.000 H 
ATOM     29  N3  UNL A   1      49.749  18.297   6.334  1.00  0.00    +0.000 N 
BRANCH   29   28
ATOM     28  C21 UNL A   1      50.992  18.302   5.576  1.00  0.00    +0.000 C 
ATOM    119  H21 UNL A   1      50.763  18.219   4.533  1.00  0.00    +0.000 H 
ATOM    120  H22 UNL A   1      51.506  19.217   5.783  1.00  0.00    +0.000 H 
BRANCH   28   27
ATOM     27  C20 UNL A   1      51.900  17.144   5.975  1.00  0.00    +0.000 C 
ATOM    117  H19 UNL A   1      51.313  16.423   6.504  1.00  0.00    +0.000 H 
ATOM    118  H20 UNL A   1      52.318  16.753   5.071  1.00  0.00    +0.000 H 
BRANCH   27   26
ATOM     26  C19 UNL A   1      53.077  17.553   6.866  1.00  0.00    +0.000 C 
ATOM    115  H17 UNL A   1      52.754  17.511   7.885  1.00  0.00    +0.000 H 
ATOM    116  H18 UNL A   1      53.873  16.873   6.646  1.00  0.00    +0.000 H 
BRANCH   26   25
ATOM     25  C18 UNL A   1      53.628  18.962   6.598  1.00  0.00    +0.000 C 
ATOM    114  H16 UNL A   1      54.176  19.243   7.472  1.00  0.00    +0.000 H 
ATOM    113  H15 UNL A   1      52.802  19.609   6.391  1.00  0.00    +0.000 H 
BRANCH   25   24
ATOM    112  H14 UNL A   1      54.253  19.812   4.760  1.00  0.00    +0.000 H 
ATOM    111  H13 UNL A   1      54.661  18.096   4.945  1.00  0.00    +0.000 H 
ATOM     24  C17 UNL A   1      54.612  19.052   5.422  1.00  0.00    +0.000 C 
BRANCH   24   23
ATOM    109  H11 UNL A   1      56.307  18.890   6.718  1.00  0.00    +0.000 H 
ATOM    110  H12 UNL A   1      56.705  19.253   5.050  1.00  0.00    +0.000 H 
ATOM     23  C16 UNL A   1      56.026  19.454   5.853  1.00  0.00    +0.000 C 
BRANCH   23   22
ATOM    108  H10 UNL A   1      55.222  21.328   5.974  1.00  0.00    +0.000 H 
ATOM     22  N2  UNL A   1      56.070  20.867   6.166  1.00  0.00    +0.000 N 
BRANCH   22   20
ATOM     20  C15 UNL A   1      57.035  21.707   6.672  1.00  0.00    +0.000 C 
ATOM     21  O3  UNL A   1      57.877  22.099   5.859  1.00  0.00    +0.000 O 
BRANCH   20   19
ATOM    136  H38 UNL A   1      55.872  21.066  10.932  1.00  0.00    +0.000 H 
ATOM    106  H8  UNL A   1      58.288  24.391  10.270  1.00  0.00    +0.000 H 
ATOM    107  H9  UNL A   1      58.518  23.706   7.949  1.00  0.00    +0.000 H 
ATOM     16  C11 UNL A   1      56.980  22.824  10.800  1.00  0.00    +0.000 C 
ATOM     17  C12 UNL A   1      57.778  23.563   9.924  1.00  0.00    +0.000 C 
ATOM     18  C13 UNL A   1      57.890  23.191   8.584  1.00  0.00    +0.000 C 
ATOM     19  C14 UNL A   1      57.145  22.118   8.119  1.00  0.00    +0.000 C 
ATOM     95  N8  UNL A   1      56.422  21.339   8.973  1.00  0.00    +0.000 N 
ATOM     96  C67 UNL A   1      56.381  21.687  10.282  1.00  0.00    +0.000 C 
BRANCH   16   15
ATOM    104  H6  UNL A   1      54.894  25.316  14.084  1.00  0.00    +0.000 H 
ATOM      9  C6  UNL A   1      55.674  24.156  12.493  1.00  0.00    +0.000 C 
ATOM     10  C7  UNL A   1      55.641  24.662  13.802  1.00  0.00    +0.000 C 
ATOM     11  C8  UNL A   1      56.617  24.284  14.719  1.00  0.00    +0.000 C 
ATOM     12 Cl1  UNL A   1      56.616  24.930  16.309  1.00  0.00    +0.000 Cl
ATOM     13  C9  UNL A   1      57.592  23.387  14.318  1.00  0.00    +0.000 C 
ATOM     14  N1  UNL A   1      57.675  22.876  13.068  1.00  0.00    +0.000 N 
ATOM     15  C10 UNL A   1      56.739  23.281  12.170  1.00  0.00    +0.000 C 
ATOM    105  H7  UNL A   1      58.297  23.093  15.011  1.00  0.00    +0.000 H 
BRANCH    9    8
ATOM     97  C68 UNL A   1      53.429  23.875  11.412  1.00  0.00    +0.000 C 
ATOM     98  C69 UNL A   1      52.413  24.325  10.562  1.00  0.00    +0.000 C 
ATOM      5  C2  UNL A   1      52.620  25.466   9.787  1.00  0.00    +0.000 C 
ATOM    102  H4  UNL A   1      53.977  27.001   9.271  1.00  0.00    +0.000 H 
ATOM      6  C3  UNL A   1      53.831  26.155   9.843  1.00  0.00    +0.000 C 
ATOM      7  C4  UNL A   1      54.846  25.688  10.683  1.00  0.00    +0.000 C 
ATOM    103  H5  UNL A   1      55.753  26.180  10.701  1.00  0.00    +0.000 H 
ATOM    138  H40 UNL A   1      51.518  23.815  10.507  1.00  0.00    +0.000 H 
ATOM      8  C5  UNL A   1      54.653  24.560  11.504  1.00  0.00    +0.000 C 
ATOM    137  H39 UNL A   1      53.277  23.028  11.981  1.00  0.00    +0.000 H 
BRANCH    5    2
ATOM      2  S1  UNL A   1      51.312  26.098   8.762  1.00  0.00    +0.000 S 
ATOM      3  O1  UNL A   1      50.682  27.179   9.499  1.00  0.00    +0.000 O 
ATOM      4  O2  UNL A   1      50.534  24.968   8.297  1.00  0.00    +0.000 O 
BRANCH    2    1
ATOM      1  C1  UNL A   1      52.168  26.785   7.369  1.00  0.00    +0.000 C 
ATOM     99  H1  UNL A   1      52.454  25.998   6.702  1.00  0.00    +0.000 H 
ATOM    100  H2  UNL A   1      53.042  27.302   7.707  1.00  0.00    +0.000 H 
ATOM    101  H3  UNL A   1      51.524  27.470   6.856  1.00  0.00    +0.000 H 
ENDBRANCH    2    1
ENDBRANCH    5    2
ENDBRANCH    9    8
ENDBRANCH   16   15
ENDBRANCH   20   19
ENDBRANCH   22   20
ENDBRANCH   23   22
ENDBRANCH   24   23
ENDBRANCH   25   24
ENDBRANCH   26   25
ENDBRANCH   27   26
ENDBRANCH   28   27
ENDBRANCH   29   28
ENDBRANCH   30   29
ENDBRANCH   32   30
ENDBRANCH   36   35
BRANCH   40   41
ATOM     41  C31 UNL A   1      58.672  17.231  11.363  1.00  0.00    +0.000 C 
ATOM     42  C32 UNL A   1      59.481  17.823  10.380  1.00  0.00    +0.000 C 
ATOM     43  F1  UNL A   1      59.411  19.142  10.152  1.00  0.00    +0.000 F 
ATOM     44  C33 UNL A   1      60.345  17.054   9.605  1.00  0.00    +0.000 C 
ATOM     45  F2  UNL A   1      61.078  17.636   8.646  1.00  0.00    +0.000 F 
ATOM     46  C34 UNL A   1      60.445  15.688   9.821  1.00  0.00    +0.000 C 
ATOM     47  F3  UNL A   1      61.291  14.952   9.086  1.00  0.00    +0.000 F 
ATOM     48  C35 UNL A   1      59.666  15.084  10.796  1.00  0.00    +0.000 C 
ATOM     49  F4  UNL A   1      59.772  13.767  11.016  1.00  0.00    +0.000 F 
ATOM     50  C36 UNL A   1      58.776  15.845  11.551  1.00  0.00    +0.000 C 
ATOM     51  F5  UNL A   1      58.030  15.230  12.481  1.00  0.00    +0.000 F 
ENDBRANCH   40   41
BRANCH   57   58
ATOM     65  C46 UNL A   1      60.092  19.892  19.757  1.00  0.00    +0.000 C 
ATOM     66  F9  UNL A   1      60.237  18.978  20.727  1.00  0.00    +0.000 F 
ATOM     67  C47 UNL A   1      59.183  19.673  18.727  1.00  0.00    +0.000 C 
ATOM     68  F10 UNL A   1      58.478  18.532  18.722  1.00  0.00    +0.000 F 
ATOM     58  C42 UNL A   1      58.993  20.627  17.715  1.00  0.00    +0.000 C 
ATOM     59  C43 UNL A   1      59.750  21.806  17.774  1.00  0.00    +0.000 C 
ATOM     60  F6  UNL A   1      59.617  22.743  16.823  1.00  0.00    +0.000 F 
ATOM     61  C44 UNL A   1      60.685  22.006  18.786  1.00  0.00    +0.000 C 
ATOM     62  F7  UNL A   1      61.440  23.114  18.789  1.00  0.00    +0.000 F 
ATOM     63  C45 UNL A   1      60.850  21.053  19.780  1.00  0.00    +0.000 C 
ATOM     64  F8  UNL A   1      61.746  21.250  20.757  1.00  0.00    +0.000 F 
ENDBRANCH   57   58
BRANCH   72   73
ATOM     73  C51 UNL A   1      52.386  22.685  16.905  1.00  0.00    +0.000 C 
ATOM     74  C52 UNL A   1      52.281  24.078  16.793  1.00  0.00    +0.000 C 
ATOM     75  F11 UNL A   1      53.021  24.734  15.888  1.00  0.00    +0.000 F 
ATOM     76  C53 UNL A   1      51.463  24.810  17.651  1.00  0.00    +0.000 C 
ATOM     77  F12 UNL A   1      51.438  26.147  17.568  1.00  0.00    +0.000 F 
ATOM     78  C54 UNL A   1      50.700  24.161  18.608  1.00  0.00    +0.000 C 
ATOM     79  F13 UNL A   1      49.919  24.867  19.438  1.00  0.00    +0.000 F 
ATOM     80  C55 UNL A   1      50.759  22.780  18.714  1.00  0.00    +0.000 C 
ATOM     81  F14 UNL A   1      50.010  22.145  19.627  1.00  0.00    +0.000 F 
ATOM     82  C56 UNL A   1      51.604  22.050  17.882  1.00  0.00    +0.000 C 
ATOM     83  F15 UNL A   1      51.660  20.718  18.028  1.00  0.00    +0.000 F 
ENDBRANCH   72   73
TORSDOF 19
ENDMDL
MODEL 4
REMARK VINA RESULT:     -10.6     25.553     33.118
ROOT
ATOM    129  H31 UNL A   1      19.715  20.757   4.071  1.00  0.00    +0.000 H 
ATOM    130  H32 UNL A   1      17.933  23.958   0.637  1.00  0.00    +0.000 H 
ATOM    131  H33 UNL A   1      15.613  23.512   1.620  1.00  0.00    +0.000 H 
ATOM    132  H34 UNL A   1      19.475  16.683   7.891  1.00  0.00    +0.000 H 
ATOM    133  H35 UNL A   1      21.836  17.478   7.295  1.00  0.00    +0.000 H 
ATOM     36  C27 UNL A   1      21.898  19.435   5.219  1.00  0.00    +0.000 C 
ATOM     37  C28 UNL A   1      20.690  18.838   5.886  1.00  0.00    +0.000 C 
ATOM     38  N4  UNL A   1      19.422  19.079   5.670  1.00  0.00    +0.000 N 
ATOM     39  C29 UNL A   1      18.725  18.247   6.537  1.00  0.00    +0.000 C 
ATOM     40  C30 UNL A   1      17.390  18.183   6.753  1.00  0.00    +0.000 C 
ATOM     52  C37 UNL A   1      16.418  18.991   6.064  1.00  0.00    +0.000 C 
ATOM     53  C38 UNL A   1      15.045  19.020   6.232  1.00  0.00    +0.000 C 
ATOM     54  C39 UNL A   1      14.509  19.925   5.310  1.00  0.00    +0.000 C 
ATOM     55  C40 UNL A   1      15.554  20.505   4.609  1.00  0.00    +0.000 C 
ATOM     56  N5  UNL A   1      16.719  19.915   5.074  1.00  0.00    +0.000 N 
ATOM     57  C41 UNL A   1      15.494  21.523   3.592  1.00  0.00    +0.000 C 
ATOM     69  C48 UNL A   1      16.569  22.041   2.949  1.00  0.00    +0.000 C 
ATOM     70  N6  UNL A   1      17.914  21.739   3.109  1.00  0.00    +0.000 N 
ATOM     71  C49 UNL A   1      18.557  22.487   2.243  1.00  0.00    +0.000 C 
ATOM     72  C50 UNL A   1      20.039  22.601   1.999  1.00  0.00    +0.000 C 
ATOM     84  C57 UNL A   1      20.882  21.870   2.752  1.00  0.00    +0.000 C 
ATOM     85  C58 UNL A   1      22.337  21.881   2.645  1.00  0.00    +0.000 C 
ATOM     86  C59 UNL A   1      22.845  20.988   3.508  1.00  0.00    +0.000 C 
ATOM     87  C60 UNL A   1      21.752  20.371   4.262  1.00  0.00    +0.000 C 
ATOM     88  N7  UNL A   1      20.624  20.963   3.751  1.00  0.00    +0.000 N 
ATOM     89  C61 UNL A   1      17.683  23.326   1.413  1.00  0.00    +0.000 C 
ATOM     90  C62 UNL A   1      16.489  23.056   1.919  1.00  0.00    +0.000 C 
ATOM     91  C63 UNL A   1      19.706  17.445   7.234  1.00  0.00    +0.000 C 
ATOM     92  C64 UNL A   1      20.937  17.817   6.917  1.00  0.00    +0.000 C 
ATOM    124  H26 UNL A   1      14.507  18.469   6.920  1.00  0.00    +0.000 H 
ATOM    125  H27 UNL A   1      13.507  20.126   5.174  1.00  0.00    +0.000 H 
ATOM    126  H28 UNL A   1      17.626  20.120   4.750  1.00  0.00    +0.000 H 
ATOM    127  H29 UNL A   1      22.887  22.479   2.009  1.00  0.00    +0.000 H 
ATOM    128  H30 UNL A   1      23.848  20.770   3.623  1.00  0.00    +0.000 H 
ENDROOT
BRANCH   36   35
ATOM     33  C24 UNL A   1      25.292  19.182   6.895  1.00  0.00    +0.000 C 
ATOM     34  C25 UNL A   1      23.985  19.583   6.612  1.00  0.00    +0.000 C 
ATOM     35  C26 UNL A   1      23.261  18.967   5.578  1.00  0.00    +0.000 C 
ATOM    134  H36 UNL A   1      23.318  17.444   4.111  1.00  0.00    +0.000 H 
ATOM    135  H37 UNL A   1      25.499  16.608   4.757  1.00  0.00    +0.000 H 
ATOM    122  H24 UNL A   1      25.833  19.662   7.632  1.00  0.00    +0.000 H 
ATOM    123  H25 UNL A   1      23.549  20.337   7.166  1.00  0.00    +0.000 H 
ATOM     93  C65 UNL A   1      23.838  17.898   4.879  1.00  0.00    +0.000 C 
ATOM     94  C66 UNL A   1      25.111  17.446   5.216  1.00  0.00    +0.000 C 
ATOM     32  C23 UNL A   1      25.862  18.130   6.178  1.00  0.00    +0.000 C 
BRANCH   32   30
ATOM     30  C22 UNL A   1      27.257  17.737   6.471  1.00  0.00    +0.000 C 
ATOM     31  O4  UNL A   1      27.719  16.710   5.984  1.00  0.00    +0.000 O 
BRANCH   30   29
ATOM    121  H23 UNL A   1      27.986  19.492   7.106  1.00  0.00    +0.000 H 
ATOM     29  N3  UNL A   1      28.031  18.525   7.282  1.00  0.00    +0.000 N 
BRANCH   29   28
ATOM     28  C21 UNL A   1      28.911  18.121   8.368  1.00  0.00    +0.000 C 
ATOM    119  H21 UNL A   1      29.140  17.081   8.262  1.00  0.00    +0.000 H 
ATOM    120  H22 UNL A   1      29.799  18.716   8.317  1.00  0.00    +0.000 H 
BRANCH   28   27
ATOM     27  C20 UNL A   1      28.265  18.347   9.731  1.00  0.00    +0.000 C 
ATOM    117  H19 UNL A   1      27.473  17.638   9.849  1.00  0.00    +0.000 H 
ATOM    118  H20 UNL A   1      29.036  18.230  10.463  1.00  0.00    +0.000 H 
BRANCH   27   26
ATOM     26  C19 UNL A   1      27.684  19.751   9.920  1.00  0.00    +0.000 C 
ATOM    115  H17 UNL A   1      28.372  20.456   9.503  1.00  0.00    +0.000 H 
ATOM    116  H18 UNL A   1      26.731  19.752   9.433  1.00  0.00    +0.000 H 
BRANCH   26   25
ATOM     25  C18 UNL A   1      27.421  20.148  11.381  1.00  0.00    +0.000 C 
ATOM    114  H16 UNL A   1      27.671  21.184  11.462  1.00  0.00    +0.000 H 
ATOM    113  H15 UNL A   1      28.017  19.519  12.009  1.00  0.00    +0.000 H 
BRANCH   25   24
ATOM    112  H14 UNL A   1      25.679  20.944  12.287  1.00  0.00    +0.000 H 
ATOM    111  H13 UNL A   1      25.878  19.195  12.505  1.00  0.00    +0.000 H 
ATOM     24  C17 UNL A   1      25.957  20.019  11.827  1.00  0.00    +0.000 C 
BRANCH   24   23
ATOM    109  H11 UNL A   1      24.158  20.445  10.750  1.00  0.00    +0.000 H 
ATOM    110  H12 UNL A   1      25.508  19.965   9.740  1.00  0.00    +0.000 H 
ATOM     23  C16 UNL A   1      24.993  19.782  10.660  1.00  0.00    +0.000 C 
BRANCH   23   22
ATOM    108  H10 UNL A   1      25.198  17.777  10.996  1.00  0.00    +0.000 H 
ATOM     22  N2  UNL A   1      24.521  18.413  10.672  1.00  0.00    +0.000 N 
BRANCH   22   20
ATOM     20  C15 UNL A   1      23.335  17.805  10.331  1.00  0.00    +0.000 C 
ATOM     21  O3  UNL A   1      22.323  18.288  10.847  1.00  0.00    +0.000 O 
BRANCH   20   19
ATOM    136  H38 UNL A   1      20.967  14.282   8.958  1.00  0.00    +0.000 H 
ATOM    106  H8  UNL A   1      24.759  14.591   7.272  1.00  0.00    +0.000 H 
ATOM    107  H9  UNL A   1      25.023  16.745   8.368  1.00  0.00    +0.000 H 
ATOM     16  C11 UNL A   1      22.855  14.195   8.088  1.00  0.00    +0.000 C 
ATOM     17  C12 UNL A   1      24.019  14.944   7.897  1.00  0.00    +0.000 C 
ATOM     18  C13 UNL A   1      24.187  16.168   8.547  1.00  0.00    +0.000 C 
ATOM     19  C14 UNL A   1      23.214  16.597   9.436  1.00  0.00    +0.000 C 
ATOM     95  N8  UNL A   1      22.040  15.919   9.577  1.00  0.00    +0.000 N 
ATOM     96  C67 UNL A   1      21.876  14.765   8.886  1.00  0.00    +0.000 C 
BRANCH   16   15
ATOM    104  H6  UNL A   1      21.127  10.983   5.253  1.00  0.00    +0.000 H 
ATOM      9  C6  UNL A   1      21.909  12.581   6.401  1.00  0.00    +0.000 C 
ATOM     10  C7  UNL A   1      21.724  11.233   6.057  1.00  0.00    +0.000 C 
ATOM     11  C8  UNL A   1      22.345  10.233   6.799  1.00  0.00    +0.000 C 
ATOM     12 Cl1  UNL A   1      22.091   8.579   6.418  1.00  0.00    +0.000 Cl
ATOM     13  C9  UNL A   1      23.159  10.601   7.857  1.00  0.00    +0.000 C 
ATOM     14  N1  UNL A   1      23.365  11.883   8.236  1.00  0.00    +0.000 N 
ATOM     15  C10 UNL A   1      22.724  12.849   7.528  1.00  0.00    +0.000 C 
ATOM    105  H7  UNL A   1      23.635   9.855   8.387  1.00  0.00    +0.000 H 
BRANCH    9    8
ATOM     97  C68 UNL A   1      21.985  14.493   4.781  1.00  0.00    +0.000 C 
ATOM     98  C69 UNL A   1      21.348  15.431   3.960  1.00  0.00    +0.000 C 
ATOM      5  C2  UNL A   1      19.958  15.539   3.991  1.00  0.00    +0.000 C 
ATOM    102  H4  UNL A   1      18.171  14.814   4.854  1.00  0.00    +0.000 H 
ATOM      6  C3  UNL A   1      19.199  14.732   4.838  1.00  0.00    +0.000 C 
ATOM      7  C4  UNL A   1      19.846  13.811   5.667  1.00  0.00    +0.000 C 
ATOM    103  H5  UNL A   1      19.287  13.235   6.316  1.00  0.00    +0.000 H 
ATOM    138  H40 UNL A   1      21.904  16.038   3.338  1.00  0.00    +0.000 H 
ATOM      8  C5  UNL A   1      21.245  13.653   5.631  1.00  0.00    +0.000 C 
ATOM    137  H39 UNL A   1      23.014  14.417   4.761  1.00  0.00    +0.000 H 
BRANCH    5    2
ATOM      2  S1  UNL A   1      19.127  16.668   2.897  1.00  0.00    +0.000 S 
ATOM      3  O1  UNL A   1      20.050  17.759   2.636  1.00  0.00    +0.000 O 
ATOM      4  O2  UNL A   1      17.813  16.926   3.448  1.00  0.00    +0.000 O 
BRANCH    2    1
ATOM      1  C1  UNL A   1      18.922  15.729   1.406  1.00  0.00    +0.000 C 
ATOM     99  H1  UNL A   1      19.865  15.639   0.909  1.00  0.00    +0.000 H 
ATOM    100  H2  UNL A   1      18.226  16.226   0.765  1.00  0.00    +0.000 H 
ATOM    101  H3  UNL A   1      18.553  14.754   1.647  1.00  0.00    +0.000 H 
ENDBRANCH    2    1
ENDBRANCH    5    2
ENDBRANCH    9    8
ENDBRANCH   16   15
ENDBRANCH   20   19
ENDBRANCH   22   20
ENDBRANCH   23   22
ENDBRANCH   24   23
ENDBRANCH   25   24
ENDBRANCH   26   25
ENDBRANCH   27   26
ENDBRANCH   28   27
ENDBRANCH   29   28
ENDBRANCH   30   29
ENDBRANCH   32   30
ENDBRANCH   36   35
BRANCH   40   41
ATOM     41  C31 UNL A   1      16.896  17.218   7.794  1.00  0.00    +0.000 C 
ATOM     42  C32 UNL A   1      16.684  17.620   9.122  1.00  0.00    +0.000 C 
ATOM     43  F1  UNL A   1      16.990  18.867   9.507  1.00  0.00    +0.000 F 
ATOM     44  C33 UNL A   1      16.183  16.731  10.069  1.00  0.00    +0.000 C 
ATOM     45  F2  UNL A   1      16.025  17.127  11.340  1.00  0.00    +0.000 F 
ATOM     46  C34 UNL A   1      15.850  15.436   9.700  1.00  0.00    +0.000 C 
ATOM     47  F3  UNL A   1      15.350  14.587  10.609  1.00  0.00    +0.000 F 
ATOM     48  C35 UNL A   1      16.038  15.021   8.391  1.00  0.00    +0.000 C 
ATOM     49  F4  UNL A   1      15.703  13.775   8.030  1.00  0.00    +0.000 F 
ATOM     50  C36 UNL A   1      16.570  15.898   7.448  1.00  0.00    +0.000 C 
ATOM     51  F5  UNL A   1      16.748  15.463   6.192  1.00  0.00    +0.000 F 
ENDBRANCH   40   41
BRANCH   57   58
ATOM     65  C46 UNL A   1      12.239  22.142   1.719  1.00  0.00    +0.000 C 
ATOM     66  F9  UNL A   1      11.633  21.710   0.604  1.00  0.00    +0.000 F 
ATOM     67  C47 UNL A   1      13.476  21.620   2.083  1.00  0.00    +0.000 C 
ATOM     68  F10 UNL A   1      14.030  20.675   1.308  1.00  0.00    +0.000 F 
ATOM     58  C42 UNL A   1      14.144  22.074   3.231  1.00  0.00    +0.000 C 
ATOM     59  C43 UNL A   1      13.523  23.069   4.000  1.00  0.00    +0.000 C 
ATOM     60  F6  UNL A   1      14.112  23.528   5.115  1.00  0.00    +0.000 F 
ATOM     61  C44 UNL A   1      12.268  23.563   3.653  1.00  0.00    +0.000 C 
ATOM     62  F7  UNL A   1      11.668  24.471   4.436  1.00  0.00    +0.000 F 
ATOM     63  C45 UNL A   1      11.632  23.105   2.509  1.00  0.00    +0.000 C 
ATOM     64  F8  UNL A   1      10.426  23.586   2.174  1.00  0.00    +0.000 F 
ENDBRANCH   57   58
BRANCH   72   73
ATOM     73  C51 UNL A   1      20.566  23.508   0.943  1.00  0.00    +0.000 C 
ATOM     74  C52 UNL A   1      20.985  24.811   1.248  1.00  0.00    +0.000 C 
ATOM     75  F11 UNL A   1      20.931  25.252   2.513  1.00  0.00    +0.000 F 
ATOM     76  C53 UNL A   1      21.401  25.686   0.248  1.00  0.00    +0.000 C 
ATOM     77  F12 UNL A   1      21.726  26.948   0.560  1.00  0.00    +0.000 F 
ATOM     78  C54 UNL A   1      21.450  25.264  -1.071  1.00  0.00    +0.000 C 
ATOM     79  F13 UNL A   1      21.843  26.109  -2.034  1.00  0.00    +0.000 F 
ATOM     80  C55 UNL A   1      21.077  23.968  -1.393  1.00  0.00    +0.000 C 
ATOM     81  F14 UNL A   1      21.138  23.549  -2.665  1.00  0.00    +0.000 F 
ATOM     82  C56 UNL A   1      20.625  23.104  -0.399  1.00  0.00    +0.000 C 
ATOM     83  F15 UNL A   1      20.244  21.865  -0.746  1.00  0.00    +0.000 F 
ENDBRANCH   72   73
TORSDOF 19
ENDMDL
MODEL 5
REMARK VINA RESULT:     -10.5     36.534     41.141
ROOT
ATOM    129  H31 UNL A   1      15.270  52.748   2.654  1.00  0.00    +0.000 H 
ATOM    130  H32 UNL A   1      18.500  53.506  -1.114  1.00  0.00    +0.000 H 
ATOM    131  H33 UNL A   1      18.024  51.097  -1.830  1.00  0.00    +0.000 H 
ATOM    132  H34 UNL A   1      12.149  49.766   6.207  1.00  0.00    +0.000 H 
ATOM    133  H35 UNL A   1      12.193  52.288   6.651  1.00  0.00    +0.000 H 
ATOM     36  C27 UNL A   1      13.936  53.729   4.911  1.00  0.00    +0.000 C 
ATOM     37  C28 UNL A   1      13.587  52.268   4.861  1.00  0.00    +0.000 C 
ATOM     38  N4  UNL A   1      13.995  51.348   4.023  1.00  0.00    +0.000 N 
ATOM     39  C29 UNL A   1      13.390  50.167   4.434  1.00  0.00    +0.000 C 
ATOM     40  C30 UNL A   1      13.430  48.949   3.844  1.00  0.00    +0.000 C 
ATOM     52  C37 UNL A   1      14.167  48.655   2.643  1.00  0.00    +0.000 C 
ATOM     53  C38 UNL A   1      14.249  47.460   1.951  1.00  0.00    +0.000 C 
ATOM     54  C39 UNL A   1      15.120  47.636   0.871  1.00  0.00    +0.000 C 
ATOM     55  C40 UNL A   1      15.534  48.958   0.855  1.00  0.00    +0.000 C 
ATOM     56  N5  UNL A   1      14.950  49.570   1.954  1.00  0.00    +0.000 N 
ATOM     57  C41 UNL A   1      16.396  49.615  -0.093  1.00  0.00    +0.000 C 
ATOM     69  C48 UNL A   1      16.757  50.920  -0.039  1.00  0.00    +0.000 C 
ATOM     70  N6  UNL A   1      16.399  51.890   0.887  1.00  0.00    +0.000 N 
ATOM     71  C49 UNL A   1      17.023  52.985   0.524  1.00  0.00    +0.000 C 
ATOM     72  C50 UNL A   1      16.977  54.358   1.141  1.00  0.00    +0.000 C 
ATOM     84  C57 UNL A   1      16.190  54.564   2.214  1.00  0.00    +0.000 C 
ATOM     85  C58 UNL A   1      16.029  55.834   2.913  1.00  0.00    +0.000 C 
ATOM     86  C59 UNL A   1      15.218  55.653   3.967  1.00  0.00    +0.000 C 
ATOM     87  C60 UNL A   1      14.767  54.261   3.994  1.00  0.00    +0.000 C 
ATOM     88  N7  UNL A   1      15.388  53.692   2.909  1.00  0.00    +0.000 N 
ATOM     89  C61 UNL A   1      17.876  52.821  -0.662  1.00  0.00    +0.000 C 
ATOM     90  C62 UNL A   1      17.635  51.562  -0.995  1.00  0.00    +0.000 C 
ATOM     91  C63 UNL A   1      12.643  50.469   5.635  1.00  0.00    +0.000 C 
ATOM     92  C64 UNL A   1      12.677  51.766   5.904  1.00  0.00    +0.000 C 
ATOM    124  H26 UNL A   1      13.751  46.587   2.190  1.00  0.00    +0.000 H 
ATOM    125  H27 UNL A   1      15.406  46.906   0.201  1.00  0.00    +0.000 H 
ATOM    126  H28 UNL A   1      15.074  50.513   2.208  1.00  0.00    +0.000 H 
ATOM    127  H29 UNL A   1      16.468  56.728   2.642  1.00  0.00    +0.000 H 
ATOM    128  H30 UNL A   1      14.955  56.380   4.651  1.00  0.00    +0.000 H 
ENDROOT
BRANCH   36   35
ATOM     33  C24 UNL A   1      11.693  56.085   6.864  1.00  0.00    +0.000 C 
ATOM     34  C25 UNL A   1      12.154  55.221   5.869  1.00  0.00    +0.000 C 
ATOM     35  C26 UNL A   1      13.403  54.591   5.997  1.00  0.00    +0.000 C 
ATOM    134  H36 UNL A   1      15.075  54.332   7.265  1.00  0.00    +0.000 H 
ATOM    135  H37 UNL A   1      14.170  55.653   9.084  1.00  0.00    +0.000 H 
ATOM    122  H24 UNL A   1      10.792  56.573   6.750  1.00  0.00    +0.000 H 
ATOM    123  H25 UNL A   1      11.574  55.045   5.035  1.00  0.00    +0.000 H 
ATOM     93  C65 UNL A   1      14.152  54.783   7.166  1.00  0.00    +0.000 C 
ATOM     94  C66 UNL A   1      13.656  55.581   8.193  1.00  0.00    +0.000 C 
ATOM     32  C23 UNL A   1      12.459  56.283   8.015  1.00  0.00    +0.000 C 
BRANCH   32   30
ATOM     30  C22 UNL A   1      11.970  57.222   9.046  1.00  0.00    +0.000 C 
ATOM     31  O4  UNL A   1      12.257  58.413   8.976  1.00  0.00    +0.000 O 
BRANCH   30   29
ATOM    121  H23 UNL A   1      10.776  57.451  10.639  1.00  0.00    +0.000 H 
ATOM     29  N3  UNL A   1      11.192  56.760  10.076  1.00  0.00    +0.000 N 
BRANCH   29   28
ATOM     28  C21 UNL A   1      10.899  55.383  10.446  1.00  0.00    +0.000 C 
ATOM    119  H21 UNL A   1       9.857  55.300  10.676  1.00  0.00    +0.000 H 
ATOM    120  H22 UNL A   1      11.161  54.753   9.622  1.00  0.00    +0.000 H 
BRANCH   28   27
ATOM     27  C20 UNL A   1      11.709  54.941  11.660  1.00  0.00    +0.000 C 
ATOM    117  H19 UNL A   1      12.187  55.803  12.077  1.00  0.00    +0.000 H 
ATOM    118  H20 UNL A   1      11.023  54.481  12.339  1.00  0.00    +0.000 H 
BRANCH   27   26
ATOM     26  C19 UNL A   1      12.787  53.900  11.345  1.00  0.00    +0.000 C 
ATOM    115  H17 UNL A   1      12.385  52.930  11.553  1.00  0.00    +0.000 H 
ATOM    116  H18 UNL A   1      13.048  54.037  10.316  1.00  0.00    +0.000 H 
BRANCH   26   25
ATOM     25  C18 UNL A   1      14.089  54.058  12.145  1.00  0.00    +0.000 C 
ATOM    114  H16 UNL A   1      13.952  54.909  12.778  1.00  0.00    +0.000 H 
ATOM    113  H15 UNL A   1      14.894  54.173  11.450  1.00  0.00    +0.000 H 
BRANCH   25   24
ATOM    112  H14 UNL A   1      13.703  52.108  12.878  1.00  0.00    +0.000 H 
ATOM    111  H13 UNL A   1      14.380  53.218  14.084  1.00  0.00    +0.000 H 
ATOM     24  C17 UNL A   1      14.420  52.878  13.071  1.00  0.00    +0.000 C 
BRANCH   24   23
ATOM    109  H11 UNL A   1      16.547  53.048  12.921  1.00  0.00    +0.000 H 
ATOM    110  H12 UNL A   1      15.987  51.497  13.516  1.00  0.00    +0.000 H 
ATOM     23  C16 UNL A   1      15.807  52.283  12.812  1.00  0.00    +0.000 C 
BRANCH   23   22
ATOM    108  H10 UNL A   1      16.024  52.429  10.785  1.00  0.00    +0.000 H 
ATOM     22  N2  UNL A   1      15.875  51.740  11.471  1.00  0.00    +0.000 N 
BRANCH   22   20
ATOM     20  C15 UNL A   1      15.777  50.473  10.944  1.00  0.00    +0.000 C 
ATOM     21  O3  UNL A   1      16.810  49.799  10.986  1.00  0.00    +0.000 O 
BRANCH   20   19
ATOM    136  H38 UNL A   1      11.401  50.775  10.130  1.00  0.00    +0.000 H 
ATOM    106  H8  UNL A   1      13.204  47.314   8.682  1.00  0.00    +0.000 H 
ATOM    107  H9  UNL A   1      15.362  48.212   9.348  1.00  0.00    +0.000 H 
ATOM     16  C11 UNL A   1      12.085  48.939   9.426  1.00  0.00    +0.000 C 
ATOM     17  C12 UNL A   1      13.255  48.220   9.173  1.00  0.00    +0.000 C 
ATOM     18  C13 UNL A   1      14.493  48.718   9.579  1.00  0.00    +0.000 C 
ATOM     19  C14 UNL A   1      14.539  49.903  10.298  1.00  0.00    +0.000 C 
ATOM     95  N8  UNL A   1      13.418  50.656  10.488  1.00  0.00    +0.000 N 
ATOM     96  C67 UNL A   1      12.237  50.178  10.027  1.00  0.00    +0.000 C 
BRANCH   16   15
ATOM    104  H6  UNL A   1       8.391  46.286  10.239  1.00  0.00    +0.000 H 
ATOM      9  C6  UNL A   1      10.087  47.540  10.059  1.00  0.00    +0.000 C 
ATOM     10  C7  UNL A   1       8.917  46.911   9.608  1.00  0.00    +0.000 C 
ATOM     11  C8  UNL A   1       8.465  47.129   8.311  1.00  0.00    +0.000 C 
ATOM     12 Cl1  UNL A   1       7.061  46.330   7.731  1.00  0.00    +0.000 Cl
ATOM     13  C9  UNL A   1       9.179  47.990   7.496  1.00  0.00    +0.000 C 
ATOM     14  N1  UNL A   1      10.317  48.616   7.877  1.00  0.00    +0.000 N 
ATOM     15  C10 UNL A   1      10.769  48.367   9.133  1.00  0.00    +0.000 C 
ATOM    105  H7  UNL A   1       8.824  48.165   6.543  1.00  0.00    +0.000 H 
BRANCH    9    8
ATOM     97  C68 UNL A   1      10.271  48.197  12.472  1.00  0.00    +0.000 C 
ATOM     98  C69 UNL A   1      10.640  47.921  13.793  1.00  0.00    +0.000 C 
ATOM      5  C2  UNL A   1      11.340  46.749  14.081  1.00  0.00    +0.000 C 
ATOM    102  H4  UNL A   1      12.197  44.990  13.284  1.00  0.00    +0.000 H 
ATOM      6  C3  UNL A   1      11.684  45.858  13.066  1.00  0.00    +0.000 C 
ATOM      7  C4  UNL A   1      11.325  46.150  11.747  1.00  0.00    +0.000 C 
ATOM    103  H5  UNL A   1      11.606  45.506  10.991  1.00  0.00    +0.000 H 
ATOM    138  H40 UNL A   1      10.398  48.580  14.549  1.00  0.00    +0.000 H 
ATOM      8  C5  UNL A   1      10.587  47.308  11.431  1.00  0.00    +0.000 C 
ATOM    137  H39 UNL A   1       9.758  49.067  12.260  1.00  0.00    +0.000 H 
BRANCH    5    2
ATOM      2  S1  UNL A   1      11.746  46.343  15.764  1.00  0.00    +0.000 S 
ATOM      3  O1  UNL A   1      11.306  47.457  16.585  1.00  0.00    +0.000 O 
ATOM      4  O2  UNL A   1      13.127  45.904  15.788  1.00  0.00    +0.000 O 
BRANCH    2    1
ATOM      1  C1  UNL A   1      10.719  44.940  16.114  1.00  0.00    +0.000 C 
ATOM     99  H1  UNL A   1      11.332  44.076  16.257  1.00  0.00    +0.000 H 
ATOM    100  H2  UNL A   1      10.052  44.773  15.294  1.00  0.00    +0.000 H 
ATOM    101  H3  UNL A   1      10.152  45.126  17.003  1.00  0.00    +0.000 H 
ENDBRANCH    2    1
ENDBRANCH    5    2
ENDBRANCH    9    8
ENDBRANCH   16   15
ENDBRANCH   20   19
ENDBRANCH   22   20
ENDBRANCH   23   22
ENDBRANCH   24   23
ENDBRANCH   25   24
ENDBRANCH   26   25
ENDBRANCH   27   26
ENDBRANCH   28   27
ENDBRANCH   29   28
ENDBRANCH   30   29
ENDBRANCH   32   30
ENDBRANCH   36   35
BRANCH   40   41
ATOM     41  C31 UNL A   1      12.638  47.839   4.476  1.00  0.00    +0.000 C 
ATOM     42  C32 UNL A   1      13.097  47.177   5.626  1.00  0.00    +0.000 C 
ATOM     43  F1  UNL A   1      14.296  47.478   6.145  1.00  0.00    +0.000 F 
ATOM     44  C33 UNL A   1      12.336  46.182   6.231  1.00  0.00    +0.000 C 
ATOM     45  F2  UNL A   1      12.812  45.537   7.306  1.00  0.00    +0.000 F 
ATOM     46  C34 UNL A   1      11.088  45.853   5.723  1.00  0.00    +0.000 C 
ATOM     47  F3  UNL A   1      10.348  44.907   6.318  1.00  0.00    +0.000 F 
ATOM     48  C35 UNL A   1      10.608  46.503   4.596  1.00  0.00    +0.000 C 
ATOM     49  F4  UNL A   1       9.397  46.197   4.112  1.00  0.00    +0.000 F 
ATOM     50  C36 UNL A   1      11.382  47.477   3.968  1.00  0.00    +0.000 C 
ATOM     51  F5  UNL A   1      10.893  48.081   2.874  1.00  0.00    +0.000 F 
ENDBRANCH   40   41
BRANCH   57   58
ATOM     65  C46 UNL A   1      18.627  47.352  -2.189  1.00  0.00    +0.000 C 
ATOM     66  F9  UNL A   1      19.786  46.693  -2.054  1.00  0.00    +0.000 F 
ATOM     67  C47 UNL A   1      18.115  48.084  -1.121  1.00  0.00    +0.000 C 
ATOM     68  F10 UNL A   1      18.797  48.099   0.034  1.00  0.00    +0.000 F 
ATOM     58  C42 UNL A   1      16.917  48.804  -1.245  1.00  0.00    +0.000 C 
ATOM     59  C43 UNL A   1      16.251  48.760  -2.479  1.00  0.00    +0.000 C 
ATOM     60  F6  UNL A   1      15.094  49.419  -2.646  1.00  0.00    +0.000 F 
ATOM     61  C44 UNL A   1      16.745  47.997  -3.533  1.00  0.00    +0.000 C 
ATOM     62  F7  UNL A   1      16.060  47.923  -4.683  1.00  0.00    +0.000 F 
ATOM     63  C45 UNL A   1      17.936  47.301  -3.390  1.00  0.00    +0.000 C 
ATOM     64  F8  UNL A   1      18.414  46.572  -4.408  1.00  0.00    +0.000 F 
ENDBRANCH   57   58
BRANCH   72   73
ATOM     73  C51 UNL A   1      17.786  55.472   0.576  1.00  0.00    +0.000 C 
ATOM     74  C52 UNL A   1      19.051  55.784   1.092  1.00  0.00    +0.000 C 
ATOM     75  F11 UNL A   1      19.561  55.061   2.100  1.00  0.00    +0.000 F 
ATOM     76  C53 UNL A   1      19.773  56.878   0.619  1.00  0.00    +0.000 C 
ATOM     77  F12 UNL A   1      20.946  57.196   1.180  1.00  0.00    +0.000 F 
ATOM     78  C54 UNL A   1      19.264  57.655  -0.410  1.00  0.00    +0.000 C 
ATOM     79  F13 UNL A   1      19.954  58.712  -0.860  1.00  0.00    +0.000 F 
ATOM     80  C55 UNL A   1      18.030  57.344  -0.962  1.00  0.00    +0.000 C 
ATOM     81  F14 UNL A   1      17.541  58.082  -1.969  1.00  0.00    +0.000 F 
ATOM     82  C56 UNL A   1      17.292  56.273  -0.464  1.00  0.00    +0.000 C 
ATOM     83  F15 UNL A   1      16.090  56.015  -1.001  1.00  0.00    +0.000 F 
ENDBRANCH   72   73
TORSDOF 19
ENDMDL
MODEL 6
REMARK VINA RESULT:     -10.5     19.468     26.416
ROOT
ATOM    129  H31 UNL A   1      48.472  53.282  17.816  1.00  0.00    +0.000 H 
ATOM    130  H32 UNL A   1      49.643  57.859  16.114  1.00  0.00    +0.000 H 
ATOM    131  H33 UNL A   1      51.774  57.690  17.519  1.00  0.00    +0.000 H 
ATOM    132  H34 UNL A   1      48.762  48.847  21.207  1.00  0.00    +0.000 H 
ATOM    133  H35 UNL A   1      46.905  48.750  19.446  1.00  0.00    +0.000 H 
ATOM     36  C27 UNL A   1      46.702  51.115  17.861  1.00  0.00    +0.000 C 
ATOM     37  C28 UNL A   1      47.738  50.789  18.901  1.00  0.00    +0.000 C 
ATOM     38  N4  UNL A   1      48.760  51.502  19.303  1.00  0.00    +0.000 N 
ATOM     39  C29 UNL A   1      49.380  50.751  20.293  1.00  0.00    +0.000 C 
ATOM     40  C30 UNL A   1      50.527  51.018  20.960  1.00  0.00    +0.000 C 
ATOM     52  C37 UNL A   1      51.322  52.202  20.762  1.00  0.00    +0.000 C 
ATOM     53  C38 UNL A   1      52.515  52.552  21.369  1.00  0.00    +0.000 C 
ATOM     54  C39 UNL A   1      52.893  53.813  20.899  1.00  0.00    +0.000 C 
ATOM     55  C40 UNL A   1      51.968  54.223  19.953  1.00  0.00    +0.000 C 
ATOM     56  N5  UNL A   1      51.003  53.230  19.886  1.00  0.00    +0.000 N 
ATOM     57  C41 UNL A   1      51.964  55.430  19.168  1.00  0.00    +0.000 C 
ATOM     69  C48 UNL A   1      51.016  55.760  18.257  1.00  0.00    +0.000 C 
ATOM     70  N6  UNL A   1      49.883  55.053  17.877  1.00  0.00    +0.000 N 
ATOM     71  C49 UNL A   1      49.274  55.800  16.986  1.00  0.00    +0.000 C 
ATOM     72  C50 UNL A   1      48.016  55.519  16.208  1.00  0.00    +0.000 C 
ATOM     84  C57 UNL A   1      47.383  54.344  16.394  1.00  0.00    +0.000 C 
ATOM     85  C58 UNL A   1      46.167  53.922  15.709  1.00  0.00    +0.000 C 
ATOM     86  C59 UNL A   1      45.789  52.726  16.186  1.00  0.00    +0.000 C 
ATOM     87  C60 UNL A   1      46.763  52.277  17.183  1.00  0.00    +0.000 C 
ATOM     88  N7  UNL A   1      47.678  53.298  17.233  1.00  0.00    +0.000 N 
ATOM     89  C61 UNL A   1      49.941  57.083  16.726  1.00  0.00    +0.000 C 
ATOM     90  C62 UNL A   1      51.022  56.985  17.484  1.00  0.00    +0.000 C 
ATOM     91  C63 UNL A   1      48.583  49.559  20.482  1.00  0.00    +0.000 C 
ATOM     92  C64 UNL A   1      47.596  49.502  19.601  1.00  0.00    +0.000 C 
ATOM    124  H26 UNL A   1      53.037  51.980  22.052  1.00  0.00    +0.000 H 
ATOM    125  H27 UNL A   1      53.720  54.349  21.204  1.00  0.00    +0.000 H 
ATOM    126  H28 UNL A   1      50.208  53.250  19.306  1.00  0.00    +0.000 H 
ATOM    127  H29 UNL A   1      45.676  54.456  14.975  1.00  0.00    +0.000 H 
ATOM    128  H30 UNL A   1      44.946  52.205  15.896  1.00  0.00    +0.000 H 
ENDROOT
BRANCH   36   35
ATOM     33  C24 UNL A   1      43.299  49.445  18.016  1.00  0.00    +0.000 C 
ATOM     34  C25 UNL A   1      44.327  50.369  18.210  1.00  0.00    +0.000 C 
ATOM     35  C26 UNL A   1      45.579  50.178  17.603  1.00  0.00    +0.000 C 
ATOM    134  H36 UNL A   1      46.684  48.932  16.300  1.00  0.00    +0.000 H 
ATOM    135  H37 UNL A   1      44.829  47.457  15.792  1.00  0.00    +0.000 H 
ATOM    122  H24 UNL A   1      42.392  49.570  18.493  1.00  0.00    +0.000 H 
ATOM    123  H25 UNL A   1      44.166  51.198  18.803  1.00  0.00    +0.000 H 
ATOM     93  C65 UNL A   1      45.765  49.086  16.744  1.00  0.00    +0.000 C 
ATOM     94  C66 UNL A   1      44.715  48.209  16.487  1.00  0.00    +0.000 C 
ATOM     32  C23 UNL A   1      43.504  48.351  17.174  1.00  0.00    +0.000 C 
BRANCH   32   30
ATOM     30  C22 UNL A   1      42.415  47.366  17.002  1.00  0.00    +0.000 C 
ATOM     31  O4  UNL A   1      41.620  47.488  16.076  1.00  0.00    +0.000 O 
BRANCH   30   29
ATOM    121  H23 UNL A   1      42.880  46.357  18.670  1.00  0.00    +0.000 H 
ATOM     29  N3  UNL A   1      42.301  46.316  17.875  1.00  0.00    +0.000 N 
BRANCH   29   28
ATOM     28  C21 UNL A   1      41.438  45.148  17.784  1.00  0.00    +0.000 C 
ATOM    119  H21 UNL A   1      40.499  45.373  18.247  1.00  0.00    +0.000 H 
ATOM    120  H22 UNL A   1      41.306  44.910  16.749  1.00  0.00    +0.000 H 
BRANCH   28   27
ATOM     27  C20 UNL A   1      42.052  43.936  18.477  1.00  0.00    +0.000 C 
ATOM    117  H19 UNL A   1      41.671  43.053  18.010  1.00  0.00    +0.000 H 
ATOM    118  H20 UNL A   1      43.114  44.030  18.380  1.00  0.00    +0.000 H 
BRANCH   27   26
ATOM     26  C19 UNL A   1      41.749  43.856  19.976  1.00  0.00    +0.000 C 
ATOM    115  H17 UNL A   1      42.174  44.716  20.449  1.00  0.00    +0.000 H 
ATOM    116  H18 UNL A   1      40.684  43.807  20.066  1.00  0.00    +0.000 H 
BRANCH   26   25
ATOM     25  C18 UNL A   1      42.299  42.605  20.678  1.00  0.00    +0.000 C 
ATOM    114  H16 UNL A   1      43.359  42.734  20.738  1.00  0.00    +0.000 H 
ATOM    113  H15 UNL A   1      42.010  41.748  20.106  1.00  0.00    +0.000 H 
BRANCH   25   24
ATOM    112  H14 UNL A   1      42.309  41.554  22.517  1.00  0.00    +0.000 H 
ATOM    111  H13 UNL A   1      40.743  42.272  22.098  1.00  0.00    +0.000 H 
ATOM     24  C17 UNL A   1      41.803  42.408  22.118  1.00  0.00    +0.000 C 
BRANCH   24   23
ATOM    109  H11 UNL A   1      41.692  44.484  22.621  1.00  0.00    +0.000 H 
ATOM    110  H12 UNL A   1      41.719  43.406  24.003  1.00  0.00    +0.000 H 
ATOM     23  C16 UNL A   1      42.124  43.595  23.031  1.00  0.00    +0.000 C 
BRANCH   23   22
ATOM    108  H10 UNL A   1      44.019  42.952  23.445  1.00  0.00    +0.000 H 
ATOM     22  N2  UNL A   1      43.558  43.767  23.141  1.00  0.00    +0.000 N 
BRANCH   22   20
ATOM     20  C15 UNL A   1      44.417  44.817  22.916  1.00  0.00    +0.000 C 
ATOM     21  O3  UNL A   1      44.539  45.613  23.852  1.00  0.00    +0.000 O 
BRANCH   20   19
ATOM    136  H38 UNL A   1      46.436  43.187  19.286  1.00  0.00    +0.000 H 
ATOM    106  H8  UNL A   1      46.616  47.328  19.664  1.00  0.00    +0.000 H 
ATOM    107  H9  UNL A   1      45.144  47.172  21.593  1.00  0.00    +0.000 H 
ATOM     16  C11 UNL A   1      46.729  45.247  19.344  1.00  0.00    +0.000 C 
ATOM     17  C12 UNL A   1      46.314  46.403  20.008  1.00  0.00    +0.000 C 
ATOM     18  C13 UNL A   1      45.493  46.317  21.132  1.00  0.00    +0.000 C 
ATOM     19  C14 UNL A   1      45.152  45.066  21.622  1.00  0.00    +0.000 C 
ATOM     95  N8  UNL A   1      45.484  43.930  20.946  1.00  0.00    +0.000 N 
ATOM     96  C67 UNL A   1      46.229  44.045  19.821  1.00  0.00    +0.000 C 
BRANCH   16   15
ATOM    104  H6  UNL A   1      50.960  45.204  17.488  1.00  0.00    +0.000 H 
ATOM      9  C6  UNL A   1      49.084  45.084  18.462  1.00  0.00    +0.000 C 
ATOM     10  C7  UNL A   1      49.942  45.340  17.382  1.00  0.00    +0.000 C 
ATOM     11  C8  UNL A   1      49.422  45.776  16.167  1.00  0.00    +0.000 C 
ATOM     12 Cl1  UNL A   1      50.464  46.137  14.852  1.00  0.00    +0.000 Cl
ATOM     13  C9  UNL A   1      48.051  45.926  16.049  1.00  0.00    +0.000 C 
ATOM     14  N1  UNL A   1      47.180  45.701  17.060  1.00  0.00    +0.000 N 
ATOM     15  C10 UNL A   1      47.702  45.312  18.252  1.00  0.00    +0.000 C 
ATOM    105  H7  UNL A   1      47.671  46.226  15.137  1.00  0.00    +0.000 H 
BRANCH    9    8
ATOM     97  C68 UNL A   1      49.875  45.554  20.795  1.00  0.00    +0.000 C 
ATOM     98  C69 UNL A   1      50.272  45.121  22.065  1.00  0.00    +0.000 C 
ATOM      5  C2  UNL A   1      50.428  43.757  22.309  1.00  0.00    +0.000 C 
ATOM    102  H4  UNL A   1      50.318  41.814  21.486  1.00  0.00    +0.000 H 
ATOM      6  C3  UNL A   1      50.205  42.823  21.299  1.00  0.00    +0.000 C 
ATOM      7  C4  UNL A   1      49.824  43.265  20.029  1.00  0.00    +0.000 C 
ATOM    103  H5  UNL A   1      49.689  42.577  19.273  1.00  0.00    +0.000 H 
ATOM    138  H40 UNL A   1      50.449  45.807  22.815  1.00  0.00    +0.000 H 
ATOM      8  C5  UNL A   1      49.623  44.634  19.763  1.00  0.00    +0.000 C 
ATOM    137  H39 UNL A   1      49.764  46.564  20.615  1.00  0.00    +0.000 H 
BRANCH    5    2
ATOM      2  S1  UNL A   1      50.854  43.185  23.938  1.00  0.00    +0.000 S 
ATOM      3  O1  UNL A   1      52.284  43.385  24.095  1.00  0.00    +0.000 O 
ATOM      4  O2  UNL A   1      50.266  41.872  24.110  1.00  0.00    +0.000 O 
BRANCH    2    1
ATOM      1  C1  UNL A   1      50.003  44.312  25.011  1.00  0.00    +0.000 C 
ATOM     99  H1  UNL A   1      50.264  44.103  26.027  1.00  0.00    +0.000 H 
ATOM    100  H2  UNL A   1      48.947  44.198  24.883  1.00  0.00    +0.000 H 
ATOM    101  H3  UNL A   1      50.285  45.316  24.770  1.00  0.00    +0.000 H 
ENDBRANCH    2    1
ENDBRANCH    5    2
ENDBRANCH    9    8
ENDBRANCH   16   15
ENDBRANCH   20   19
ENDBRANCH   22   20
ENDBRANCH   23   22
ENDBRANCH   24   23
ENDBRANCH   25   24
ENDBRANCH   26   25
ENDBRANCH   27   26
ENDBRANCH   28   27
ENDBRANCH   29   28
ENDBRANCH   30   29
ENDBRANCH   32   30
ENDBRANCH   36   35
BRANCH   40   41
ATOM     41  C31 UNL A   1      51.008  50.003  21.959  1.00  0.00    +0.000 C 
ATOM     42  C32 UNL A   1      50.547  50.007  23.284  1.00  0.00    +0.000 C 
ATOM     43  F1  UNL A   1      49.715  50.970  23.707  1.00  0.00    +0.000 F 
ATOM     44  C33 UNL A   1      50.962  49.036  24.191  1.00  0.00    +0.000 C 
ATOM     45  F2  UNL A   1      50.539  49.083  25.462  1.00  0.00    +0.000 F 
ATOM     46  C34 UNL A   1      51.816  48.023  23.782  1.00  0.00    +0.000 C 
ATOM     47  F3  UNL A   1      52.201  47.077  24.651  1.00  0.00    +0.000 F 
ATOM     48  C35 UNL A   1      52.274  47.990  22.474  1.00  0.00    +0.000 C 
ATOM     49  F4  UNL A   1      53.087  47.004  22.074  1.00  0.00    +0.000 F 
ATOM     50  C36 UNL A   1      51.886  48.980  21.573  1.00  0.00    +0.000 C 
ATOM     51  F5  UNL A   1      52.354  48.926  20.316  1.00  0.00    +0.000 F 
ENDBRANCH   40   41
BRANCH   57   58
ATOM     65  C46 UNL A   1      54.093  58.293  20.493  1.00  0.00    +0.000 C 
ATOM     66  F9  UNL A   1      54.006  59.251  21.427  1.00  0.00    +0.000 F 
ATOM     67  C47 UNL A   1      53.054  57.381  20.335  1.00  0.00    +0.000 C 
ATOM     68  F10 UNL A   1      51.986  57.476  21.140  1.00  0.00    +0.000 F 
ATOM     58  C42 UNL A   1      53.109  56.386  19.346  1.00  0.00    +0.000 C 
ATOM     59  C43 UNL A   1      54.246  56.339  18.527  1.00  0.00    +0.000 C 
ATOM     60  F6  UNL A   1      54.356  55.397  17.576  1.00  0.00    +0.000 F 
ATOM     61  C44 UNL A   1      55.300  57.229  18.712  1.00  0.00    +0.000 C 
ATOM     62  F7  UNL A   1      56.402  57.126  17.956  1.00  0.00    +0.000 F 
ATOM     63  C45 UNL A   1      55.219  58.209  19.690  1.00  0.00    +0.000 C 
ATOM     64  F8  UNL A   1      56.233  59.070  19.863  1.00  0.00    +0.000 F 
ENDBRANCH   57   58
BRANCH   72   73
ATOM     73  C51 UNL A   1      47.478  56.519  15.247  1.00  0.00    +0.000 C 
ATOM     74  C52 UNL A   1      47.652  56.363  13.864  1.00  0.00    +0.000 C 
ATOM     75  F11 UNL A   1      48.295  55.288  13.387  1.00  0.00    +0.000 F 
ATOM     76  C53 UNL A   1      47.220  57.340  12.969  1.00  0.00    +0.000 C 
ATOM     77  F12 UNL A   1      47.464  57.199  11.660  1.00  0.00    +0.000 F 
ATOM     78  C54 UNL A   1      46.568  58.471  13.434  1.00  0.00    +0.000 C 
ATOM     79  F13 UNL A   1      46.161  59.415  12.574  1.00  0.00    +0.000 F 
ATOM     80  C55 UNL A   1      46.352  58.630  14.795  1.00  0.00    +0.000 C 
ATOM     81  F14 UNL A   1      45.707  59.714  15.248  1.00  0.00    +0.000 F 
ATOM     82  C56 UNL A   1      46.815  57.672  15.693  1.00  0.00    +0.000 C 
ATOM     83  F15 UNL A   1      46.615  57.869  17.004  1.00  0.00    +0.000 F 
ENDBRANCH   72   73
TORSDOF 19
ENDMDL
MODEL 7
REMARK VINA RESULT:     -10.5     36.928     41.133
ROOT
ATOM    129  H31 UNL A   1      15.215  52.867   2.816  1.00  0.00    +0.000 H 
ATOM    130  H32 UNL A   1      18.495  53.652  -0.904  1.00  0.00    +0.000 H 
ATOM    131  H33 UNL A   1      18.055  51.236  -1.623  1.00  0.00    +0.000 H 
ATOM    132  H34 UNL A   1      12.071  49.858   6.326  1.00  0.00    +0.000 H 
ATOM    133  H35 UNL A   1      12.082  52.382   6.766  1.00  0.00    +0.000 H 
ATOM     36  C27 UNL A   1      13.837  53.838   5.050  1.00  0.00    +0.000 C 
ATOM     37  C28 UNL A   1      13.503  52.373   4.997  1.00  0.00    +0.000 C 
ATOM     38  N4  UNL A   1      13.934  51.456   4.168  1.00  0.00    +0.000 N 
ATOM     39  C29 UNL A   1      13.335  50.269   4.572  1.00  0.00    +0.000 C 
ATOM     40  C30 UNL A   1      13.397  49.051   3.985  1.00  0.00    +0.000 C 
ATOM     52  C37 UNL A   1      14.155  48.763   2.796  1.00  0.00    +0.000 C 
ATOM     53  C38 UNL A   1      14.260  47.567   2.108  1.00  0.00    +0.000 C 
ATOM     54  C39 UNL A   1      15.146  47.750   1.041  1.00  0.00    +0.000 C 
ATOM     55  C40 UNL A   1      15.546  49.076   1.029  1.00  0.00    +0.000 C 
ATOM     56  N5  UNL A   1      14.940  49.684   2.117  1.00  0.00    +0.000 N 
ATOM     57  C41 UNL A   1      16.417  49.740   0.093  1.00  0.00    +0.000 C 
ATOM     69  C48 UNL A   1      16.762  51.050   0.149  1.00  0.00    +0.000 C 
ATOM     70  N6  UNL A   1      16.380  52.018   1.068  1.00  0.00    +0.000 N 
ATOM     71  C49 UNL A   1      16.998  53.118   0.712  1.00  0.00    +0.000 C 
ATOM     72  C50 UNL A   1      16.928  54.491   1.326  1.00  0.00    +0.000 C 
ATOM     84  C57 UNL A   1      16.123  54.691   2.387  1.00  0.00    +0.000 C 
ATOM     85  C58 UNL A   1      15.938  55.961   3.080  1.00  0.00    +0.000 C 
ATOM     86  C59 UNL A   1      15.113  55.773   4.122  1.00  0.00    +0.000 C 
ATOM     87  C60 UNL A   1      14.676  54.376   4.144  1.00  0.00    +0.000 C 
ATOM     88  N7  UNL A   1      15.320  53.812   3.071  1.00  0.00    +0.000 N 
ATOM     89  C61 UNL A   1      17.871  52.961  -0.460  1.00  0.00    +0.000 C 
ATOM     90  C62 UNL A   1      17.649  51.698  -0.794  1.00  0.00    +0.000 C 
ATOM     91  C63 UNL A   1      12.567  50.565   5.761  1.00  0.00    +0.000 C 
ATOM     92  C64 UNL A   1      12.584  51.863   6.027  1.00  0.00    +0.000 C 
ATOM    124  H26 UNL A   1      13.768  46.689   2.340  1.00  0.00    +0.000 H 
ATOM    125  H27 UNL A   1      15.451  47.022   0.377  1.00  0.00    +0.000 H 
ATOM    126  H28 UNL A   1      15.049  50.628   2.372  1.00  0.00    +0.000 H 
ATOM    127  H29 UNL A   1      16.371  56.858   2.814  1.00  0.00    +0.000 H 
ATOM    128  H30 UNL A   1      14.831  56.499   4.800  1.00  0.00    +0.000 H 
ENDROOT
BRANCH   36   35
ATOM     33  C24 UNL A   1      13.371  55.581   8.387  1.00  0.00    +0.000 C 
ATOM     34  C25 UNL A   1      13.939  54.829   7.358  1.00  0.00    +0.000 C 
ATOM     35  C26 UNL A   1      13.278  54.696   6.125  1.00  0.00    +0.000 C 
ATOM    134  H36 UNL A   1      11.575  55.283   5.017  1.00  0.00    +0.000 H 
ATOM    135  H37 UNL A   1      10.708  56.765   6.727  1.00  0.00    +0.000 H 
ATOM    122  H24 UNL A   1      13.843  55.648   9.302  1.00  0.00    +0.000 H 
ATOM    123  H25 UNL A   1      14.851  54.369   7.503  1.00  0.00    +0.000 H 
ATOM     93  C65 UNL A   1      12.074  55.382   5.915  1.00  0.00    +0.000 C 
ATOM     94  C66 UNL A   1      11.548  56.197   6.914  1.00  0.00    +0.000 C 
ATOM     32  C23 UNL A   1      12.161  56.244   8.171  1.00  0.00    +0.000 C 
BRANCH   32   30
ATOM     30  C22 UNL A   1      11.558  57.013   9.280  1.00  0.00    +0.000 C 
ATOM     31  O4  UNL A   1      11.829  58.201   9.420  1.00  0.00    +0.000 O 
BRANCH   30   29
ATOM    121  H23 UNL A   1       9.846  56.085   9.754  1.00  0.00    +0.000 H 
ATOM     29  N3  UNL A   1      10.693  56.396  10.146  1.00  0.00    +0.000 N 
BRANCH   29   28
ATOM     28  C21 UNL A   1      10.860  56.141  11.569  1.00  0.00    +0.000 C 
ATOM    119  H21 UNL A   1      11.630  56.782  11.949  1.00  0.00    +0.000 H 
ATOM    120  H22 UNL A   1       9.927  56.333  12.055  1.00  0.00    +0.000 H 
BRANCH   28   27
ATOM     27  C20 UNL A   1      11.248  54.691  11.840  1.00  0.00    +0.000 C 
ATOM    117  H19 UNL A   1      10.816  54.396  12.773  1.00  0.00    +0.000 H 
ATOM    118  H20 UNL A   1      10.885  54.114  11.015  1.00  0.00    +0.000 H 
BRANCH   27   26
ATOM     26  C19 UNL A   1      12.759  54.453  11.914  1.00  0.00    +0.000 C 
ATOM    115  H17 UNL A   1      13.005  53.655  11.246  1.00  0.00    +0.000 H 
ATOM    116  H18 UNL A   1      13.224  55.381  11.652  1.00  0.00    +0.000 H 
BRANCH   26   25
ATOM     25  C18 UNL A   1      13.286  54.087  13.310  1.00  0.00    +0.000 C 
ATOM    114  H16 UNL A   1      12.470  54.228  13.987  1.00  0.00    +0.000 H 
ATOM    113  H15 UNL A   1      14.126  54.713  13.524  1.00  0.00    +0.000 H 
BRANCH   25   24
ATOM    112  H14 UNL A   1      13.158  52.041  12.772  1.00  0.00    +0.000 H 
ATOM    111  H13 UNL A   1      13.559  52.321  14.476  1.00  0.00    +0.000 H 
ATOM     24  C17 UNL A   1      13.728  52.624  13.464  1.00  0.00    +0.000 C 
BRANCH   24   23
ATOM    109  H11 UNL A   1      15.731  53.336  13.220  1.00  0.00    +0.000 H 
ATOM    110  H12 UNL A   1      15.617  51.691  13.815  1.00  0.00    +0.000 H 
ATOM     23  C16 UNL A   1      15.208  52.407  13.132  1.00  0.00    +0.000 C 
BRANCH   23   22
ATOM    108  H10 UNL A   1      15.446  52.620  11.114  1.00  0.00    +0.000 H 
ATOM     22  N2  UNL A   1      15.348  51.904  11.782  1.00  0.00    +0.000 N 
BRANCH   22   20
ATOM     20  C15 UNL A   1      15.373  50.646  11.225  1.00  0.00    +0.000 C 
ATOM     21  O3  UNL A   1      16.435  50.029  11.353  1.00  0.00    +0.000 O 
BRANCH   20   19
ATOM    136  H38 UNL A   1      11.148  50.848   9.806  1.00  0.00    +0.000 H 
ATOM    106  H8  UNL A   1      13.139  47.324   8.839  1.00  0.00    +0.000 H 
ATOM    107  H9  UNL A   1      15.185  48.286   9.734  1.00  0.00    +0.000 H 
ATOM     16  C11 UNL A   1      11.925  48.980   9.319  1.00  0.00    +0.000 C 
ATOM     17  C12 UNL A   1      13.121  48.259   9.274  1.00  0.00    +0.000 C 
ATOM     18  C13 UNL A   1      14.291  48.795   9.812  1.00  0.00    +0.000 C 
ATOM     19  C14 UNL A   1      14.236  50.023  10.454  1.00  0.00    +0.000 C 
ATOM     95  N8  UNL A   1      13.098  50.774  10.442  1.00  0.00    +0.000 N 
ATOM     96  C67 UNL A   1      11.991  50.256   9.856  1.00  0.00    +0.000 C 
BRANCH   16   15
ATOM    104  H6  UNL A   1       8.349  46.071   9.622  1.00  0.00    +0.000 H 
ATOM      9  C6  UNL A   1       9.979  47.421   9.679  1.00  0.00    +0.000 C 
ATOM     10  C7  UNL A   1       8.873  46.785   9.093  1.00  0.00    +0.000 C 
ATOM     11  C8  UNL A   1       8.484  47.117   7.799  1.00  0.00    +0.000 C 
ATOM     12 Cl1  UNL A   1       7.164  46.315   7.053  1.00  0.00    +0.000 Cl
ATOM     13  C9  UNL A   1       9.193  48.096   7.124  1.00  0.00    +0.000 C 
ATOM     14  N1  UNL A   1      10.269  48.734   7.638  1.00  0.00    +0.000 N 
ATOM     15  C10 UNL A   1      10.663  48.376   8.888  1.00  0.00    +0.000 C 
ATOM    105  H7  UNL A   1       8.883  48.354   6.174  1.00  0.00    +0.000 H 
BRANCH    9    8
ATOM     97  C68 UNL A   1      11.329  46.026  11.266  1.00  0.00    +0.000 C 
ATOM     98  C69 UNL A   1      11.833  45.766  12.545  1.00  0.00    +0.000 C 
ATOM      5  C2  UNL A   1      11.415  46.548  13.621  1.00  0.00    +0.000 C 
ATOM    102  H4  UNL A   1      10.189  48.155  14.236  1.00  0.00    +0.000 H 
ATOM      6  C3  UNL A   1      10.492  47.577  13.438  1.00  0.00    +0.000 C 
ATOM      7  C4  UNL A   1       9.981  47.818  12.159  1.00  0.00    +0.000 C 
ATOM    103  H5  UNL A   1       9.275  48.559  12.029  1.00  0.00    +0.000 H 
ATOM    138  H40 UNL A   1      12.509  45.000  12.690  1.00  0.00    +0.000 H 
ATOM      8  C5  UNL A   1      10.413  47.069  11.047  1.00  0.00    +0.000 C 
ATOM    137  H39 UNL A   1      11.636  45.444  10.471  1.00  0.00    +0.000 H 
BRANCH    5    2
ATOM      2  S1  UNL A   1      12.106  46.283  15.238  1.00  0.00    +0.000 S 
ATOM      3  O1  UNL A   1      13.546  46.190  15.072  1.00  0.00    +0.000 O 
ATOM      4  O2  UNL A   1      11.362  45.209  15.863  1.00  0.00    +0.000 O 
BRANCH    2    1
ATOM      1  C1  UNL A   1      11.732  47.786  16.102  1.00  0.00    +0.000 C 
ATOM     99  H1  UNL A   1      11.876  47.640  17.152  1.00  0.00    +0.000 H 
ATOM    100  H2  UNL A   1      10.714  48.060  15.917  1.00  0.00    +0.000 H 
ATOM    101  H3  UNL A   1      12.379  48.566  15.759  1.00  0.00    +0.000 H 
ENDBRANCH    2    1
ENDBRANCH    5    2
ENDBRANCH    9    8
ENDBRANCH   16   15
ENDBRANCH   20   19
ENDBRANCH   22   20
ENDBRANCH   23   22
ENDBRANCH   24   23
ENDBRANCH   25   24
ENDBRANCH   26   25
ENDBRANCH   27   26
ENDBRANCH   28   27
ENDBRANCH   29   28
ENDBRANCH   30   29
ENDBRANCH   32   30
ENDBRANCH   36   35
BRANCH   40   41
ATOM     41  C31 UNL A   1      12.607  47.934   4.607  1.00  0.00    +0.000 C 
ATOM     42  C32 UNL A   1      11.394  47.498   4.051  1.00  0.00    +0.000 C 
ATOM     43  F1  UNL A   1      10.877  48.125   2.984  1.00  0.00    +0.000 F 
ATOM     44  C33 UNL A   1      10.692  46.433   4.607  1.00  0.00    +0.000 C 
ATOM     45  F2  UNL A   1       9.517  46.060   4.081  1.00  0.00    +0.000 F 
ATOM     46  C34 UNL A   1      11.204  45.760   5.705  1.00  0.00    +0.000 C 
ATOM     47  F3  UNL A   1      10.536  44.722   6.229  1.00  0.00    +0.000 F 
ATOM     48  C35 UNL A   1      12.407  46.163   6.264  1.00  0.00    +0.000 C 
ATOM     49  F4  UNL A   1      12.911  45.504   7.316  1.00  0.00    +0.000 F 
ATOM     50  C36 UNL A   1      13.096  47.250   5.729  1.00  0.00    +0.000 C 
ATOM     51  F5  UNL A   1      14.254  47.621   6.298  1.00  0.00    +0.000 F 
ENDBRANCH   40   41
BRANCH   57   58
ATOM     65  C46 UNL A   1      16.789  48.167  -3.353  1.00  0.00    +0.000 C 
ATOM     66  F9  UNL A   1      16.135  48.162  -4.523  1.00  0.00    +0.000 F 
ATOM     67  C47 UNL A   1      16.312  48.933  -2.293  1.00  0.00    +0.000 C 
ATOM     68  F10 UNL A   1      15.204  49.667  -2.477  1.00  0.00    +0.000 F 
ATOM     58  C42 UNL A   1      16.963  48.933  -1.050  1.00  0.00    +0.000 C 
ATOM     59  C43 UNL A   1      18.112  48.140  -0.912  1.00  0.00    +0.000 C 
ATOM     60  F6  UNL A   1      18.781  48.117   0.251  1.00  0.00    +0.000 F 
ATOM     61  C44 UNL A   1      18.608  47.405  -1.985  1.00  0.00    +0.000 C 
ATOM     62  F7  UNL A   1      19.741  46.702  -1.846  1.00  0.00    +0.000 F 
ATOM     63  C45 UNL A   1      17.942  47.413  -3.201  1.00  0.00    +0.000 C 
ATOM     64  F8  UNL A   1      18.417  46.699  -4.231  1.00  0.00    +0.000 F 
ENDBRANCH   57   58
BRANCH   72   73
ATOM     73  C51 UNL A   1      17.734  55.613   0.771  1.00  0.00    +0.000 C 
ATOM     74  C52 UNL A   1      17.236  56.424  -0.259  1.00  0.00    +0.000 C 
ATOM     75  F11 UNL A   1      16.007  56.206  -0.747  1.00  0.00    +0.000 F 
ATOM     76  C53 UNL A   1      18.021  57.421  -0.834  1.00  0.00    +0.000 C 
ATOM     77  F12 UNL A   1      17.546  58.132  -1.865  1.00  0.00    +0.000 F 
ATOM     78  C54 UNL A   1      19.303  57.658  -0.362  1.00  0.00    +0.000 C 
ATOM     79  F13 UNL A   1      20.061  58.611  -0.920  1.00  0.00    +0.000 F 
ATOM     80  C55 UNL A   1      19.803  56.893   0.682  1.00  0.00    +0.000 C 
ATOM     81  F14 UNL A   1      21.036  57.129   1.153  1.00  0.00    +0.000 F 
ATOM     82  C56 UNL A   1      19.033  55.872   1.232  1.00  0.00    +0.000 C 
ATOM     83  F15 UNL A   1      19.557  55.132   2.221  1.00  0.00    +0.000 F 
ENDBRANCH   72   73
TORSDOF 19
ENDMDL
MODEL 8
REMARK VINA RESULT:     -10.5     24.295     28.484
ROOT
ATOM    129  H31 UNL A   1      48.645  12.642  48.833  1.00  0.00    +0.000 H 
ATOM    130  H32 UNL A   1      52.081  16.179  49.784  1.00  0.00    +0.000 H 
ATOM    131  H33 UNL A   1      52.934  14.658  51.656  1.00  0.00    +0.000 H 
ATOM    132  H34 UNL A   1      45.507   8.136  49.875  1.00  0.00    +0.000 H 
ATOM    133  H35 UNL A   1      44.957   9.363  47.696  1.00  0.00    +0.000 H 
ATOM     36  C27 UNL A   1      46.476  11.747  47.307  1.00  0.00    +0.000 C 
ATOM     37  C28 UNL A   1      46.617  10.735  48.410  1.00  0.00    +0.000 C 
ATOM     38  N4  UNL A   1      47.452  10.720  49.418  1.00  0.00    +0.000 N 
ATOM     39  C29 UNL A   1      47.145   9.579  50.147  1.00  0.00    +0.000 C 
ATOM     40  C30 UNL A   1      47.779   9.076  51.233  1.00  0.00    +0.000 C 
ATOM     52  C37 UNL A   1      48.922   9.688  51.859  1.00  0.00    +0.000 C 
ATOM     53  C38 UNL A   1      49.652   9.241  52.947  1.00  0.00    +0.000 C 
ATOM     54  C39 UNL A   1      50.643  10.188  53.228  1.00  0.00    +0.000 C 
ATOM     55  C40 UNL A   1      50.568  11.194  52.279  1.00  0.00    +0.000 C 
ATOM     56  N5  UNL A   1      49.501  10.881  51.451  1.00  0.00    +0.000 N 
ATOM     57  C41 UNL A   1      51.409  12.354  52.136  1.00  0.00    +0.000 C 
ATOM     69  C48 UNL A   1      51.270  13.300  51.175  1.00  0.00    +0.000 C 
ATOM     70  N6  UNL A   1      50.340  13.373  50.147  1.00  0.00    +0.000 N 
ATOM     71  C49 UNL A   1      50.602  14.485  49.502  1.00  0.00    +0.000 C 
ATOM     72  C50 UNL A   1      49.935  15.056  48.278  1.00  0.00    +0.000 C 
ATOM     84  C57 UNL A   1      48.928  14.370  47.705  1.00  0.00    +0.000 C 
ATOM     85  C58 UNL A   1      48.194  14.784  46.514  1.00  0.00    +0.000 C 
ATOM     86  C59 UNL A   1      47.224  13.890  46.266  1.00  0.00    +0.000 C 
ATOM     87  C60 UNL A   1      47.294  12.816  47.258  1.00  0.00    +0.000 C 
ATOM     88  N7  UNL A   1      48.342  13.182  48.067  1.00  0.00    +0.000 N 
ATOM     89  C61 UNL A   1      51.713  15.259  50.072  1.00  0.00    +0.000 C 
ATOM     90  C62 UNL A   1      52.118  14.467  51.054  1.00  0.00    +0.000 C 
ATOM     91  C63 UNL A   1      46.003   8.963  49.509  1.00  0.00    +0.000 C 
ATOM     92  C64 UNL A   1      45.680   9.600  48.394  1.00  0.00    +0.000 C 
ATOM    124  H26 UNL A   1      49.494   8.360  53.461  1.00  0.00    +0.000 H 
ATOM    125  H27 UNL A   1      51.314  10.144  54.009  1.00  0.00    +0.000 H 
ATOM    126  H28 UNL A   1      49.198  11.424  50.688  1.00  0.00    +0.000 H 
ATOM    127  H29 UNL A   1      48.389  15.627  45.952  1.00  0.00    +0.000 H 
ATOM    128  H30 UNL A   1      46.537  13.951  45.498  1.00  0.00    +0.000 H 
ENDROOT
BRANCH   36   35
ATOM     33  C24 UNL A   1      44.601  10.685  44.185  1.00  0.00    +0.000 C 
ATOM     34  C25 UNL A   1      45.582  10.761  45.174  1.00  0.00    +0.000 C 
ATOM     35  C26 UNL A   1      45.407  11.601  46.287  1.00  0.00    +0.000 C 
ATOM    134  H36 UNL A   1      44.071  12.936  47.238  1.00  0.00    +0.000 H 
ATOM    135  H37 UNL A   1      42.282  12.626  45.633  1.00  0.00    +0.000 H 
ATOM    122  H24 UNL A   1      44.749  10.094  43.352  1.00  0.00    +0.000 H 
ATOM    123  H25 UNL A   1      46.442  10.197  45.088  1.00  0.00    +0.000 H 
ATOM     93  C65 UNL A   1      44.206  12.309  46.429  1.00  0.00    +0.000 C 
ATOM     94  C66 UNL A   1      43.194  12.170  45.483  1.00  0.00    +0.000 C 
ATOM     32  C23 UNL A   1      43.417  11.411  44.329  1.00  0.00    +0.000 C 
BRANCH   32   30
ATOM     30  C22 UNL A   1      42.400  11.341  43.260  1.00  0.00    +0.000 C 
ATOM     31  O4  UNL A   1      41.695  10.343  43.149  1.00  0.00    +0.000 O 
BRANCH   30   29
ATOM    121  H23 UNL A   1      42.541  13.270  42.735  1.00  0.00    +0.000 H 
ATOM     29  N3  UNL A   1      42.244  12.395  42.397  1.00  0.00    +0.000 N 
BRANCH   29   28
ATOM     28  C21 UNL A   1      41.697  12.391  41.048  1.00  0.00    +0.000 C 
ATOM    119  H21 UNL A   1      42.448  12.041  40.370  1.00  0.00    +0.000 H 
ATOM    120  H22 UNL A   1      40.842  11.749  41.036  1.00  0.00    +0.000 H 
BRANCH   28   27
ATOM     27  C20 UNL A   1      41.253  13.785  40.616  1.00  0.00    +0.000 C 
ATOM    117  H19 UNL A   1      40.935  13.735  39.596  1.00  0.00    +0.000 H 
ATOM    118  H20 UNL A   1      40.466  14.078  41.280  1.00  0.00    +0.000 H 
BRANCH   27   26
ATOM     26  C19 UNL A   1      42.347  14.850  40.728  1.00  0.00    +0.000 C 
ATOM    115  H17 UNL A   1      41.897  15.756  41.077  1.00  0.00    +0.000 H 
ATOM    116  H18 UNL A   1      43.083  14.458  41.399  1.00  0.00    +0.000 H 
BRANCH   26   25
ATOM     25  C18 UNL A   1      43.082  15.158  39.415  1.00  0.00    +0.000 C 
ATOM    114  H16 UNL A   1      42.415  14.887  38.624  1.00  0.00    +0.000 H 
ATOM    113  H15 UNL A   1      43.995  14.600  39.406  1.00  0.00    +0.000 H 
BRANCH   25   24
ATOM    112  H14 UNL A   1      42.859  17.204  39.915  1.00  0.00    +0.000 H 
ATOM    111  H13 UNL A   1      43.182  16.906  38.197  1.00  0.00    +0.000 H 
ATOM     24  C17 UNL A   1      43.425  16.640  39.204  1.00  0.00    +0.000 C 
BRANCH   24   23
ATOM    109  H11 UNL A   1      45.500  16.124  39.127  1.00  0.00    +0.000 H 
ATOM    110  H12 UNL A   1      45.170  17.830  38.892  1.00  0.00    +0.000 H 
ATOM     23  C16 UNL A   1      44.905  16.954  39.446  1.00  0.00    +0.000 C 
BRANCH   23   22
ATOM    108  H10 UNL A   1      44.393  17.668  41.291  1.00  0.00    +0.000 H 
ATOM     22  N2  UNL A   1      45.139  17.198  40.854  1.00  0.00    +0.000 N 
BRANCH   22   20
ATOM     20  C15 UNL A   1      46.174  16.919  41.716  1.00  0.00    +0.000 C 
ATOM     21  O3  UNL A   1      46.978  16.069  41.323  1.00  0.00    +0.000 O 
BRANCH   20   19
ATOM    136  H38 UNL A   1      44.628  19.605  44.925  1.00  0.00    +0.000 H 
ATOM    106  H8  UNL A   1      48.381  17.975  45.682  1.00  0.00    +0.000 H 
ATOM    107  H9  UNL A   1      48.152  16.626  43.673  1.00  0.00    +0.000 H 
ATOM     16  C11 UNL A   1      46.546  18.984  45.443  1.00  0.00    +0.000 C 
ATOM     17  C12 UNL A   1      47.549  18.083  45.082  1.00  0.00    +0.000 C 
ATOM     18  C13 UNL A   1      47.436  17.328  43.914  1.00  0.00    +0.000 C 
ATOM     19  C14 UNL A   1      46.346  17.534  43.083  1.00  0.00    +0.000 C 
ATOM     95  N8  UNL A   1      45.320  18.352  43.455  1.00  0.00    +0.000 N 
ATOM     96  C67 UNL A   1      45.427  19.026  44.625  1.00  0.00    +0.000 C 
BRANCH   16   15
ATOM    104  H6  UNL A   1      45.829  20.456  49.763  1.00  0.00    +0.000 H 
ATOM      9  C6  UNL A   1      46.155  19.599  47.855  1.00  0.00    +0.000 C 
ATOM     10  C7  UNL A   1      46.234  20.609  48.827  1.00  0.00    +0.000 C 
ATOM     11  C8  UNL A   1      46.859  21.815  48.527  1.00  0.00    +0.000 C 
ATOM     12 Cl1  UNL A   1      46.923  23.076  49.690  1.00  0.00    +0.000 Cl
ATOM     13  C9  UNL A   1      47.414  21.981  47.270  1.00  0.00    +0.000 C 
ATOM     14  N1  UNL A   1      47.359  21.044  46.295  1.00  0.00    +0.000 N 
ATOM     15  C10 UNL A   1      46.715  19.884  46.586  1.00  0.00    +0.000 C 
ATOM    105  H7  UNL A   1      47.897  22.869  47.064  1.00  0.00    +0.000 H 
BRANCH    9    8
ATOM     97  C68 UNL A   1      46.229  17.169  48.473  1.00  0.00    +0.000 C 
ATOM     98  C69 UNL A   1      45.598  15.986  48.872  1.00  0.00    +0.000 C 
ATOM      5  C2  UNL A   1      44.205  15.941  48.947  1.00  0.00    +0.000 C 
ATOM    102  H4  UNL A   1      42.409  17.021  48.679  1.00  0.00    +0.000 H 
ATOM      6  C3  UNL A   1      43.439  17.058  48.618  1.00  0.00    +0.000 C 
ATOM      7  C4  UNL A   1      44.077  18.230  48.204  1.00  0.00    +0.000 C 
ATOM    103  H5  UNL A   1      43.509  19.047  47.931  1.00  0.00    +0.000 H 
ATOM    138  H40 UNL A   1      46.158  15.153  49.108  1.00  0.00    +0.000 H 
ATOM      8  C5  UNL A   1      45.482  18.317  48.154  1.00  0.00    +0.000 C 
ATOM    137  H39 UNL A   1      47.259  17.200  48.413  1.00  0.00    +0.000 H 
BRANCH    5    2
ATOM      2  S1  UNL A   1      43.390  14.473  49.529  1.00  0.00    +0.000 S 
ATOM      3  O1  UNL A   1      44.422  13.472  49.739  1.00  0.00    +0.000 O 
ATOM      4  O2  UNL A   1      42.274  14.211  48.645  1.00  0.00    +0.000 O 
BRANCH    2    1
ATOM      1  C1  UNL A   1      42.740  14.954  51.107  1.00  0.00    +0.000 C 
ATOM     99  H1  UNL A   1      43.377  14.586  51.883  1.00  0.00    +0.000 H 
ATOM    100  H2  UNL A   1      41.758  14.547  51.228  1.00  0.00    +0.000 H 
ATOM    101  H3  UNL A   1      42.692  16.022  51.163  1.00  0.00    +0.000 H 
ENDBRANCH    2    1
ENDBRANCH    5    2
ENDBRANCH    9    8
ENDBRANCH   16   15
ENDBRANCH   20   19
ENDBRANCH   22   20
ENDBRANCH   23   22
ENDBRANCH   24   23
ENDBRANCH   25   24
ENDBRANCH   26   25
ENDBRANCH   27   26
ENDBRANCH   28   27
ENDBRANCH   29   28
ENDBRANCH   30   29
ENDBRANCH   32   30
ENDBRANCH   36   35
BRANCH   40   41
ATOM     41  C31 UNL A   1      47.265   7.786  51.807  1.00  0.00    +0.000 C 
ATOM     42  C32 UNL A   1      47.900   6.563  51.541  1.00  0.00    +0.000 C 
ATOM     43  F1  UNL A   1      48.946   6.513  50.702  1.00  0.00    +0.000 F 
ATOM     44  C33 UNL A   1      47.445   5.378  52.114  1.00  0.00    +0.000 C 
ATOM     45  F2  UNL A   1      48.044   4.218  51.814  1.00  0.00    +0.000 F 
ATOM     46  C34 UNL A   1      46.371   5.398  52.991  1.00  0.00    +0.000 C 
ATOM     47  F3  UNL A   1      45.945   4.259  53.556  1.00  0.00    +0.000 F 
ATOM     48  C35 UNL A   1      45.736   6.596  53.279  1.00  0.00    +0.000 C 
ATOM     49  F4  UNL A   1      44.708   6.619  54.138  1.00  0.00    +0.000 F 
ATOM     50  C36 UNL A   1      46.169   7.778  52.682  1.00  0.00    +0.000 C 
ATOM     51  F5  UNL A   1      45.528   8.920  52.975  1.00  0.00    +0.000 F 
ENDBRANCH   40   41
BRANCH   57   58
ATOM     65  C46 UNL A   1      54.806  11.966  53.807  1.00  0.00    +0.000 C 
ATOM     66  F9  UNL A   1      55.946  11.290  53.604  1.00  0.00    +0.000 F 
ATOM     67  C47 UNL A   1      53.756  11.845  52.902  1.00  0.00    +0.000 C 
ATOM     68  F10 UNL A   1      53.919  11.057  51.829  1.00  0.00    +0.000 F 
ATOM     58  C42 UNL A   1      52.543  12.521  53.107  1.00  0.00    +0.000 C 
ATOM     59  C43 UNL A   1      52.426  13.325  54.250  1.00  0.00    +0.000 C 
ATOM     60  F6  UNL A   1      51.293  14.005  54.485  1.00  0.00    +0.000 F 
ATOM     61  C44 UNL A   1      53.491  13.473  55.134  1.00  0.00    +0.000 C 
ATOM     62  F7  UNL A   1      53.375  14.293  56.188  1.00  0.00    +0.000 F 
ATOM     63  C45 UNL A   1      54.677  12.788  54.916  1.00  0.00    +0.000 C 
ATOM     64  F8  UNL A   1      55.699  12.927  55.772  1.00  0.00    +0.000 F 
ENDBRANCH   57   58
BRANCH   72   73
ATOM     73  C51 UNL A   1      50.381  16.356  47.708  1.00  0.00    +0.000 C 
ATOM     74  C52 UNL A   1      49.911  17.573  48.221  1.00  0.00    +0.000 C 
ATOM     75  F11 UNL A   1      49.060  17.578  49.258  1.00  0.00    +0.000 F 
ATOM     76  C53 UNL A   1      50.263  18.787  47.635  1.00  0.00    +0.000 C 
ATOM     77  F12 UNL A   1      49.741  19.929  48.102  1.00  0.00    +0.000 F 
ATOM     78  C54 UNL A   1      51.127  18.812  46.552  1.00  0.00    +0.000 C 
ATOM     79  F13 UNL A   1      51.460  19.979  45.983  1.00  0.00    +0.000 F 
ATOM     80  C55 UNL A   1      51.635  17.623  46.049  1.00  0.00    +0.000 C 
ATOM     81  F14 UNL A   1      52.484  17.643  45.012  1.00  0.00    +0.000 F 
ATOM     82  C56 UNL A   1      51.254  16.408  46.611  1.00  0.00    +0.000 C 
ATOM     83  F15 UNL A   1      51.740  15.274  46.084  1.00  0.00    +0.000 F 
ENDBRANCH   72   73
TORSDOF 19
ENDMDL
MODEL 9
REMARK VINA RESULT:     -10.4     24.434     32.086
ROOT
ATOM    129  H31 UNL A   1      21.604  39.608  48.667  1.00  0.00    +0.000 H 
ATOM    130  H32 UNL A   1      18.071  42.305  51.003  1.00  0.00    +0.000 H 
ATOM    131  H33 UNL A   1      16.653  40.175  51.033  1.00  0.00    +0.000 H 
ATOM    132  H34 UNL A   1      23.685  35.305  45.768  1.00  0.00    +0.000 H 
ATOM    133  H35 UNL A   1      25.318  37.236  46.172  1.00  0.00    +0.000 H 
ATOM     36  C27 UNL A   1      24.146  39.470  47.506  1.00  0.00    +0.000 C 
ATOM     37  C28 UNL A   1      23.514  38.138  47.211  1.00  0.00    +0.000 C 
ATOM     38  N4  UNL A   1      22.309  37.713  47.497  1.00  0.00    +0.000 N 
ATOM     39  C29 UNL A   1      22.232  36.424  46.984  1.00  0.00    +0.000 C 
ATOM     40  C30 UNL A   1      21.219  35.533  47.095  1.00  0.00    +0.000 C 
ATOM     52  C37 UNL A   1      19.978  35.796  47.776  1.00  0.00    +0.000 C 
ATOM     53  C38 UNL A   1      18.901  34.949  47.966  1.00  0.00    +0.000 C 
ATOM     54  C39 UNL A   1      17.901  35.655  48.643  1.00  0.00    +0.000 C 
ATOM     55  C40 UNL A   1      18.379  36.924  48.927  1.00  0.00    +0.000 C 
ATOM     56  N5  UNL A   1      19.650  37.001  48.380  1.00  0.00    +0.000 N 
ATOM     57  C41 UNL A   1      17.724  37.987  49.645  1.00  0.00    +0.000 C 
ATOM     69  C48 UNL A   1      18.261  39.208  49.883  1.00  0.00    +0.000 C 
ATOM     70  N6  UNL A   1      19.506  39.704  49.517  1.00  0.00    +0.000 N 
ATOM     71  C49 UNL A   1      19.544  40.941  49.954  1.00  0.00    +0.000 C 
ATOM     72  C50 UNL A   1      20.663  41.945  49.871  1.00  0.00    +0.000 C 
ATOM     84  C57 UNL A   1      21.824  41.583  49.292  1.00  0.00    +0.000 C 
ATOM     85  C58 UNL A   1      22.999  42.435  49.148  1.00  0.00    +0.000 C 
ATOM     86  C59 UNL A   1      23.944  41.764  48.470  1.00  0.00    +0.000 C 
ATOM     87  C60 UNL A   1      23.456  40.418  48.169  1.00  0.00    +0.000 C 
ATOM     88  N7  UNL A   1      22.191  40.397  48.703  1.00  0.00    +0.000 N 
ATOM     89  C61 UNL A   1      18.310  41.378  50.620  1.00  0.00    +0.000 C 
ATOM     90  C62 UNL A   1      17.584  40.270  50.597  1.00  0.00    +0.000 C 
ATOM     91  C63 UNL A   1      23.483  36.160  46.309  1.00  0.00    +0.000 C 
ATOM     92  C64 UNL A   1      24.334  37.161  46.477  1.00  0.00    +0.000 C 
ATOM    124  H26 UNL A   1      18.846  33.963  47.663  1.00  0.00    +0.000 H 
ATOM    125  H27 UNL A   1      16.967  35.293  48.888  1.00  0.00    +0.000 H 
ATOM    126  H28 UNL A   1      20.234  37.793  48.414  1.00  0.00    +0.000 H 
ATOM    127  H29 UNL A   1      23.089  43.397  49.509  1.00  0.00    +0.000 H 
ATOM    128  H30 UNL A   1      24.868  42.139  48.204  1.00  0.00    +0.000 H 
ENDROOT
BRANCH   36   35
ATOM     33  C24 UNL A   1      27.033  40.628  45.332  1.00  0.00    +0.000 C 
ATOM     34  C25 UNL A   1      25.736  40.414  45.802  1.00  0.00    +0.000 C 
ATOM     35  C26 UNL A   1      25.521  39.769  47.031  1.00  0.00    +0.000 C 
ATOM    134  H36 UNL A   1      26.478  38.920  48.715  1.00  0.00    +0.000 H 
ATOM    135  H37 UNL A   1      28.721  39.493  47.998  1.00  0.00    +0.000 H 
ATOM    122  H24 UNL A   1      27.185  41.070  44.413  1.00  0.00    +0.000 H 
ATOM    123  H25 UNL A   1      24.929  40.733  45.243  1.00  0.00    +0.000 H 
ATOM     93  C65 UNL A   1      26.624  39.403  47.815  1.00  0.00    +0.000 C 
ATOM     94  C66 UNL A   1      27.916  39.688  47.383  1.00  0.00    +0.000 C 
ATOM     32  C23 UNL A   1      28.122  40.240  46.114  1.00  0.00    +0.000 C 
BRANCH   32   30
ATOM     30  C22 UNL A   1      29.488  40.447  45.590  1.00  0.00    +0.000 C 
ATOM     31  O4  UNL A   1      30.225  41.279  46.110  1.00  0.00    +0.000 O 
BRANCH   30   29
ATOM    121  H23 UNL A   1      29.556  39.947  43.650  1.00  0.00    +0.000 H 
ATOM     29  N3  UNL A   1      29.931  39.703  44.527  1.00  0.00    +0.000 N 
BRANCH   29   28
ATOM     28  C21 UNL A   1      30.883  38.602  44.522  1.00  0.00    +0.000 C 
ATOM    119  H21 UNL A   1      31.183  38.407  43.512  1.00  0.00    +0.000 H 
ATOM    120  H22 UNL A   1      31.722  38.883  45.123  1.00  0.00    +0.000 H 
BRANCH   28   27
ATOM     27  C20 UNL A   1      30.278  37.332  45.110  1.00  0.00    +0.000 C 
ATOM    117  H19 UNL A   1      31.042  36.584  45.152  1.00  0.00    +0.000 H 
ATOM    118  H20 UNL A   1      29.898  37.589  46.077  1.00  0.00    +0.000 H 
BRANCH   27   26
ATOM     26  C19 UNL A   1      29.101  36.771  44.307  1.00  0.00    +0.000 C 
ATOM    115  H17 UNL A   1      29.012  37.340  43.405  1.00  0.00    +0.000 H 
ATOM    116  H18 UNL A   1      29.318  35.737  44.135  1.00  0.00    +0.000 H 
BRANCH   26   25
ATOM     25  C18 UNL A   1      27.748  36.813  45.033  1.00  0.00    +0.000 C 
ATOM    114  H16 UNL A   1      27.060  36.271  44.420  1.00  0.00    +0.000 H 
ATOM    113  H15 UNL A   1      27.475  37.839  45.169  1.00  0.00    +0.000 H 
BRANCH   25   24
ATOM    112  H14 UNL A   1      27.006  36.628  47.009  1.00  0.00    +0.000 H 
ATOM    111  H13 UNL A   1      28.717  36.196  46.830  1.00  0.00    +0.000 H 
ATOM     24  C17 UNL A   1      27.736  36.128  46.408  1.00  0.00    +0.000 C 
BRANCH   24   23
ATOM    109  H11 UNL A   1      26.646  34.508  45.535  1.00  0.00    +0.000 H 
ATOM    110  H12 UNL A   1      28.214  34.060  46.178  1.00  0.00    +0.000 H 
ATOM     23  C16 UNL A   1      27.336  34.652  46.339  1.00  0.00    +0.000 C 
BRANCH   23   22
ATOM    108  H10 UNL A   1      26.108  33.478  47.474  1.00  0.00    +0.000 H 
ATOM     22  N2  UNL A   1      26.715  34.245  47.582  1.00  0.00    +0.000 N 
BRANCH   22   20
ATOM     20  C15 UNL A   1      26.785  34.693  48.881  1.00  0.00    +0.000 C 
ATOM     21  O3  UNL A   1      27.805  34.372  49.499  1.00  0.00    +0.000 O 
BRANCH   20   19
ATOM    136  H38 UNL A   1      25.599  38.252  51.296  1.00  0.00    +0.000 H 
ATOM    106  H8  UNL A   1      22.528  35.536  50.577  1.00  0.00    +0.000 H 
ATOM    107  H9  UNL A   1      24.027  34.293  49.123  1.00  0.00    +0.000 H 
ATOM     16  C11 UNL A   1      23.962  36.975  51.141  1.00  0.00    +0.000 C 
ATOM     17  C12 UNL A   1      23.509  35.837  50.471  1.00  0.00    +0.000 C 
ATOM     18  C13 UNL A   1      24.373  35.104  49.658  1.00  0.00    +0.000 C 
ATOM     19  C14 UNL A   1      25.705  35.481  49.579  1.00  0.00    +0.000 C 
ATOM     95  N8  UNL A   1      26.148  36.630  50.164  1.00  0.00    +0.000 N 
ATOM     96  C67 UNL A   1      25.271  37.358  50.897  1.00  0.00    +0.000 C 
BRANCH   16   15
ATOM    104  H6  UNL A   1      21.530  37.404  55.046  1.00  0.00    +0.000 H 
ATOM      9  C6  UNL A   1      22.776  37.106  53.361  1.00  0.00    +0.000 C 
ATOM     10  C7  UNL A   1      21.818  37.784  54.131  1.00  0.00    +0.000 C 
ATOM     11  C8  UNL A   1      21.258  38.966  53.660  1.00  0.00    +0.000 C 
ATOM     12 Cl1  UNL A   1      20.052  39.781  54.570  1.00  0.00    +0.000 Cl
ATOM     13  C9  UNL A   1      21.682  39.463  52.440  1.00  0.00    +0.000 C 
ATOM     14  N1  UNL A   1      22.595  38.846  51.655  1.00  0.00    +0.000 N 
ATOM     15  C10 UNL A   1      23.109  37.672  52.106  1.00  0.00    +0.000 C 
ATOM    105  H7  UNL A   1      21.279  40.353  52.109  1.00  0.00    +0.000 H 
BRANCH    9    8
ATOM     97  C68 UNL A   1      22.623  34.650  53.846  1.00  0.00    +0.000 C 
ATOM     98  C69 UNL A   1      23.215  33.429  54.187  1.00  0.00    +0.000 C 
ATOM      5  C2  UNL A   1      24.565  33.392  54.534  1.00  0.00    +0.000 C 
ATOM    102  H4  UNL A   1      26.327  34.526  54.809  1.00  0.00    +0.000 H 
ATOM      6  C3  UNL A   1      25.327  34.559  54.556  1.00  0.00    +0.000 C 
ATOM      7  C4  UNL A   1      24.723  35.777  54.231  1.00  0.00    +0.000 C 
ATOM    103  H5  UNL A   1      25.279  36.645  54.277  1.00  0.00    +0.000 H 
ATOM    138  H40 UNL A   1      22.655  32.562  54.182  1.00  0.00    +0.000 H 
ATOM      8  C5  UNL A   1      23.371  35.840  53.841  1.00  0.00    +0.000 C 
ATOM    137  H39 UNL A   1      21.623  34.677  53.594  1.00  0.00    +0.000 H 
BRANCH    5    2
ATOM      2  S1  UNL A   1      25.352  31.838  54.891  1.00  0.00    +0.000 S 
ATOM      3  O1  UNL A   1      25.019  30.936  53.803  1.00  0.00    +0.000 O 
ATOM      4  O2  UNL A   1      25.039  31.492  56.262  1.00  0.00    +0.000 O 
BRANCH    2    1
ATOM      1  C1  UNL A   1      27.083  32.218  54.803  1.00  0.00    +0.000 C 
ATOM     99  H1  UNL A   1      27.430  32.526  55.766  1.00  0.00    +0.000 H 
ATOM    100  H2  UNL A   1      27.240  33.006  54.097  1.00  0.00    +0.000 H 
ATOM    101  H3  UNL A   1      27.623  31.348  54.491  1.00  0.00    +0.000 H 
ENDBRANCH    2    1
ENDBRANCH    5    2
ENDBRANCH    9    8
ENDBRANCH   16   15
ENDBRANCH   20   19
ENDBRANCH   22   20
ENDBRANCH   23   22
ENDBRANCH   24   23
ENDBRANCH   25   24
ENDBRANCH   26   25
ENDBRANCH   27   26
ENDBRANCH   28   27
ENDBRANCH   29   28
ENDBRANCH   30   29
ENDBRANCH   32   30
ENDBRANCH   36   35
BRANCH   40   41
ATOM     41  C31 UNL A   1      21.413  34.174  46.481  1.00  0.00    +0.000 C 
ATOM     42  C32 UNL A   1      21.935  33.104  47.224  1.00  0.00    +0.000 C 
ATOM     43  F1  UNL A   1      22.342  33.295  48.488  1.00  0.00    +0.000 F 
ATOM     44  C33 UNL A   1      22.069  31.838  46.661  1.00  0.00    +0.000 C 
ATOM     45  F2  UNL A   1      22.606  30.842  47.378  1.00  0.00    +0.000 F 
ATOM     46  C34 UNL A   1      21.651  31.608  45.359  1.00  0.00    +0.000 C 
ATOM     47  F3  UNL A   1      21.763  30.384  44.824  1.00  0.00    +0.000 F 
ATOM     48  C35 UNL A   1      21.119  32.646  44.610  1.00  0.00    +0.000 C 
ATOM     49  F4  UNL A   1      20.701  32.422  43.357  1.00  0.00    +0.000 F 
ATOM     50  C36 UNL A   1      21.015  33.923  45.160  1.00  0.00    +0.000 C 
ATOM     51  F5  UNL A   1      20.504  34.908  44.406  1.00  0.00    +0.000 F 
ENDBRANCH   40   41
BRANCH   57   58
ATOM     65  C46 UNL A   1      13.968  37.403  49.838  1.00  0.00    +0.000 C 
ATOM     66  F9  UNL A   1      12.924  37.341  48.999  1.00  0.00    +0.000 F 
ATOM     67  C47 UNL A   1      15.248  37.622  49.339  1.00  0.00    +0.000 C 
ATOM     68  F10 UNL A   1      15.409  37.751  48.013  1.00  0.00    +0.000 F 
ATOM     58  C42 UNL A   1      16.354  37.719  50.198  1.00  0.00    +0.000 C 
ATOM     59  C43 UNL A   1      16.126  37.585  51.576  1.00  0.00    +0.000 C 
ATOM     60  F6  UNL A   1      17.151  37.654  52.440  1.00  0.00    +0.000 F 
ATOM     61  C44 UNL A   1      14.850  37.329  52.070  1.00  0.00    +0.000 C 
ATOM     62  F7  UNL A   1      14.666  37.146  53.385  1.00  0.00    +0.000 F 
ATOM     63  C45 UNL A   1      13.772  37.247  51.201  1.00  0.00    +0.000 C 
ATOM     64  F8  UNL A   1      12.542  37.007  51.679  1.00  0.00    +0.000 F 
ENDBRANCH   57   58
BRANCH   72   73
ATOM     73  C51 UNL A   1      20.493  43.317  50.422  1.00  0.00    +0.000 C 
ATOM     74  C52 UNL A   1      20.062  44.376  49.611  1.00  0.00    +0.000 C 
ATOM     75  F11 UNL A   1      19.775  44.157  48.319  1.00  0.00    +0.000 F 
ATOM     76  C53 UNL A   1      19.982  45.676  50.105  1.00  0.00    +0.000 C 
ATOM     77  F12 UNL A   1      19.637  46.680  49.288  1.00  0.00    +0.000 F 
ATOM     78  C54 UNL A   1      20.289  45.937  51.431  1.00  0.00    +0.000 C 
ATOM     79  F13 UNL A   1      20.220  47.189  51.904  1.00  0.00    +0.000 F 
ATOM     80  C55 UNL A   1      20.682  44.899  52.263  1.00  0.00    +0.000 C 
ATOM     81  F14 UNL A   1      20.964  45.143  53.551  1.00  0.00    +0.000 F 
ATOM     82  C56 UNL A   1      20.798  43.606  51.760  1.00  0.00    +0.000 C 
ATOM     83  F15 UNL A   1      21.208  42.629  52.583  1.00  0.00    +0.000 F 
ENDBRANCH   72   73
TORSDOF 19
ENDMDL
MODEL 10
REMARK VINA RESULT:     -10.4     23.907     28.432
ROOT
ATOM    129  H31 UNL A   1      49.324  12.934  49.452  1.00  0.00    +0.000 H 
ATOM    130  H32 UNL A   1      50.727  10.698  53.724  1.00  0.00    +0.000 H 
ATOM    131  H33 UNL A   1      49.091   8.824  53.123  1.00  0.00    +0.000 H 
ATOM    132  H34 UNL A   1      46.072  13.923  45.014  1.00  0.00    +0.000 H 
ATOM    133  H35 UNL A   1      48.039  15.539  45.303  1.00  0.00    +0.000 H 
ATOM     36  C27 UNL A   1      49.556  15.085  47.677  1.00  0.00    +0.000 C 
ATOM     37  C28 UNL A   1      48.415  14.265  47.142  1.00  0.00    +0.000 C 
ATOM     38  N4  UNL A   1      47.875  13.179  47.636  1.00  0.00    +0.000 N 
ATOM     39  C29 UNL A   1      46.845  12.841  46.767  1.00  0.00    +0.000 C 
ATOM     40  C30 UNL A   1      46.042  11.752  46.796  1.00  0.00    +0.000 C 
ATOM     52  C37 UNL A   1      46.107  10.723  47.801  1.00  0.00    +0.000 C 
ATOM     53  C38 UNL A   1      45.355   9.566  47.902  1.00  0.00    +0.000 C 
ATOM     54  C39 UNL A   1      45.736   8.896  49.069  1.00  0.00    +0.000 C 
ATOM     55  C40 UNL A   1      46.768   9.603  49.662  1.00  0.00    +0.000 C 
ATOM     56  N5  UNL A   1      46.979  10.729  48.880  1.00  0.00    +0.000 N 
ATOM     57  C41 UNL A   1      47.508   9.278  50.854  1.00  0.00    +0.000 C 
ATOM     69  C48 UNL A   1      48.511  10.027  51.374  1.00  0.00    +0.000 C 
ATOM     70  N6  UNL A   1      49.042  11.222  50.909  1.00  0.00    +0.000 N 
ATOM     71  C49 UNL A   1      49.972  11.563  51.770  1.00  0.00    +0.000 C 
ATOM     72  C50 UNL A   1      50.899  12.749  51.750  1.00  0.00    +0.000 C 
ATOM     84  C57 UNL A   1      50.827  13.617  50.723  1.00  0.00    +0.000 C 
ATOM     85  C58 UNL A   1      51.661  14.801  50.556  1.00  0.00    +0.000 C 
ATOM     86  C59 UNL A   1      51.271  15.459  49.453  1.00  0.00    +0.000 C 
ATOM     87  C60 UNL A   1      50.184  14.718  48.810  1.00  0.00    +0.000 C 
ATOM     88  N7  UNL A   1      49.994  13.634  49.630  1.00  0.00    +0.000 N 
ATOM     89  C61 UNL A   1      50.111  10.633  52.899  1.00  0.00    +0.000 C 
ATOM     90  C62 UNL A   1      49.236   9.690  52.581  1.00  0.00    +0.000 C 
ATOM     91  C63 UNL A   1      46.789  13.872  45.754  1.00  0.00    +0.000 C 
ATOM     92  C64 UNL A   1      47.780  14.738  45.902  1.00  0.00    +0.000 C 
ATOM    124  H26 UNL A   1      44.636   9.251  47.231  1.00  0.00    +0.000 H 
ATOM    125  H27 UNL A   1      45.320   8.023  49.427  1.00  0.00    +0.000 H 
ATOM    126  H28 UNL A   1      47.646  11.428  49.063  1.00  0.00    +0.000 H 
ATOM    127  H29 UNL A   1      52.429  15.087  51.184  1.00  0.00    +0.000 H 
ATOM    128  H30 UNL A   1      51.673  16.347  49.113  1.00  0.00    +0.000 H 
ENDROOT
BRANCH   36   35
ATOM     33  C24 UNL A   1      49.591  18.661  46.409  1.00  0.00    +0.000 C 
ATOM     34  C25 UNL A   1      49.231  17.515  47.120  1.00  0.00    +0.000 C 
ATOM     35  C26 UNL A   1      49.974  16.330  46.984  1.00  0.00    +0.000 C 
ATOM    134  H36 UNL A   1      51.669  15.462  46.065  1.00  0.00    +0.000 H 
ATOM    135  H37 UNL A   1      52.415  17.513  45.011  1.00  0.00    +0.000 H 
ATOM    122  H24 UNL A   1      49.023  19.518  46.484  1.00  0.00    +0.000 H 
ATOM    123  H25 UNL A   1      48.414  17.539  47.750  1.00  0.00    +0.000 H 
ATOM     93  C65 UNL A   1      51.122  16.330  46.180  1.00  0.00    +0.000 C 
ATOM     94  C66 UNL A   1      51.526  17.494  45.534  1.00  0.00    +0.000 C 
ATOM     32  C23 UNL A   1      50.726  18.640  45.595  1.00  0.00    +0.000 C 
BRANCH   32   30
ATOM     30  C22 UNL A   1      51.078  19.853  44.827  1.00  0.00    +0.000 C 
ATOM     31  O4  UNL A   1      51.999  20.571  45.203  1.00  0.00    +0.000 O 
BRANCH   30   29
ATOM    121  H23 UNL A   1      50.102  21.110  43.609  1.00  0.00    +0.000 H 
ATOM     29  N3  UNL A   1      50.376  20.169  43.693  1.00  0.00    +0.000 N 
BRANCH   29   28
ATOM     28  C21 UNL A   1      49.984  19.298  42.595  1.00  0.00    +0.000 C 
ATOM    119  H21 UNL A   1      49.966  19.868  41.689  1.00  0.00    +0.000 H 
ATOM    120  H22 UNL A   1      50.694  18.500  42.531  1.00  0.00    +0.000 H 
BRANCH   28   27
ATOM     27  C20 UNL A   1      48.604  18.690  42.823  1.00  0.00    +0.000 C 
ATOM    117  H19 UNL A   1      48.729  17.659  43.083  1.00  0.00    +0.000 H 
ATOM    118  H20 UNL A   1      48.140  19.259  43.602  1.00  0.00    +0.000 H 
BRANCH   27   26
ATOM     26  C19 UNL A   1      47.679  18.768  41.606  1.00  0.00    +0.000 C 
ATOM    115  H17 UNL A   1      46.667  18.737  41.952  1.00  0.00    +0.000 H 
ATOM    116  H18 UNL A   1      47.923  19.679  41.099  1.00  0.00    +0.000 H 
BRANCH   26   25
ATOM     25  C18 UNL A   1      47.868  17.641  40.580  1.00  0.00    +0.000 C 
ATOM    114  H16 UNL A   1      48.718  17.079  40.902  1.00  0.00    +0.000 H 
ATOM    113  H15 UNL A   1      47.996  18.087  39.616  1.00  0.00    +0.000 H 
BRANCH   25   24
ATOM    112  H14 UNL A   1      46.355  16.472  41.493  1.00  0.00    +0.000 H 
ATOM    111  H13 UNL A   1      47.046  15.751  40.029  1.00  0.00    +0.000 H 
ATOM     24  C17 UNL A   1      46.699  16.648  40.496  1.00  0.00    +0.000 C 
BRANCH   24   23
ATOM    109  H11 UNL A   1      45.782  18.115  39.238  1.00  0.00    +0.000 H 
ATOM    110  H12 UNL A   1      45.248  16.473  38.939  1.00  0.00    +0.000 H 
ATOM     23  C16 UNL A   1      45.511  17.186  39.692  1.00  0.00    +0.000 C 
BRANCH   23   22
ATOM    108  H10 UNL A   1      43.716  18.025  40.192  1.00  0.00    +0.000 H 
ATOM     22  N2  UNL A   1      44.372  17.393  40.563  1.00  0.00    +0.000 N 
BRANCH   22   20
ATOM     20  C15 UNL A   1      44.005  16.901  41.794  1.00  0.00    +0.000 C 
ATOM     21  O3  UNL A   1      43.182  15.981  41.775  1.00  0.00    +0.000 O 
BRANCH   20   19
ATOM    136  H38 UNL A   1      43.838  20.056  44.944  1.00  0.00    +0.000 H 
ATOM    106  H8  UNL A   1      46.724  17.124  45.572  1.00  0.00    +0.000 H 
ATOM    107  H9  UNL A   1      45.853  15.917  43.650  1.00  0.00    +0.000 H 
ATOM     16  C11 UNL A   1      45.403  18.757  45.384  1.00  0.00    +0.000 C 
ATOM     17  C12 UNL A   1      45.957  17.529  45.014  1.00  0.00    +0.000 C 
ATOM     18  C13 UNL A   1      45.480  16.847  43.895  1.00  0.00    +0.000 C 
ATOM     19  C14 UNL A   1      44.496  17.436  43.116  1.00  0.00    +0.000 C 
ATOM     95  N8  UNL A   1      43.891  18.596  43.502  1.00  0.00    +0.000 N 
ATOM     96  C67 UNL A   1      44.332  19.206  44.629  1.00  0.00    +0.000 C 
BRANCH   16   15
ATOM    104  H6  UNL A   1      46.208  19.881  49.793  1.00  0.00    +0.000 H 
ATOM      9  C6  UNL A   1      45.850  19.177  47.828  1.00  0.00    +0.000 C 
ATOM     10  C7  UNL A   1      46.298  20.098  48.788  1.00  0.00    +0.000 C 
ATOM     11  C8  UNL A   1      46.862  21.304  48.385  1.00  0.00    +0.000 C 
ATOM     12 Cl1  UNL A   1      47.372  22.459  49.548  1.00  0.00    +0.000 Cl
ATOM     13  C9  UNL A   1      46.990  21.557  47.030  1.00  0.00    +0.000 C 
ATOM     14  N1  UNL A   1      46.568  20.709  46.064  1.00  0.00    +0.000 N 
ATOM     15  C10 UNL A   1      45.985  19.551  46.469  1.00  0.00    +0.000 C 
ATOM    105  H7  UNL A   1      47.432  22.443  46.740  1.00  0.00    +0.000 H 
BRANCH    9    8
ATOM     97  C68 UNL A   1      46.032  16.775  48.523  1.00  0.00    +0.000 C 
ATOM     98  C69 UNL A   1      45.468  15.598  49.027  1.00  0.00    +0.000 C 
ATOM      5  C2  UNL A   1      44.091  15.535  49.247  1.00  0.00    +0.000 C 
ATOM    102  H4  UNL A   1      42.257  16.577  49.126  1.00  0.00    +0.000 H 
ATOM      6  C3  UNL A   1      43.274  16.627  48.958  1.00  0.00    +0.000 C 
ATOM      7  C4  UNL A   1      43.845  17.792  48.438  1.00  0.00    +0.000 C 
ATOM    103  H5  UNL A   1      43.236  18.589  48.196  1.00  0.00    +0.000 H 
ATOM    138  H40 UNL A   1      46.065  14.783  49.234  1.00  0.00    +0.000 H 
ATOM      8  C5  UNL A   1      45.235  17.898  48.241  1.00  0.00    +0.000 C 
ATOM    137  H39 UNL A   1      47.050  16.819  48.356  1.00  0.00    +0.000 H 
BRANCH    5    2
ATOM      2  S1  UNL A   1      43.368  14.077  49.962  1.00  0.00    +0.000 S 
ATOM      3  O1  UNL A   1      44.355  13.018  49.851  1.00  0.00    +0.000 O 
ATOM      4  O2  UNL A   1      42.045  13.919  49.394  1.00  0.00    +0.000 O 
BRANCH    2    1
ATOM      1  C1  UNL A   1      43.183  14.501  51.674  1.00  0.00    +0.000 C 
ATOM     99  H1  UNL A   1      42.167  14.773  51.867  1.00  0.00    +0.000 H 
ATOM    100  H2  UNL A   1      43.824  15.325  51.909  1.00  0.00    +0.000 H 
ATOM    101  H3  UNL A   1      43.448  13.659  52.281  1.00  0.00    +0.000 H 
ENDBRANCH    2    1
ENDBRANCH    5    2
ENDBRANCH    9    8
ENDBRANCH   16   15
ENDBRANCH   20   19
ENDBRANCH   22   20
ENDBRANCH   23   22
ENDBRANCH   24   23
ENDBRANCH   25   24
ENDBRANCH   26   25
ENDBRANCH   27   26
ENDBRANCH   28   27
ENDBRANCH   29   28
ENDBRANCH   30   29
ENDBRANCH   32   30
ENDBRANCH   36   35
BRANCH   40   41
ATOM     41  C31 UNL A   1      45.028  11.601  45.696  1.00  0.00    +0.000 C 
ATOM     42  C32 UNL A   1      45.173  10.624  44.698  1.00  0.00    +0.000 C 
ATOM     43  F1  UNL A   1      46.265   9.847  44.667  1.00  0.00    +0.000 F 
ATOM     44  C33 UNL A   1      44.207  10.461  43.709  1.00  0.00    +0.000 C 
ATOM     45  F2  UNL A   1      44.385   9.548  42.744  1.00  0.00    +0.000 F 
ATOM     46  C34 UNL A   1      43.063  11.244  43.718  1.00  0.00    +0.000 C 
ATOM     47  F3  UNL A   1      42.125  11.074  42.776  1.00  0.00    +0.000 F 
ATOM     48  C35 UNL A   1      42.892  12.207  44.702  1.00  0.00    +0.000 C 
ATOM     49  F4  UNL A   1      41.780  12.954  44.721  1.00  0.00    +0.000 F 
ATOM     50  C36 UNL A   1      43.873  12.395  45.674  1.00  0.00    +0.000 C 
ATOM     51  F5  UNL A   1      43.681  13.340  46.607  1.00  0.00    +0.000 F 
ENDBRANCH   40   41
BRANCH   57   58
ATOM     65  C46 UNL A   1      45.771   6.779  53.139  1.00  0.00    +0.000 C 
ATOM     66  F9  UNL A   1      44.746   6.762  54.003  1.00  0.00    +0.000 F 
ATOM     67  C47 UNL A   1      46.082   7.948  52.452  1.00  0.00    +0.000 C 
ATOM     68  F10 UNL A   1      45.329   9.038  52.663  1.00  0.00    +0.000 F 
ATOM     58  C42 UNL A   1      47.167   7.998  51.563  1.00  0.00    +0.000 C 
ATOM     59  C43 UNL A   1      47.925   6.831  51.387  1.00  0.00    +0.000 C 
ATOM     60  F6  UNL A   1      48.963   6.821  50.537  1.00  0.00    +0.000 F 
ATOM     61  C44 UNL A   1      47.588   5.652  52.048  1.00  0.00    +0.000 C 
ATOM     62  F7  UNL A   1      48.291   4.534  51.818  1.00  0.00    +0.000 F 
ATOM     63  C45 UNL A   1      46.517   5.630  52.928  1.00  0.00    +0.000 C 
ATOM     64  F8  UNL A   1      46.199   4.495  53.568  1.00  0.00    +0.000 F 
ENDBRANCH   57   58
BRANCH   72   73
ATOM     73  C51 UNL A   1      51.882  12.963  52.847  1.00  0.00    +0.000 C 
ATOM     74  C52 UNL A   1      53.176  12.428  52.775  1.00  0.00    +0.000 C 
ATOM     75  F11 UNL A   1      53.552  11.727  51.696  1.00  0.00    +0.000 F 
ATOM     76  C53 UNL A   1      54.069  12.558  53.837  1.00  0.00    +0.000 C 
ATOM     77  F12 UNL A   1      55.273  11.974  53.771  1.00  0.00    +0.000 F 
ATOM     78  C54 UNL A   1      53.703  13.262  54.973  1.00  0.00    +0.000 C 
ATOM     79  F13 UNL A   1      54.559  13.380  55.998  1.00  0.00    +0.000 F 
ATOM     80  C55 UNL A   1      52.441  13.832  55.052  1.00  0.00    +0.000 C 
ATOM     81  F14 UNL A   1      52.087  14.528  56.141  1.00  0.00    +0.000 F 
ATOM     82  C56 UNL A   1      51.535  13.671  54.007  1.00  0.00    +0.000 C 
ATOM     83  F15 UNL A   1      50.312  14.210  54.125  1.00  0.00    +0.000 F 
ENDBRANCH   72   73
TORSDOF 19
ENDMDL
