MODEL 1
REMARK VINA RESULT:     -10.0      0.000      0.000
ROOT
ATOM    129  H31 UNL A   1       8.880  27.494   6.052  1.00  0.00    +0.000 H 
ATOM    130  H32 UNL A   1       9.548  28.768   3.957  1.00  0.00    +0.000 H 
ATOM    131  H33 UNL A   1      11.149  24.940   3.683  1.00  0.00    +0.000 H 
ATOM    132  H34 UNL A   1       9.646  22.538   7.854  1.00  0.00    +0.000 H 
ATOM    133  H35 UNL A   1      10.896  20.479   6.979  1.00  0.00    +0.000 H 
ATOM    134  H36 UNL A   1      13.555  25.529  -1.290  1.00  0.00    +0.000 H 
ATOM    135  H37 UNL A   1      12.458  27.650  -0.363  1.00  0.00    +0.000 H 
ATOM     40  C27 UNL A   1      11.123  27.257   2.122  1.00  0.00    +0.000 C 
ATOM     41  C28 UNL A   1      11.912  26.251   1.337  1.00  0.00    +0.000 C 
ATOM     42  N5  UNL A   1      12.162  24.997   1.618  1.00  0.00    +0.000 N 
ATOM     43  C29 UNL A   1      12.899  24.509   0.549  1.00  0.00    +0.000 C 
ATOM     44  C30 UNL A   1      13.395  23.263   0.363  1.00  0.00    +0.000 C 
ATOM     56  C37 UNL A   1      13.273  22.178   1.299  1.00  0.00    +0.000 C 
ATOM     57  C38 UNL A   1      13.776  20.891   1.204  1.00  0.00    +0.000 C 
ATOM     58  C39 UNL A   1      13.407  20.188   2.357  1.00  0.00    +0.000 C 
ATOM     59  C40 UNL A   1      12.683  21.042   3.173  1.00  0.00    +0.000 C 
ATOM     60  N6  UNL A   1      12.607  22.257   2.512  1.00  0.00    +0.000 N 
ATOM     61  C41 UNL A   1      12.102  20.777   4.461  1.00  0.00    +0.000 C 
ATOM     73  C48 UNL A   1      11.399  21.670   5.195  1.00  0.00    +0.000 C 
ATOM     74  N7  UNL A   1      11.088  22.987   4.893  1.00  0.00    +0.000 N 
ATOM     75  C49 UNL A   1      10.387  23.431   5.905  1.00  0.00    +0.000 C 
ATOM     76  C50 UNL A   1       9.787  24.790   6.113  1.00  0.00    +0.000 C 
ATOM     88  C57 UNL A   1       9.973  25.756   5.194  1.00  0.00    +0.000 C 
ATOM     89  C58 UNL A   1       9.440  27.114   5.273  1.00  0.00    +0.000 C 
ATOM     90  C59 UNL A   1       9.798  27.790   4.168  1.00  0.00    +0.000 C 
ATOM     91  C60 UNL A   1      10.599  26.914   3.314  1.00  0.00    +0.000 C 
ATOM     92  N8  UNL A   1      10.660  25.731   4.007  1.00  0.00    +0.000 N 
ATOM     93  C61 UNL A   1      10.167  22.440   6.969  1.00  0.00    +0.000 C 
ATOM     94  C62 UNL A   1      10.816  21.386   6.490  1.00  0.00    +0.000 C 
ATOM     95  C63 UNL A   1      13.060  25.603  -0.388  1.00  0.00    +0.000 C 
ATOM     96  C64 UNL A   1      12.488  26.711   0.066  1.00  0.00    +0.000 C 
ATOM    126  H28 UNL A   1      14.328  20.515   0.417  1.00  0.00    +0.000 H 
ATOM    127  H29 UNL A   1      13.634  19.203   2.564  1.00  0.00    +0.000 H 
ATOM    128  H30 UNL A   1      12.147  23.058   2.852  1.00  0.00    +0.000 H 
ENDROOT
BRANCH   40   39
ATOM     97  C65 UNL A   1      11.702  29.688   1.982  1.00  0.00    +0.000 C 
ATOM     98  C66 UNL A   1      11.492  30.970   1.465  1.00  0.00    +0.000 C 
ATOM     36  C23 UNL A   1      10.494  31.182   0.508  1.00  0.00    +0.000 C 
ATOM     37  C24 UNL A   1       9.658  30.126   0.128  1.00  0.00    +0.000 C 
ATOM     38  C25 UNL A   1       9.851  28.850   0.663  1.00  0.00    +0.000 C 
ATOM     39  C26 UNL A   1      10.885  28.618   1.582  1.00  0.00    +0.000 C 
ATOM    136  H38 UNL A   1      12.462  29.527   2.661  1.00  0.00    +0.000 H 
ATOM    137  H39 UNL A   1      12.073  31.759   1.790  1.00  0.00    +0.000 H 
ATOM    124  H26 UNL A   1       8.897  30.290  -0.549  1.00  0.00    +0.000 H 
ATOM    125  H27 UNL A   1       9.231  28.075   0.381  1.00  0.00    +0.000 H 
BRANCH   36   34
ATOM     34  C22 UNL A   1      10.236  32.519  -0.075  1.00  0.00    +0.000 C 
ATOM     35  O6  UNL A   1       9.202  33.111   0.224  1.00  0.00    +0.000 O 
BRANCH   34   33
ATOM     33  N4  UNL A   1      11.117  33.092  -0.958  1.00  0.00    +0.000 N 
ATOM    123  H25 UNL A   1      10.992  32.828  -1.898  1.00  0.00    +0.000 H 
BRANCH   33   32
ATOM    121  H23 UNL A   1      12.327  34.631  -1.599  1.00  0.00    +0.000 H 
ATOM    122  H24 UNL A   1      11.944  34.615   0.130  1.00  0.00    +0.000 H 
ATOM     32  C21 UNL A   1      12.203  34.027  -0.725  1.00  0.00    +0.000 C 
BRANCH   32   31
ATOM    119  H21 UNL A   1      13.405  32.289  -0.628  1.00  0.00    +0.000 H 
ATOM     31  C20 UNL A   1      13.531  33.330  -0.419  1.00  0.00    +0.000 C 
ATOM    120  H22 UNL A   1      14.255  33.826  -1.032  1.00  0.00    +0.000 H 
BRANCH   31   30
ATOM    118  H20 UNL A   1      13.202  33.390   1.647  1.00  0.00    +0.000 H 
ATOM    117  H19 UNL A   1      14.594  34.382   1.087  1.00  0.00    +0.000 H 
ATOM     30  C19 UNL A   1      14.064  33.456   1.016  1.00  0.00    +0.000 C 
BRANCH   30   29
ATOM    115  H17 UNL A   1      14.582  31.910   2.376  1.00  0.00    +0.000 H 
ATOM    116  H18 UNL A   1      15.087  31.653   0.681  1.00  0.00    +0.000 H 
ATOM     29  C18 UNL A   1      15.003  32.345   1.493  1.00  0.00    +0.000 C 
BRANCH   29   28
ATOM    113  H15 UNL A   1      16.912  33.057   0.901  1.00  0.00    +0.000 H 
ATOM    114  H16 UNL A   1      16.330  33.630   2.490  1.00  0.00    +0.000 H 
ATOM     28  C17 UNL A   1      16.425  32.802   1.819  1.00  0.00    +0.000 C 
BRANCH   28   27
ATOM     27  C16 UNL A   1      17.288  31.756   2.542  1.00  0.00    +0.000 C 
ATOM    111  H13 UNL A   1      17.462  32.069   3.550  1.00  0.00    +0.000 H 
ATOM    112  H14 UNL A   1      16.782  30.814   2.548  1.00  0.00    +0.000 H 
BRANCH   27   26
ATOM     26  N3  UNL A   1      18.560  31.626   1.845  1.00  0.00    +0.000 N 
ATOM    110  H12 UNL A   1      19.332  31.462   2.434  1.00  0.00    +0.000 H 
BRANCH   26   24
ATOM     25  O5  UNL A   1      19.093  32.785  -0.005  1.00  0.00    +0.000 O 
ATOM     24  C15 UNL A   1      18.869  31.692   0.513  1.00  0.00    +0.000 C 
BRANCH   24   23
ATOM    103  H5  UNL A   1      20.261  28.280  -2.362  1.00  0.00    +0.000 H 
ATOM      8  C3  UNL A   1      19.786  29.866  -1.042  1.00  0.00    +0.000 C 
ATOM      9  C4  UNL A   1      19.494  28.838  -1.956  1.00  0.00    +0.000 C 
ATOM     10  C5  UNL A   1      18.171  28.569  -2.320  1.00  0.00    +0.000 C 
ATOM    104  H6  UNL A   1      17.971  27.827  -3.009  1.00  0.00    +0.000 H 
ATOM     11  C6  UNL A   1      17.119  29.299  -1.758  1.00  0.00    +0.000 C 
ATOM    109  H11 UNL A   1      16.646  30.721  -0.277  1.00  0.00    +0.000 H 
ATOM     22  C13 UNL A   1      17.419  30.235  -0.757  1.00  0.00    +0.000 C 
ATOM     23  C14 UNL A   1      18.749  30.531  -0.389  1.00  0.00    +0.000 C 
BRANCH    8    5
ATOM      5  S1  UNL A   1      21.466  30.388  -0.910  1.00  0.00    +0.000 S 
ATOM      6  O2  UNL A   1      21.815  30.299   0.492  1.00  0.00    +0.000 O 
ATOM      7  O3  UNL A   1      21.673  31.595  -1.669  1.00  0.00    +0.000 O 
BRANCH    5    4
ATOM      4  N1  UNL A   1      22.326  29.188  -1.667  1.00  0.00    +0.000 N 
ATOM    102  H4  UNL A   1      21.890  28.306  -1.709  1.00  0.00    +0.000 H 
BRANCH    4    2
ATOM      2  C2  UNL A   1      23.594  29.275  -2.256  1.00  0.00    +0.000 C 
ATOM      3  O1  UNL A   1      23.752  28.788  -3.368  1.00  0.00    +0.000 O 
BRANCH    2    1
ATOM      1  C1  UNL A   1      24.663  30.090  -1.585  1.00  0.00    +0.000 C 
ATOM     99  H1  UNL A   1      25.471  30.250  -2.267  1.00  0.00    +0.000 H 
ATOM    100  H2  UNL A   1      25.021  29.567  -0.724  1.00  0.00    +0.000 H 
ATOM    101  H3  UNL A   1      24.257  31.034  -1.286  1.00  0.00    +0.000 H 
ENDBRANCH    2    1
ENDBRANCH    4    2
ENDBRANCH    5    4
ENDBRANCH    8    5
BRANCH   11   12
ATOM    105  H7  UNL A   1      15.651  27.063  -2.457  1.00  0.00    +0.000 H 
ATOM    106  H8  UNL A   1      13.418  26.943  -3.185  1.00  0.00    +0.000 H 
ATOM    108  H10 UNL A   1      15.461  31.254  -2.330  1.00  0.00    +0.000 H 
ATOM     12  C7  UNL A   1      15.744  29.216  -2.309  1.00  0.00    +0.000 C 
ATOM     13  C8  UNL A   1      15.111  27.934  -2.584  1.00  0.00    +0.000 C 
ATOM     14  C9  UNL A   1      13.843  27.865  -3.001  1.00  0.00    +0.000 C 
ATOM     15  N2  UNL A   1      13.093  29.008  -3.186  1.00  0.00    +0.000 N 
ATOM     19  C11 UNL A   1      13.603  30.275  -2.954  1.00  0.00    +0.000 C 
ATOM     20  O4  UNL A   1      12.986  31.328  -3.076  1.00  0.00    +0.000 O 
ATOM     21  C12 UNL A   1      15.024  30.335  -2.500  1.00  0.00    +0.000 C 
BRANCH   15   16
ATOM     17  F1  UNL A   1      11.538  27.963  -4.525  1.00  0.00    +0.000 F 
ATOM     18  F2  UNL A   1      10.916  28.610  -2.524  1.00  0.00    +0.000 F 
ATOM    107  H9  UNL A   1      11.434  29.875  -3.968  1.00  0.00    +0.000 H 
ATOM     16  C10 UNL A   1      11.709  28.917  -3.578  1.00  0.00    +0.000 C 
ENDBRANCH   15   16
ENDBRANCH   11   12
ENDBRANCH   24   23
ENDBRANCH   26   24
ENDBRANCH   27   26
ENDBRANCH   28   27
ENDBRANCH   29   28
ENDBRANCH   30   29
ENDBRANCH   31   30
ENDBRANCH   32   31
ENDBRANCH   33   32
ENDBRANCH   34   33
ENDBRANCH   36   34
ENDBRANCH   40   39
BRANCH   44   45
ATOM     45  C31 UNL A   1      14.115  23.000  -0.920  1.00  0.00    +0.000 C 
ATOM     46  C32 UNL A   1      15.493  23.225  -1.039  1.00  0.00    +0.000 C 
ATOM     47  F3  UNL A   1      16.187  23.727  -0.008  1.00  0.00    +0.000 F 
ATOM     48  C33 UNL A   1      16.157  22.949  -2.232  1.00  0.00    +0.000 C 
ATOM     49  F4  UNL A   1      17.472  23.187  -2.334  1.00  0.00    +0.000 F 
ATOM     50  C34 UNL A   1      15.460  22.435  -3.315  1.00  0.00    +0.000 C 
ATOM     51  F5  UNL A   1      16.101  22.169  -4.461  1.00  0.00    +0.000 F 
ATOM     52  C35 UNL A   1      14.096  22.201  -3.213  1.00  0.00    +0.000 C 
ATOM     53  F6  UNL A   1      13.421  21.704  -4.260  1.00  0.00    +0.000 F 
ATOM     54  C36 UNL A   1      13.426  22.484  -2.026  1.00  0.00    +0.000 C 
ATOM     55  F7  UNL A   1      12.106  22.256  -1.954  1.00  0.00    +0.000 F 
ENDBRANCH   44   45
BRANCH   61   62
ATOM     65  C44 UNL A   1      11.571  17.107   5.295  1.00  0.00    +0.000 C 
ATOM     66  F9  UNL A   1      10.683  16.137   5.038  1.00  0.00    +0.000 F 
ATOM     67  C45 UNL A   1      12.676  16.841   6.092  1.00  0.00    +0.000 C 
ATOM     68  F10 UNL A   1      12.858  15.613   6.597  1.00  0.00    +0.000 F 
ATOM     69  C46 UNL A   1      13.588  17.849   6.371  1.00  0.00    +0.000 C 
ATOM     70  F11 UNL A   1      14.652  17.593   7.143  1.00  0.00    +0.000 F 
ATOM     71  C47 UNL A   1      13.396  19.127   5.854  1.00  0.00    +0.000 C 
ATOM     72  F12 UNL A   1      14.285  20.087   6.145  1.00  0.00    +0.000 F 
ATOM     62  C42 UNL A   1      12.288  19.412   5.044  1.00  0.00    +0.000 C 
ATOM     63  C43 UNL A   1      11.379  18.381   4.771  1.00  0.00    +0.000 C 
ATOM     64  F8  UNL A   1      10.299  18.618   4.012  1.00  0.00    +0.000 F 
ENDBRANCH   61   62
BRANCH   76   77
ATOM     77  C51 UNL A   1       8.998  25.087   7.329  1.00  0.00    +0.000 C 
ATOM     78  C52 UNL A   1       9.628  25.515   8.504  1.00  0.00    +0.000 C 
ATOM     79  F13 UNL A   1      10.963  25.627   8.544  1.00  0.00    +0.000 F 
ATOM     80  C53 UNL A   1       8.888  25.806   9.646  1.00  0.00    +0.000 C 
ATOM     81  F14 UNL A   1       9.512  26.198  10.766  1.00  0.00    +0.000 F 
ATOM     82  C54 UNL A   1       7.506  25.684   9.630  1.00  0.00    +0.000 C 
ATOM     83  F15 UNL A   1       6.794  25.966  10.729  1.00  0.00    +0.000 F 
ATOM     84  C55 UNL A   1       6.863  25.263   8.474  1.00  0.00    +0.000 C 
ATOM     85  F16 UNL A   1       5.529  25.146   8.455  1.00  0.00    +0.000 F 
ATOM     86  C56 UNL A   1       7.602  24.963   7.334  1.00  0.00    +0.000 C 
ATOM     87  F17 UNL A   1       6.962  24.552   6.229  1.00  0.00    +0.000 F 
ENDBRANCH   76   77
TORSDOF 21
ENDMDL
MODEL 2
REMARK VINA RESULT:      -9.9     23.755     31.640
ROOT
ATOM    129  H31 UNL A   1       7.996   4.437  24.602  1.00  0.00    +0.000 H 
ATOM    130  H32 UNL A   1       9.398   2.494  23.751  1.00  0.00    +0.000 H 
ATOM    131  H33 UNL A   1       9.545   5.516  20.899  1.00  0.00    +0.000 H 
ATOM    132  H34 UNL A   1       6.806   9.304  22.789  1.00  0.00    +0.000 H 
ATOM    133  H35 UNL A   1       7.373  10.620  20.664  1.00  0.00    +0.000 H 
ATOM    134  H36 UNL A   1      12.895   2.931  17.297  1.00  0.00    +0.000 H 
ATOM    135  H37 UNL A   1      12.208   1.531  19.330  1.00  0.00    +0.000 H 
ATOM     40  C27 UNL A   1      10.605   2.950  21.209  1.00  0.00    +0.000 C 
ATOM     41  C28 UNL A   1      11.126   3.444  19.892  1.00  0.00    +0.000 C 
ATOM     42  N5  UNL A   1      10.959   4.612  19.324  1.00  0.00    +0.000 N 
ATOM     43  C29 UNL A   1      11.679   4.564  18.139  1.00  0.00    +0.000 C 
ATOM     44  C30 UNL A   1      11.823   5.526  17.198  1.00  0.00    +0.000 C 
ATOM     56  C37 UNL A   1      11.200   6.822  17.241  1.00  0.00    +0.000 C 
ATOM     57  C38 UNL A   1      11.267   7.846  16.310  1.00  0.00    +0.000 C 
ATOM     58  C39 UNL A   1      10.496   8.917  16.780  1.00  0.00    +0.000 C 
ATOM     59  C40 UNL A   1       9.943   8.553  17.996  1.00  0.00    +0.000 C 
ATOM     60  N6  UNL A   1      10.383   7.268  18.268  1.00  0.00    +0.000 N 
ATOM     61  C41 UNL A   1       9.074   9.315  18.852  1.00  0.00    +0.000 C 
ATOM     73  C48 UNL A   1       8.578   8.887  20.036  1.00  0.00    +0.000 C 
ATOM     74  N7  UNL A   1       8.782   7.672  20.672  1.00  0.00    +0.000 N 
ATOM     75  C49 UNL A   1       8.104   7.734  21.790  1.00  0.00    +0.000 C 
ATOM     76  C50 UNL A   1       7.966   6.701  22.869  1.00  0.00    +0.000 C 
ATOM     88  C57 UNL A   1       8.565   5.504  22.734  1.00  0.00    +0.000 C 
ATOM     89  C58 UNL A   1       8.514   4.418  23.709  1.00  0.00    +0.000 C 
ATOM     90  C59 UNL A   1       9.251   3.388  23.258  1.00  0.00    +0.000 C 
ATOM     91  C60 UNL A   1       9.810   3.740  21.954  1.00  0.00    +0.000 C 
ATOM     92  N8  UNL A   1       9.343   5.009  21.718  1.00  0.00    +0.000 N 
ATOM     93  C61 UNL A   1       7.394   9.006  21.995  1.00  0.00    +0.000 C 
ATOM     94  C62 UNL A   1       7.707   9.669  20.888  1.00  0.00    +0.000 C 
ATOM     95  C63 UNL A   1      12.284   3.249  18.066  1.00  0.00    +0.000 C 
ATOM     96  C64 UNL A   1      11.952   2.509  19.116  1.00  0.00    +0.000 C 
ATOM    126  H28 UNL A   1      11.795   7.824  15.424  1.00  0.00    +0.000 H 
ATOM    127  H29 UNL A   1      10.363   9.822  16.302  1.00  0.00    +0.000 H 
ATOM    128  H30 UNL A   1      10.152   6.749  19.071  1.00  0.00    +0.000 H 
ENDROOT
BRANCH   40   39
ATOM     97  C65 UNL A   1      12.153   1.442  22.472  1.00  0.00    +0.000 C 
ATOM     98  C66 UNL A   1      12.506   0.182  22.964  1.00  0.00    +0.000 C 
ATOM     36  C23 UNL A   1      11.666  -0.915  22.742  1.00  0.00    +0.000 C 
ATOM     37  C24 UNL A   1      10.514  -0.762  21.963  1.00  0.00    +0.000 C 
ATOM     38  C25 UNL A   1      10.174   0.492  21.450  1.00  0.00    +0.000 C 
ATOM     39  C26 UNL A   1      10.983   1.607  21.714  1.00  0.00    +0.000 C 
ATOM    136  H38 UNL A   1      12.756   2.256  22.667  1.00  0.00    +0.000 H 
ATOM    137  H39 UNL A   1      13.386   0.060  23.490  1.00  0.00    +0.000 H 
ATOM    124  H26 UNL A   1       9.913  -1.578  21.766  1.00  0.00    +0.000 H 
ATOM    125  H27 UNL A   1       9.324   0.599  20.874  1.00  0.00    +0.000 H 
BRANCH   36   34
ATOM     34  C22 UNL A   1      11.991  -2.268  23.248  1.00  0.00    +0.000 C 
ATOM     35  O6  UNL A   1      11.964  -3.218  22.469  1.00  0.00    +0.000 O 
BRANCH   34   33
ATOM     33  N4  UNL A   1      12.295  -2.481  24.569  1.00  0.00    +0.000 N 
ATOM    123  H25 UNL A   1      13.250  -2.634  24.755  1.00  0.00    +0.000 H 
BRANCH   33   32
ATOM    121  H23 UNL A   1      10.487  -2.087  25.473  1.00  0.00    +0.000 H 
ATOM    122  H24 UNL A   1      11.337  -3.534  26.038  1.00  0.00    +0.000 H 
ATOM     32  C21 UNL A   1      11.432  -2.513  25.735  1.00  0.00    +0.000 C 
BRANCH   32   31
ATOM    119  H21 UNL A   1      11.379  -0.884  27.085  1.00  0.00    +0.000 H 
ATOM     31  C20 UNL A   1      12.007  -1.734  26.921  1.00  0.00    +0.000 C 
ATOM    120  H22 UNL A   1      12.034  -2.433  27.730  1.00  0.00    +0.000 H 
BRANCH   31   30
ATOM    118  H20 UNL A   1      13.794  -1.603  25.840  1.00  0.00    +0.000 H 
ATOM    117  H19 UNL A   1      14.003  -1.574  27.627  1.00  0.00    +0.000 H 
ATOM     30  C19 UNL A   1      13.450  -1.225  26.780  1.00  0.00    +0.000 C 
BRANCH   30   29
ATOM    115  H17 UNL A   1      12.997   0.663  25.920  1.00  0.00    +0.000 H 
ATOM    116  H18 UNL A   1      13.381   0.678  27.665  1.00  0.00    +0.000 H 
ATOM     29  C18 UNL A   1      13.631   0.293  26.699  1.00  0.00    +0.000 C 
BRANCH   29   28
ATOM    113  H15 UNL A   1      15.623  -0.094  26.077  1.00  0.00    +0.000 H 
ATOM    114  H16 UNL A   1      14.985   1.525  25.670  1.00  0.00    +0.000 H 
ATOM     28  C17 UNL A   1      15.061   0.754  26.408  1.00  0.00    +0.000 C 
BRANCH   28   27
ATOM     27  C16 UNL A   1      15.794   1.373  27.608  1.00  0.00    +0.000 C 
ATOM    111  H13 UNL A   1      16.289   0.603  28.162  1.00  0.00    +0.000 H 
ATOM    112  H14 UNL A   1      16.519   2.080  27.262  1.00  0.00    +0.000 H 
BRANCH   27   26
ATOM     26  N3  UNL A   1      14.824   2.043  28.463  1.00  0.00    +0.000 N 
ATOM    110  H12 UNL A   1      14.447   1.476  29.173  1.00  0.00    +0.000 H 
BRANCH   26   24
ATOM     25  O5  UNL A   1      15.133   4.267  28.364  1.00  0.00    +0.000 O 
ATOM     24  C15 UNL A   1      14.346   3.326  28.450  1.00  0.00    +0.000 C 
BRANCH   24   23
ATOM    103  H5  UNL A   1      10.661   4.811  30.913  1.00  0.00    +0.000 H 
ATOM      8  C3  UNL A   1      12.423   4.176  29.924  1.00  0.00    +0.000 C 
ATOM      9  C4  UNL A   1      11.034   4.332  30.078  1.00  0.00    +0.000 C 
ATOM     10  C5  UNL A   1      10.154   3.840  29.109  1.00  0.00    +0.000 C 
ATOM    104  H6  UNL A   1       9.136   3.940  29.244  1.00  0.00    +0.000 H 
ATOM     11  C6  UNL A   1      10.646   3.212  27.960  1.00  0.00    +0.000 C 
ATOM    109  H11 UNL A   1      12.406   2.789  26.883  1.00  0.00    +0.000 H 
ATOM     22  C13 UNL A   1      12.034   3.176  27.764  1.00  0.00    +0.000 C 
ATOM     23  C14 UNL A   1      12.936   3.652  28.738  1.00  0.00    +0.000 C 
BRANCH    8    5
ATOM      5  S1  UNL A   1      13.440   4.484  31.333  1.00  0.00    +0.000 S 
ATOM      6  O2  UNL A   1      14.262   3.307  31.511  1.00  0.00    +0.000 O 
ATOM      7  O3  UNL A   1      12.648   5.028  32.408  1.00  0.00    +0.000 O 
BRANCH    5    4
ATOM      4  N1  UNL A   1      14.470   5.685  30.835  1.00  0.00    +0.000 N 
ATOM    102  H4  UNL A   1      15.396   5.409  30.650  1.00  0.00    +0.000 H 
BRANCH    4    2
ATOM      2  C2  UNL A   1      14.184   7.044  30.647  1.00  0.00    +0.000 C 
ATOM      3  O1  UNL A   1      13.494   7.364  29.688  1.00  0.00    +0.000 O 
BRANCH    2    1
ATOM      1  C1  UNL A   1      14.594   8.035  31.699  1.00  0.00    +0.000 C 
ATOM     99  H1  UNL A   1      14.590   9.021  31.282  1.00  0.00    +0.000 H 
ATOM    100  H2  UNL A   1      15.578   7.800  32.047  1.00  0.00    +0.000 H 
ATOM    101  H3  UNL A   1      13.906   7.992  32.517  1.00  0.00    +0.000 H 
ENDBRANCH    2    1
ENDBRANCH    4    2
ENDBRANCH    5    4
ENDBRANCH    8    5
BRANCH   11   12
ATOM    105  H7  UNL A   1      11.257   1.164  26.206  1.00  0.00    +0.000 H 
ATOM    106  H8  UNL A   1       9.795  -0.121  24.885  1.00  0.00    +0.000 H 
ATOM    108  H10 UNL A   1       8.060   3.500  27.599  1.00  0.00    +0.000 H 
ATOM     12  C7  UNL A   1       9.748   2.458  27.050  1.00  0.00    +0.000 C 
ATOM     13  C8  UNL A   1      10.246   1.373  26.216  1.00  0.00    +0.000 C 
ATOM     14  C9  UNL A   1       9.416   0.644  25.463  1.00  0.00    +0.000 C 
ATOM     15  N2  UNL A   1       8.060   0.899  25.450  1.00  0.00    +0.000 N 
ATOM     19  C11 UNL A   1       7.488   1.910  26.204  1.00  0.00    +0.000 C 
ATOM     20  O4  UNL A   1       6.291   2.174  26.257  1.00  0.00    +0.000 O 
ATOM     21  C12 UNL A   1       8.429   2.722  27.031  1.00  0.00    +0.000 C 
BRANCH   15   16
ATOM     17  F1  UNL A   1       6.597   0.775  23.675  1.00  0.00    +0.000 F 
ATOM     18  F2  UNL A   1       7.826  -0.983  24.132  1.00  0.00    +0.000 F 
ATOM    107  H9  UNL A   1       6.419  -0.289  25.353  1.00  0.00    +0.000 H 
ATOM     16  C10 UNL A   1       7.170   0.068  24.679  1.00  0.00    +0.000 C 
ENDBRANCH   15   16
ENDBRANCH   11   12
ENDBRANCH   24   23
ENDBRANCH   26   24
ENDBRANCH   27   26
ENDBRANCH   28   27
ENDBRANCH   29   28
ENDBRANCH   30   29
ENDBRANCH   31   30
ENDBRANCH   32   31
ENDBRANCH   33   32
ENDBRANCH   34   33
ENDBRANCH   36   34
ENDBRANCH   40   39
BRANCH   44   45
ATOM     45  C31 UNL A   1      12.708   5.215  16.035  1.00  0.00    +0.000 C 
ATOM     46  C32 UNL A   1      14.073   5.531  16.055  1.00  0.00    +0.000 C 
ATOM     47  F3  UNL A   1      14.603   6.166  17.111  1.00  0.00    +0.000 F 
ATOM     48  C33 UNL A   1      14.893   5.211  14.976  1.00  0.00    +0.000 C 
ATOM     49  F4  UNL A   1      16.193   5.537  15.005  1.00  0.00    +0.000 F 
ATOM     50  C34 UNL A   1      14.366   4.560  13.870  1.00  0.00    +0.000 C 
ATOM     51  F5  UNL A   1      15.157   4.251  12.833  1.00  0.00    +0.000 F 
ATOM     52  C35 UNL A   1      13.018   4.235  13.835  1.00  0.00    +0.000 C 
ATOM     53  F6  UNL A   1      12.508   3.606  12.766  1.00  0.00    +0.000 F 
ATOM     54  C36 UNL A   1      12.192   4.562  14.907  1.00  0.00    +0.000 C 
ATOM     55  F7  UNL A   1      10.891   4.242  14.847  1.00  0.00    +0.000 F 
ENDBRANCH   44   45
BRANCH   61   62
ATOM     65  C44 UNL A   1       7.117  12.179  17.297  1.00  0.00    +0.000 C 
ATOM     66  F9  UNL A   1       5.989  12.361  16.597  1.00  0.00    +0.000 F 
ATOM     67  C45 UNL A   1       7.915  13.268  17.622  1.00  0.00    +0.000 C 
ATOM     68  F10 UNL A   1       7.552  14.501  17.242  1.00  0.00    +0.000 F 
ATOM     69  C46 UNL A   1       9.091  13.078  18.332  1.00  0.00    +0.000 C 
ATOM     70  F11 UNL A   1       9.862  14.128  18.642  1.00  0.00    +0.000 F 
ATOM     71  C47 UNL A   1       9.473  11.797  18.720  1.00  0.00    +0.000 C 
ATOM     72  F12 UNL A   1      10.618  11.637  19.398  1.00  0.00    +0.000 F 
ATOM     62  C42 UNL A   1       8.679  10.686  18.404  1.00  0.00    +0.000 C 
ATOM     63  C43 UNL A   1       7.493  10.898  17.688  1.00  0.00    +0.000 C 
ATOM     64  F8  UNL A   1       6.713   9.860  17.354  1.00  0.00    +0.000 F 
ENDBRANCH   61   62
BRANCH   76   77
ATOM     77  C51 UNL A   1       7.165   6.982  24.081  1.00  0.00    +0.000 C 
ATOM     78  C52 UNL A   1       7.693   7.751  25.125  1.00  0.00    +0.000 C 
ATOM     79  F13 UNL A   1       8.949   8.213  25.046  1.00  0.00    +0.000 F 
ATOM     80  C53 UNL A   1       6.939   8.027  26.261  1.00  0.00    +0.000 C 
ATOM     81  F14 UNL A   1       7.469   8.751  27.257  1.00  0.00    +0.000 F 
ATOM     82  C54 UNL A   1       5.641   7.547  26.369  1.00  0.00    +0.000 C 
ATOM     83  F15 UNL A   1       4.915   7.815  27.462  1.00  0.00    +0.000 F 
ATOM     84  C55 UNL A   1       5.099   6.784  25.344  1.00  0.00    +0.000 C 
ATOM     85  F16 UNL A   1       3.847   6.321  25.444  1.00  0.00    +0.000 F 
ATOM     86  C56 UNL A   1       5.856   6.500  24.211  1.00  0.00    +0.000 C 
ATOM     87  F17 UNL A   1       5.316   5.756  23.234  1.00  0.00    +0.000 F 
ENDBRANCH   76   77
TORSDOF 21
ENDMDL
MODEL 3
REMARK VINA RESULT:      -9.8     23.869     32.028
ROOT
ATOM    129  H31 UNL A   1       8.087   4.148  24.651  1.00  0.00    +0.000 H 
ATOM    130  H32 UNL A   1       9.443   2.209  23.723  1.00  0.00    +0.000 H 
ATOM    131  H33 UNL A   1       9.660   5.335  20.991  1.00  0.00    +0.000 H 
ATOM    132  H34 UNL A   1       7.011   9.109  23.031  1.00  0.00    +0.000 H 
ATOM    133  H35 UNL A   1       7.608  10.494  20.960  1.00  0.00    +0.000 H 
ATOM    134  H36 UNL A   1      12.947   2.816  17.287  1.00  0.00    +0.000 H 
ATOM    135  H37 UNL A   1      12.228   1.354  19.264  1.00  0.00    +0.000 H 
ATOM     40  C27 UNL A   1      10.660   2.735  21.199  1.00  0.00    +0.000 C 
ATOM     41  C28 UNL A   1      11.192   3.269  19.901  1.00  0.00    +0.000 C 
ATOM     42  N5  UNL A   1      11.051   4.462  19.380  1.00  0.00    +0.000 N 
ATOM     43  C29 UNL A   1      11.770   4.443  18.194  1.00  0.00    +0.000 C 
ATOM     44  C30 UNL A   1      11.937   5.438  17.291  1.00  0.00    +0.000 C 
ATOM     56  C37 UNL A   1      11.344   6.745  17.385  1.00  0.00    +0.000 C 
ATOM     57  C38 UNL A   1      11.435   7.803  16.496  1.00  0.00    +0.000 C 
ATOM     58  C39 UNL A   1      10.689   8.872  17.008  1.00  0.00    +0.000 C 
ATOM     59  C40 UNL A   1      10.127   8.474  18.209  1.00  0.00    +0.000 C 
ATOM     60  N6  UNL A   1      10.538   7.170  18.430  1.00  0.00    +0.000 N 
ATOM     61  C41 UNL A   1       9.277   9.222  19.095  1.00  0.00    +0.000 C 
ATOM     73  C48 UNL A   1       8.772   8.759  20.262  1.00  0.00    +0.000 C 
ATOM     74  N7  UNL A   1       8.947   7.516  20.850  1.00  0.00    +0.000 N 
ATOM     75  C49 UNL A   1       8.271   7.550  21.970  1.00  0.00    +0.000 C 
ATOM     76  C50 UNL A   1       8.110   6.479  23.008  1.00  0.00    +0.000 C 
ATOM     88  C57 UNL A   1       8.680   5.274  22.826  1.00  0.00    +0.000 C 
ATOM     89  C58 UNL A   1       8.604   4.152  23.757  1.00  0.00    +0.000 C 
ATOM     90  C59 UNL A   1       9.316   3.124  23.265  1.00  0.00    +0.000 C 
ATOM     91  C60 UNL A   1       9.883   3.514  21.975  1.00  0.00    +0.000 C 
ATOM     92  N8  UNL A   1       9.446   4.802  21.790  1.00  0.00    +0.000 N 
ATOM     93  C61 UNL A   1       7.591   8.829  22.225  1.00  0.00    +0.000 C 
ATOM     94  C62 UNL A   1       7.920   9.527  21.146  1.00  0.00    +0.000 C 
ATOM     95  C63 UNL A   1      12.345   3.118  18.068  1.00  0.00    +0.000 C 
ATOM     96  C64 UNL A   1      11.996   2.345  19.088  1.00  0.00    +0.000 C 
ATOM    126  H28 UNL A   1      11.962   7.803  15.609  1.00  0.00    +0.000 H 
ATOM    127  H29 UNL A   1      10.578   9.798  16.565  1.00  0.00    +0.000 H 
ATOM    128  H30 UNL A   1      10.295   6.625  19.212  1.00  0.00    +0.000 H 
ENDROOT
BRANCH   40   39
ATOM     97  C65 UNL A   1      12.030   1.170  22.591  1.00  0.00    +0.000 C 
ATOM     98  C66 UNL A   1      12.351  -0.117  23.032  1.00  0.00    +0.000 C 
ATOM     36  C23 UNL A   1      11.617  -1.216  22.571  1.00  0.00    +0.000 C 
ATOM     37  C24 UNL A   1      10.615  -1.031  21.613  1.00  0.00    +0.000 C 
ATOM     38  C25 UNL A   1      10.311   0.253  21.153  1.00  0.00    +0.000 C 
ATOM     39  C26 UNL A   1      11.006   1.365  21.651  1.00  0.00    +0.000 C 
ATOM    136  H38 UNL A   1      12.550   1.982  22.959  1.00  0.00    +0.000 H 
ATOM    137  H39 UNL A   1      13.128  -0.257  23.696  1.00  0.00    +0.000 H 
ATOM    124  H26 UNL A   1      10.098  -1.845  21.244  1.00  0.00    +0.000 H 
ATOM    125  H27 UNL A   1       9.572   0.384  20.444  1.00  0.00    +0.000 H 
BRANCH   36   34
ATOM     34  C22 UNL A   1      11.912  -2.598  23.013  1.00  0.00    +0.000 C 
ATOM     35  O6  UNL A   1      12.055  -3.477  22.167  1.00  0.00    +0.000 O 
BRANCH   34   33
ATOM     33  N4  UNL A   1      12.002  -2.916  24.345  1.00  0.00    +0.000 N 
ATOM    123  H25 UNL A   1      12.920  -2.965  24.698  1.00  0.00    +0.000 H 
BRANCH   33   32
ATOM    121  H23 UNL A   1      10.064  -2.692  25.005  1.00  0.00    +0.000 H 
ATOM    122  H24 UNL A   1      10.829  -4.251  25.359  1.00  0.00    +0.000 H 
ATOM     32  C21 UNL A   1      10.959  -3.190  25.316  1.00  0.00    +0.000 C 
BRANCH   32   31
ATOM    119  H21 UNL A   1      10.785  -1.803  26.905  1.00  0.00    +0.000 H 
ATOM     31  C20 UNL A   1      11.319  -2.712  26.725  1.00  0.00    +0.000 C 
ATOM    120  H22 UNL A   1      11.055  -3.523  27.372  1.00  0.00    +0.000 H 
BRANCH   31   30
ATOM    118  H20 UNL A   1      13.336  -2.911  26.203  1.00  0.00    +0.000 H 
ATOM    117  H19 UNL A   1      13.031  -2.834  27.974  1.00  0.00    +0.000 H 
ATOM     30  C19 UNL A   1      12.805  -2.442  27.005  1.00  0.00    +0.000 C 
BRANCH   30   29
ATOM    115  H17 UNL A   1      12.387  -0.373  26.771  1.00  0.00    +0.000 H 
ATOM    116  H18 UNL A   1      13.678  -0.776  27.940  1.00  0.00    +0.000 H 
ATOM     29  C18 UNL A   1      13.246  -0.976  26.982  1.00  0.00    +0.000 C 
BRANCH   29   28
ATOM    113  H15 UNL A   1      14.749  -1.566  25.605  1.00  0.00    +0.000 H 
ATOM    114  H16 UNL A   1      13.838  -0.091  25.172  1.00  0.00    +0.000 H 
ATOM     28  C17 UNL A   1      14.323  -0.646  25.947  1.00  0.00    +0.000 C 
BRANCH   28   27
ATOM     27  C16 UNL A   1      15.464   0.242  26.467  1.00  0.00    +0.000 C 
ATOM    111  H13 UNL A   1      16.175  -0.359  26.995  1.00  0.00    +0.000 H 
ATOM    112  H14 UNL A   1      15.951   0.722  25.644  1.00  0.00    +0.000 H 
BRANCH   27   26
ATOM     26  N3  UNL A   1      14.913   1.248  27.364  1.00  0.00    +0.000 N 
ATOM    110  H12 UNL A   1      14.958   1.010  28.318  1.00  0.00    +0.000 H 
BRANCH   26   24
ATOM     25  O5  UNL A   1      15.046   3.400  26.729  1.00  0.00    +0.000 O 
ATOM     24  C15 UNL A   1      14.342   2.466  27.110  1.00  0.00    +0.000 C 
BRANCH   24   23
ATOM    103  H5  UNL A   1      10.804   4.539  29.353  1.00  0.00    +0.000 H 
ATOM      8  C3  UNL A   1      12.507   3.691  28.424  1.00  0.00    +0.000 C 
ATOM      9  C4  UNL A   1      11.136   3.796  28.719  1.00  0.00    +0.000 C 
ATOM     10  C5  UNL A   1      10.221   2.898  28.161  1.00  0.00    +0.000 C 
ATOM    104  H6  UNL A   1       9.221   2.970  28.403  1.00  0.00    +0.000 H 
ATOM     11  C6  UNL A   1      10.654   1.902  27.279  1.00  0.00    +0.000 C 
ATOM    109  H11 UNL A   1      12.319   1.213  26.189  1.00  0.00    +0.000 H 
ATOM     22  C13 UNL A   1      12.004   1.890  26.900  1.00  0.00    +0.000 C 
ATOM     23  C14 UNL A   1      12.944   2.778  27.466  1.00  0.00    +0.000 C 
BRANCH    8    5
ATOM      5  S1  UNL A   1      13.631   4.606  29.432  1.00  0.00    +0.000 S 
ATOM      6  O2  UNL A   1      14.051   5.746  28.647  1.00  0.00    +0.000 O 
ATOM      7  O3  UNL A   1      14.581   3.716  30.049  1.00  0.00    +0.000 O 
BRANCH    5    4
ATOM      4  N1  UNL A   1      12.682   5.218  30.647  1.00  0.00    +0.000 N 
ATOM    102  H4  UNL A   1      12.337   4.563  31.296  1.00  0.00    +0.000 H 
BRANCH    4    2
ATOM      2  C2  UNL A   1      12.311   6.552  30.863  1.00  0.00    +0.000 C 
ATOM      3  O1  UNL A   1      11.407   7.020  30.183  1.00  0.00    +0.000 O 
BRANCH    2    1
ATOM      1  C1  UNL A   1      12.915   7.306  32.013  1.00  0.00    +0.000 C 
ATOM     99  H1  UNL A   1      12.311   7.170  32.886  1.00  0.00    +0.000 H 
ATOM    100  H2  UNL A   1      12.963   8.347  31.771  1.00  0.00    +0.000 H 
ATOM    101  H3  UNL A   1      13.902   6.938  32.202  1.00  0.00    +0.000 H 
ENDBRANCH    2    1
ENDBRANCH    4    2
ENDBRANCH    5    4
ENDBRANCH    8    5
BRANCH   11   12
ATOM    105  H7  UNL A   1       9.313   0.082  28.871  1.00  0.00    +0.000 H 
ATOM    106  H8  UNL A   1       7.782  -1.582  28.226  1.00  0.00    +0.000 H 
ATOM    108  H10 UNL A   1       9.955   1.148  24.863  1.00  0.00    +0.000 H 
ATOM     12  C7  UNL A   1       9.761   0.787  26.879  1.00  0.00    +0.000 C 
ATOM     13  C8  UNL A   1       9.104  -0.055  27.869  1.00  0.00    +0.000 C 
ATOM     14  C9  UNL A   1       8.235  -1.002  27.504  1.00  0.00    +0.000 C 
ATOM     15  N2  UNL A   1       7.935  -1.216  26.174  1.00  0.00    +0.000 N 
ATOM     19  C11 UNL A   1       8.508  -0.471  25.156  1.00  0.00    +0.000 C 
ATOM     20  O4  UNL A   1       8.268  -0.592  23.959  1.00  0.00    +0.000 O 
ATOM     21  C12 UNL A   1       9.483   0.576  25.580  1.00  0.00    +0.000 C 
BRANCH   15   16
ATOM     17  F1  UNL A   1       7.411  -3.454  26.033  1.00  0.00    +0.000 F 
ATOM     18  F2  UNL A   1       5.800  -2.037  26.488  1.00  0.00    +0.000 F 
ATOM    107  H9  UNL A   1       6.767  -2.068  24.752  1.00  0.00    +0.000 H 
ATOM     16  C10 UNL A   1       6.953  -2.201  25.797  1.00  0.00    +0.000 C 
ENDBRANCH   15   16
ENDBRANCH   11   12
ENDBRANCH   24   23
ENDBRANCH   26   24
ENDBRANCH   27   26
ENDBRANCH   28   27
ENDBRANCH   29   28
ENDBRANCH   30   29
ENDBRANCH   31   30
ENDBRANCH   32   31
ENDBRANCH   33   32
ENDBRANCH   34   33
ENDBRANCH   36   34
ENDBRANCH   40   39
BRANCH   44   45
ATOM     45  C31 UNL A   1      12.814   5.152  16.115  1.00  0.00    +0.000 C 
ATOM     46  C32 UNL A   1      12.311   4.519  14.971  1.00  0.00    +0.000 C 
ATOM     47  F3  UNL A   1      11.034   4.114  14.930  1.00  0.00    +0.000 F 
ATOM     48  C33 UNL A   1      13.132   4.283  13.871  1.00  0.00    +0.000 C 
ATOM     49  F4  UNL A   1      12.640   3.660  12.791  1.00  0.00    +0.000 F 
ATOM     50  C34 UNL A   1      14.459   4.688  13.893  1.00  0.00    +0.000 C 
ATOM     51  F5  UNL A   1      15.247   4.461  12.832  1.00  0.00    +0.000 F 
ATOM     52  C35 UNL A   1      14.972   5.321  15.015  1.00  0.00    +0.000 C 
ATOM     53  F6  UNL A   1      16.255   5.711  15.036  1.00  0.00    +0.000 F 
ATOM     54  C36 UNL A   1      14.158   5.549  16.121  1.00  0.00    +0.000 C 
ATOM     55  F7  UNL A   1      14.679   6.157  17.197  1.00  0.00    +0.000 F 
ENDBRANCH   44   45
BRANCH   61   62
ATOM     65  C44 UNL A   1       9.391  12.998  18.682  1.00  0.00    +0.000 C 
ATOM     66  F9  UNL A   1      10.163  14.027  19.060  1.00  0.00    +0.000 F 
ATOM     67  C45 UNL A   1       8.260  13.228  17.910  1.00  0.00    +0.000 C 
ATOM     68  F10 UNL A   1       7.945  14.476  17.538  1.00  0.00    +0.000 F 
ATOM     69  C46 UNL A   1       7.453  12.165  17.533  1.00  0.00    +0.000 C 
ATOM     70  F11 UNL A   1       6.359  12.387  16.792  1.00  0.00    +0.000 F 
ATOM     71  C47 UNL A   1       7.774  10.869  17.926  1.00  0.00    +0.000 C 
ATOM     72  F12 UNL A   1       6.974   9.859  17.557  1.00  0.00    +0.000 F 
ATOM     62  C42 UNL A   1       8.914  10.619  18.702  1.00  0.00    +0.000 C 
ATOM     63  C43 UNL A   1       9.720  11.705  19.072  1.00  0.00    +0.000 C 
ATOM     64  F8  UNL A   1      10.811  11.508  19.827  1.00  0.00    +0.000 F 
ENDBRANCH   61   62
BRANCH   76   77
ATOM     77  C51 UNL A   1       7.316   6.730  24.231  1.00  0.00    +0.000 C 
ATOM     78  C52 UNL A   1       6.031   6.190  24.374  1.00  0.00    +0.000 C 
ATOM     79  F13 UNL A   1       5.497   5.466  23.381  1.00  0.00    +0.000 F 
ATOM     80  C53 UNL A   1       5.287   6.414  25.528  1.00  0.00    +0.000 C 
ATOM     81  F14 UNL A   1       4.053   5.902  25.637  1.00  0.00    +0.000 F 
ATOM     82  C54 UNL A   1       5.817   7.173  26.562  1.00  0.00    +0.000 C 
ATOM     83  F15 UNL A   1       5.100   7.386  27.674  1.00  0.00    +0.000 F 
ATOM     84  C55 UNL A   1       7.089   7.714  26.440  1.00  0.00    +0.000 C 
ATOM     85  F16 UNL A   1       7.603   8.445  27.438  1.00  0.00    +0.000 F 
ATOM     86  C56 UNL A   1       7.831   7.499  25.283  1.00  0.00    +0.000 C 
ATOM     87  F17 UNL A   1       9.056   8.036  25.183  1.00  0.00    +0.000 F 
ENDBRANCH   76   77
TORSDOF 21
ENDMDL
MODEL 4
REMARK VINA RESULT:      -9.7     34.618     38.592
ROOT
ATOM    129  H31 UNL A   1      37.449  33.773  34.883  1.00  0.00    +0.000 H 
ATOM    130  H32 UNL A   1      36.405  33.586  32.573  1.00  0.00    +0.000 H 
ATOM    131  H33 UNL A   1      39.711  31.067  32.684  1.00  0.00    +0.000 H 
ATOM    132  H34 UNL A   1      41.586  31.491  37.346  1.00  0.00    +0.000 H 
ATOM    133  H35 UNL A   1      43.375  29.791  36.656  1.00  0.00    +0.000 H 
ATOM    134  H36 UNL A   1      39.259  29.070  27.519  1.00  0.00    +0.000 H 
ATOM    135  H37 UNL A   1      37.562  30.890  28.127  1.00  0.00    +0.000 H 
ATOM     40  C27 UNL A   1      37.751  31.778  30.826  1.00  0.00    +0.000 C 
ATOM     41  C28 UNL A   1      38.622  30.775  30.129  1.00  0.00    +0.000 C 
ATOM     42  N5  UNL A   1      39.645  30.104  30.596  1.00  0.00    +0.000 N 
ATOM     43  C29 UNL A   1      40.067  29.287  29.557  1.00  0.00    +0.000 C 
ATOM     44  C30 UNL A   1      41.090  28.401  29.542  1.00  0.00    +0.000 C 
ATOM     56  C37 UNL A   1      41.987  28.157  30.640  1.00  0.00    +0.000 C 
ATOM     57  C38 UNL A   1      43.073  27.298  30.697  1.00  0.00    +0.000 C 
ATOM     58  C39 UNL A   1      43.647  27.401  31.970  1.00  0.00    +0.000 C 
ATOM     59  C40 UNL A   1      42.924  28.330  32.699  1.00  0.00    +0.000 C 
ATOM     60  N6  UNL A   1      41.909  28.784  31.873  1.00  0.00    +0.000 N 
ATOM     61  C41 UNL A   1      43.138  28.777  34.049  1.00  0.00    +0.000 C 
ATOM     73  C48 UNL A   1      42.377  29.690  34.695  1.00  0.00    +0.000 C 
ATOM     74  N7  UNL A   1      41.265  30.377  34.231  1.00  0.00    +0.000 N 
ATOM     75  C49 UNL A   1      40.873  31.136  35.222  1.00  0.00    +0.000 C 
ATOM     76  C50 UNL A   1      39.717  32.091  35.279  1.00  0.00    +0.000 C 
ATOM     88  C57 UNL A   1      38.943  32.275  34.194  1.00  0.00    +0.000 C 
ATOM     89  C58 UNL A   1      37.789  33.167  34.119  1.00  0.00    +0.000 C 
ATOM     90  C59 UNL A   1      37.240  33.073  32.897  1.00  0.00    +0.000 C 
ATOM     91  C60 UNL A   1      38.016  32.125  32.099  1.00  0.00    +0.000 C 
ATOM     92  N8  UNL A   1      39.013  31.709  32.947  1.00  0.00    +0.000 N 
ATOM     93  C61 UNL A   1      41.692  31.013  36.437  1.00  0.00    +0.000 C 
ATOM     94  C62 UNL A   1      42.604  30.127  36.057  1.00  0.00    +0.000 C 
ATOM     95  C63 UNL A   1      39.193  29.548  28.431  1.00  0.00    +0.000 C 
ATOM     96  C64 UNL A   1      38.296  30.480  28.726  1.00  0.00    +0.000 C 
ATOM    126  H28 UNL A   1      43.401  26.688  29.933  1.00  0.00    +0.000 H 
ATOM    127  H29 UNL A   1      44.468  26.873  32.308  1.00  0.00    +0.000 H 
ATOM    128  H30 UNL A   1      41.232  29.453  32.125  1.00  0.00    +0.000 H 
ENDROOT
BRANCH   40   39
ATOM     97  C65 UNL A   1      36.717  33.560  29.404  1.00  0.00    +0.000 C 
ATOM     98  C66 UNL A   1      35.619  34.114  28.739  1.00  0.00    +0.000 C 
ATOM     36  C23 UNL A   1      34.385  33.456  28.762  1.00  0.00    +0.000 C 
ATOM     37  C24 UNL A   1      34.233  32.286  29.513  1.00  0.00    +0.000 C 
ATOM     38  C25 UNL A   1      35.325  31.745  30.198  1.00  0.00    +0.000 C 
ATOM     39  C26 UNL A   1      36.579  32.370  30.136  1.00  0.00    +0.000 C 
ATOM    136  H38 UNL A   1      37.636  34.029  29.356  1.00  0.00    +0.000 H 
ATOM    137  H39 UNL A   1      35.719  35.008  28.233  1.00  0.00    +0.000 H 
ATOM    124  H26 UNL A   1      33.314  31.820  29.562  1.00  0.00    +0.000 H 
ATOM    125  H27 UNL A   1      35.207  30.883  30.753  1.00  0.00    +0.000 H 
BRANCH   36   34
ATOM     34  C22 UNL A   1      33.194  33.998  28.068  1.00  0.00    +0.000 C 
ATOM     35  O6  UNL A   1      32.714  35.063  28.450  1.00  0.00    +0.000 O 
BRANCH   34   33
ATOM     33  N4  UNL A   1      32.605  33.321  27.029  1.00  0.00    +0.000 N 
ATOM    123  H25 UNL A   1      32.929  33.573  26.134  1.00  0.00    +0.000 H 
BRANCH   33   32
ATOM    121  H23 UNL A   1      31.374  32.030  28.058  1.00  0.00    +0.000 H 
ATOM    122  H24 UNL A   1      30.719  32.689  26.549  1.00  0.00    +0.000 H 
ATOM     32  C21 UNL A   1      31.582  32.292  27.042  1.00  0.00    +0.000 C 
BRANCH   32   31
ATOM    119  H21 UNL A   1      31.318  30.893  25.476  1.00  0.00    +0.000 H 
ATOM     31  C20 UNL A   1      32.002  31.028  26.287  1.00  0.00    +0.000 C 
ATOM    120  H22 UNL A   1      33.017  31.200  25.995  1.00  0.00    +0.000 H 
BRANCH   31   30
ATOM    118  H20 UNL A   1      31.414  29.036  26.548  1.00  0.00    +0.000 H 
ATOM    117  H19 UNL A   1      31.686  29.938  28.081  1.00  0.00    +0.000 H 
ATOM     30  C19 UNL A   1      32.031  29.720  27.093  1.00  0.00    +0.000 C 
BRANCH   30   29
ATOM    115  H17 UNL A   1      34.143  29.786  27.312  1.00  0.00    +0.000 H 
ATOM    116  H18 UNL A   1      33.328  28.389  28.073  1.00  0.00    +0.000 H 
ATOM     29  C18 UNL A   1      33.392  29.029  27.217  1.00  0.00    +0.000 C 
BRANCH   29   28
ATOM    113  H15 UNL A   1      33.172  28.423  25.196  1.00  0.00    +0.000 H 
ATOM    114  H16 UNL A   1      34.816  28.265  25.877  1.00  0.00    +0.000 H 
ATOM     28  C17 UNL A   1      33.767  28.132  26.036  1.00  0.00    +0.000 C 
BRANCH   28   27
ATOM     27  C16 UNL A   1      33.553  26.629  26.275  1.00  0.00    +0.000 C 
ATOM    111  H13 UNL A   1      34.139  26.068  25.578  1.00  0.00    +0.000 H 
ATOM    112  H14 UNL A   1      33.851  26.377  27.271  1.00  0.00    +0.000 H 
BRANCH   27   26
ATOM     26  N3  UNL A   1      32.143  26.315  26.091  1.00  0.00    +0.000 N 
ATOM    110  H12 UNL A   1      31.524  26.963  26.499  1.00  0.00    +0.000 H 
BRANCH   26   24
ATOM     25  O5  UNL A   1      30.469  24.829  25.887  1.00  0.00    +0.000 O 
ATOM     24  C15 UNL A   1      31.529  25.273  25.449  1.00  0.00    +0.000 C 
BRANCH   24   23
ATOM    103  H5  UNL A   1      33.161  24.385  21.160  1.00  0.00    +0.000 H 
ATOM      8  C3  UNL A   1      32.377  24.933  23.049  1.00  0.00    +0.000 C 
ATOM      9  C4  UNL A   1      32.922  24.045  22.105  1.00  0.00    +0.000 C 
ATOM     10  C5  UNL A   1      33.140  22.704  22.436  1.00  0.00    +0.000 C 
ATOM    104  H6  UNL A   1      33.520  22.057  21.728  1.00  0.00    +0.000 H 
ATOM     11  C6  UNL A   1      32.847  22.236  23.721  1.00  0.00    +0.000 C 
ATOM    109  H11 UNL A   1      32.280  22.844  25.657  1.00  0.00    +0.000 H 
ATOM     22  C13 UNL A   1      32.421  23.161  24.685  1.00  0.00    +0.000 C 
ATOM     23  C14 UNL A   1      32.180  24.514  24.364  1.00  0.00    +0.000 C 
BRANCH    8    5
ATOM      5  S1  UNL A   1      31.794  26.492  22.462  1.00  0.00    +0.000 S 
ATOM      6  O2  UNL A   1      31.633  26.358  21.031  1.00  0.00    +0.000 O 
ATOM      7  O3  UNL A   1      32.564  27.562  23.044  1.00  0.00    +0.000 O 
BRANCH    5    4
ATOM      4  N1  UNL A   1      30.259  26.610  23.081  1.00  0.00    +0.000 N 
ATOM    102  H4  UNL A   1      29.906  25.801  23.516  1.00  0.00    +0.000 H 
BRANCH    4    2
ATOM      2  C2  UNL A   1      29.404  27.720  23.060  1.00  0.00    +0.000 C 
ATOM      3  O1  UNL A   1      29.766  28.720  22.455  1.00  0.00    +0.000 O 
BRANCH    2    1
ATOM      1  C1  UNL A   1      28.022  27.594  23.636  1.00  0.00    +0.000 C 
ATOM     99  H1  UNL A   1      27.827  26.570  23.877  1.00  0.00    +0.000 H 
ATOM    100  H2  UNL A   1      27.305  27.934  22.919  1.00  0.00    +0.000 H 
ATOM    101  H3  UNL A   1      27.950  28.189  24.523  1.00  0.00    +0.000 H 
ENDBRANCH    2    1
ENDBRANCH    4    2
ENDBRANCH    5    4
ENDBRANCH    8    5
BRANCH   11   12
ATOM    105  H7  UNL A   1      33.311  20.945  26.122  1.00  0.00    +0.000 H 
ATOM    106  H8  UNL A   1      33.118  18.654  26.617  1.00  0.00    +0.000 H 
ATOM    108  H10 UNL A   1      32.360  20.231  22.097  1.00  0.00    +0.000 H 
ATOM     12  C7  UNL A   1      32.822  20.784  24.024  1.00  0.00    +0.000 C 
ATOM     13  C8  UNL A   1      33.057  20.283  25.372  1.00  0.00    +0.000 C 
ATOM     14  C9  UNL A   1      32.950  18.981  25.653  1.00  0.00    +0.000 C 
ATOM     15  N2  UNL A   1      32.617  18.068  24.674  1.00  0.00    +0.000 N 
ATOM     19  C11 UNL A   1      32.376  18.442  23.362  1.00  0.00    +0.000 C 
ATOM     20  O4  UNL A   1      32.053  17.687  22.451  1.00  0.00    +0.000 O 
ATOM     21  C12 UNL A   1      32.510  19.898  23.062  1.00  0.00    +0.000 C 
BRANCH   15   16
ATOM     17  F1  UNL A   1      33.186  15.891  24.183  1.00  0.00    +0.000 F 
ATOM     18  F2  UNL A   1      32.823  16.421  26.280  1.00  0.00    +0.000 F 
ATOM    107  H9  UNL A   1      31.407  16.454  24.885  1.00  0.00    +0.000 H 
ATOM     16  C10 UNL A   1      32.447  16.675  25.004  1.00  0.00    +0.000 C 
ENDBRANCH   15   16
ENDBRANCH   11   12
ENDBRANCH   24   23
ENDBRANCH   26   24
ENDBRANCH   27   26
ENDBRANCH   28   27
ENDBRANCH   29   28
ENDBRANCH   30   29
ENDBRANCH   31   30
ENDBRANCH   32   31
ENDBRANCH   33   32
ENDBRANCH   34   33
ENDBRANCH   36   34
ENDBRANCH   40   39
BRANCH   44   45
ATOM     45  C31 UNL A   1      41.289  27.610  28.289  1.00  0.00    +0.000 C 
ATOM     46  C32 UNL A   1      42.141  28.062  27.273  1.00  0.00    +0.000 C 
ATOM     47  F3  UNL A   1      42.762  29.245  27.389  1.00  0.00    +0.000 F 
ATOM     48  C33 UNL A   1      42.340  27.303  26.123  1.00  0.00    +0.000 C 
ATOM     49  F4  UNL A   1      43.144  27.758  25.152  1.00  0.00    +0.000 F 
ATOM     50  C34 UNL A   1      41.703  26.079  25.977  1.00  0.00    +0.000 C 
ATOM     51  F5  UNL A   1      41.897  25.349  24.870  1.00  0.00    +0.000 F 
ATOM     52  C35 UNL A   1      40.861  25.613  26.977  1.00  0.00    +0.000 C 
ATOM     53  F6  UNL A   1      40.245  24.430  26.836  1.00  0.00    +0.000 F 
ATOM     54  C36 UNL A   1      40.651  26.373  28.123  1.00  0.00    +0.000 C 
ATOM     55  F7  UNL A   1      39.827  25.905  29.072  1.00  0.00    +0.000 F 
ENDBRANCH   44   45
BRANCH   61   62
ATOM     65  C44 UNL A   1      46.610  28.285  35.515  1.00  0.00    +0.000 C 
ATOM     66  F9  UNL A   1      47.810  28.881  35.477  1.00  0.00    +0.000 F 
ATOM     67  C45 UNL A   1      46.432  27.133  36.269  1.00  0.00    +0.000 C 
ATOM     68  F10 UNL A   1      47.459  26.622  36.964  1.00  0.00    +0.000 F 
ATOM     69  C46 UNL A   1      45.195  26.507  36.295  1.00  0.00    +0.000 C 
ATOM     70  F11 UNL A   1      45.025  25.393  37.019  1.00  0.00    +0.000 F 
ATOM     71  C47 UNL A   1      44.131  27.031  35.567  1.00  0.00    +0.000 C 
ATOM     72  F12 UNL A   1      42.947  26.404  35.600  1.00  0.00    +0.000 F 
ATOM     62  C42 UNL A   1      44.291  28.196  34.803  1.00  0.00    +0.000 C 
ATOM     63  C43 UNL A   1      45.548  28.816  34.791  1.00  0.00    +0.000 C 
ATOM     64  F8  UNL A   1      45.746  29.924  34.061  1.00  0.00    +0.000 F 
ENDBRANCH   61   62
BRANCH   76   77
ATOM     77  C51 UNL A   1      39.424  32.844  36.518  1.00  0.00    +0.000 C 
ATOM     78  C52 UNL A   1      38.507  32.352  37.455  1.00  0.00    +0.000 C 
ATOM     79  F13 UNL A   1      37.860  31.202  37.217  1.00  0.00    +0.000 F 
ATOM     80  C53 UNL A   1      38.238  33.051  38.628  1.00  0.00    +0.000 C 
ATOM     81  F14 UNL A   1      37.344  32.570  39.503  1.00  0.00    +0.000 F 
ATOM     82  C54 UNL A   1      38.887  34.250  38.887  1.00  0.00    +0.000 C 
ATOM     83  F15 UNL A   1      38.629  34.922  40.017  1.00  0.00    +0.000 F 
ATOM     84  C55 UNL A   1      39.801  34.753  37.972  1.00  0.00    +0.000 C 
ATOM     85  F16 UNL A   1      40.431  35.909  38.221  1.00  0.00    +0.000 F 
ATOM     86  C56 UNL A   1      40.064  34.059  36.795  1.00  0.00    +0.000 C 
ATOM     87  F17 UNL A   1      40.947  34.566  35.921  1.00  0.00    +0.000 F 
ENDBRANCH   76   77
TORSDOF 21
ENDMDL
MODEL 5
REMARK VINA RESULT:      -9.7     21.399     27.106
ROOT
ATOM    129  H31 UNL A   1      11.844  50.039   6.300  1.00  0.00    +0.000 H 
ATOM    130  H32 UNL A   1      12.193  52.502   6.823  1.00  0.00    +0.000 H 
ATOM    131  H33 UNL A   1      14.536  51.558   3.521  1.00  0.00    +0.000 H 
ATOM    132  H34 UNL A   1      13.647  46.687   2.572  1.00  0.00    +0.000 H 
ATOM    133  H35 UNL A   1      15.273  46.893   0.601  1.00  0.00    +0.000 H 
ATOM    134  H36 UNL A   1      16.662  56.623   2.686  1.00  0.00    +0.000 H 
ATOM    135  H37 UNL A   1      15.175  56.404   4.760  1.00  0.00    +0.000 H 
ATOM     40  C27 UNL A   1      14.003  53.826   5.062  1.00  0.00    +0.000 C 
ATOM     41  C28 UNL A   1      14.964  54.276   4.002  1.00  0.00    +0.000 C 
ATOM     42  N5  UNL A   1      15.471  53.596   3.004  1.00  0.00    +0.000 N 
ATOM     43  C29 UNL A   1      16.269  54.489   2.304  1.00  0.00    +0.000 C 
ATOM     44  C30 UNL A   1      17.005  54.270   1.190  1.00  0.00    +0.000 C 
ATOM     56  C37 UNL A   1      17.128  53.004   0.518  1.00  0.00    +0.000 C 
ATOM     57  C38 UNL A   1      17.882  52.687  -0.600  1.00  0.00    +0.000 C 
ATOM     58  C39 UNL A   1      17.689  51.330  -0.889  1.00  0.00    +0.000 C 
ATOM     59  C40 UNL A   1      16.824  50.804   0.055  1.00  0.00    +0.000 C 
ATOM     60  N6  UNL A   1      16.486  51.840   0.910  1.00  0.00    +0.000 N 
ATOM     61  C41 UNL A   1      16.338  49.456   0.177  1.00  0.00    +0.000 C 
ATOM     73  C48 UNL A   1      15.482  49.021   1.131  1.00  0.00    +0.000 C 
ATOM     74  N7  UNL A   1      14.902  49.738   2.166  1.00  0.00    +0.000 N 
ATOM     75  C49 UNL A   1      14.147  48.886   2.813  1.00  0.00    +0.000 C 
ATOM     76  C50 UNL A   1      13.287  49.115   4.020  1.00  0.00    +0.000 C 
ATOM     88  C57 UNL A   1      13.251  50.328   4.601  1.00  0.00    +0.000 C 
ATOM     89  C58 UNL A   1      12.454  50.683   5.772  1.00  0.00    +0.000 C 
ATOM     90  C59 UNL A   1      12.642  51.984   6.052  1.00  0.00    +0.000 C 
ATOM     91  C60 UNL A   1      13.586  52.546   5.088  1.00  0.00    +0.000 C 
ATOM     92  N8  UNL A   1      13.903  51.490   4.270  1.00  0.00    +0.000 N 
ATOM     93  C61 UNL A   1      14.158  47.525   2.255  1.00  0.00    +0.000 C 
ATOM     94  C62 UNL A   1      14.999  47.660   1.237  1.00  0.00    +0.000 C 
ATOM     95  C63 UNL A   1      16.182  55.762   2.992  1.00  0.00    +0.000 C 
ATOM     96  C64 UNL A   1      15.406  55.677   4.064  1.00  0.00    +0.000 C 
ATOM    126  H28 UNL A   1      18.482  53.338  -1.129  1.00  0.00    +0.000 H 
ATOM    127  H29 UNL A   1      18.118  50.811  -1.672  1.00  0.00    +0.000 H 
ATOM    128  H30 UNL A   1      15.879  51.762   1.681  1.00  0.00    +0.000 H 
ENDROOT
BRANCH   40   39
ATOM     97  C65 UNL A   1      12.314  55.521   5.799  1.00  0.00    +0.000 C 
ATOM     98  C66 UNL A   1      11.809  56.416   6.747  1.00  0.00    +0.000 C 
ATOM     36  C23 UNL A   1      12.440  56.547   7.988  1.00  0.00    +0.000 C 
ATOM     37  C24 UNL A   1      13.619  55.839   8.248  1.00  0.00    +0.000 C 
ATOM     38  C25 UNL A   1      14.138  54.963   7.291  1.00  0.00    +0.000 C 
ATOM     39  C26 UNL A   1      13.480  54.786   6.065  1.00  0.00    +0.000 C 
ATOM    136  H38 UNL A   1      11.827  55.400   4.897  1.00  0.00    +0.000 H 
ATOM    137  H39 UNL A   1      10.972  56.980   6.530  1.00  0.00    +0.000 H 
ATOM    124  H26 UNL A   1      14.106  55.964   9.149  1.00  0.00    +0.000 H 
ATOM    125  H27 UNL A   1      15.009  54.445   7.487  1.00  0.00    +0.000 H 
BRANCH   36   34
ATOM     34  C22 UNL A   1      11.941  57.476   9.029  1.00  0.00    +0.000 C 
ATOM     35  O6  UNL A   1      12.348  58.635   9.039  1.00  0.00    +0.000 O 
BRANCH   34   33
ATOM     33  N4  UNL A   1      11.056  57.058   9.991  1.00  0.00    +0.000 N 
ATOM    123  H25 UNL A   1      10.174  57.494   9.960  1.00  0.00    +0.000 H 
BRANCH   33   32
ATOM    121  H23 UNL A   1      10.699  55.181  10.759  1.00  0.00    +0.000 H 
ATOM    122  H24 UNL A   1      12.263  55.903  11.173  1.00  0.00    +0.000 H 
ATOM     32  C21 UNL A   1      11.215  56.073  11.045  1.00  0.00    +0.000 C 
BRANCH   32   31
ATOM    119  H21 UNL A   1      11.113  57.491  12.613  1.00  0.00    +0.000 H 
ATOM     31  C20 UNL A   1      10.659  56.549  12.390  1.00  0.00    +0.000 C 
ATOM    120  H22 UNL A   1       9.597  56.583  12.258  1.00  0.00    +0.000 H 
BRANCH   31   30
ATOM    118  H20 UNL A   1      10.129  54.873  13.526  1.00  0.00    +0.000 H 
ATOM    117  H19 UNL A   1      10.831  56.226  14.481  1.00  0.00    +0.000 H 
ATOM     30  C19 UNL A   1      10.885  55.626  13.597  1.00  0.00    +0.000 C 
BRANCH   30   29
ATOM    115  H17 UNL A   1      12.503  54.654  12.623  1.00  0.00    +0.000 H 
ATOM    116  H18 UNL A   1      12.909  55.496  14.147  1.00  0.00    +0.000 H 
ATOM     29  C18 UNL A   1      12.214  54.865  13.632  1.00  0.00    +0.000 C 
BRANCH   29   28
ATOM    113  H15 UNL A   1      12.679  53.691  15.337  1.00  0.00    +0.000 H 
ATOM    114  H16 UNL A   1      11.145  53.289  14.515  1.00  0.00    +0.000 H 
ATOM     28  C17 UNL A   1      12.177  53.545  14.404  1.00  0.00    +0.000 C 
BRANCH   28   27
ATOM     27  C16 UNL A   1      12.842  52.361  13.685  1.00  0.00    +0.000 C 
ATOM    111  H13 UNL A   1      13.826  52.640  13.370  1.00  0.00    +0.000 H 
ATOM    112  H14 UNL A   1      12.910  51.527  14.351  1.00  0.00    +0.000 H 
BRANCH   27   26
ATOM     26  N3  UNL A   1      12.042  51.999  12.524  1.00  0.00    +0.000 N 
ATOM    110  H12 UNL A   1      11.091  51.839  12.719  1.00  0.00    +0.000 H 
BRANCH   26   24
ATOM     25  O5  UNL A   1      12.252  52.784  10.429  1.00  0.00    +0.000 O 
ATOM     24  C15 UNL A   1      12.384  51.842  11.208  1.00  0.00    +0.000 C 
BRANCH   24   23
ATOM    103  H5  UNL A   1      15.063  48.426   9.475  1.00  0.00    +0.000 H 
ATOM      8  C3  UNL A   1      13.985  50.058  10.284  1.00  0.00    +0.000 C 
ATOM      9  C4  UNL A   1      14.122  48.818   9.637  1.00  0.00    +0.000 C 
ATOM     10  C5  UNL A   1      12.993  48.114   9.207  1.00  0.00    +0.000 C 
ATOM    104  H6  UNL A   1      13.108  47.215   8.713  1.00  0.00    +0.000 H 
ATOM     11  C6  UNL A   1      11.711  48.620   9.443  1.00  0.00    +0.000 C 
ATOM    109  H11 UNL A   1      10.646  50.135  10.448  1.00  0.00    +0.000 H 
ATOM     22  C13 UNL A   1      11.588  49.795  10.198  1.00  0.00    +0.000 C 
ATOM     23  C14 UNL A   1      12.716  50.527  10.624  1.00  0.00    +0.000 C 
BRANCH    8    5
ATOM      5  S1  UNL A   1      15.433  51.050  10.465  1.00  0.00    +0.000 S 
ATOM      6  O2  UNL A   1      15.807  50.980  11.862  1.00  0.00    +0.000 O 
ATOM      7  O3  UNL A   1      15.261  52.310   9.787  1.00  0.00    +0.000 O 
BRANCH    5    4
ATOM      4  N1  UNL A   1      16.604  50.213   9.641  1.00  0.00    +0.000 N 
ATOM    102  H4  UNL A   1      16.949  49.404  10.084  1.00  0.00    +0.000 H 
BRANCH    4    2
ATOM      2  C2  UNL A   1      17.164  50.516   8.392  1.00  0.00    +0.000 C 
ATOM      3  O1  UNL A   1      18.207  51.155   8.364  1.00  0.00    +0.000 O 
BRANCH    2    1
ATOM      1  C1  UNL A   1      16.561  49.920   7.152  1.00  0.00    +0.000 C 
ATOM     99  H1  UNL A   1      16.544  50.655   6.375  1.00  0.00    +0.000 H 
ATOM    100  H2  UNL A   1      15.562  49.598   7.360  1.00  0.00    +0.000 H 
ATOM    101  H3  UNL A   1      17.148  49.082   6.837  1.00  0.00    +0.000 H 
ENDBRANCH    2    1
ENDBRANCH    4    2
ENDBRANCH    5    4
ENDBRANCH    8    5
BRANCH   11   12
ATOM    105  H7  UNL A   1      10.418  46.233   9.969  1.00  0.00    +0.000 H 
ATOM    106  H8  UNL A   1       8.441  45.394   9.011  1.00  0.00    +0.000 H 
ATOM    108  H10 UNL A   1      10.297  49.592   7.455  1.00  0.00    +0.000 H 
ATOM     12  C7  UNL A   1      10.519  48.035   8.781  1.00  0.00    +0.000 C 
ATOM     13  C8  UNL A   1       9.948  46.770   9.223  1.00  0.00    +0.000 C 
ATOM     14  C9  UNL A   1       8.825  46.291   8.678  1.00  0.00    +0.000 C 
ATOM     15  N2  UNL A   1       8.173  46.979   7.675  1.00  0.00    +0.000 N 
ATOM     19  C11 UNL A   1       8.636  48.189   7.183  1.00  0.00    +0.000 C 
ATOM     20  O4  UNL A   1       8.093  48.862   6.314  1.00  0.00    +0.000 O 
ATOM     21  C12 UNL A   1       9.896  48.704   7.796  1.00  0.00    +0.000 C 
BRANCH   15   16
ATOM     17  F1  UNL A   1       6.884  45.129   7.209  1.00  0.00    +0.000 F 
ATOM     18  F2  UNL A   1       5.867  46.977   7.812  1.00  0.00    +0.000 F 
ATOM    107  H9  UNL A   1       6.889  46.796   6.116  1.00  0.00    +0.000 H 
ATOM     16  C10 UNL A   1       6.932  46.481   7.137  1.00  0.00    +0.000 C 
ENDBRANCH   15   16
ENDBRANCH   11   12
ENDBRANCH   24   23
ENDBRANCH   26   24
ENDBRANCH   27   26
ENDBRANCH   28   27
ENDBRANCH   29   28
ENDBRANCH   30   29
ENDBRANCH   31   30
ENDBRANCH   32   31
ENDBRANCH   33   32
ENDBRANCH   34   33
ENDBRANCH   36   34
ENDBRANCH   40   39
BRANCH   44   45
ATOM     45  C31 UNL A   1      17.736  55.440   0.614  1.00  0.00    +0.000 C 
ATOM     46  C32 UNL A   1      19.002  55.809   1.085  1.00  0.00    +0.000 C 
ATOM     47  F3  UNL A   1      19.566  55.140   2.101  1.00  0.00    +0.000 F 
ATOM     48  C33 UNL A   1      19.685  56.884   0.521  1.00  0.00    +0.000 C 
ATOM     49  F4  UNL A   1      20.888  57.234   0.996  1.00  0.00    +0.000 F 
ATOM     50  C34 UNL A   1      19.119  57.595  -0.528  1.00  0.00    +0.000 C 
ATOM     51  F5  UNL A   1      19.778  58.628  -1.070  1.00  0.00    +0.000 F 
ATOM     52  C35 UNL A   1      17.868  57.240  -1.010  1.00  0.00    +0.000 C 
ATOM     53  F6  UNL A   1      17.321  57.927  -2.023  1.00  0.00    +0.000 F 
ATOM     54  C36 UNL A   1      17.178  56.172  -0.443  1.00  0.00    +0.000 C 
ATOM     55  F7  UNL A   1      15.967  55.853  -0.922  1.00  0.00    +0.000 F 
ENDBRANCH   44   45
BRANCH   61   62
ATOM     65  C44 UNL A   1      16.505  47.228  -2.898  1.00  0.00    +0.000 C 
ATOM     66  F9  UNL A   1      15.754  46.935  -3.969  1.00  0.00    +0.000 F 
ATOM     67  C45 UNL A   1      17.734  46.606  -2.724  1.00  0.00    +0.000 C 
ATOM     68  F10 UNL A   1      18.172  45.720  -3.630  1.00  0.00    +0.000 F 
ATOM     69  C46 UNL A   1      18.505  46.897  -1.607  1.00  0.00    +0.000 C 
ATOM     70  F11 UNL A   1      19.689  46.294  -1.437  1.00  0.00    +0.000 F 
ATOM     71  C47 UNL A   1      18.048  47.809  -0.661  1.00  0.00    +0.000 C 
ATOM     72  F12 UNL A   1      18.805  48.067   0.414  1.00  0.00    +0.000 F 
ATOM     62  C42 UNL A   1      16.811  48.449  -0.823  1.00  0.00    +0.000 C 
ATOM     63  C43 UNL A   1      16.048  48.146  -1.959  1.00  0.00    +0.000 C 
ATOM     64  F8  UNL A   1      14.853  48.725  -2.142  1.00  0.00    +0.000 F 
ENDBRANCH   61   62
BRANCH   76   77
ATOM     77  C51 UNL A   1      12.480  48.012   4.589  1.00  0.00    +0.000 C 
ATOM     78  C52 UNL A   1      11.216  47.707   4.068  1.00  0.00    +0.000 C 
ATOM     79  F13 UNL A   1      10.713  48.440   3.065  1.00  0.00    +0.000 F 
ATOM     80  C53 UNL A   1      10.460  46.663   4.593  1.00  0.00    +0.000 C 
ATOM     81  F14 UNL A   1       9.246  46.399   4.091  1.00  0.00    +0.000 F 
ATOM     82  C54 UNL A   1      10.958  45.902   5.640  1.00  0.00    +0.000 C 
ATOM     83  F15 UNL A   1      10.231  44.896   6.144  1.00  0.00    +0.000 F 
ATOM     84  C55 UNL A   1      12.209  46.187   6.169  1.00  0.00    +0.000 C 
ATOM     85  F16 UNL A   1      12.693  45.452   7.179  1.00  0.00    +0.000 F 
ATOM     86  C56 UNL A   1      12.963  47.237   5.651  1.00  0.00    +0.000 C 
ATOM     87  F17 UNL A   1      14.167  47.499   6.180  1.00  0.00    +0.000 F 
ENDBRANCH   76   77
TORSDOF 21
ENDMDL
MODEL 6
REMARK VINA RESULT:      -9.6     21.226     27.282
ROOT
ATOM    129  H31 UNL A   1      11.840  50.154   6.250  1.00  0.00    +0.000 H 
ATOM    130  H32 UNL A   1      12.196  52.613   6.785  1.00  0.00    +0.000 H 
ATOM    131  H33 UNL A   1      14.550  51.673   3.489  1.00  0.00    +0.000 H 
ATOM    132  H34 UNL A   1      13.645  46.809   2.514  1.00  0.00    +0.000 H 
ATOM    133  H35 UNL A   1      15.280  47.018   0.553  1.00  0.00    +0.000 H 
ATOM    134  H36 UNL A   1      16.703  56.732   2.686  1.00  0.00    +0.000 H 
ATOM    135  H37 UNL A   1      15.205  56.510   4.752  1.00  0.00    +0.000 H 
ATOM     40  C27 UNL A   1      14.020  53.936   5.038  1.00  0.00    +0.000 C 
ATOM     41  C28 UNL A   1      14.988  54.387   3.984  1.00  0.00    +0.000 C 
ATOM     42  N5  UNL A   1      15.497  53.709   2.986  1.00  0.00    +0.000 N 
ATOM     43  C29 UNL A   1      16.301  54.602   2.293  1.00  0.00    +0.000 C 
ATOM     44  C30 UNL A   1      17.042  54.384   1.181  1.00  0.00    +0.000 C 
ATOM     56  C37 UNL A   1      17.162  53.120   0.504  1.00  0.00    +0.000 C 
ATOM     57  C38 UNL A   1      17.920  52.805  -0.612  1.00  0.00    +0.000 C 
ATOM     58  C39 UNL A   1      17.722  51.450  -0.907  1.00  0.00    +0.000 C 
ATOM     59  C40 UNL A   1      16.851  50.924   0.031  1.00  0.00    +0.000 C 
ATOM     60  N6  UNL A   1      16.514  51.957   0.888  1.00  0.00    +0.000 N 
ATOM     61  C41 UNL A   1      16.358  49.577   0.144  1.00  0.00    +0.000 C 
ATOM     73  C48 UNL A   1      15.497  49.142   1.092  1.00  0.00    +0.000 C 
ATOM     74  N7  UNL A   1      14.915  49.857   2.128  1.00  0.00    +0.000 N 
ATOM     75  C49 UNL A   1      14.153  49.005   2.768  1.00  0.00    +0.000 C 
ATOM     76  C50 UNL A   1      13.288  49.233   3.972  1.00  0.00    +0.000 C 
ATOM     88  C57 UNL A   1      13.255  50.443   4.558  1.00  0.00    +0.000 C 
ATOM     89  C58 UNL A   1      12.455  50.797   5.727  1.00  0.00    +0.000 C 
ATOM     90  C59 UNL A   1      12.647  52.096   6.014  1.00  0.00    +0.000 C 
ATOM     91  C60 UNL A   1      13.598  52.658   5.056  1.00  0.00    +0.000 C 
ATOM     92  N8  UNL A   1      13.914  51.604   4.236  1.00  0.00    +0.000 N 
ATOM     93  C61 UNL A   1      14.161  47.647   2.204  1.00  0.00    +0.000 C 
ATOM     94  C62 UNL A   1      15.007  47.783   1.190  1.00  0.00    +0.000 C 
ATOM     95  C63 UNL A   1      16.217  55.872   2.986  1.00  0.00    +0.000 C 
ATOM     96  C64 UNL A   1      15.436  55.785   4.055  1.00  0.00    +0.000 C 
ATOM    126  H28 UNL A   1      18.525  53.456  -1.135  1.00  0.00    +0.000 H 
ATOM    127  H29 UNL A   1      18.152  50.933  -1.691  1.00  0.00    +0.000 H 
ATOM    128  H30 UNL A   1      15.903  51.879   1.657  1.00  0.00    +0.000 H 
ENDROOT
BRANCH   40   39
ATOM     97  C65 UNL A   1      12.313  55.606   5.791  1.00  0.00    +0.000 C 
ATOM     98  C66 UNL A   1      11.809  56.498   6.741  1.00  0.00    +0.000 C 
ATOM     36  C23 UNL A   1      12.458  56.650   7.971  1.00  0.00    +0.000 C 
ATOM     37  C24 UNL A   1      13.654  55.967   8.216  1.00  0.00    +0.000 C 
ATOM     38  C25 UNL A   1      14.173  55.093   7.256  1.00  0.00    +0.000 C 
ATOM     39  C26 UNL A   1      13.497  54.894   6.043  1.00  0.00    +0.000 C 
ATOM    136  H38 UNL A   1      11.813  55.469   4.899  1.00  0.00    +0.000 H 
ATOM    137  H39 UNL A   1      10.958  57.045   6.536  1.00  0.00    +0.000 H 
ATOM    124  H26 UNL A   1      14.155  56.107   9.107  1.00  0.00    +0.000 H 
ATOM    125  H27 UNL A   1      15.056  54.592   7.441  1.00  0.00    +0.000 H 
BRANCH   36   34
ATOM     34  C22 UNL A   1      11.960  57.578   9.013  1.00  0.00    +0.000 C 
ATOM     35  O6  UNL A   1      12.435  58.708   9.082  1.00  0.00    +0.000 O 
BRANCH   34   33
ATOM     33  N4  UNL A   1      11.001  57.187   9.913  1.00  0.00    +0.000 N 
ATOM    123  H25 UNL A   1      10.095  57.523   9.725  1.00  0.00    +0.000 H 
BRANCH   33   32
ATOM    121  H23 UNL A   1      12.132  56.347  11.415  1.00  0.00    +0.000 H 
ATOM    122  H24 UNL A   1      10.468  56.774  11.845  1.00  0.00    +0.000 H 
ATOM     32  C21 UNL A   1      11.110  56.357  11.099  1.00  0.00    +0.000 C 
BRANCH   32   31
ATOM    119  H21 UNL A   1      10.164  54.577  11.741  1.00  0.00    +0.000 H 
ATOM     31  C20 UNL A   1      10.660  54.914  10.856  1.00  0.00    +0.000 C 
ATOM    120  H22 UNL A   1      10.041  54.956   9.984  1.00  0.00    +0.000 H 
BRANCH   31   30
ATOM    118  H20 UNL A   1      11.799  53.232  11.361  1.00  0.00    +0.000 H 
ATOM    117  H19 UNL A   1      12.663  54.436  10.341  1.00  0.00    +0.000 H 
ATOM     30  C19 UNL A   1      11.759  53.894  10.521  1.00  0.00    +0.000 C 
BRANCH   30   29
ATOM    115  H17 UNL A   1      12.261  53.200   8.578  1.00  0.00    +0.000 H 
ATOM    116  H18 UNL A   1      11.530  51.988   9.669  1.00  0.00    +0.000 H 
ATOM     29  C18 UNL A   1      11.506  52.995   9.308  1.00  0.00    +0.000 C 
BRANCH   29   28
ATOM    113  H15 UNL A   1       9.701  54.077   9.033  1.00  0.00    +0.000 H 
ATOM    114  H16 UNL A   1      10.319  53.223   7.591  1.00  0.00    +0.000 H 
ATOM     28  C17 UNL A   1      10.140  53.182   8.645  1.00  0.00    +0.000 C 
BRANCH   28   27
ATOM     27  C16 UNL A   1       9.151  52.029   8.872  1.00  0.00    +0.000 C 
ATOM    111  H13 UNL A   1       9.610  51.276   9.479  1.00  0.00    +0.000 H 
ATOM    112  H14 UNL A   1       8.277  52.396   9.368  1.00  0.00    +0.000 H 
BRANCH   27   26
ATOM     26  N3  UNL A   1       8.781  51.458   7.584  1.00  0.00    +0.000 N 
ATOM    110  H12 UNL A   1       8.142  52.000   7.067  1.00  0.00    +0.000 H 
BRANCH   26   24
ATOM     25  O5  UNL A   1       8.862  50.103   5.793  1.00  0.00    +0.000 O 
ATOM     24  C15 UNL A   1       9.169  50.299   6.968  1.00  0.00    +0.000 C 
BRANCH   24   23
ATOM    103  H5  UNL A   1       9.321  46.329   9.431  1.00  0.00    +0.000 H 
ATOM      8  C3  UNL A   1       9.092  48.110   8.310  1.00  0.00    +0.000 C 
ATOM      9  C4  UNL A   1       9.805  47.165   9.068  1.00  0.00    +0.000 C 
ATOM     10  C5  UNL A   1      11.165  47.352   9.335  1.00  0.00    +0.000 C 
ATOM    104  H6  UNL A   1      11.673  46.663   9.912  1.00  0.00    +0.000 H 
ATOM     11  C6  UNL A   1      11.840  48.467   8.827  1.00  0.00    +0.000 C 
ATOM    109  H11 UNL A   1      11.652  50.112   7.526  1.00  0.00    +0.000 H 
ATOM     22  C13 UNL A   1      11.144  49.333   7.972  1.00  0.00    +0.000 C 
ATOM     23  C14 UNL A   1       9.768  49.169   7.705  1.00  0.00    +0.000 C 
BRANCH    8    5
ATOM      5  S1  UNL A   1       7.330  48.005   8.323  1.00  0.00    +0.000 S 
ATOM      6  O2  UNL A   1       6.917  47.881   6.941  1.00  0.00    +0.000 O 
ATOM      7  O3  UNL A   1       6.778  49.012   9.193  1.00  0.00    +0.000 O 
BRANCH    5    4
ATOM      4  N1  UNL A   1       7.016  46.535   9.023  1.00  0.00    +0.000 N 
ATOM    102  H4  UNL A   1       7.112  46.494  10.002  1.00  0.00    +0.000 H 
BRANCH    4    2
ATOM      2  C2  UNL A   1       6.629  45.344   8.394  1.00  0.00    +0.000 C 
ATOM      3  O1  UNL A   1       7.444  44.773   7.682  1.00  0.00    +0.000 O 
BRANCH    2    1
ATOM      1  C1  UNL A   1       5.300  44.730   8.734  1.00  0.00    +0.000 C 
ATOM     99  H1  UNL A   1       5.286  43.710   8.412  1.00  0.00    +0.000 H 
ATOM    100  H2  UNL A   1       4.521  45.271   8.240  1.00  0.00    +0.000 H 
ATOM    101  H3  UNL A   1       5.149  44.772   9.793  1.00  0.00    +0.000 H 
ENDBRANCH    2    1
ENDBRANCH    4    2
ENDBRANCH    5    4
ENDBRANCH    8    5
BRANCH   11   12
ATOM    105  H7  UNL A   1      12.606  50.453  10.590  1.00  0.00    +0.000 H 
ATOM    106  H8  UNL A   1      14.749  50.909  11.447  1.00  0.00    +0.000 H 
ATOM    108  H10 UNL A   1      14.140  47.374   8.187  1.00  0.00    +0.000 H 
ATOM     12  C7  UNL A   1      13.199  48.825   9.301  1.00  0.00    +0.000 C 
ATOM     13  C8  UNL A   1      13.410  49.890  10.272  1.00  0.00    +0.000 C 
ATOM     14  C9  UNL A   1      14.628  50.151  10.757  1.00  0.00    +0.000 C 
ATOM     15  N2  UNL A   1      15.726  49.421  10.350  1.00  0.00    +0.000 N 
ATOM     19  C11 UNL A   1      15.632  48.390   9.430  1.00  0.00    +0.000 C 
ATOM     20  O4  UNL A   1      16.561  47.687   9.044  1.00  0.00    +0.000 O 
ATOM     21  C12 UNL A   1      14.267  48.119   8.890  1.00  0.00    +0.000 C 
BRANCH   15   16
ATOM     17  F1  UNL A   1      17.904  50.068   9.975  1.00  0.00    +0.000 F 
ATOM     18  F2  UNL A   1      16.963  50.641  11.872  1.00  0.00    +0.000 F 
ATOM    107  H9  UNL A   1      17.348  48.756  11.370  1.00  0.00    +0.000 H 
ATOM     16  C10 UNL A   1      17.023  49.674  10.926  1.00  0.00    +0.000 C 
ENDBRANCH   15   16
ENDBRANCH   11   12
ENDBRANCH   24   23
ENDBRANCH   26   24
ENDBRANCH   27   26
ENDBRANCH   28   27
ENDBRANCH   29   28
ENDBRANCH   30   29
ENDBRANCH   31   30
ENDBRANCH   32   31
ENDBRANCH   33   32
ENDBRANCH   34   33
ENDBRANCH   36   34
ENDBRANCH   40   39
BRANCH   44   45
ATOM     45  C31 UNL A   1      17.780  55.553   0.614  1.00  0.00    +0.000 C 
ATOM     46  C32 UNL A   1      19.057  55.900   1.075  1.00  0.00    +0.000 C 
ATOM     47  F3  UNL A   1      19.623  55.210   2.075  1.00  0.00    +0.000 F 
ATOM     48  C33 UNL A   1      19.746  56.975   0.519  1.00  0.00    +0.000 C 
ATOM     49  F4  UNL A   1      20.959  57.304   0.984  1.00  0.00    +0.000 F 
ATOM     50  C34 UNL A   1      19.177  57.708  -0.513  1.00  0.00    +0.000 C 
ATOM     51  F5  UNL A   1      19.842  58.740  -1.048  1.00  0.00    +0.000 F 
ATOM     52  C35 UNL A   1      17.916  57.375  -0.986  1.00  0.00    +0.000 C 
ATOM     53  F6  UNL A   1      17.366  58.084  -1.983  1.00  0.00    +0.000 F 
ATOM     54  C36 UNL A   1      17.220  56.308  -0.426  1.00  0.00    +0.000 C 
ATOM     55  F7  UNL A   1      16.000  56.010  -0.896  1.00  0.00    +0.000 F 
ENDBRANCH   44   45
BRANCH   61   62
ATOM     65  C44 UNL A   1      18.448  46.914  -1.583  1.00  0.00    +0.000 C 
ATOM     66  F9  UNL A   1      19.601  46.259  -1.389  1.00  0.00    +0.000 F 
ATOM     67  C45 UNL A   1      17.683  46.648  -2.711  1.00  0.00    +0.000 C 
ATOM     68  F10 UNL A   1      18.094  45.733  -3.599  1.00  0.00    +0.000 F 
ATOM     69  C46 UNL A   1      16.497  47.337  -2.921  1.00  0.00    +0.000 C 
ATOM     70  F11 UNL A   1      15.761  47.084  -4.011  1.00  0.00    +0.000 F 
ATOM     71  C47 UNL A   1      16.074  48.295  -2.004  1.00  0.00    +0.000 C 
ATOM     72  F12 UNL A   1      14.929  48.954  -2.232  1.00  0.00    +0.000 F 
ATOM     62  C42 UNL A   1      16.832  48.573  -0.858  1.00  0.00    +0.000 C 
ATOM     63  C43 UNL A   1      18.025  47.865  -0.661  1.00  0.00    +0.000 C 
ATOM     64  F8  UNL A   1      18.787  48.113   0.415  1.00  0.00    +0.000 F 
ENDBRANCH   61   62
BRANCH   76   77
ATOM     77  C51 UNL A   1      12.474  48.132   4.533  1.00  0.00    +0.000 C 
ATOM     78  C52 UNL A   1      13.017  47.250   5.477  1.00  0.00    +0.000 C 
ATOM     79  F13 UNL A   1      14.296  47.380   5.855  1.00  0.00    +0.000 F 
ATOM     80  C53 UNL A   1      12.251  46.221   6.016  1.00  0.00    +0.000 C 
ATOM     81  F14 UNL A   1      12.794  45.378   6.905  1.00  0.00    +0.000 F 
ATOM     82  C54 UNL A   1      10.928  46.061   5.627  1.00  0.00    +0.000 C 
ATOM     83  F15 UNL A   1      10.190  45.071   6.148  1.00  0.00    +0.000 F 
ATOM     84  C55 UNL A   1      10.372  46.926   4.695  1.00  0.00    +0.000 C 
ATOM     85  F16 UNL A   1       9.095  46.775   4.320  1.00  0.00    +0.000 F 
ATOM     86  C56 UNL A   1      11.140  47.950   4.148  1.00  0.00    +0.000 C 
ATOM     87  F17 UNL A   1      10.585  48.771   3.244  1.00  0.00    +0.000 F 
ENDBRANCH   76   77
TORSDOF 21
ENDMDL
MODEL 7
REMARK VINA RESULT:      -9.5     35.681     39.571
ROOT
ATOM    129  H31 UNL A   1      37.733  34.972  35.441  1.00  0.00    +0.000 H 
ATOM    130  H32 UNL A   1      36.595  34.657  33.190  1.00  0.00    +0.000 H 
ATOM    131  H33 UNL A   1      39.644  31.845  33.481  1.00  0.00    +0.000 H 
ATOM    132  H34 UNL A   1      41.713  32.549  38.025  1.00  0.00    +0.000 H 
ATOM    133  H35 UNL A   1      43.303  30.618  37.472  1.00  0.00    +0.000 H 
ATOM    134  H36 UNL A   1      38.820  29.391  28.565  1.00  0.00    +0.000 H 
ATOM    135  H37 UNL A   1      37.329  31.424  29.021  1.00  0.00    +0.000 H 
ATOM     40  C27 UNL A   1      37.698  32.557  31.608  1.00  0.00    +0.000 C 
ATOM     41  C28 UNL A   1      38.443  31.407  30.997  1.00  0.00    +0.000 C 
ATOM     42  N5  UNL A   1      39.411  30.687  31.506  1.00  0.00    +0.000 N 
ATOM     43  C29 UNL A   1      39.716  29.731  30.548  1.00  0.00    +0.000 C 
ATOM     44  C30 UNL A   1      40.647  28.750  30.600  1.00  0.00    +0.000 C 
ATOM     56  C37 UNL A   1      41.554  28.530  31.695  1.00  0.00    +0.000 C 
ATOM     57  C38 UNL A   1      42.552  27.577  31.814  1.00  0.00    +0.000 C 
ATOM     58  C39 UNL A   1      43.178  27.750  33.055  1.00  0.00    +0.000 C 
ATOM     59  C40 UNL A   1      42.575  28.816  33.701  1.00  0.00    +0.000 C 
ATOM     60  N6  UNL A   1      41.580  29.284  32.858  1.00  0.00    +0.000 N 
ATOM     61  C41 UNL A   1      42.878  29.374  34.991  1.00  0.00    +0.000 C 
ATOM     73  C48 UNL A   1      42.232  30.419  35.557  1.00  0.00    +0.000 C 
ATOM     74  N7  UNL A   1      41.177  31.163  35.052  1.00  0.00    +0.000 N 
ATOM     75  C49 UNL A   1      40.895  32.054  35.968  1.00  0.00    +0.000 C 
ATOM     76  C50 UNL A   1      39.840  33.120  35.954  1.00  0.00    +0.000 C 
ATOM     88  C57 UNL A   1      39.049  33.271  34.876  1.00  0.00    +0.000 C 
ATOM     89  C58 UNL A   1      37.985  34.261  34.737  1.00  0.00    +0.000 C 
ATOM     90  C59 UNL A   1      37.387  34.099  33.545  1.00  0.00    +0.000 C 
ATOM     91  C60 UNL A   1      38.040  33.002  32.831  1.00  0.00    +0.000 C 
ATOM     92  N8  UNL A   1      39.021  32.576  33.692  1.00  0.00    +0.000 N 
ATOM     93  C61 UNL A   1      41.740  31.973  37.169  1.00  0.00    +0.000 C 
ATOM     94  C62 UNL A   1      42.548  30.966  36.861  1.00  0.00    +0.000 C 
ATOM     95  C63 UNL A   1      38.831  29.963  29.423  1.00  0.00    +0.000 C 
ATOM     96  C64 UNL A   1      38.040  31.005  29.642  1.00  0.00    +0.000 C 
ATOM    126  H28 UNL A   1      42.793  26.863  31.110  1.00  0.00    +0.000 H 
ATOM    127  H29 UNL A   1      43.955  27.180  33.425  1.00  0.00    +0.000 H 
ATOM    128  H30 UNL A   1      40.980  30.039  33.055  1.00  0.00    +0.000 H 
ENDROOT
BRANCH   40   39
ATOM     97  C65 UNL A   1      36.781  33.838  29.662  1.00  0.00    +0.000 C 
ATOM     98  C66 UNL A   1      35.714  34.424  28.973  1.00  0.00    +0.000 C 
ATOM     36  C23 UNL A   1      34.415  34.324  29.483  1.00  0.00    +0.000 C 
ATOM     37  C24 UNL A   1      34.198  33.705  30.719  1.00  0.00    +0.000 C 
ATOM     38  C25 UNL A   1      35.268  33.142  31.420  1.00  0.00    +0.000 C 
ATOM     39  C26 UNL A   1      36.565  33.190  30.889  1.00  0.00    +0.000 C 
ATOM    136  H38 UNL A   1      37.733  33.882  29.267  1.00  0.00    +0.000 H 
ATOM    137  H39 UNL A   1      35.886  34.929  28.090  1.00  0.00    +0.000 H 
ATOM    124  H26 UNL A   1      33.246  33.665  31.114  1.00  0.00    +0.000 H 
ATOM    125  H27 UNL A   1      35.102  32.689  32.333  1.00  0.00    +0.000 H 
BRANCH   36   34
ATOM     34  C22 UNL A   1      33.252  34.921  28.788  1.00  0.00    +0.000 C 
ATOM     35  O6  UNL A   1      33.051  36.128  28.890  1.00  0.00    +0.000 O 
BRANCH   34   33
ATOM     33  N4  UNL A   1      32.384  34.147  28.059  1.00  0.00    +0.000 N 
ATOM    123  H25 UNL A   1      31.430  34.320  28.230  1.00  0.00    +0.000 H 
BRANCH   33   32
ATOM    121  H23 UNL A   1      31.764  32.956  26.497  1.00  0.00    +0.000 H 
ATOM    122  H24 UNL A   1      33.465  33.449  26.468  1.00  0.00    +0.000 H 
ATOM     32  C21 UNL A   1      32.651  33.114  27.074  1.00  0.00    +0.000 C 
BRANCH   32   31
ATOM    119  H21 UNL A   1      34.130  31.792  27.810  1.00  0.00    +0.000 H 
ATOM     31  C20 UNL A   1      33.065  31.783  27.707  1.00  0.00    +0.000 C 
ATOM    120  H22 UNL A   1      32.526  31.732  28.630  1.00  0.00    +0.000 H 
BRANCH   31   30
ATOM    118  H20 UNL A   1      32.872  30.721  25.914  1.00  0.00    +0.000 H 
ATOM    117  H19 UNL A   1      31.659  30.287  27.170  1.00  0.00    +0.000 H 
ATOM     30  C19 UNL A   1      32.681  30.506  26.945  1.00  0.00    +0.000 C 
BRANCH   30   29
ATOM    115  H17 UNL A   1      34.465  29.362  26.796  1.00  0.00    +0.000 H 
ATOM    116  H18 UNL A   1      33.555  29.185  28.324  1.00  0.00    +0.000 H 
ATOM     29  C18 UNL A   1      33.505  29.253  27.258  1.00  0.00    +0.000 C 
BRANCH   29   28
ATOM    113  H15 UNL A   1      32.598  27.371  27.628  1.00  0.00    +0.000 H 
ATOM    114  H16 UNL A   1      32.064  28.210  26.143  1.00  0.00    +0.000 H 
ATOM     28  C17 UNL A   1      32.888  27.941  26.770  1.00  0.00    +0.000 C 
BRANCH   28   27
ATOM     27  C16 UNL A   1      33.820  27.072  25.912  1.00  0.00    +0.000 C 
ATOM    111  H13 UNL A   1      34.797  27.509  25.888  1.00  0.00    +0.000 H 
ATOM    112  H14 UNL A   1      33.885  26.090  26.332  1.00  0.00    +0.000 H 
BRANCH   27   26
ATOM     26  N3  UNL A   1      33.287  26.994  24.560  1.00  0.00    +0.000 N 
ATOM    110  H12 UNL A   1      32.513  27.579  24.393  1.00  0.00    +0.000 H 
BRANCH   26   24
ATOM     25  O5  UNL A   1      33.804  26.784  22.383  1.00  0.00    +0.000 O 
ATOM     24  C15 UNL A   1      33.674  26.246  23.481  1.00  0.00    +0.000 C 
BRANCH   24   23
ATOM    103  H5  UNL A   1      32.138  21.831  23.526  1.00  0.00    +0.000 H 
ATOM      8  C3  UNL A   1      32.679  23.878  23.494  1.00  0.00    +0.000 C 
ATOM      9  C4  UNL A   1      32.915  22.500  23.646  1.00  0.00    +0.000 C 
ATOM     10  C5  UNL A   1      34.193  22.030  23.962  1.00  0.00    +0.000 C 
ATOM    104  H6  UNL A   1      34.349  21.019  24.094  1.00  0.00    +0.000 H 
ATOM     11  C6  UNL A   1      35.261  22.923  24.101  1.00  0.00    +0.000 C 
ATOM    109  H11 UNL A   1      35.832  24.934  23.844  1.00  0.00    +0.000 H 
ATOM     22  C13 UNL A   1      35.035  24.279  23.824  1.00  0.00    +0.000 C 
ATOM     23  C14 UNL A   1      33.749  24.772  23.521  1.00  0.00    +0.000 C 
BRANCH    8    5
ATOM      5  S1  UNL A   1      31.001  24.421  23.461  1.00  0.00    +0.000 S 
ATOM      6  O2  UNL A   1      30.199  23.257  23.149  1.00  0.00    +0.000 O 
ATOM      7  O3  UNL A   1      30.889  25.645  22.710  1.00  0.00    +0.000 O 
BRANCH    5    4
ATOM      4  N1  UNL A   1      30.663  24.792  25.043  1.00  0.00    +0.000 N 
ATOM    102  H4  UNL A   1      30.281  25.684  25.204  1.00  0.00    +0.000 H 
BRANCH    4    2
ATOM      2  C2  UNL A   1      30.855  23.991  26.177  1.00  0.00    +0.000 C 
ATOM      3  O1  UNL A   1      29.989  23.174  26.463  1.00  0.00    +0.000 O 
BRANCH    2    1
ATOM      1  C1  UNL A   1      32.168  24.048  26.905  1.00  0.00    +0.000 C 
ATOM     99  H1  UNL A   1      31.990  24.071  27.959  1.00  0.00    +0.000 H 
ATOM    100  H2  UNL A   1      32.699  24.929  26.613  1.00  0.00    +0.000 H 
ATOM    101  H3  UNL A   1      32.748  23.183  26.660  1.00  0.00    +0.000 H 
ENDBRANCH    2    1
ENDBRANCH    4    2
ENDBRANCH    5    4
ENDBRANCH    8    5
BRANCH   11   12
ATOM    105  H7  UNL A   1      37.076  24.376  25.597  1.00  0.00    +0.000 H 
ATOM    106  H8  UNL A   1      39.049  23.631  26.639  1.00  0.00    +0.000 H 
ATOM    108  H10 UNL A   1      36.418  20.570  23.957  1.00  0.00    +0.000 H 
ATOM     12  C7  UNL A   1      36.556  22.490  24.683  1.00  0.00    +0.000 C 
ATOM     13  C8  UNL A   1      37.370  23.393  25.484  1.00  0.00    +0.000 C 
ATOM     14  C9  UNL A   1      38.492  22.971  26.075  1.00  0.00    +0.000 C 
ATOM     15  N2  UNL A   1      38.917  21.665  25.941  1.00  0.00    +0.000 N 
ATOM     19  C11 UNL A   1      38.216  20.729  25.199  1.00  0.00    +0.000 C 
ATOM     20  O4  UNL A   1      38.524  19.550  25.059  1.00  0.00    +0.000 O 
ATOM     21  C12 UNL A   1      36.971  21.219  24.537  1.00  0.00    +0.000 C 
BRANCH   15   16
ATOM     17  F1  UNL A   1      41.169  21.200  25.801  1.00  0.00    +0.000 F 
ATOM     18  F2  UNL A   1      40.390  22.004  27.688  1.00  0.00    +0.000 F 
ATOM    107  H9  UNL A   1      39.890  20.217  26.974  1.00  0.00    +0.000 H 
ATOM     16  C10 UNL A   1      40.098  21.209  26.631  1.00  0.00    +0.000 C 
ENDBRANCH   15   16
ENDBRANCH   11   12
ENDBRANCH   24   23
ENDBRANCH   26   24
ENDBRANCH   27   26
ENDBRANCH   28   27
ENDBRANCH   29   28
ENDBRANCH   30   29
ENDBRANCH   31   30
ENDBRANCH   32   31
ENDBRANCH   33   32
ENDBRANCH   34   33
ENDBRANCH   36   34
ENDBRANCH   40   39
BRANCH   44   45
ATOM     45  C31 UNL A   1      40.724  27.821  29.432  1.00  0.00    +0.000 C 
ATOM     46  C32 UNL A   1      39.856  26.727  29.315  1.00  0.00    +0.000 C 
ATOM     47  F3  UNL A   1      38.964  26.467  30.281  1.00  0.00    +0.000 F 
ATOM     48  C33 UNL A   1      39.920  25.885  28.207  1.00  0.00    +0.000 C 
ATOM     49  F4  UNL A   1      39.094  24.833  28.120  1.00  0.00    +0.000 F 
ATOM     50  C34 UNL A   1      40.840  26.130  27.198  1.00  0.00    +0.000 C 
ATOM     51  F5  UNL A   1      40.898  25.319  26.133  1.00  0.00    +0.000 F 
ATOM     52  C35 UNL A   1      41.703  27.211  27.296  1.00  0.00    +0.000 C 
ATOM     53  F6  UNL A   1      42.592  27.448  26.320  1.00  0.00    +0.000 F 
ATOM     54  C36 UNL A   1      41.650  28.050  28.405  1.00  0.00    +0.000 C 
ATOM     55  F7  UNL A   1      42.499  29.085  28.479  1.00  0.00    +0.000 F 
ENDBRANCH   44   45
BRANCH   61   62
ATOM     65  C44 UNL A   1      44.805  27.113  37.363  1.00  0.00    +0.000 C 
ATOM     66  F9  UNL A   1      44.558  26.112  38.219  1.00  0.00    +0.000 F 
ATOM     67  C45 UNL A   1      46.104  27.572  37.189  1.00  0.00    +0.000 C 
ATOM     68  F10 UNL A   1      47.110  27.008  37.872  1.00  0.00    +0.000 F 
ATOM     69  C46 UNL A   1      46.358  28.619  36.315  1.00  0.00    +0.000 C 
ATOM     70  F11 UNL A   1      47.610  29.064  36.151  1.00  0.00    +0.000 F 
ATOM     71  C47 UNL A   1      45.312  29.212  35.613  1.00  0.00    +0.000 C 
ATOM     72  F12 UNL A   1      45.580  30.228  34.781  1.00  0.00    +0.000 F 
ATOM     62  C42 UNL A   1      43.995  28.759  35.773  1.00  0.00    +0.000 C 
ATOM     63  C43 UNL A   1      43.758  27.698  36.658  1.00  0.00    +0.000 C 
ATOM     64  F8  UNL A   1      42.510  27.246  36.850  1.00  0.00    +0.000 F 
ENDBRANCH   61   62
BRANCH   76   77
ATOM     77  C51 UNL A   1      39.664  34.021  37.115  1.00  0.00    +0.000 C 
ATOM     78  C52 UNL A   1      40.298  35.269  37.154  1.00  0.00    +0.000 C 
ATOM     79  F13 UNL A   1      41.100  35.644  36.147  1.00  0.00    +0.000 F 
ATOM     80  C53 UNL A   1      40.126  36.124  38.238  1.00  0.00    +0.000 C 
ATOM     81  F14 UNL A   1      40.755  37.307  38.264  1.00  0.00    +0.000 F 
ATOM     82  C54 UNL A   1      39.310  35.750  39.296  1.00  0.00    +0.000 C 
ATOM     83  F15 UNL A   1      39.143  36.574  40.339  1.00  0.00    +0.000 F 
ATOM     84  C55 UNL A   1      38.672  34.518  39.275  1.00  0.00    +0.000 C 
ATOM     85  F16 UNL A   1      37.882  34.155  40.295  1.00  0.00    +0.000 F 
ATOM     86  C56 UNL A   1      38.850  33.658  38.195  1.00  0.00    +0.000 C 
ATOM     87  F17 UNL A   1      38.229  32.469  38.197  1.00  0.00    +0.000 F 
ENDBRANCH   76   77
TORSDOF 21
ENDMDL
MODEL 8
REMARK VINA RESULT:      -9.3     22.019     29.131
ROOT
ATOM    129  H31 UNL A   1      13.512  53.727   6.751  1.00  0.00    +0.000 H 
ATOM    130  H32 UNL A   1      13.179  51.209   6.655  1.00  0.00    +0.000 H 
ATOM    131  H33 UNL A   1      15.123  52.370   3.168  1.00  0.00    +0.000 H 
ATOM    132  H34 UNL A   1      15.785  57.352   3.574  1.00  0.00    +0.000 H 
ATOM    133  H35 UNL A   1      16.941  57.268   1.290  1.00  0.00    +0.000 H 
ATOM    134  H36 UNL A   1      15.603  47.318   0.906  1.00  0.00    +0.000 H 
ATOM    135  H37 UNL A   1      14.295  47.396   3.107  1.00  0.00    +0.000 H 
ATOM     40  C27 UNL A   1      14.199  49.985   4.291  1.00  0.00    +0.000 C 
ATOM     41  C28 UNL A   1      14.825  49.598   2.983  1.00  0.00    +0.000 C 
ATOM     42  N5  UNL A   1      15.448  50.352   2.112  1.00  0.00    +0.000 N 
ATOM     43  C29 UNL A   1      15.864  49.496   1.102  1.00  0.00    +0.000 C 
ATOM     44  C30 UNL A   1      16.553  49.792  -0.025  1.00  0.00    +0.000 C 
ATOM     56  C37 UNL A   1      16.968  51.113  -0.415  1.00  0.00    +0.000 C 
ATOM     57  C38 UNL A   1      17.643  51.506  -1.560  1.00  0.00    +0.000 C 
ATOM     58  C39 UNL A   1      17.828  52.893  -1.506  1.00  0.00    +0.000 C 
ATOM     59  C40 UNL A   1      17.259  53.361  -0.334  1.00  0.00    +0.000 C 
ATOM     60  N6  UNL A   1      16.738  52.261   0.326  1.00  0.00    +0.000 N 
ATOM     61  C41 UNL A   1      17.191  54.713   0.154  1.00  0.00    +0.000 C 
ATOM     73  C48 UNL A   1      16.619  55.089   1.322  1.00  0.00    +0.000 C 
ATOM     74  N7  UNL A   1      15.996  54.300   2.275  1.00  0.00    +0.000 N 
ATOM     75  C49 UNL A   1      15.616  55.117   3.225  1.00  0.00    +0.000 C 
ATOM     76  C50 UNL A   1      14.894  54.808   4.503  1.00  0.00    +0.000 C 
ATOM     88  C57 UNL A   1      14.520  53.545   4.776  1.00  0.00    +0.000 C 
ATOM     89  C58 UNL A   1      13.819  53.111   5.982  1.00  0.00    +0.000 C 
ATOM     90  C59 UNL A   1      13.638  51.781   5.929  1.00  0.00    +0.000 C 
ATOM     91  C60 UNL A   1      14.197  51.274   4.677  1.00  0.00    +0.000 C 
ATOM     92  N8  UNL A   1      14.690  52.392   4.051  1.00  0.00    +0.000 N 
ATOM     93  C61 UNL A   1      15.962  56.526   2.982  1.00  0.00    +0.000 C 
ATOM     94  C62 UNL A   1      16.563  56.454   1.801  1.00  0.00    +0.000 C 
ATOM     95  C63 UNL A   1      15.420  48.165   1.466  1.00  0.00    +0.000 C 
ATOM     96  C64 UNL A   1      14.750  48.179   2.610  1.00  0.00    +0.000 C 
ATOM    126  H28 UNL A   1      17.956  50.883  -2.321  1.00  0.00    +0.000 H 
ATOM    127  H29 UNL A   1      18.306  53.467  -2.218  1.00  0.00    +0.000 H 
ATOM    128  H30 UNL A   1      16.274  52.289   1.193  1.00  0.00    +0.000 H 
ENDROOT
BRANCH   40   39
ATOM     97  C65 UNL A   1      12.257  48.599   5.049  1.00  0.00    +0.000 C 
ATOM     98  C66 UNL A   1      11.700  47.618   5.875  1.00  0.00    +0.000 C 
ATOM     36  C23 UNL A   1      12.503  46.949   6.805  1.00  0.00    +0.000 C 
ATOM     37  C24 UNL A   1      13.843  47.319   6.960  1.00  0.00    +0.000 C 
ATOM     38  C25 UNL A   1      14.394  48.318   6.152  1.00  0.00    +0.000 C 
ATOM     39  C26 UNL A   1      13.609  48.954   5.180  1.00  0.00    +0.000 C 
ATOM    136  H38 UNL A   1      11.671  49.066   4.339  1.00  0.00    +0.000 H 
ATOM    137  H39 UNL A   1      10.697  47.387   5.798  1.00  0.00    +0.000 H 
ATOM    124  H26 UNL A   1      14.427  46.853   7.672  1.00  0.00    +0.000 H 
ATOM    125  H27 UNL A   1      15.383  48.588   6.272  1.00  0.00    +0.000 H 
BRANCH   36   34
ATOM     34  C22 UNL A   1      11.962  45.898   7.697  1.00  0.00    +0.000 C 
ATOM     35  O6  UNL A   1      11.826  44.757   7.261  1.00  0.00    +0.000 O 
BRANCH   34   33
ATOM     33  N4  UNL A   1      11.588  46.182   8.987  1.00  0.00    +0.000 N 
ATOM    123  H25 UNL A   1      10.800  46.765   9.070  1.00  0.00    +0.000 H 
BRANCH   33   32
ATOM    121  H23 UNL A   1      11.397  45.343  10.858  1.00  0.00    +0.000 H 
ATOM    122  H24 UNL A   1      12.929  45.036  10.024  1.00  0.00    +0.000 H 
ATOM     32  C21 UNL A   1      12.171  45.756  10.246  1.00  0.00    +0.000 C 
BRANCH   32   31
ATOM    119  H21 UNL A   1      13.895  46.781  10.922  1.00  0.00    +0.000 H 
ATOM     31  C20 UNL A   1      12.836  46.904  11.010  1.00  0.00    +0.000 C 
ATOM    120  H22 UNL A   1      12.451  47.798  10.565  1.00  0.00    +0.000 H 
BRANCH   31   30
ATOM    118  H20 UNL A   1      13.340  46.596  13.018  1.00  0.00    +0.000 H 
ATOM    117  H19 UNL A   1      11.576  46.520  12.674  1.00  0.00    +0.000 H 
ATOM     30  C19 UNL A   1      12.504  47.024  12.506  1.00  0.00    +0.000 C 
BRANCH   30   29
ATOM    115  H17 UNL A   1      12.586  48.414  14.109  1.00  0.00    +0.000 H 
ATOM    116  H18 UNL A   1      13.057  49.050  12.507  1.00  0.00    +0.000 H 
ATOM     29  C18 UNL A   1      12.371  48.444  13.061  1.00  0.00    +0.000 C 
BRANCH   29   28
ATOM    113  H15 UNL A   1      11.110  49.975  12.306  1.00  0.00    +0.000 H 
ATOM    114  H16 UNL A   1      10.384  48.345  12.389  1.00  0.00    +0.000 H 
ATOM     28  C17 UNL A   1      10.991  49.079  12.877  1.00  0.00    +0.000 C 
BRANCH   28   27
ATOM     27  C16 UNL A   1      10.268  49.439  14.184  1.00  0.00    +0.000 C 
ATOM    111  H13 UNL A   1       9.218  49.267  14.072  1.00  0.00    +0.000 H 
ATOM    112  H14 UNL A   1      10.641  48.831  14.982  1.00  0.00    +0.000 H 
BRANCH   27   26
ATOM     26  N3  UNL A   1      10.504  50.844  14.486  1.00  0.00    +0.000 N 
ATOM    110  H12 UNL A   1       9.762  51.443  14.242  1.00  0.00    +0.000 H 
BRANCH   26   24
ATOM     25  O5  UNL A   1      11.808  51.334  16.250  1.00  0.00    +0.000 O 
ATOM     24  C15 UNL A   1      11.580  51.475  15.050  1.00  0.00    +0.000 C 
BRANCH   24   23
ATOM    103  H5  UNL A   1      12.771  55.699  13.440  1.00  0.00    +0.000 H 
ATOM      8  C3  UNL A   1      12.106  53.856  14.243  1.00  0.00    +0.000 C 
ATOM      9  C4  UNL A   1      12.904  54.676  13.426  1.00  0.00    +0.000 C 
ATOM     10  C5  UNL A   1      13.876  54.114  12.592  1.00  0.00    +0.000 C 
ATOM    104  H6  UNL A   1      14.440  54.723  11.980  1.00  0.00    +0.000 H 
ATOM     11  C6  UNL A   1      14.087  52.731  12.583  1.00  0.00    +0.000 C 
ATOM    109  H11 UNL A   1      13.573  50.933  13.553  1.00  0.00    +0.000 H 
ATOM     22  C13 UNL A   1      13.368  51.942  13.493  1.00  0.00    +0.000 C 
ATOM     23  C14 UNL A   1      12.373  52.490  14.329  1.00  0.00    +0.000 C 
BRANCH    8    5
ATOM      5  S1  UNL A   1      10.677  54.583  14.980  1.00  0.00    +0.000 S 
ATOM      6  O2  UNL A   1      10.745  54.282  16.394  1.00  0.00    +0.000 O 
ATOM      7  O3  UNL A   1       9.506  54.282  14.195  1.00  0.00    +0.000 O 
BRANCH    5    4
ATOM      4  N1  UNL A   1      10.938  56.216  14.851  1.00  0.00    +0.000 N 
ATOM    102  H4  UNL A   1      11.521  56.502  14.111  1.00  0.00    +0.000 H 
BRANCH    4    2
ATOM      2  C2  UNL A   1      10.432  57.238  15.665  1.00  0.00    +0.000 C 
ATOM      3  O1  UNL A   1       9.310  57.666  15.428  1.00  0.00    +0.000 O 
BRANCH    2    1
ATOM      1  C1  UNL A   1      11.204  57.659  16.883  1.00  0.00    +0.000 C 
ATOM     99  H1  UNL A   1      11.566  58.657  16.748  1.00  0.00    +0.000 H 
ATOM    100  H2  UNL A   1      12.030  56.996  17.029  1.00  0.00    +0.000 H 
ATOM    101  H3  UNL A   1      10.564  57.626  17.740  1.00  0.00    +0.000 H 
ENDBRANCH    2    1
ENDBRANCH    4    2
ENDBRANCH    5    4
ENDBRANCH    8    5
BRANCH   11   12
ATOM    105  H7  UNL A   1      13.727  52.702   9.842  1.00  0.00    +0.000 H 
ATOM    106  H8  UNL A   1      15.136  51.804   8.187  1.00  0.00    +0.000 H 
ATOM    108  H10 UNL A   1      16.276  51.309  12.871  1.00  0.00    +0.000 H 
ATOM     12  C7  UNL A   1      14.917  52.086  11.536  1.00  0.00    +0.000 C 
ATOM     13  C8  UNL A   1      14.590  52.211  10.122  1.00  0.00    +0.000 C 
ATOM     14  C9  UNL A   1      15.389  51.699   9.181  1.00  0.00    +0.000 C 
ATOM     15  N2  UNL A   1      16.549  51.032   9.520  1.00  0.00    +0.000 N 
ATOM     19  C11 UNL A   1      16.947  50.857  10.835  1.00  0.00    +0.000 C 
ATOM     20  O4  UNL A   1      17.975  50.297  11.203  1.00  0.00    +0.000 O 
ATOM     21  C12 UNL A   1      16.038  51.425  11.874  1.00  0.00    +0.000 C 
BRANCH   15   16
ATOM     17  F1  UNL A   1      16.821  50.552   7.283  1.00  0.00    +0.000 F 
ATOM     18  F2  UNL A   1      18.557  51.284   8.407  1.00  0.00    +0.000 F 
ATOM    107  H9  UNL A   1      17.686  49.532   8.763  1.00  0.00    +0.000 H 
ATOM     16  C10 UNL A   1      17.431  50.536   8.493  1.00  0.00    +0.000 C 
ENDBRANCH   15   16
ENDBRANCH   11   12
ENDBRANCH   24   23
ENDBRANCH   26   24
ENDBRANCH   27   26
ENDBRANCH   28   27
ENDBRANCH   29   28
ENDBRANCH   30   29
ENDBRANCH   31   30
ENDBRANCH   32   31
ENDBRANCH   33   32
ENDBRANCH   34   33
ENDBRANCH   36   34
ENDBRANCH   40   39
BRANCH   44   45
ATOM     45  C31 UNL A   1      16.915  48.653  -0.922  1.00  0.00    +0.000 C 
ATOM     46  C32 UNL A   1      16.148  48.347  -2.054  1.00  0.00    +0.000 C 
ATOM     47  F3  UNL A   1      15.039  49.049  -2.328  1.00  0.00    +0.000 F 
ATOM     48  C33 UNL A   1      16.512  47.300  -2.897  1.00  0.00    +0.000 C 
ATOM     49  F4  UNL A   1      15.757  47.010  -3.965  1.00  0.00    +0.000 F 
ATOM     50  C34 UNL A   1      17.651  46.555  -2.630  1.00  0.00    +0.000 C 
ATOM     51  F5  UNL A   1      18.001  45.549  -3.444  1.00  0.00    +0.000 F 
ATOM     52  C35 UNL A   1      18.426  46.848  -1.517  1.00  0.00    +0.000 C 
ATOM     53  F6  UNL A   1      19.527  46.127  -1.259  1.00  0.00    +0.000 F 
ATOM     54  C36 UNL A   1      18.060  47.886  -0.666  1.00  0.00    +0.000 C 
ATOM     55  F7  UNL A   1      18.821  48.146   0.407  1.00  0.00    +0.000 F 
ENDBRANCH   44   45
BRANCH   61   62
ATOM     65  C44 UNL A   1      19.703  57.128  -1.364  1.00  0.00    +0.000 C 
ATOM     66  F9  UNL A   1      20.992  57.463  -1.213  1.00  0.00    +0.000 F 
ATOM     67  C45 UNL A   1      18.926  57.774  -2.316  1.00  0.00    +0.000 C 
ATOM     68  F10 UNL A   1      19.468  58.726  -3.089  1.00  0.00    +0.000 F 
ATOM     69  C46 UNL A   1      17.588  57.439  -2.461  1.00  0.00    +0.000 C 
ATOM     70  F11 UNL A   1      16.838  58.065  -3.377  1.00  0.00    +0.000 F 
ATOM     71  C47 UNL A   1      17.022  56.457  -1.653  1.00  0.00    +0.000 C 
ATOM     72  F12 UNL A   1      15.724  56.156  -1.806  1.00  0.00    +0.000 F 
ATOM     62  C42 UNL A   1      17.792  55.792  -0.689  1.00  0.00    +0.000 C 
ATOM     63  C43 UNL A   1      19.143  56.141  -0.559  1.00  0.00    +0.000 C 
ATOM     64  F8  UNL A   1      19.909  55.539   0.362  1.00  0.00    +0.000 F 
ENDBRANCH   61   62
BRANCH   76   77
ATOM     77  C51 UNL A   1      14.576  55.885   5.467  1.00  0.00    +0.000 C 
ATOM     78  C52 UNL A   1      15.585  56.474   6.239  1.00  0.00    +0.000 C 
ATOM     79  F13 UNL A   1      16.848  56.039   6.133  1.00  0.00    +0.000 F 
ATOM     80  C53 UNL A   1      15.292  57.496   7.138  1.00  0.00    +0.000 C 
ATOM     81  F14 UNL A   1      16.269  58.034   7.880  1.00  0.00    +0.000 F 
ATOM     82  C54 UNL A   1      13.988  57.951   7.272  1.00  0.00    +0.000 C 
ATOM     83  F15 UNL A   1      13.707  58.936   8.136  1.00  0.00    +0.000 F 
ATOM     84  C55 UNL A   1      12.975  57.382   6.513  1.00  0.00    +0.000 C 
ATOM     85  F16 UNL A   1      11.716  57.822   6.640  1.00  0.00    +0.000 F 
ATOM     86  C56 UNL A   1      13.265  56.354   5.621  1.00  0.00    +0.000 C 
ATOM     87  F17 UNL A   1      12.270  55.814   4.901  1.00  0.00    +0.000 F 
ENDBRANCH   76   77
TORSDOF 21
ENDMDL
MODEL 9
REMARK VINA RESULT:      -9.3     34.954     38.685
ROOT
ATOM    129  H31 UNL A   1      37.674  34.642  35.215  1.00  0.00    +0.000 H 
ATOM    130  H32 UNL A   1      36.545  34.338  32.958  1.00  0.00    +0.000 H 
ATOM    131  H33 UNL A   1      39.698  31.636  33.179  1.00  0.00    +0.000 H 
ATOM    132  H34 UNL A   1      41.749  32.310  37.735  1.00  0.00    +0.000 H 
ATOM    133  H35 UNL A   1      43.410  30.454  37.134  1.00  0.00    +0.000 H 
ATOM    134  H36 UNL A   1      38.956  29.270  28.206  1.00  0.00    +0.000 H 
ATOM    135  H37 UNL A   1      37.391  31.235  28.713  1.00  0.00    +0.000 H 
ATOM     40  C27 UNL A   1      37.722  32.319  31.325  1.00  0.00    +0.000 C 
ATOM     41  C28 UNL A   1      38.509  31.212  30.687  1.00  0.00    +0.000 C 
ATOM     42  N5  UNL A   1      39.504  30.518  31.177  1.00  0.00    +0.000 N 
ATOM     43  C29 UNL A   1      39.843  29.597  30.196  1.00  0.00    +0.000 C 
ATOM     44  C30 UNL A   1      40.810  28.651  30.224  1.00  0.00    +0.000 C 
ATOM     56  C37 UNL A   1      41.727  28.440  31.312  1.00  0.00    +0.000 C 
ATOM     57  C38 UNL A   1      42.761  27.522  31.407  1.00  0.00    +0.000 C 
ATOM     58  C39 UNL A   1      43.382  27.689  32.651  1.00  0.00    +0.000 C 
ATOM     59  C40 UNL A   1      42.741  28.716  33.322  1.00  0.00    +0.000 C 
ATOM     60  N6  UNL A   1      41.728  29.166  32.492  1.00  0.00    +0.000 N 
ATOM     61  C41 UNL A   1      43.026  29.254  34.625  1.00  0.00    +0.000 C 
ATOM     73  C48 UNL A   1      42.342  30.260  35.217  1.00  0.00    +0.000 C 
ATOM     74  N7  UNL A   1      41.259  30.975  34.731  1.00  0.00    +0.000 N 
ATOM     75  C49 UNL A   1      40.945  31.834  35.668  1.00  0.00    +0.000 C 
ATOM     76  C50 UNL A   1      39.851  32.859  35.681  1.00  0.00    +0.000 C 
ATOM     88  C57 UNL A   1      39.053  33.005  34.607  1.00  0.00    +0.000 C 
ATOM     89  C58 UNL A   1      37.952  33.958  34.494  1.00  0.00    +0.000 C 
ATOM     90  C59 UNL A   1      37.358  33.802  33.299  1.00  0.00    +0.000 C 
ATOM     91  C60 UNL A   1      38.050  32.748  32.558  1.00  0.00    +0.000 C 
ATOM     92  N8  UNL A   1      39.048  32.339  33.408  1.00  0.00    +0.000 N 
ATOM     93  C61 UNL A   1      41.796  31.756  36.866  1.00  0.00    +0.000 C 
ATOM     94  C62 UNL A   1      42.640  30.788  36.533  1.00  0.00    +0.000 C 
ATOM     95  C63 UNL A   1      38.948  29.822  29.078  1.00  0.00    +0.000 C 
ATOM     96  C64 UNL A   1      38.119  30.828  29.322  1.00  0.00    +0.000 C 
ATOM    126  H28 UNL A   1      43.027  26.834  30.685  1.00  0.00    +0.000 H 
ATOM    127  H29 UNL A   1      44.181  27.140  33.006  1.00  0.00    +0.000 H 
ATOM    128  H30 UNL A   1      41.100  29.892  32.708  1.00  0.00    +0.000 H 
ENDROOT
BRANCH   40   39
ATOM     97  C65 UNL A   1      36.772  33.786  29.533  1.00  0.00    +0.000 C 
ATOM     98  C66 UNL A   1      35.685  34.349  28.858  1.00  0.00    +0.000 C 
ATOM     36  C23 UNL A   1      34.380  34.018  29.239  1.00  0.00    +0.000 C 
ATOM     37  C24 UNL A   1      34.167  33.185  30.343  1.00  0.00    +0.000 C 
ATOM     38  C25 UNL A   1      35.254  32.642  31.033  1.00  0.00    +0.000 C 
ATOM     39  C26 UNL A   1      36.565  32.926  30.623  1.00  0.00    +0.000 C 
ATOM    136  H38 UNL A   1      37.734  34.004  29.228  1.00  0.00    +0.000 H 
ATOM    137  H39 UNL A   1      35.845  35.008  28.081  1.00  0.00    +0.000 H 
ATOM    124  H26 UNL A   1      33.205  32.971  30.648  1.00  0.00    +0.000 H 
ATOM    125  H27 UNL A   1      35.091  32.030  31.848  1.00  0.00    +0.000 H 
BRANCH   36   34
ATOM     34  C22 UNL A   1      33.195  34.582  28.552  1.00  0.00    +0.000 C 
ATOM     35  O6  UNL A   1      33.016  35.797  28.571  1.00  0.00    +0.000 O 
BRANCH   34   33
ATOM     33  N4  UNL A   1      32.284  33.771  27.922  1.00  0.00    +0.000 N 
ATOM    123  H25 UNL A   1      31.351  33.896  28.208  1.00  0.00    +0.000 H 
BRANCH   33   32
ATOM    121  H23 UNL A   1      31.537  32.547  26.444  1.00  0.00    +0.000 H 
ATOM    122  H24 UNL A   1      33.186  33.144  26.196  1.00  0.00    +0.000 H 
ATOM     32  C21 UNL A   1      32.481  32.758  26.901  1.00  0.00    +0.000 C 
BRANCH   32   31
ATOM    119  H21 UNL A   1      34.110  31.586  27.572  1.00  0.00    +0.000 H 
ATOM     31  C20 UNL A   1      33.054  31.454  27.460  1.00  0.00    +0.000 C 
ATOM    120  H22 UNL A   1      32.525  31.285  28.375  1.00  0.00    +0.000 H 
BRANCH   31   30
ATOM    118  H20 UNL A   1      33.067  30.461  25.618  1.00  0.00    +0.000 H 
ATOM    117  H19 UNL A   1      31.817  29.873  26.770  1.00  0.00    +0.000 H 
ATOM     30  C19 UNL A   1      32.829  30.185  26.624  1.00  0.00    +0.000 C 
BRANCH   30   29
ATOM    115  H17 UNL A   1      34.630  29.089  26.365  1.00  0.00    +0.000 H 
ATOM    116  H18 UNL A   1      33.908  29.018  27.998  1.00  0.00    +0.000 H 
ATOM     29  C18 UNL A   1      33.734  28.991  26.942  1.00  0.00    +0.000 C 
BRANCH   29   28
ATOM    113  H15 UNL A   1      32.950  27.122  27.571  1.00  0.00    +0.000 H 
ATOM    114  H16 UNL A   1      32.222  27.809  26.091  1.00  0.00    +0.000 H 
ATOM     28  C17 UNL A   1      33.121  27.623  26.641  1.00  0.00    +0.000 C 
BRANCH   28   27
ATOM     27  C16 UNL A   1      33.987  26.709  25.760  1.00  0.00    +0.000 C 
ATOM    111  H13 UNL A   1      33.645  26.759  24.747  1.00  0.00    +0.000 H 
ATOM    112  H14 UNL A   1      35.007  27.028  25.804  1.00  0.00    +0.000 H 
BRANCH   27   26
ATOM     26  N3  UNL A   1      33.879  25.340  26.244  1.00  0.00    +0.000 N 
ATOM    110  H12 UNL A   1      34.722  24.960  26.582  1.00  0.00    +0.000 H 
BRANCH   26   24
ATOM     25  O5  UNL A   1      32.746  23.660  27.216  1.00  0.00    +0.000 O 
ATOM     24  C15 UNL A   1      32.808  24.490  26.310  1.00  0.00    +0.000 C 
BRANCH   24   23
ATOM    103  H5  UNL A   1      30.651  22.677  22.581  1.00  0.00    +0.000 H 
ATOM      8  C3  UNL A   1      31.728  23.372  24.266  1.00  0.00    +0.000 C 
ATOM      9  C4  UNL A   1      30.782  23.468  23.231  1.00  0.00    +0.000 C 
ATOM     10  C5  UNL A   1      30.017  24.628  23.075  1.00  0.00    +0.000 C 
ATOM    104  H6  UNL A   1      29.342  24.696  22.299  1.00  0.00    +0.000 H 
ATOM     11  C6  UNL A   1      30.164  25.698  23.966  1.00  0.00    +0.000 C 
ATOM    109  H11 UNL A   1      31.078  26.286  25.770  1.00  0.00    +0.000 H 
ATOM     22  C13 UNL A   1      31.022  25.536  25.063  1.00  0.00    +0.000 C 
ATOM     23  C14 UNL A   1      31.813  24.379  25.226  1.00  0.00    +0.000 C 
BRANCH    8    5
ATOM      5  S1  UNL A   1      32.897  22.052  24.183  1.00  0.00    +0.000 S 
ATOM      6  O2  UNL A   1      32.736  21.442  22.881  1.00  0.00    +0.000 O 
ATOM      7  O3  UNL A   1      32.857  21.276  25.397  1.00  0.00    +0.000 O 
BRANCH    5    4
ATOM      4  N1  UNL A   1      34.369  22.815  24.146  1.00  0.00    +0.000 N 
ATOM    102  H4  UNL A   1      34.346  23.799  24.156  1.00  0.00    +0.000 H 
BRANCH    4    2
ATOM      2  C2  UNL A   1      35.643  22.232  24.102  1.00  0.00    +0.000 C 
ATOM      3  O1  UNL A   1      35.816  21.172  24.689  1.00  0.00    +0.000 O 
BRANCH    2    1
ATOM      1  C1  UNL A   1      36.698  22.834  23.218  1.00  0.00    +0.000 C 
ATOM     99  H1  UNL A   1      36.904  22.170  22.405  1.00  0.00    +0.000 H 
ATOM    100  H2  UNL A   1      37.591  22.991  23.785  1.00  0.00    +0.000 H 
ATOM    101  H3  UNL A   1      36.350  23.770  22.834  1.00  0.00    +0.000 H 
ENDBRANCH    2    1
ENDBRANCH    4    2
ENDBRANCH    5    4
ENDBRANCH    8    5
BRANCH   11   12
ATOM    105  H7  UNL A   1      31.419  28.074  23.319  1.00  0.00    +0.000 H 
ATOM    106  H8  UNL A   1      30.447  30.131  22.719  1.00  0.00    +0.000 H 
ATOM    108  H10 UNL A   1      27.630  26.387  23.959  1.00  0.00    +0.000 H 
ATOM     12  C7  UNL A   1      29.566  27.025  23.679  1.00  0.00    +0.000 C 
ATOM     13  C8  UNL A   1      30.391  28.169  23.315  1.00  0.00    +0.000 C 
ATOM     14  C9  UNL A   1      29.840  29.338  22.977  1.00  0.00    +0.000 C 
ATOM     15  N2  UNL A   1      28.469  29.500  22.965  1.00  0.00    +0.000 N 
ATOM     19  C11 UNL A   1      27.598  28.476  23.298  1.00  0.00    +0.000 C 
ATOM     20  O4  UNL A   1      26.374  28.545  23.285  1.00  0.00    +0.000 O 
ATOM     21  C12 UNL A   1      28.230  27.180  23.684  1.00  0.00    +0.000 C 
BRANCH   15   16
ATOM     17  F1  UNL A   1      27.408  31.442  23.603  1.00  0.00    +0.000 F 
ATOM     18  F2  UNL A   1      28.795  31.526  21.905  1.00  0.00    +0.000 F 
ATOM    107  H9  UNL A   1      27.089  30.506  21.871  1.00  0.00    +0.000 H 
ATOM     16  C10 UNL A   1      27.887  30.749  22.542  1.00  0.00    +0.000 C 
ENDBRANCH   15   16
ENDBRANCH   11   12
ENDBRANCH   24   23
ENDBRANCH   26   24
ENDBRANCH   27   26
ENDBRANCH   28   27
ENDBRANCH   29   28
ENDBRANCH   30   29
ENDBRANCH   31   30
ENDBRANCH   32   31
ENDBRANCH   33   32
ENDBRANCH   34   33
ENDBRANCH   36   34
ENDBRANCH   40   39
BRANCH   44   45
ATOM     45  C31 UNL A   1      40.920  27.753  29.034  1.00  0.00    +0.000 C 
ATOM     46  C32 UNL A   1      40.049  26.670  28.858  1.00  0.00    +0.000 C 
ATOM     47  F3  UNL A   1      39.123  26.391  29.786  1.00  0.00    +0.000 F 
ATOM     48  C33 UNL A   1      40.143  25.858  27.730  1.00  0.00    +0.000 C 
ATOM     49  F4  UNL A   1      39.314  24.815  27.587  1.00  0.00    +0.000 F 
ATOM     50  C34 UNL A   1      41.098  26.123  26.759  1.00  0.00    +0.000 C 
ATOM     51  F5  UNL A   1      41.186  25.341  25.675  1.00  0.00    +0.000 F 
ATOM     52  C35 UNL A   1      41.965  27.194  26.915  1.00  0.00    +0.000 C 
ATOM     53  F6  UNL A   1      42.888  27.450  25.976  1.00  0.00    +0.000 F 
ATOM     54  C36 UNL A   1      41.881  28.003  28.045  1.00  0.00    +0.000 C 
ATOM     55  F7  UNL A   1      42.735  29.028  28.175  1.00  0.00    +0.000 F 
ENDBRANCH   44   45
BRANCH   61   62
ATOM     65  C44 UNL A   1      46.523  28.622  35.973  1.00  0.00    +0.000 C 
ATOM     66  F9  UNL A   1      47.766  29.094  35.802  1.00  0.00    +0.000 F 
ATOM     67  C45 UNL A   1      46.291  27.592  36.874  1.00  0.00    +0.000 C 
ATOM     68  F10 UNL A   1      47.309  27.076  37.579  1.00  0.00    +0.000 F 
ATOM     69  C46 UNL A   1      45.008  27.092  37.040  1.00  0.00    +0.000 C 
ATOM     70  F11 UNL A   1      44.785  26.096  37.907  1.00  0.00    +0.000 F 
ATOM     71  C47 UNL A   1      43.952  27.621  36.303  1.00  0.00    +0.000 C 
ATOM     72  F12 UNL A   1      42.722  27.116  36.473  1.00  0.00    +0.000 F 
ATOM     62  C42 UNL A   1      44.167  28.663  35.391  1.00  0.00    +0.000 C 
ATOM     63  C43 UNL A   1      45.470  29.157  35.239  1.00  0.00    +0.000 C 
ATOM     64  F8  UNL A   1      45.720  30.144  34.366  1.00  0.00    +0.000 F 
ENDBRANCH   61   62
BRANCH   76   77
ATOM     77  C51 UNL A   1      39.644  33.725  36.863  1.00  0.00    +0.000 C 
ATOM     78  C52 UNL A   1      40.235  34.993  36.933  1.00  0.00    +0.000 C 
ATOM     79  F13 UNL A   1      41.024  35.418  35.937  1.00  0.00    +0.000 F 
ATOM     80  C53 UNL A   1      40.033  35.815  38.038  1.00  0.00    +0.000 C 
ATOM     81  F14 UNL A   1      40.622  37.018  38.093  1.00  0.00    +0.000 F 
ATOM     82  C54 UNL A   1      39.230  35.387  39.086  1.00  0.00    +0.000 C 
ATOM     83  F15 UNL A   1      39.034  36.180  40.148  1.00  0.00    +0.000 F 
ATOM     84  C55 UNL A   1      38.634  34.135  39.034  1.00  0.00    +0.000 C 
ATOM     85  F16 UNL A   1      37.857  33.721  40.043  1.00  0.00    +0.000 F 
ATOM     86  C56 UNL A   1      38.842  33.308  37.933  1.00  0.00    +0.000 C 
ATOM     87  F17 UNL A   1      38.261  32.100  37.905  1.00  0.00    +0.000 F 
ENDBRANCH   76   77
TORSDOF 21
ENDMDL
MODEL 10
REMARK VINA RESULT:      -9.3     22.024     29.659
ROOT
ATOM    129  H31 UNL A   1      15.673  47.114   1.106  1.00  0.00    +0.000 H 
ATOM    130  H32 UNL A   1      14.566  47.262   3.389  1.00  0.00    +0.000 H 
ATOM    131  H33 UNL A   1      15.725  51.099   2.287  1.00  0.00    +0.000 H 
ATOM    132  H34 UNL A   1      17.801  50.631  -2.285  1.00  0.00    +0.000 H 
ATOM    133  H35 UNL A   1      18.177  53.165  -2.246  1.00  0.00    +0.000 H 
ATOM    134  H36 UNL A   1      13.820  53.739   6.789  1.00  0.00    +0.000 H 
ATOM    135  H37 UNL A   1      13.584  51.189   6.851  1.00  0.00    +0.000 H 
ATOM     40  C27 UNL A   1      14.449  49.900   4.463  1.00  0.00    +0.000 C 
ATOM     41  C28 UNL A   1      14.503  51.365   4.784  1.00  0.00    +0.000 C 
ATOM     42  N5  UNL A   1      14.955  52.354   4.055  1.00  0.00    +0.000 N 
ATOM     43  C29 UNL A   1      14.737  53.504   4.800  1.00  0.00    +0.000 C 
ATOM     44  C30 UNL A   1      15.028  54.786   4.478  1.00  0.00    +0.000 C 
ATOM     56  C37 UNL A   1      15.678  55.206   3.266  1.00  0.00    +0.000 C 
ATOM     57  C38 UNL A   1      16.041  56.484   2.876  1.00  0.00    +0.000 C 
ATOM     58  C39 UNL A   1      16.650  56.403   1.617  1.00  0.00    +0.000 C 
ATOM     59  C40 UNL A   1      16.674  55.074   1.231  1.00  0.00    +0.000 C 
ATOM     60  N6  UNL A   1      16.074  54.351   2.249  1.00  0.00    +0.000 N 
ATOM     61  C41 UNL A   1      17.204  54.497   0.025  1.00  0.00    +0.000 C 
ATOM     73  C48 UNL A   1      17.181  53.179  -0.282  1.00  0.00    +0.000 C 
ATOM     74  N7  UNL A   1      16.667  52.126   0.459  1.00  0.00    +0.000 N 
ATOM     75  C49 UNL A   1      16.873  51.050  -0.258  1.00  0.00    +0.000 C 
ATOM     76  C50 UNL A   1      16.518  49.627   0.054  1.00  0.00    +0.000 C 
ATOM     88  C57 UNL A   1      15.932  49.320   1.226  1.00  0.00    +0.000 C 
ATOM     89  C58 UNL A   1      15.532  47.981   1.649  1.00  0.00    +0.000 C 
ATOM     90  C59 UNL A   1      14.952  48.057   2.858  1.00  0.00    +0.000 C 
ATOM     91  C60 UNL A   1      14.956  49.451   3.300  1.00  0.00    +0.000 C 
ATOM     92  N8  UNL A   1      15.566  50.128   2.273  1.00  0.00    +0.000 N 
ATOM     93  C61 UNL A   1      17.539  51.301  -1.545  1.00  0.00    +0.000 C 
ATOM     94  C62 UNL A   1      17.717  52.615  -1.503  1.00  0.00    +0.000 C 
ATOM     95  C63 UNL A   1      14.113  53.091   6.041  1.00  0.00    +0.000 C 
ATOM     96  C64 UNL A   1      13.970  51.773   6.091  1.00  0.00    +0.000 C 
ATOM    126  H28 UNL A   1      15.889  57.348   3.419  1.00  0.00    +0.000 H 
ATOM    127  H29 UNL A   1      17.017  57.198   1.070  1.00  0.00    +0.000 H 
ATOM    128  H30 UNL A   1      15.946  53.375   2.250  1.00  0.00    +0.000 H 
ENDROOT
BRANCH   40   39
ATOM     97  C65 UNL A   1      14.591  48.278   6.365  1.00  0.00    +0.000 C 
ATOM     98  C66 UNL A   1      13.995  47.386   7.262  1.00  0.00    +0.000 C 
ATOM     36  C23 UNL A   1      12.610  47.191   7.235  1.00  0.00    +0.000 C 
ATOM     37  C24 UNL A   1      11.835  47.829   6.261  1.00  0.00    +0.000 C 
ATOM     38  C25 UNL A   1      12.434  48.701   5.347  1.00  0.00    +0.000 C 
ATOM     39  C26 UNL A   1      13.815  48.944   5.403  1.00  0.00    +0.000 C 
ATOM    136  H38 UNL A   1      15.608  48.448   6.409  1.00  0.00    +0.000 H 
ATOM    137  H39 UNL A   1      14.577  46.873   7.942  1.00  0.00    +0.000 H 
ATOM    124  H26 UNL A   1      10.819  47.655   6.216  1.00  0.00    +0.000 H 
ATOM    125  H27 UNL A   1      11.858  49.167   4.629  1.00  0.00    +0.000 H 
BRANCH   36   34
ATOM     34  C22 UNL A   1      11.931  46.263   8.169  1.00  0.00    +0.000 C 
ATOM     35  O6  UNL A   1      10.871  45.743   7.828  1.00  0.00    +0.000 O 
BRANCH   34   33
ATOM     33  N4  UNL A   1      12.449  45.997   9.411  1.00  0.00    +0.000 N 
ATOM    123  H25 UNL A   1      13.085  45.246   9.443  1.00  0.00    +0.000 H 
BRANCH   33   32
ATOM    121  H23 UNL A   1      11.264  47.147  10.642  1.00  0.00    +0.000 H 
ATOM    122  H24 UNL A   1      12.226  45.893  11.443  1.00  0.00    +0.000 H 
ATOM     32  C21 UNL A   1      12.209  46.649  10.686  1.00  0.00    +0.000 C 
BRANCH   32   31
ATOM    119  H21 UNL A   1      13.892  47.259  11.815  1.00  0.00    +0.000 H 
ATOM     31  C20 UNL A   1      13.287  47.677  11.039  1.00  0.00    +0.000 C 
ATOM    120  H22 UNL A   1      13.803  47.868  10.121  1.00  0.00    +0.000 H 
BRANCH   31   30
ATOM    118  H20 UNL A   1      13.481  49.761  11.098  1.00  0.00    +0.000 H 
ATOM    117  H19 UNL A   1      12.781  49.036  12.589  1.00  0.00    +0.000 H 
ATOM     30  C19 UNL A   1      12.798  49.053  11.520  1.00  0.00    +0.000 C 
BRANCH   30   29
ATOM    115  H17 UNL A   1      11.531  50.349  10.414  1.00  0.00    +0.000 H 
ATOM    116  H18 UNL A   1      10.994  48.649  10.524  1.00  0.00    +0.000 H 
ATOM     29  C18 UNL A   1      11.412  49.489  11.039  1.00  0.00    +0.000 C 
BRANCH   29   28
ATOM    113  H15 UNL A   1      10.292  50.905  12.154  1.00  0.00    +0.000 H 
ATOM    114  H16 UNL A   1       9.528  49.303  11.947  1.00  0.00    +0.000 H 
ATOM     28  C17 UNL A   1      10.428  49.843  12.154  1.00  0.00    +0.000 C 
BRANCH   28   27
ATOM     27  C16 UNL A   1      10.872  49.420  13.563  1.00  0.00    +0.000 C 
ATOM    111  H13 UNL A   1      10.274  48.597  13.895  1.00  0.00    +0.000 H 
ATOM    112  H14 UNL A   1      11.899  49.124  13.543  1.00  0.00    +0.000 H 
BRANCH   27   26
ATOM     26  N3  UNL A   1      10.703  50.544  14.473  1.00  0.00    +0.000 N 
ATOM    110  H12 UNL A   1       9.767  50.746  14.701  1.00  0.00    +0.000 H 
BRANCH   26   24
ATOM     25  O5  UNL A   1      11.701  51.408  16.292  1.00  0.00    +0.000 O 
ATOM     24  C15 UNL A   1      11.620  51.369  15.065  1.00  0.00    +0.000 C 
BRANCH   24   23
ATOM    103  H5  UNL A   1      12.680  55.547  13.256  1.00  0.00    +0.000 H 
ATOM      8  C3  UNL A   1      12.071  53.724  14.143  1.00  0.00    +0.000 C 
ATOM      9  C4  UNL A   1      12.855  54.530  13.300  1.00  0.00    +0.000 C 
ATOM     10  C5  UNL A   1      13.868  53.965  12.519  1.00  0.00    +0.000 C 
ATOM    104  H6  UNL A   1      14.422  54.564  11.887  1.00  0.00    +0.000 H 
ATOM     11  C6  UNL A   1      14.133  52.594  12.589  1.00  0.00    +0.000 C 
ATOM    109  H11 UNL A   1      13.669  50.830  13.643  1.00  0.00    +0.000 H 
ATOM     22  C13 UNL A   1      13.426  51.826  13.525  1.00  0.00    +0.000 C 
ATOM     23  C14 UNL A   1      12.389  52.376  14.308  1.00  0.00    +0.000 C 
BRANCH    8    5
ATOM      5  S1  UNL A   1      10.596  54.429  14.808  1.00  0.00    +0.000 S 
ATOM      6  O2  UNL A   1      10.797  54.527  16.237  1.00  0.00    +0.000 O 
ATOM      7  O3  UNL A   1       9.438  53.781  14.245  1.00  0.00    +0.000 O 
BRANCH    5    4
ATOM      4  N1  UNL A   1      10.600  55.988  14.242  1.00  0.00    +0.000 N 
ATOM    102  H4  UNL A   1      10.595  56.092  13.263  1.00  0.00    +0.000 H 
BRANCH    4    2
ATOM      2  C2  UNL A   1      10.608  57.176  14.985  1.00  0.00    +0.000 C 
ATOM      3  O1  UNL A   1      11.681  57.588  15.408  1.00  0.00    +0.000 O 
BRANCH    2    1
ATOM      1  C1  UNL A   1       9.344  57.979  15.103  1.00  0.00    +0.000 C 
ATOM     99  H1  UNL A   1       9.457  58.710  15.876  1.00  0.00    +0.000 H 
ATOM    100  H2  UNL A   1       8.530  57.329  15.343  1.00  0.00    +0.000 H 
ATOM    101  H3  UNL A   1       9.147  58.472  14.174  1.00  0.00    +0.000 H 
ENDBRANCH    2    1
ENDBRANCH    4    2
ENDBRANCH    5    4
ENDBRANCH    8    5
BRANCH   11   12
ATOM    105  H7  UNL A   1      13.958  52.585   9.830  1.00  0.00    +0.000 H 
ATOM    106  H8  UNL A   1      15.449  51.652   8.268  1.00  0.00    +0.000 H 
ATOM    108  H10 UNL A   1      16.257  51.108  13.016  1.00  0.00    +0.000 H 
ATOM     12  C7  UNL A   1      15.014  51.929  11.596  1.00  0.00    +0.000 C 
ATOM     13  C8  UNL A   1      14.786  52.068  10.164  1.00  0.00    +0.000 C 
ATOM     14  C9  UNL A   1      15.632  51.536   9.276  1.00  0.00    +0.000 C 
ATOM     15  N2  UNL A   1      16.746  50.835   9.689  1.00  0.00    +0.000 N 
ATOM     19  C11 UNL A   1      17.050  50.644  11.026  1.00  0.00    +0.000 C 
ATOM     20  O4  UNL A   1      18.034  50.054  11.460  1.00  0.00    +0.000 O 
ATOM     21  C12 UNL A   1      16.090  51.235  12.005  1.00  0.00    +0.000 C 
BRANCH   15   16
ATOM     17  F1  UNL A   1      17.082  50.143   7.518  1.00  0.00    +0.000 F 
ATOM     18  F2  UNL A   1      18.731  51.156   8.551  1.00  0.00    +0.000 F 
ATOM    107  H9  UNL A   1      18.029  49.379   9.098  1.00  0.00    +0.000 H 
ATOM     16  C10 UNL A   1      17.681  50.318   8.721  1.00  0.00    +0.000 C 
ENDBRANCH   15   16
ENDBRANCH   11   12
ENDBRANCH   24   23
ENDBRANCH   26   24
ENDBRANCH   27   26
ENDBRANCH   28   27
ENDBRANCH   29   28
ENDBRANCH   30   29
ENDBRANCH   31   30
ENDBRANCH   32   31
ENDBRANCH   33   32
ENDBRANCH   34   33
ENDBRANCH   36   34
ENDBRANCH   40   39
BRANCH   44   45
ATOM     45  C31 UNL A   1      14.631  55.842   5.459  1.00  0.00    +0.000 C 
ATOM     46  C32 UNL A   1      13.287  56.182   5.656  1.00  0.00    +0.000 C 
ATOM     47  F3  UNL A   1      12.328  55.592   4.927  1.00  0.00    +0.000 F 
ATOM     48  C33 UNL A   1      12.928  57.147   6.593  1.00  0.00    +0.000 C 
ATOM     49  F4  UNL A   1      11.638  57.474   6.755  1.00  0.00    +0.000 F 
ATOM     50  C34 UNL A   1      13.903  57.776   7.354  1.00  0.00    +0.000 C 
ATOM     51  F5  UNL A   1      13.555  58.703   8.256  1.00  0.00    +0.000 F 
ATOM     52  C35 UNL A   1      15.239  57.447   7.176  1.00  0.00    +0.000 C 
ATOM     53  F6  UNL A   1      16.181  58.055   7.912  1.00  0.00    +0.000 F 
ATOM     54  C36 UNL A   1      15.603  56.490   6.234  1.00  0.00    +0.000 C 
ATOM     55  F7  UNL A   1      16.901  56.194   6.076  1.00  0.00    +0.000 F 
ENDBRANCH   44   45
BRANCH   61   62
ATOM     65  C44 UNL A   1      17.673  56.833  -2.936  1.00  0.00    +0.000 C 
ATOM     66  F9  UNL A   1      16.950  57.326  -3.952  1.00  0.00    +0.000 F 
ATOM     67  C45 UNL A   1      19.008  57.190  -2.799  1.00  0.00    +0.000 C 
ATOM     68  F10 UNL A   1      19.570  58.033  -3.677  1.00  0.00    +0.000 F 
ATOM     69  C46 UNL A   1      19.761  56.668  -1.758  1.00  0.00    +0.000 C 
ATOM     70  F11 UNL A   1      21.050  57.010  -1.628  1.00  0.00    +0.000 F 
ATOM     71  C47 UNL A   1      19.181  55.786  -0.850  1.00  0.00    +0.000 C 
ATOM     72  F12 UNL A   1      19.931  55.288   0.143  1.00  0.00    +0.000 F 
ATOM     62  C42 UNL A   1      17.834  55.418  -0.971  1.00  0.00    +0.000 C 
ATOM     63  C43 UNL A   1      17.088  55.957  -2.028  1.00  0.00    +0.000 C 
ATOM     64  F8  UNL A   1      15.801  55.618  -2.187  1.00  0.00    +0.000 F 
ENDBRANCH   61   62
BRANCH   76   77
ATOM     77  C51 UNL A   1      16.816  48.547  -0.913  1.00  0.00    +0.000 C 
ATOM     78  C52 UNL A   1      15.962  48.300  -1.995  1.00  0.00    +0.000 C 
ATOM     79  F13 UNL A   1      14.844  49.023  -2.143  1.00  0.00    +0.000 F 
ATOM     80  C53 UNL A   1      16.247  47.294  -2.914  1.00  0.00    +0.000 C 
ATOM     81  F14 UNL A   1      15.407  47.063  -3.933  1.00  0.00    +0.000 F 
ATOM     82  C54 UNL A   1      17.393  46.525  -2.772  1.00  0.00    +0.000 C 
ATOM     83  F15 UNL A   1      17.667  45.558  -3.657  1.00  0.00    +0.000 F 
ATOM     84  C55 UNL A   1      18.252  46.756  -1.707  1.00  0.00    +0.000 C 
ATOM     85  F16 UNL A   1      19.360  46.016  -1.568  1.00  0.00    +0.000 F 
ATOM     86  C56 UNL A   1      17.965  47.756  -0.782  1.00  0.00    +0.000 C 
ATOM     87  F17 UNL A   1      18.806  47.959   0.243  1.00  0.00    +0.000 F 
ENDBRANCH   76   77
TORSDOF 21
ENDMDL
