MODEL 1
REMARK VINA RESULT:      -8.8      0.000      0.000
ROOT
ATOM     27  C21 UNL A   1      13.133  49.527   3.252  1.00  0.00    +0.000 C 
ATOM     28  C22 UNL A   1      14.063  49.183   2.125  1.00  0.00    +0.000 C 
ATOM     29  N3  UNL A   1      14.934  49.942   1.509  1.00  0.00    +0.000 N 
ATOM     30  C23 UNL A   1      15.554  49.125   0.574  1.00  0.00    +0.000 C 
ATOM     31  C24 UNL A   1      16.487  49.456  -0.350  1.00  0.00    +0.000 C 
ATOM     43  C31 UNL A   1      17.031  50.778  -0.521  1.00  0.00    +0.000 C 
ATOM     44  C32 UNL A   1      17.931  51.227  -1.472  1.00  0.00    +0.000 C 
ATOM     45  C33 UNL A   1      18.210  52.573  -1.212  1.00  0.00    +0.000 C 
ATOM     46  C34 UNL A   1      17.452  52.976  -0.124  1.00  0.00    +0.000 C 
ATOM     47  N4  UNL A   1      16.733  51.865   0.289  1.00  0.00    +0.000 N 
ATOM     48  C35 UNL A   1      17.388  54.275   0.497  1.00  0.00    +0.000 C 
ATOM     60  C42 UNL A   1      16.578  54.601   1.534  1.00  0.00    +0.000 C 
ATOM     61  N5  UNL A   1      15.678  53.800   2.221  1.00  0.00    +0.000 N 
ATOM     62  C43 UNL A   1      15.149  54.564   3.145  1.00  0.00    +0.000 C 
ATOM     63  C44 UNL A   1      14.107  54.221   4.173  1.00  0.00    +0.000 C 
ATOM     75  C51 UNL A   1      13.562  52.990   4.178  1.00  0.00    +0.000 C 
ATOM     76  C52 UNL A   1      12.544  52.522   5.113  1.00  0.00    +0.000 C 
ATOM     77  C53 UNL A   1      12.293  51.226   4.875  1.00  0.00    +0.000 C 
ATOM     78  C54 UNL A   1      13.110  50.780   3.745  1.00  0.00    +0.000 C 
ATOM     79  N6  UNL A   1      13.810  51.903   3.377  1.00  0.00    +0.000 N 
ATOM     80  C55 UNL A   1      15.667  55.938   3.159  1.00  0.00    +0.000 C 
ATOM     81  C56 UNL A   1      16.512  55.916   2.138  1.00  0.00    +0.000 C 
ATOM     82  C57 UNL A   1      14.996  47.799   0.739  1.00  0.00    +0.000 C 
ATOM     83  C58 UNL A   1      14.027  47.794   1.643  1.00  0.00    +0.000 C 
ATOM    109  H24 UNL A   1      18.327  50.665  -2.242  1.00  0.00    +0.000 H 
ATOM    110  H25 UNL A   1      18.869  53.166  -1.740  1.00  0.00    +0.000 H 
ATOM    111  H26 UNL A   1      16.103  51.849   1.045  1.00  0.00    +0.000 H 
ATOM    112  H27 UNL A   1      12.090  53.097   5.840  1.00  0.00    +0.000 H 
ATOM    113  H28 UNL A   1      11.630  50.637   5.403  1.00  0.00    +0.000 H 
ATOM    114  H29 UNL A   1      14.429  51.926   2.611  1.00  0.00    +0.000 H 
ATOM    115  H30 UNL A   1      15.434  56.716   3.795  1.00  0.00    +0.000 H 
ATOM    116  H31 UNL A   1      17.054  56.732   1.814  1.00  0.00    +0.000 H 
ATOM    117  H32 UNL A   1      15.312  46.966   0.219  1.00  0.00    +0.000 H 
ATOM    118  H33 UNL A   1      13.410  47.020   1.934  1.00  0.00    +0.000 H 
ENDROOT
BRANCH   27   26
ATOM    107  H22 UNL A   1       9.135  47.353   4.058  1.00  0.00    +0.000 H 
ATOM    108  H23 UNL A   1      10.528  48.902   2.811  1.00  0.00    +0.000 H 
ATOM     84  C59 UNL A   1      12.864  47.641   4.865  1.00  0.00    +0.000 C 
ATOM     85  C60 UNL A   1      12.079  46.699   5.527  1.00  0.00    +0.000 C 
ATOM    120  H35 UNL A   1      12.512  46.041   6.193  1.00  0.00    +0.000 H 
ATOM     23  C17 UNL A   1      10.704  46.647   5.285  1.00  0.00    +0.000 C 
ATOM     24  C18 UNL A   1      10.139  47.436   4.278  1.00  0.00    +0.000 C 
ATOM     25  C19 UNL A   1      10.938  48.337   3.571  1.00  0.00    +0.000 C 
ATOM    119  H34 UNL A   1      13.868  47.723   5.092  1.00  0.00    +0.000 H 
ATOM     26  C20 UNL A   1      12.299  48.478   3.891  1.00  0.00    +0.000 C 
BRANCH   23   21
ATOM     21  C16 UNL A   1       9.818  45.765   6.077  1.00  0.00    +0.000 C 
ATOM     22  O4  UNL A   1       8.692  45.505   5.661  1.00  0.00    +0.000 O 
BRANCH   21   20
ATOM    106  H21 UNL A   1      10.532  44.325   7.269  1.00  0.00    +0.000 H 
ATOM     20  N2  UNL A   1      10.237  45.264   7.285  1.00  0.00    +0.000 N 
BRANCH   20   19
ATOM    105  H20 UNL A   1       9.656  45.386   9.247  1.00  0.00    +0.000 H 
ATOM     19  C15 UNL A   1      10.311  45.913   8.585  1.00  0.00    +0.000 C 
ATOM    104  H19 UNL A   1      10.020  46.937   8.474  1.00  0.00    +0.000 H 
BRANCH   19   18
ATOM     18  C14 UNL A   1      11.712  45.867   9.190  1.00  0.00    +0.000 C 
ATOM    102  H17 UNL A   1      11.618  45.599  10.221  1.00  0.00    +0.000 H 
ATOM    103  H18 UNL A   1      12.260  45.155   8.609  1.00  0.00    +0.000 H 
BRANCH   18   17
ATOM     17  C13 UNL A   1      12.502  47.175   9.112  1.00  0.00    +0.000 C 
ATOM    100  H15 UNL A   1      12.040  47.795   8.372  1.00  0.00    +0.000 H 
ATOM    101  H16 UNL A   1      12.479  47.591  10.098  1.00  0.00    +0.000 H 
BRANCH   17   16
ATOM     98  H13 UNL A   1      14.158  46.011   8.480  1.00  0.00    +0.000 H 
ATOM     99  H14 UNL A   1      14.161  47.726   7.956  1.00  0.00    +0.000 H 
ATOM     16  C12 UNL A   1      13.983  47.031   8.751  1.00  0.00    +0.000 C 
BRANCH   16   15
ATOM     97  H12 UNL A   1      15.396  46.481  10.208  1.00  0.00    +0.000 H 
ATOM     15  C11 UNL A   1      14.975  47.401   9.861  1.00  0.00    +0.000 C 
ATOM     96  H11 UNL A   1      14.442  47.934  10.621  1.00  0.00    +0.000 H 
BRANCH   15   14
ATOM     94  H9  UNL A   1      17.060  47.729   9.565  1.00  0.00    +0.000 H 
ATOM     14  C10 UNL A   1      16.150  48.269   9.406  1.00  0.00    +0.000 C 
ATOM     95  H10 UNL A   1      16.012  48.496   8.369  1.00  0.00    +0.000 H 
BRANCH   14   13
ATOM     13  N1  UNL A   1      16.213  49.517  10.137  1.00  0.00    +0.000 N 
ATOM     93  H8  UNL A   1      16.701  49.545  10.992  1.00  0.00    +0.000 H 
BRANCH   13    2
ATOM      1  O1  UNL A   1      15.671  51.745  10.245  1.00  0.00    +0.000 O 
ATOM      2  C1  UNL A   1      15.616  50.659   9.677  1.00  0.00    +0.000 C 
BRANCH    2    3
ATOM      3  C2  UNL A   1      14.898  50.553   8.381  1.00  0.00    +0.000 C 
ATOM     86  H1  UNL A   1      14.050  49.965   8.360  1.00  0.00    +0.000 H 
BRANCH    3    4
ATOM      4  C3  UNL A   1      15.255  51.154   7.235  1.00  0.00    +0.000 C 
ATOM     87  H2  UNL A   1      15.054  52.159   7.117  1.00  0.00    +0.000 H 
BRANCH    4    5
ATOM      5  C4  UNL A   1      15.921  50.433   6.140  1.00  0.00    +0.000 C 
ATOM      6  C5  UNL A   1      15.837  49.035   6.002  1.00  0.00    +0.000 C 
ATOM      7  C6  UNL A   1      16.503  48.375   4.963  1.00  0.00    +0.000 C 
ATOM      8  C7  UNL A   1      17.243  49.119   4.053  1.00  0.00    +0.000 C 
ATOM     10  C8  UNL A   1      17.307  50.505   4.168  1.00  0.00    +0.000 C 
ATOM     12  C9  UNL A   1      16.648  51.167   5.195  1.00  0.00    +0.000 C 
ATOM     88  H3  UNL A   1      15.277  48.490   6.676  1.00  0.00    +0.000 H 
ATOM     89  H4  UNL A   1      16.444  47.349   4.873  1.00  0.00    +0.000 H 
ATOM     92  H7  UNL A   1      16.693  52.196   5.262  1.00  0.00    +0.000 H 
BRANCH    8    9
ATOM      9  O2  UNL A   1      17.932  48.532   3.029  1.00  0.00    +0.000 O 
ATOM     90  H5  UNL A   1      18.379  47.721   3.168  1.00  0.00    +0.000 H 
ENDBRANCH    8    9
BRANCH   10   11
ATOM     11  O3  UNL A   1      18.033  51.230   3.267  1.00  0.00    +0.000 O 
ATOM     91  H6  UNL A   1      17.903  52.156   3.197  1.00  0.00    +0.000 H 
ENDBRANCH   10   11
ENDBRANCH    4    5
ENDBRANCH    3    4
ENDBRANCH    2    3
ENDBRANCH   13    2
ENDBRANCH   14   13
ENDBRANCH   15   14
ENDBRANCH   16   15
ENDBRANCH   17   16
ENDBRANCH   18   17
ENDBRANCH   19   18
ENDBRANCH   20   19
ENDBRANCH   21   20
ENDBRANCH   23   21
ENDBRANCH   27   26
BRANCH   31   32
ATOM     33  C26 UNL A   1      16.320  48.046  -2.451  1.00  0.00    +0.000 C 
ATOM     34  F1  UNL A   1      15.205  48.707  -2.802  1.00  0.00    +0.000 F 
ATOM     35  C27 UNL A   1      16.775  47.018  -3.272  1.00  0.00    +0.000 C 
ATOM     36  F2  UNL A   1      16.097  46.699  -4.383  1.00  0.00    +0.000 F 
ATOM     37  C28 UNL A   1      17.919  46.312  -2.932  1.00  0.00    +0.000 C 
ATOM     38  F3  UNL A   1      18.358  45.323  -3.723  1.00  0.00    +0.000 F 
ATOM     39  C29 UNL A   1      18.604  46.624  -1.766  1.00  0.00    +0.000 C 
ATOM     40  F4  UNL A   1      19.716  45.950  -1.443  1.00  0.00    +0.000 F 
ATOM     41  C30 UNL A   1      18.133  47.633  -0.929  1.00  0.00    +0.000 C 
ATOM     42  F5  UNL A   1      18.806  47.899   0.201  1.00  0.00    +0.000 F 
ATOM     32  C25 UNL A   1      16.979  48.361  -1.252  1.00  0.00    +0.000 C 
ENDBRANCH   31   32
BRANCH   48   49
ATOM     49  C36 UNL A   1      18.270  55.358  -0.051  1.00  0.00    +0.000 C 
ATOM     50  C37 UNL A   1      19.432  55.764   0.620  1.00  0.00    +0.000 C 
ATOM     51  F6  UNL A   1      19.752  55.221   1.805  1.00  0.00    +0.000 F 
ATOM     52  C38 UNL A   1      20.253  56.757   0.092  1.00  0.00    +0.000 C 
ATOM     53  F7  UNL A   1      21.337  57.158   0.770  1.00  0.00    +0.000 F 
ATOM     54  C39 UNL A   1      19.944  57.341  -1.127  1.00  0.00    +0.000 C 
ATOM     55  F8  UNL A   1      20.739  58.292  -1.636  1.00  0.00    +0.000 F 
ATOM     56  C40 UNL A   1      18.806  56.945  -1.814  1.00  0.00    +0.000 C 
ATOM     57  F9  UNL A   1      18.511  57.501  -2.997  1.00  0.00    +0.000 F 
ATOM     58  C41 UNL A   1      17.969  55.971  -1.277  1.00  0.00    +0.000 C 
ATOM     59  F10 UNL A   1      16.871  55.615  -1.959  1.00  0.00    +0.000 F 
ENDBRANCH   48   49
BRANCH   63   64
ATOM     65  C46 UNL A   1      14.178  55.220   6.475  1.00  0.00    +0.000 C 
ATOM     66  F11 UNL A   1      15.056  54.276   6.844  1.00  0.00    +0.000 F 
ATOM     67  C47 UNL A   1      13.778  56.172   7.409  1.00  0.00    +0.000 C 
ATOM     68  F12 UNL A   1      14.268  56.133   8.656  1.00  0.00    +0.000 F 
ATOM     69  C48 UNL A   1      12.868  57.158   7.054  1.00  0.00    +0.000 C 
ATOM     70  F13 UNL A   1      12.493  58.081   7.949  1.00  0.00    +0.000 F 
ATOM     71  C49 UNL A   1      12.346  57.182   5.769  1.00  0.00    +0.000 C 
ATOM     72  F14 UNL A   1      11.478  58.140   5.417  1.00  0.00    +0.000 F 
ATOM     73  C50 UNL A   1      12.727  56.215   4.841  1.00  0.00    +0.000 C 
ATOM     74  F15 UNL A   1      12.206  56.262   3.606  1.00  0.00    +0.000 F 
ATOM     64  C45 UNL A   1      13.658  55.221   5.173  1.00  0.00    +0.000 C 
ENDBRANCH   63   64
TORSDOF 19
ENDMDL
MODEL 2
REMARK VINA RESULT:      -8.7      0.160      2.002
ROOT
ATOM     27  C21 UNL A   1      13.136  49.531   3.128  1.00  0.00    +0.000 C 
ATOM     28  C22 UNL A   1      14.080  49.178   2.015  1.00  0.00    +0.000 C 
ATOM     29  N3  UNL A   1      14.954  49.934   1.400  1.00  0.00    +0.000 N 
ATOM     30  C23 UNL A   1      15.587  49.108   0.481  1.00  0.00    +0.000 C 
ATOM     31  C24 UNL A   1      16.529  49.432  -0.437  1.00  0.00    +0.000 C 
ATOM     43  C31 UNL A   1      17.070  50.754  -0.617  1.00  0.00    +0.000 C 
ATOM     44  C32 UNL A   1      17.978  51.195  -1.564  1.00  0.00    +0.000 C 
ATOM     45  C33 UNL A   1      18.250  52.545  -1.316  1.00  0.00    +0.000 C 
ATOM     46  C34 UNL A   1      17.479  52.958  -0.241  1.00  0.00    +0.000 C 
ATOM     47  N4  UNL A   1      16.759  51.849   0.177  1.00  0.00    +0.000 N 
ATOM     48  C35 UNL A   1      17.403  54.263   0.365  1.00  0.00    +0.000 C 
ATOM     60  C42 UNL A   1      16.582  54.598   1.389  1.00  0.00    +0.000 C 
ATOM     61  N5  UNL A   1      15.676  53.801   2.075  1.00  0.00    +0.000 N 
ATOM     62  C43 UNL A   1      15.136  54.574   2.986  1.00  0.00    +0.000 C 
ATOM     63  C44 UNL A   1      14.084  54.239   4.006  1.00  0.00    +0.000 C 
ATOM     75  C51 UNL A   1      13.543  53.006   4.019  1.00  0.00    +0.000 C 
ATOM     76  C52 UNL A   1      12.517  52.545   4.948  1.00  0.00    +0.000 C 
ATOM     77  C53 UNL A   1      12.273  51.245   4.722  1.00  0.00    +0.000 C 
ATOM     78  C54 UNL A   1      13.104  50.790   3.607  1.00  0.00    +0.000 C 
ATOM     79  N6  UNL A   1      13.803  51.911   3.233  1.00  0.00    +0.000 N 
ATOM     80  C55 UNL A   1      15.648  55.950   2.989  1.00  0.00    +0.000 C 
ATOM     81  C56 UNL A   1      16.504  55.920   1.977  1.00  0.00    +0.000 C 
ATOM     82  C57 UNL A   1      15.033  47.782   0.655  1.00  0.00    +0.000 C 
ATOM     83  C58 UNL A   1      14.054  47.784   1.549  1.00  0.00    +0.000 C 
ATOM    109  H24 UNL A   1      18.385  50.627  -2.323  1.00  0.00    +0.000 H 
ATOM    110  H25 UNL A   1      18.912  53.135  -1.844  1.00  0.00    +0.000 H 
ATOM    111  H26 UNL A   1      16.121  51.839   0.927  1.00  0.00    +0.000 H 
ATOM    112  H27 UNL A   1      12.053  53.126   5.664  1.00  0.00    +0.000 H 
ATOM    113  H28 UNL A   1      11.607  50.660   5.250  1.00  0.00    +0.000 H 
ATOM    114  H29 UNL A   1      14.431  51.927   2.474  1.00  0.00    +0.000 H 
ATOM    115  H30 UNL A   1      15.406  56.735   3.614  1.00  0.00    +0.000 H 
ATOM    116  H31 UNL A   1      17.046  56.734   1.650  1.00  0.00    +0.000 H 
ATOM    117  H32 UNL A   1      15.357  46.944   0.148  1.00  0.00    +0.000 H 
ATOM    118  H33 UNL A   1      13.437  47.010   1.842  1.00  0.00    +0.000 H 
ENDROOT
BRANCH   27   26
ATOM    107  H22 UNL A   1       9.120  47.419   4.002  1.00  0.00    +0.000 H 
ATOM    108  H23 UNL A   1      10.510  48.964   2.747  1.00  0.00    +0.000 H 
ATOM     84  C59 UNL A   1      12.874  47.621   4.713  1.00  0.00    +0.000 C 
ATOM     85  C60 UNL A   1      12.089  46.681   5.379  1.00  0.00    +0.000 C 
ATOM    120  H35 UNL A   1      12.527  46.003   6.021  1.00  0.00    +0.000 H 
ATOM     23  C17 UNL A   1      10.707  46.660   5.173  1.00  0.00    +0.000 C 
ATOM     24  C18 UNL A   1      10.131  47.479   4.197  1.00  0.00    +0.000 C 
ATOM     25  C19 UNL A   1      10.929  48.378   3.485  1.00  0.00    +0.000 C 
ATOM    119  H34 UNL A   1      13.885  47.679   4.914  1.00  0.00    +0.000 H 
ATOM     26  C20 UNL A   1      12.299  48.487   3.771  1.00  0.00    +0.000 C 
BRANCH   23   21
ATOM     21  C16 UNL A   1       9.826  45.780   5.973  1.00  0.00    +0.000 C 
ATOM     22  O4  UNL A   1       8.692  45.532   5.572  1.00  0.00    +0.000 O 
BRANCH   21   20
ATOM    106  H21 UNL A   1      10.547  44.328   7.144  1.00  0.00    +0.000 H 
ATOM     20  N2  UNL A   1      10.258  45.268   7.171  1.00  0.00    +0.000 N 
BRANCH   20   19
ATOM    105  H20 UNL A   1       9.716  45.369   9.146  1.00  0.00    +0.000 H 
ATOM     19  C15 UNL A   1      10.353  45.907   8.475  1.00  0.00    +0.000 C 
ATOM    104  H19 UNL A   1      10.052  46.929   8.378  1.00  0.00    +0.000 H 
BRANCH   19   18
ATOM     18  C14 UNL A   1      11.767  45.867   9.051  1.00  0.00    +0.000 C 
ATOM    102  H17 UNL A   1      11.695  45.605  10.085  1.00  0.00    +0.000 H 
ATOM    103  H18 UNL A   1      12.304  45.153   8.463  1.00  0.00    +0.000 H 
BRANCH   18   17
ATOM     17  C13 UNL A   1      12.552  47.177   8.948  1.00  0.00    +0.000 C 
ATOM    100  H15 UNL A   1      12.088  47.781   8.197  1.00  0.00    +0.000 H 
ATOM    101  H16 UNL A   1      12.527  47.611   9.926  1.00  0.00    +0.000 H 
BRANCH   17   16
ATOM     98  H13 UNL A   1      14.210  46.010   8.323  1.00  0.00    +0.000 H 
ATOM     99  H14 UNL A   1      14.214  47.724   7.795  1.00  0.00    +0.000 H 
ATOM     16  C12 UNL A   1      14.034  47.032   8.591  1.00  0.00    +0.000 C 
BRANCH   16   15
ATOM     97  H12 UNL A   1      15.461  46.487  10.038  1.00  0.00    +0.000 H 
ATOM     15  C11 UNL A   1      15.024  47.405   9.702  1.00  0.00    +0.000 C 
ATOM     96  H11 UNL A   1      14.485  47.920  10.470  1.00  0.00    +0.000 H 
BRANCH   15   14
ATOM     94  H9  UNL A   1      17.102  47.770   9.405  1.00  0.00    +0.000 H 
ATOM     14  C10 UNL A   1      16.183  48.297   9.255  1.00  0.00    +0.000 C 
ATOM     95  H10 UNL A   1      16.039  48.533   8.220  1.00  0.00    +0.000 H 
BRANCH   14   13
ATOM     13  N1  UNL A   1      16.226  49.538   9.998  1.00  0.00    +0.000 N 
ATOM     93  H8  UNL A   1      16.739  49.573  10.838  1.00  0.00    +0.000 H 
BRANCH   13    2
ATOM      1  O1  UNL A   1      15.616  51.745  10.148  1.00  0.00    +0.000 O 
ATOM      2  C1  UNL A   1      15.578  50.665   9.570  1.00  0.00    +0.000 C 
BRANCH    2    3
ATOM      3  C2  UNL A   1      14.824  50.548   8.296  1.00  0.00    +0.000 C 
ATOM     86  H1  UNL A   1      14.002  49.924   8.291  1.00  0.00    +0.000 H 
BRANCH    3    4
ATOM      4  C3  UNL A   1      15.117  51.183   7.150  1.00  0.00    +0.000 C 
ATOM     87  H2  UNL A   1      14.816  52.163   7.034  1.00  0.00    +0.000 H 
BRANCH    4    5
ATOM      5  C4  UNL A   1      15.851  50.534   6.054  1.00  0.00    +0.000 C 
ATOM      6  C5  UNL A   1      15.826  49.141   5.856  1.00  0.00    +0.000 C 
ATOM      7  C6  UNL A   1      16.556  48.551   4.817  1.00  0.00    +0.000 C 
ATOM      8  C7  UNL A   1      17.300  49.358   3.969  1.00  0.00    +0.000 C 
ATOM     10  C8  UNL A   1      17.306  50.740   4.142  1.00  0.00    +0.000 C 
ATOM     12  C9  UNL A   1      16.585  51.334   5.168  1.00  0.00    +0.000 C 
ATOM     88  H3  UNL A   1      15.262  48.548   6.484  1.00  0.00    +0.000 H 
ATOM     89  H4  UNL A   1      16.539  47.528   4.684  1.00  0.00    +0.000 H 
ATOM     92  H7  UNL A   1      16.588  52.360   5.279  1.00  0.00    +0.000 H 
BRANCH    8    9
ATOM      9  O2  UNL A   1      18.049  48.841   2.949  1.00  0.00    +0.000 O 
ATOM     90  H5  UNL A   1      17.843  47.998   2.597  1.00  0.00    +0.000 H 
ENDBRANCH    8    9
BRANCH   10   11
ATOM     11  O3  UNL A   1      18.037  51.528   3.300  1.00  0.00    +0.000 O 
ATOM     91  H6  UNL A   1      17.876  52.451   3.264  1.00  0.00    +0.000 H 
ENDBRANCH   10   11
ENDBRANCH    4    5
ENDBRANCH    3    4
ENDBRANCH    2    3
ENDBRANCH   13    2
ENDBRANCH   14   13
ENDBRANCH   15   14
ENDBRANCH   16   15
ENDBRANCH   17   16
ENDBRANCH   18   17
ENDBRANCH   19   18
ENDBRANCH   20   19
ENDBRANCH   21   20
ENDBRANCH   23   21
ENDBRANCH   27   26
BRANCH   31   32
ATOM     33  C26 UNL A   1      18.147  47.552  -0.963  1.00  0.00    +0.000 C 
ATOM     34  F1  UNL A   1      18.807  47.804   0.179  1.00  0.00    +0.000 F 
ATOM     35  C27 UNL A   1      18.618  46.542  -1.798  1.00  0.00    +0.000 C 
ATOM     36  F2  UNL A   1      19.714  45.851  -1.459  1.00  0.00    +0.000 F 
ATOM     37  C28 UNL A   1      17.963  46.264  -2.988  1.00  0.00    +0.000 C 
ATOM     38  F3  UNL A   1      18.415  45.290  -3.791  1.00  0.00    +0.000 F 
ATOM     39  C29 UNL A   1      16.844  47.000  -3.350  1.00  0.00    +0.000 C 
ATOM     40  F4  UNL A   1      16.203  46.723  -4.495  1.00  0.00    +0.000 F 
ATOM     41  C30 UNL A   1      16.390  48.030  -2.530  1.00  0.00    +0.000 C 
ATOM     42  F5  UNL A   1      15.317  48.736  -2.917  1.00  0.00    +0.000 F 
ATOM     32  C25 UNL A   1      17.035  48.329  -1.322  1.00  0.00    +0.000 C 
ENDBRANCH   31   32
BRANCH   48   49
ATOM     49  C36 UNL A   1      18.287  55.344  -0.186  1.00  0.00    +0.000 C 
ATOM     50  C37 UNL A   1      17.982  55.994  -1.391  1.00  0.00    +0.000 C 
ATOM     51  F6  UNL A   1      16.911  55.620  -2.107  1.00  0.00    +0.000 F 
ATOM     52  C38 UNL A   1      18.799  57.009  -1.883  1.00  0.00    +0.000 C 
ATOM     53  F7  UNL A   1      18.511  57.589  -3.056  1.00  0.00    +0.000 F 
ATOM     54  C39 UNL A   1      19.916  57.412  -1.167  1.00  0.00    +0.000 C 
ATOM     55  F8  UNL A   1      20.697  58.393  -1.639  1.00  0.00    +0.000 F 
ATOM     56  C40 UNL A   1      20.228  56.791   0.034  1.00  0.00    +0.000 C 
ATOM     57  F9  UNL A   1      21.303  57.187   0.731  1.00  0.00    +0.000 F 
ATOM     58  C41 UNL A   1      19.429  55.759   0.516  1.00  0.00    +0.000 C 
ATOM     59  F10 UNL A   1      19.761  55.171   1.674  1.00  0.00    +0.000 F 
ENDBRANCH   48   49
BRANCH   63   64
ATOM     65  C46 UNL A   1      12.640  56.190   4.647  1.00  0.00    +0.000 C 
ATOM     66  F11 UNL A   1      12.146  56.217   3.401  1.00  0.00    +0.000 F 
ATOM     67  C47 UNL A   1      12.185  57.122   5.576  1.00  0.00    +0.000 C 
ATOM     68  F12 UNL A   1      11.268  58.031   5.215  1.00  0.00    +0.000 F 
ATOM     69  C48 UNL A   1      12.682  57.118   6.871  1.00  0.00    +0.000 C 
ATOM     70  F13 UNL A   1      12.234  58.007   7.767  1.00  0.00    +0.000 F 
ATOM     71  C49 UNL A   1      13.648  56.190   7.234  1.00  0.00    +0.000 C 
ATOM     72  F14 UNL A   1      14.121  56.172   8.487  1.00  0.00    +0.000 F 
ATOM     73  C50 UNL A   1      14.122  55.272   6.299  1.00  0.00    +0.000 C 
ATOM     74  F15 UNL A   1      15.056  54.388   6.677  1.00  0.00    +0.000 F 
ATOM     64  C45 UNL A   1      13.621  55.249   4.990  1.00  0.00    +0.000 C 
ENDBRANCH   63   64
TORSDOF 19
ENDMDL
MODEL 3
REMARK VINA RESULT:      -8.7      2.888      7.720
ROOT
ATOM     27  C21 UNL A   1      13.622  53.734   4.962  1.00  0.00    +0.000 C 
ATOM     28  C22 UNL A   1      13.204  52.292   4.979  1.00  0.00    +0.000 C 
ATOM     29  N3  UNL A   1      13.546  51.321   4.171  1.00  0.00    +0.000 N 
ATOM     30  C23 UNL A   1      12.908  50.186   4.651  1.00  0.00    +0.000 C 
ATOM     31  C24 UNL A   1      12.898  48.937   4.127  1.00  0.00    +0.000 C 
ATOM     43  C31 UNL A   1      13.594  48.551   2.928  1.00  0.00    +0.000 C 
ATOM     44  C32 UNL A   1      13.590  47.328   2.281  1.00  0.00    +0.000 C 
ATOM     45  C33 UNL A   1      14.457  47.407   1.186  1.00  0.00    +0.000 C 
ATOM     46  C34 UNL A   1      14.969  48.694   1.124  1.00  0.00    +0.000 C 
ATOM     47  N4  UNL A   1      14.429  49.385   2.198  1.00  0.00    +0.000 N 
ATOM     48  C35 UNL A   1      15.883  49.253   0.161  1.00  0.00    +0.000 C 
ATOM     60  C42 UNL A   1      16.298  50.543   0.142  1.00  0.00    +0.000 C 
ATOM     61  N5  UNL A   1      15.973  51.575   1.011  1.00  0.00    +0.000 N 
ATOM     62  C43 UNL A   1      16.637  52.623   0.589  1.00  0.00    +0.000 C 
ATOM     63  C44 UNL A   1      16.655  54.018   1.147  1.00  0.00    +0.000 C 
ATOM     75  C51 UNL A   1      15.873  54.320   2.201  1.00  0.00    +0.000 C 
ATOM     76  C52 UNL A   1      15.790  55.628   2.842  1.00  0.00    +0.000 C 
ATOM     77  C53 UNL A   1      14.974  55.545   3.904  1.00  0.00    +0.000 C 
ATOM     78  C54 UNL A   1      14.450  54.181   3.997  1.00  0.00    +0.000 C 
ATOM     79  N6  UNL A   1      15.015  53.533   2.927  1.00  0.00    +0.000 N 
ATOM     80  C55 UNL A   1      17.472  52.371  -0.593  1.00  0.00    +0.000 C 
ATOM     81  C56 UNL A   1      17.205  51.097  -0.843  1.00  0.00    +0.000 C 
ATOM     82  C57 UNL A   1      12.198  50.579   5.851  1.00  0.00    +0.000 C 
ATOM     83  C58 UNL A   1      12.299  51.883   6.063  1.00  0.00    +0.000 C 
ATOM    109  H24 UNL A   1      13.042  46.499   2.559  1.00  0.00    +0.000 H 
ATOM    110  H25 UNL A   1      14.678  46.638   0.534  1.00  0.00    +0.000 H 
ATOM    111  H26 UNL A   1      14.612  50.328   2.411  1.00  0.00    +0.000 H 
ATOM    112  H27 UNL A   1      16.280  56.481   2.528  1.00  0.00    +0.000 H 
ATOM    113  H28 UNL A   1      14.753  56.317   4.551  1.00  0.00    +0.000 H 
ATOM    114  H29 UNL A   1      14.822  52.593   2.702  1.00  0.00    +0.000 H 
ATOM    115  H30 UNL A   1      18.100  53.016  -1.097  1.00  0.00    +0.000 H 
ATOM    116  H31 UNL A   1      17.594  50.566  -1.638  1.00  0.00    +0.000 H 
ATOM    117  H32 UNL A   1      11.680  49.927   6.461  1.00  0.00    +0.000 H 
ATOM    118  H33 UNL A   1      11.859  52.460   6.797  1.00  0.00    +0.000 H 
ENDROOT
BRANCH   27   26
ATOM    107  H22 UNL A   1      14.155  55.778   9.072  1.00  0.00    +0.000 H 
ATOM    108  H23 UNL A   1      14.974  54.471   7.197  1.00  0.00    +0.000 H 
ATOM     84  C59 UNL A   1      11.954  55.286   5.982  1.00  0.00    +0.000 C 
ATOM     85  C60 UNL A   1      11.517  56.099   7.025  1.00  0.00    +0.000 C 
ATOM    120  H35 UNL A   1      10.626  56.612   6.943  1.00  0.00    +0.000 H 
ATOM     23  C17 UNL A   1      12.288  56.216   8.185  1.00  0.00    +0.000 C 
ATOM     24  C18 UNL A   1      13.561  55.639   8.240  1.00  0.00    +0.000 C 
ATOM     25  C19 UNL A   1      14.025  54.875   7.168  1.00  0.00    +0.000 C 
ATOM    119  H34 UNL A   1      11.353  55.148   5.153  1.00  0.00    +0.000 H 
ATOM     26  C20 UNL A   1      13.206  54.656   6.048  1.00  0.00    +0.000 C 
BRANCH   23   21
ATOM     21  C16 UNL A   1      11.787  56.947   9.370  1.00  0.00    +0.000 C 
ATOM     22  O4  UNL A   1      11.872  58.171   9.408  1.00  0.00    +0.000 O 
BRANCH   21   20
ATOM    106  H21 UNL A   1      10.759  56.811  11.081  1.00  0.00    +0.000 H 
ATOM     20  N2  UNL A   1      11.257  56.261  10.436  1.00  0.00    +0.000 N 
BRANCH   20   19
ATOM    105  H20 UNL A   1      11.665  54.331   9.878  1.00  0.00    +0.000 H 
ATOM     19  C15 UNL A   1      11.323  54.842  10.753  1.00  0.00    +0.000 C 
ATOM    104  H19 UNL A   1      10.348  54.512  11.047  1.00  0.00    +0.000 H 
BRANCH   19   18
ATOM     18  C14 UNL A   1      12.304  54.534  11.881  1.00  0.00    +0.000 C 
ATOM    102  H17 UNL A   1      12.531  55.452  12.382  1.00  0.00    +0.000 H 
ATOM    103  H18 UNL A   1      11.818  53.813  12.505  1.00  0.00    +0.000 H 
BRANCH   18   17
ATOM     17  C13 UNL A   1      13.624  53.895  11.444  1.00  0.00    +0.000 C 
ATOM    100  H15 UNL A   1      13.424  53.272  10.598  1.00  0.00    +0.000 H 
ATOM    101  H16 UNL A   1      14.288  54.709  11.233  1.00  0.00    +0.000 H 
BRANCH   17   16
ATOM     98  H13 UNL A   1      14.643  53.694  13.294  1.00  0.00    +0.000 H 
ATOM     99  H14 UNL A   1      13.616  52.306  12.809  1.00  0.00    +0.000 H 
ATOM     16  C12 UNL A   1      14.328  53.044  12.504  1.00  0.00    +0.000 C 
BRANCH   16   15
ATOM     97  H12 UNL A   1      15.949  51.755  12.875  1.00  0.00    +0.000 H 
ATOM     15  C11 UNL A   1      15.557  52.264  12.019  1.00  0.00    +0.000 C 
ATOM     96  H11 UNL A   1      16.248  52.961  11.591  1.00  0.00    +0.000 H 
BRANCH   15   14
ATOM     94  H9  UNL A   1      14.658  50.425  11.425  1.00  0.00    +0.000 H 
ATOM     14  C10 UNL A   1      15.260  51.186  10.975  1.00  0.00    +0.000 C 
ATOM     95  H10 UNL A   1      14.748  51.650  10.157  1.00  0.00    +0.000 H 
BRANCH   14   13
ATOM     13  N1  UNL A   1      16.472  50.583  10.463  1.00  0.00    +0.000 N 
ATOM     93  H8  UNL A   1      17.011  50.014  11.060  1.00  0.00    +0.000 H 
BRANCH   13    2
ATOM      1  O1  UNL A   1      18.069  50.813   8.830  1.00  0.00    +0.000 O 
ATOM      2  C1  UNL A   1      16.894  50.777   9.175  1.00  0.00    +0.000 C 
BRANCH    2    3
ATOM      3  C2  UNL A   1      15.831  50.906   8.146  1.00  0.00    +0.000 C 
ATOM     86  H1  UNL A   1      15.272  51.773   8.152  1.00  0.00    +0.000 H 
BRANCH    3    4
ATOM      4  C3  UNL A   1      15.532  49.992   7.208  1.00  0.00    +0.000 C 
ATOM     87  H2  UNL A   1      14.738  49.354   7.371  1.00  0.00    +0.000 H 
BRANCH    4    5
ATOM      5  C4  UNL A   1      16.296  49.866   5.958  1.00  0.00    +0.000 C 
ATOM      6  C5  UNL A   1      16.520  48.624   5.337  1.00  0.00    +0.000 C 
ATOM      7  C6  UNL A   1      17.272  48.534   4.160  1.00  0.00    +0.000 C 
ATOM      8  C7  UNL A   1      17.789  49.693   3.598  1.00  0.00    +0.000 C 
ATOM     10  C8  UNL A   1      17.548  50.929   4.191  1.00  0.00    +0.000 C 
ATOM     12  C9  UNL A   1      16.802  51.027   5.358  1.00  0.00    +0.000 C 
ATOM     88  H3  UNL A   1      16.124  47.767   5.755  1.00  0.00    +0.000 H 
ATOM     89  H4  UNL A   1      17.439  47.618   3.715  1.00  0.00    +0.000 H 
ATOM     92  H7  UNL A   1      16.619  51.950   5.782  1.00  0.00    +0.000 H 
BRANCH    8    9
ATOM      9  O2  UNL A   1      18.548  49.671   2.462  1.00  0.00    +0.000 O 
ATOM     90  H5  UNL A   1      18.673  50.456   1.966  1.00  0.00    +0.000 H 
ENDBRANCH    8    9
BRANCH   10   11
ATOM     11  O3  UNL A   1      18.056  52.065   3.630  1.00  0.00    +0.000 O 
ATOM     91  H6  UNL A   1      17.903  52.897   4.036  1.00  0.00    +0.000 H 
ENDBRANCH   10   11
ENDBRANCH    4    5
ENDBRANCH    3    4
ENDBRANCH    2    3
ENDBRANCH   13    2
ENDBRANCH   14   13
ENDBRANCH   15   14
ENDBRANCH   16   15
ENDBRANCH   17   16
ENDBRANCH   18   17
ENDBRANCH   19   18
ENDBRANCH   20   19
ENDBRANCH   21   20
ENDBRANCH   23   21
ENDBRANCH   27   26
BRANCH   31   32
ATOM     33  C26 UNL A   1      12.656  47.154   5.914  1.00  0.00    +0.000 C 
ATOM     34  F1  UNL A   1      13.933  47.350   6.279  1.00  0.00    +0.000 F 
ATOM     35  C27 UNL A   1      11.914  46.177   6.573  1.00  0.00    +0.000 C 
ATOM     36  F2  UNL A   1      12.482  45.447   7.543  1.00  0.00    +0.000 F 
ATOM     37  C28 UNL A   1      10.595  45.946   6.214  1.00  0.00    +0.000 C 
ATOM     38  F3  UNL A   1       9.881  45.006   6.849  1.00  0.00    +0.000 F 
ATOM     39  C29 UNL A   1      10.018  46.683   5.190  1.00  0.00    +0.000 C 
ATOM     40  F4  UNL A   1       8.739  46.468   4.850  1.00  0.00    +0.000 F 
ATOM     41  C30 UNL A   1      10.767  47.640   4.510  1.00  0.00    +0.000 C 
ATOM     42  F5  UNL A   1      10.186  48.324   3.513  1.00  0.00    +0.000 F 
ATOM     32  C25 UNL A   1      12.102  47.892   4.857  1.00  0.00    +0.000 C 
ENDBRANCH   31   32
BRANCH   48   49
ATOM     49  C36 UNL A   1      16.406  48.350  -0.917  1.00  0.00    +0.000 C 
ATOM     50  C37 UNL A   1      17.650  47.714  -0.797  1.00  0.00    +0.000 C 
ATOM     51  F6  UNL A   1      18.427  47.947   0.272  1.00  0.00    +0.000 F 
ATOM     52  C38 UNL A   1      18.117  46.861  -1.795  1.00  0.00    +0.000 C 
ATOM     53  F7  UNL A   1      19.327  46.296  -1.679  1.00  0.00    +0.000 F 
ATOM     54  C39 UNL A   1      17.339  46.608  -2.914  1.00  0.00    +0.000 C 
ATOM     55  F8  UNL A   1      17.787  45.782  -3.870  1.00  0.00    +0.000 F 
ATOM     56  C40 UNL A   1      16.099  47.216  -3.046  1.00  0.00    +0.000 C 
ATOM     57  F9  UNL A   1      15.341  46.963  -4.123  1.00  0.00    +0.000 F 
ATOM     58  C41 UNL A   1      15.640  48.088  -2.063  1.00  0.00    +0.000 C 
ATOM     59  F10 UNL A   1      14.442  48.669  -2.223  1.00  0.00    +0.000 F 
ENDBRANCH   48   49
BRANCH   63   64
ATOM     65  C46 UNL A   1      17.091  55.778  -0.590  1.00  0.00    +0.000 C 
ATOM     66  F11 UNL A   1      15.929  55.466  -1.180  1.00  0.00    +0.000 F 
ATOM     67  C47 UNL A   1      17.879  56.786  -1.140  1.00  0.00    +0.000 C 
ATOM     68  F12 UNL A   1      17.471  57.425  -2.245  1.00  0.00    +0.000 F 
ATOM     69  C48 UNL A   1      19.088  57.126  -0.551  1.00  0.00    +0.000 C 
ATOM     70  F13 UNL A   1      19.839  58.104  -1.073  1.00  0.00    +0.000 F 
ATOM     71  C49 UNL A   1      19.518  56.447   0.580  1.00  0.00    +0.000 C 
ATOM     72  F14 UNL A   1      20.678  56.782   1.161  1.00  0.00    +0.000 F 
ATOM     73  C50 UNL A   1      18.743  55.422   1.117  1.00  0.00    +0.000 C 
ATOM     74  F15 UNL A   1      19.183  54.782   2.210  1.00  0.00    +0.000 F 
ATOM     64  C45 UNL A   1      17.510  55.074   0.548  1.00  0.00    +0.000 C 
ENDBRANCH   63   64
TORSDOF 19
ENDMDL
MODEL 4
REMARK VINA RESULT:      -8.6      2.817      8.004
ROOT
ATOM     27  C21 UNL A   1      14.047  53.956   4.903  1.00  0.00    +0.000 C 
ATOM     28  C22 UNL A   1      14.973  54.379   3.800  1.00  0.00    +0.000 C 
ATOM     29  N3  UNL A   1      15.434  53.681   2.792  1.00  0.00    +0.000 N 
ATOM     30  C23 UNL A   1      16.218  54.556   2.053  1.00  0.00    +0.000 C 
ATOM     31  C24 UNL A   1      16.961  54.299   0.950  1.00  0.00    +0.000 C 
ATOM     43  C31 UNL A   1      17.058  53.010   0.316  1.00  0.00    +0.000 C 
ATOM     44  C32 UNL A   1      17.836  52.635  -0.765  1.00  0.00    +0.000 C 
ATOM     45  C33 UNL A   1      17.559  51.295  -1.061  1.00  0.00    +0.000 C 
ATOM     46  C34 UNL A   1      16.640  50.823  -0.138  1.00  0.00    +0.000 C 
ATOM     47  N4  UNL A   1      16.343  51.885   0.702  1.00  0.00    +0.000 N 
ATOM     48  C35 UNL A   1      16.072  49.503  -0.028  1.00  0.00    +0.000 C 
ATOM     60  C42 UNL A   1      15.212  49.106   0.941  1.00  0.00    +0.000 C 
ATOM     61  N5  UNL A   1      14.686  49.842   1.993  1.00  0.00    +0.000 N 
ATOM     62  C43 UNL A   1      13.893  49.025   2.643  1.00  0.00    +0.000 C 
ATOM     63  C44 UNL A   1      13.069  49.285   3.872  1.00  0.00    +0.000 C 
ATOM     75  C51 UNL A   1      13.137  50.489   4.472  1.00  0.00    +0.000 C 
ATOM     76  C52 UNL A   1      12.397  50.878   5.668  1.00  0.00    +0.000 C 
ATOM     77  C53 UNL A   1      12.648  52.168   5.938  1.00  0.00    +0.000 C 
ATOM     78  C54 UNL A   1      13.596  52.687   4.951  1.00  0.00    +0.000 C 
ATOM     79  N6  UNL A   1      13.853  51.611   4.138  1.00  0.00    +0.000 N 
ATOM     80  C55 UNL A   1      13.816  47.676   2.066  1.00  0.00    +0.000 C 
ATOM     81  C56 UNL A   1      14.661  47.770   1.049  1.00  0.00    +0.000 C 
ATOM     82  C57 UNL A   1      16.129  55.849   2.700  1.00  0.00    +0.000 C 
ATOM     83  C58 UNL A   1      15.421  55.779   3.818  1.00  0.00    +0.000 C 
ATOM    109  H24 UNL A   1      18.506  53.239  -1.267  1.00  0.00    +0.000 H 
ATOM    110  H25 UNL A   1      17.970  50.751  -1.836  1.00  0.00    +0.000 H 
ATOM    111  H26 UNL A   1      15.717  51.847   1.461  1.00  0.00    +0.000 H 
ATOM    112  H27 UNL A   1      11.780  50.259   6.218  1.00  0.00    +0.000 H 
ATOM    113  H28 UNL A   1      12.238  52.708   6.716  1.00  0.00    +0.000 H 
ATOM    114  H29 UNL A   1      14.491  51.642   3.388  1.00  0.00    +0.000 H 
ATOM    115  H30 UNL A   1      13.252  46.867   2.371  1.00  0.00    +0.000 H 
ATOM    116  H31 UNL A   1      14.897  46.991   0.415  1.00  0.00    +0.000 H 
ATOM    117  H32 UNL A   1      16.562  56.712   2.337  1.00  0.00    +0.000 H 
ATOM    118  H33 UNL A   1      15.232  56.514   4.517  1.00  0.00    +0.000 H 
ENDROOT
BRANCH   27   26
ATOM    107  H22 UNL A   1      14.218  56.199   8.940  1.00  0.00    +0.000 H 
ATOM    108  H23 UNL A   1      15.185  54.776   7.226  1.00  0.00    +0.000 H 
ATOM     84  C59 UNL A   1      12.330  55.599   5.667  1.00  0.00    +0.000 C 
ATOM     85  C60 UNL A   1      11.812  56.475   6.618  1.00  0.00    +0.000 C 
ATOM    120  H35 UNL A   1      10.950  57.005   6.419  1.00  0.00    +0.000 H 
ATOM     23  C17 UNL A   1      12.465  56.635   7.843  1.00  0.00    +0.000 C 
ATOM     24  C18 UNL A   1      13.708  56.031   8.059  1.00  0.00    +0.000 C 
ATOM     25  C19 UNL A   1      14.256  55.201   7.079  1.00  0.00    +0.000 C 
ATOM    119  H34 UNL A   1      11.813  55.432   4.789  1.00  0.00    +0.000 H 
ATOM     26  C20 UNL A   1      13.549  54.943   5.893  1.00  0.00    +0.000 C 
BRANCH   23   21
ATOM     21  C16 UNL A   1      11.867  57.438   8.933  1.00  0.00    +0.000 C 
ATOM     22  O4  UNL A   1      12.082  58.646   8.984  1.00  0.00    +0.000 O 
BRANCH   21   20
ATOM    106  H21 UNL A   1      10.903  57.394  10.686  1.00  0.00    +0.000 H 
ATOM     20  N2  UNL A   1      11.101  56.835   9.900  1.00  0.00    +0.000 N 
BRANCH   20   19
ATOM    105  H20 UNL A   1      10.671  55.060   8.969  1.00  0.00    +0.000 H 
ATOM     19  C15 UNL A   1      10.537  55.494   9.938  1.00  0.00    +0.000 C 
ATOM    104  H19 UNL A   1       9.502  55.565  10.200  1.00  0.00    +0.000 H 
BRANCH   19   18
ATOM     18  C14 UNL A   1      11.236  54.589  10.949  1.00  0.00    +0.000 C 
ATOM    102  H17 UNL A   1      11.803  55.208  11.611  1.00  0.00    +0.000 H 
ATOM    103  H18 UNL A   1      10.459  54.037  11.437  1.00  0.00    +0.000 H 
BRANCH   18   17
ATOM     17  C13 UNL A   1      12.182  53.546  10.349  1.00  0.00    +0.000 C 
ATOM    100  H15 UNL A   1      11.775  52.577  10.550  1.00  0.00    +0.000 H 
ATOM    101  H16 UNL A   1      12.251  53.778   9.307  1.00  0.00    +0.000 H 
BRANCH   17   16
ATOM     98  H13 UNL A   1      13.884  54.597  11.056  1.00  0.00    +0.000 H 
ATOM     99  H14 UNL A   1      13.617  52.971  11.765  1.00  0.00    +0.000 H 
ATOM     16  C12 UNL A   1      13.618  53.575  10.881  1.00  0.00    +0.000 C 
BRANCH   16   15
ATOM     97  H12 UNL A   1      15.627  53.309  10.316  1.00  0.00    +0.000 H 
ATOM     15  C11 UNL A   1      14.680  52.963   9.958  1.00  0.00    +0.000 C 
ATOM     96  H11 UNL A   1      14.469  53.274   8.955  1.00  0.00    +0.000 H 
BRANCH   15   14
ATOM     94  H9  UNL A   1      14.645  51.099  10.989  1.00  0.00    +0.000 H 
ATOM     14  C10 UNL A   1      14.742  51.435   9.978  1.00  0.00    +0.000 C 
ATOM     95  H10 UNL A   1      13.943  51.062   9.370  1.00  0.00    +0.000 H 
BRANCH   14   13
ATOM     13  N1  UNL A   1      15.990  50.939   9.437  1.00  0.00    +0.000 N 
ATOM     93  H8  UNL A   1      16.655  51.584   9.105  1.00  0.00    +0.000 H 
BRANCH   13    2
ATOM      1  O1  UNL A   1      16.558  48.907  10.341  1.00  0.00    +0.000 O 
ATOM      2  C1  UNL A   1      16.273  49.602   9.372  1.00  0.00    +0.000 C 
BRANCH    2    3
ATOM      3  C2  UNL A   1      16.177  48.972   8.030  1.00  0.00    +0.000 C 
ATOM     86  H1  UNL A   1      16.492  47.993   7.946  1.00  0.00    +0.000 H 
BRANCH    3    4
ATOM      4  C3  UNL A   1      15.717  49.565   6.916  1.00  0.00    +0.000 C 
ATOM     87  H2  UNL A   1      14.783  50.002   6.935  1.00  0.00    +0.000 H 
BRANCH    4    5
ATOM      5  C4  UNL A   1      16.496  49.613   5.669  1.00  0.00    +0.000 C 
ATOM      6  C5  UNL A   1      16.809  48.455   4.935  1.00  0.00    +0.000 C 
ATOM      7  C6  UNL A   1      17.573  48.532   3.765  1.00  0.00    +0.000 C 
ATOM      8  C7  UNL A   1      18.012  49.772   3.323  1.00  0.00    +0.000 C 
ATOM     10  C8  UNL A   1      17.681  50.925   4.030  1.00  0.00    +0.000 C 
ATOM     12  C9  UNL A   1      16.923  50.858   5.191  1.00  0.00    +0.000 C 
ATOM     88  H3  UNL A   1      16.471  47.537   5.263  1.00  0.00    +0.000 H 
ATOM     89  H4  UNL A   1      17.806  47.677   3.236  1.00  0.00    +0.000 H 
ATOM     92  H7  UNL A   1      16.674  51.722   5.699  1.00  0.00    +0.000 H 
BRANCH    8    9
ATOM      9  O2  UNL A   1      18.777  49.912   2.200  1.00  0.00    +0.000 O 
ATOM     90  H5  UNL A   1      18.873  50.754   1.799  1.00  0.00    +0.000 H 
ENDBRANCH    8    9
BRANCH   10   11
ATOM     11  O3  UNL A   1      18.113  52.142   3.587  1.00  0.00    +0.000 O 
ATOM     91  H6  UNL A   1      18.995  52.414   3.748  1.00  0.00    +0.000 H 
ENDBRANCH   10   11
ENDBRANCH    4    5
ENDBRANCH    3    4
ENDBRANCH    2    3
ENDBRANCH   13    2
ENDBRANCH   14   13
ENDBRANCH   15   14
ENDBRANCH   16   15
ENDBRANCH   17   16
ENDBRANCH   18   17
ENDBRANCH   19   18
ENDBRANCH   20   19
ENDBRANCH   21   20
ENDBRANCH   23   21
ENDBRANCH   27   26
BRANCH   31   32
ATOM     33  C26 UNL A   1      19.006  55.793   0.829  1.00  0.00    +0.000 C 
ATOM     34  F1  UNL A   1      19.556  55.118   1.850  1.00  0.00    +0.000 F 
ATOM     35  C27 UNL A   1      19.704  56.867   0.283  1.00  0.00    +0.000 C 
ATOM     36  F2  UNL A   1      20.896  57.214   0.786  1.00  0.00    +0.000 F 
ATOM     37  C28 UNL A   1      19.159  57.588  -0.768  1.00  0.00    +0.000 C 
ATOM     38  F3  UNL A   1      19.832  58.621  -1.294  1.00  0.00    +0.000 F 
ATOM     39  C29 UNL A   1      17.912  57.244  -1.269  1.00  0.00    +0.000 C 
ATOM     40  F4  UNL A   1      17.389  57.934  -2.293  1.00  0.00    +0.000 F 
ATOM     41  C30 UNL A   1      17.199  56.189  -0.705  1.00  0.00    +0.000 C 
ATOM     42  F5  UNL A   1      15.987  55.893  -1.199  1.00  0.00    +0.000 F 
ATOM     32  C25 UNL A   1      17.730  55.444   0.357  1.00  0.00    +0.000 C 
ENDBRANCH   31   32
BRANCH   48   49
ATOM     49  C36 UNL A   1      16.472  48.480  -1.050  1.00  0.00    +0.000 C 
ATOM     50  C37 UNL A   1      15.701  48.256  -2.199  1.00  0.00    +0.000 C 
ATOM     51  F6  UNL A   1      14.551  48.922  -2.381  1.00  0.00    +0.000 F 
ATOM     52  C38 UNL A   1      16.092  47.317  -3.152  1.00  0.00    +0.000 C 
ATOM     53  F7  UNL A   1      15.319  47.090  -4.223  1.00  0.00    +0.000 F 
ATOM     54  C39 UNL A   1      17.272  46.609  -2.987  1.00  0.00    +0.000 C 
ATOM     55  F8  UNL A   1      17.650  45.711  -3.907  1.00  0.00    +0.000 F 
ATOM     56  C40 UNL A   1      18.057  46.825  -1.863  1.00  0.00    +0.000 C 
ATOM     57  F9  UNL A   1      19.203  46.148  -1.708  1.00  0.00    +0.000 F 
ATOM     58  C41 UNL A   1      17.657  47.743  -0.897  1.00  0.00    +0.000 C 
ATOM     59  F10 UNL A   1      18.430  47.923   0.183  1.00  0.00    +0.000 F 
ENDBRANCH   48   49
BRANCH   63   64
ATOM     65  C46 UNL A   1      10.835  48.164   4.105  1.00  0.00    +0.000 C 
ATOM     66  F11 UNL A   1      10.302  49.086   3.290  1.00  0.00    +0.000 F 
ATOM     67  C47 UNL A   1      10.016  47.163   4.622  1.00  0.00    +0.000 C 
ATOM     68  F12 UNL A   1       8.714  47.136   4.304  1.00  0.00    +0.000 F 
ATOM     69  C48 UNL A   1      10.542  46.200   5.470  1.00  0.00    +0.000 C 
ATOM     70  F13 UNL A   1       9.756  45.230   5.956  1.00  0.00    +0.000 F 
ATOM     71  C49 UNL A   1      11.885  46.245   5.814  1.00  0.00    +0.000 C 
ATOM     72  F14 UNL A   1      12.401  45.308   6.621  1.00  0.00    +0.000 F 
ATOM     73  C50 UNL A   1      12.700  47.259   5.318  1.00  0.00    +0.000 C 
ATOM     74  F15 UNL A   1      13.994  47.280   5.668  1.00  0.00    +0.000 F 
ATOM     64  C45 UNL A   1      12.193  48.233   4.446  1.00  0.00    +0.000 C 
ENDBRANCH   63   64
TORSDOF 19
ENDMDL
MODEL 5
REMARK VINA RESULT:      -8.5      3.199      7.918
ROOT
ATOM     27  C21 UNL A   1      13.556  53.404   5.901  1.00  0.00    +0.000 C 
ATOM     28  C22 UNL A   1      14.422  53.968   4.812  1.00  0.00    +0.000 C 
ATOM     29  N3  UNL A   1      14.887  53.383   3.737  1.00  0.00    +0.000 N 
ATOM     30  C23 UNL A   1      15.599  54.358   3.053  1.00  0.00    +0.000 C 
ATOM     31  C24 UNL A   1      16.318  54.234   1.911  1.00  0.00    +0.000 C 
ATOM     43  C31 UNL A   1      16.463  53.009   1.169  1.00  0.00    +0.000 C 
ATOM     44  C32 UNL A   1      17.224  52.769   0.039  1.00  0.00    +0.000 C 
ATOM     45  C33 UNL A   1      17.010  51.445  -0.361  1.00  0.00    +0.000 C 
ATOM     46  C34 UNL A   1      16.148  50.847   0.544  1.00  0.00    +0.000 C 
ATOM     47  N4  UNL A   1      15.822  51.818   1.478  1.00  0.00    +0.000 N 
ATOM     48  C35 UNL A   1      15.655  49.493   0.559  1.00  0.00    +0.000 C 
ATOM     60  C42 UNL A   1      14.849  48.970   1.514  1.00  0.00    +0.000 C 
ATOM     61  N5  UNL A   1      14.319  49.586   2.639  1.00  0.00    +0.000 N 
ATOM     62  C43 UNL A   1      13.592  48.676   3.239  1.00  0.00    +0.000 C 
ATOM     63  C44 UNL A   1      12.796  48.787   4.509  1.00  0.00    +0.000 C 
ATOM     75  C51 UNL A   1      12.819  49.939   5.206  1.00  0.00    +0.000 C 
ATOM     76  C52 UNL A   1      12.098  50.186   6.450  1.00  0.00    +0.000 C 
ATOM     77  C53 UNL A   1      12.288  51.462   6.821  1.00  0.00    +0.000 C 
ATOM     78  C54 UNL A   1      13.175  52.113   5.855  1.00  0.00    +0.000 C 
ATOM     79  N6  UNL A   1      13.463  51.124   4.947  1.00  0.00    +0.000 N 
ATOM     80  C55 UNL A   1      13.568  47.377   2.553  1.00  0.00    +0.000 C 
ATOM     81  C56 UNL A   1      14.374  47.601   1.525  1.00  0.00    +0.000 C 
ATOM     82  C57 UNL A   1      15.462  55.586   3.808  1.00  0.00    +0.000 C 
ATOM     83  C58 UNL A   1      14.795  55.385   4.935  1.00  0.00    +0.000 C 
ATOM    109  H24 UNL A   1      17.844  53.448  -0.429  1.00  0.00    +0.000 H 
ATOM    110  H25 UNL A   1      17.424  50.990  -1.190  1.00  0.00    +0.000 H 
ATOM    111  H26 UNL A   1      15.223  51.683   2.248  1.00  0.00    +0.000 H 
ATOM    112  H27 UNL A   1      11.533  49.491   6.963  1.00  0.00    +0.000 H 
ATOM    113  H28 UNL A   1      11.876  51.912   7.652  1.00  0.00    +0.000 H 
ATOM    114  H29 UNL A   1      14.073  51.252   4.185  1.00  0.00    +0.000 H 
ATOM    115  H30 UNL A   1      13.058  46.516   2.805  1.00  0.00    +0.000 H 
ATOM    116  H31 UNL A   1      14.630  46.892   0.822  1.00  0.00    +0.000 H 
ATOM    117  H32 UNL A   1      15.836  56.499   3.507  1.00  0.00    +0.000 H 
ATOM    118  H33 UNL A   1      14.590  56.048   5.699  1.00  0.00    +0.000 H 
ENDROOT
BRANCH   27   26
ATOM    107  H22 UNL A   1      13.615  55.147  10.180  1.00  0.00    +0.000 H 
ATOM    108  H23 UNL A   1      14.620  53.918   8.344  1.00  0.00    +0.000 H 
ATOM     84  C59 UNL A   1      11.840  54.981   6.795  1.00  0.00    +0.000 C 
ATOM     85  C60 UNL A   1      11.302  55.749   7.826  1.00  0.00    +0.000 C 
ATOM    120  H35 UNL A   1      10.457  56.318   7.661  1.00  0.00    +0.000 H 
ATOM     23  C17 UNL A   1      11.912  55.748   9.084  1.00  0.00    +0.000 C 
ATOM     24  C18 UNL A   1      13.135  55.097   9.269  1.00  0.00    +0.000 C 
ATOM     25  C19 UNL A   1      13.706  54.377   8.216  1.00  0.00    +0.000 C 
ATOM    119  H34 UNL A   1      11.353  54.931   5.886  1.00  0.00    +0.000 H 
ATOM     26  C20 UNL A   1      13.039  54.277   6.984  1.00  0.00    +0.000 C 
BRANCH   23   21
ATOM     21  C16 UNL A   1      11.287  56.429  10.240  1.00  0.00    +0.000 C 
ATOM     22  O4  UNL A   1      11.125  57.646  10.211  1.00  0.00    +0.000 O 
BRANCH   21   20
ATOM    106  H21 UNL A   1      10.288  54.975  11.184  1.00  0.00    +0.000 H 
ATOM     20  N2  UNL A   1      10.918  55.712  11.352  1.00  0.00    +0.000 N 
BRANCH   20   19
ATOM    105  H20 UNL A   1      10.543  56.424  13.237  1.00  0.00    +0.000 H 
ATOM     19  C15 UNL A   1      11.319  55.879  12.740  1.00  0.00    +0.000 C 
ATOM    104  H19 UNL A   1      12.251  56.404  12.767  1.00  0.00    +0.000 H 
BRANCH   19   18
ATOM     18  C14 UNL A   1      11.487  54.549  13.470  1.00  0.00    +0.000 C 
ATOM    102  H17 UNL A   1      11.979  54.742  14.400  1.00  0.00    +0.000 H 
ATOM    103  H18 UNL A   1      10.502  54.146  13.580  1.00  0.00    +0.000 H 
BRANCH   18   17
ATOM     17  C13 UNL A   1      12.296  53.488  12.720  1.00  0.00    +0.000 C 
ATOM    100  H15 UNL A   1      11.875  52.531  12.947  1.00  0.00    +0.000 H 
ATOM    101  H16 UNL A   1      12.235  53.751  11.684  1.00  0.00    +0.000 H 
BRANCH   17   16
ATOM     98  H13 UNL A   1      14.073  54.397  13.439  1.00  0.00    +0.000 H 
ATOM     99  H14 UNL A   1      13.909  52.638  13.752  1.00  0.00    +0.000 H 
ATOM     16  C12 UNL A   1      13.790  53.439  13.053  1.00  0.00    +0.000 C 
BRANCH   16   15
ATOM     97  H12 UNL A   1      15.657  53.581  12.095  1.00  0.00    +0.000 H 
ATOM     15  C11 UNL A   1      14.721  53.111  11.878  1.00  0.00    +0.000 C 
ATOM     96  H11 UNL A   1      14.265  53.475  10.980  1.00  0.00    +0.000 H 
BRANCH   15   14
ATOM     94  H9  UNL A   1      15.503  51.255  12.572  1.00  0.00    +0.000 H 
ATOM     14  C10 UNL A   1      15.018  51.623  11.693  1.00  0.00    +0.000 C 
ATOM     95  H10 UNL A   1      14.088  51.117  11.526  1.00  0.00    +0.000 H 
BRANCH   14   13
ATOM     13  N1  UNL A   1      15.872  51.381  10.550  1.00  0.00    +0.000 N 
ATOM     93  H8  UNL A   1      16.020  52.109   9.903  1.00  0.00    +0.000 H 
BRANCH   13    2
ATOM      1  O1  UNL A   1      17.384  49.723  11.034  1.00  0.00    +0.000 O 
ATOM      2  C1  UNL A   1      16.481  50.173  10.339  1.00  0.00    +0.000 C 
BRANCH    2    3
ATOM      3  C2  UNL A   1      15.958  49.360   9.211  1.00  0.00    +0.000 C 
ATOM     86  H1  UNL A   1      15.995  48.334   9.315  1.00  0.00    +0.000 H 
BRANCH    3    4
ATOM      4  C3  UNL A   1      15.443  49.842   8.069  1.00  0.00    +0.000 C 
ATOM     87  H2  UNL A   1      14.569  50.389   8.110  1.00  0.00    +0.000 H 
BRANCH    4    5
ATOM      5  C4  UNL A   1      16.077  49.618   6.761  1.00  0.00    +0.000 C 
ATOM      6  C5  UNL A   1      16.186  48.336   6.191  1.00  0.00    +0.000 C 
ATOM      7  C6  UNL A   1      16.818  48.153   4.954  1.00  0.00    +0.000 C 
ATOM      8  C7  UNL A   1      17.326  49.256   4.284  1.00  0.00    +0.000 C 
ATOM     10  C8  UNL A   1      17.195  50.530   4.829  1.00  0.00    +0.000 C 
ATOM     12  C9  UNL A   1      16.570  50.722   6.054  1.00  0.00    +0.000 C 
ATOM     88  H3  UNL A   1      15.797  47.522   6.690  1.00  0.00    +0.000 H 
ATOM     89  H4  UNL A   1      16.902  47.209   4.547  1.00  0.00    +0.000 H 
ATOM     92  H7  UNL A   1      16.469  51.673   6.443  1.00  0.00    +0.000 H 
BRANCH    8    9
ATOM      9  O2  UNL A   1      17.970  49.141   3.084  1.00  0.00    +0.000 O 
ATOM     90  H5  UNL A   1      18.321  48.314   2.818  1.00  0.00    +0.000 H 
ENDBRANCH    8    9
BRANCH   10   11
ATOM     11  O3  UNL A   1      17.695  51.612   4.162  1.00  0.00    +0.000 O 
ATOM     91  H6  UNL A   1      17.122  52.158   3.660  1.00  0.00    +0.000 H 
ENDBRANCH   10   11
ENDBRANCH    4    5
ENDBRANCH    3    4
ENDBRANCH    2    3
ENDBRANCH   13    2
ENDBRANCH   14   13
ENDBRANCH   15   14
ENDBRANCH   16   15
ENDBRANCH   17   16
ENDBRANCH   18   17
ENDBRANCH   19   18
ENDBRANCH   20   19
ENDBRANCH   21   20
ENDBRANCH   23   21
ENDBRANCH   27   26
BRANCH   31   32
ATOM     33  C26 UNL A   1      16.321  56.424   0.633  1.00  0.00    +0.000 C 
ATOM     34  F1  UNL A   1      15.028  56.241   0.322  1.00  0.00    +0.000 F 
ATOM     35  C27 UNL A   1      16.973  57.554   0.147  1.00  0.00    +0.000 C 
ATOM     36  F2  UNL A   1      16.311  58.428  -0.625  1.00  0.00    +0.000 F 
ATOM     37  C28 UNL A   1      18.310  57.768   0.445  1.00  0.00    +0.000 C 
ATOM     38  F3  UNL A   1      18.937  58.856  -0.022  1.00  0.00    +0.000 F 
ATOM     39  C29 UNL A   1      19.000  56.848   1.221  1.00  0.00    +0.000 C 
ATOM     40  F4  UNL A   1      20.290  57.060   1.520  1.00  0.00    +0.000 F 
ATOM     41  C30 UNL A   1      18.358  55.702   1.684  1.00  0.00    +0.000 C 
ATOM     42  F5  UNL A   1      19.057  54.822   2.416  1.00  0.00    +0.000 F 
ATOM     32  C25 UNL A   1      17.006  55.466   1.396  1.00  0.00    +0.000 C 
ENDBRANCH   31   32
BRANCH   48   49
ATOM     49  C36 UNL A   1      16.075  48.582  -0.557  1.00  0.00    +0.000 C 
ATOM     50  C37 UNL A   1      17.324  47.945  -0.549  1.00  0.00    +0.000 C 
ATOM     51  F6  UNL A   1      18.197  48.182   0.443  1.00  0.00    +0.000 F 
ATOM     52  C38 UNL A   1      17.696  47.085  -1.580  1.00  0.00    +0.000 C 
ATOM     53  F7  UNL A   1      18.910  46.518  -1.573  1.00  0.00    +0.000 F 
ATOM     54  C39 UNL A   1      16.817  46.826  -2.620  1.00  0.00    +0.000 C 
ATOM     55  F8  UNL A   1      17.173  45.994  -3.608  1.00  0.00    +0.000 F 
ATOM     56  C40 UNL A   1      15.571  47.435  -2.641  1.00  0.00    +0.000 C 
ATOM     57  F9  UNL A   1      14.717  47.178  -3.642  1.00  0.00    +0.000 F 
ATOM     58  C41 UNL A   1      15.206  48.315  -1.626  1.00  0.00    +0.000 C 
ATOM     59  F10 UNL A   1      13.999  48.897  -1.678  1.00  0.00    +0.000 F 
ENDBRANCH   48   49
BRANCH   63   64
ATOM     65  C46 UNL A   1      12.462  46.854   6.076  1.00  0.00    +0.000 C 
ATOM     66  F11 UNL A   1      13.668  47.096   6.610  1.00  0.00    +0.000 F 
ATOM     67  C47 UNL A   1      11.703  45.797   6.571  1.00  0.00    +0.000 C 
ATOM     68  F12 UNL A   1      12.183  45.037   7.565  1.00  0.00    +0.000 F 
ATOM     69  C48 UNL A   1      10.454  45.524   6.033  1.00  0.00    +0.000 C 
ATOM     70  F13 UNL A   1       9.718  44.515   6.518  1.00  0.00    +0.000 F 
ATOM     71  C49 UNL A   1       9.969  46.298   4.989  1.00  0.00    +0.000 C 
ATOM     72  F14 UNL A   1       8.757  46.047   4.476  1.00  0.00    +0.000 F 
ATOM     73  C50 UNL A   1      10.738  47.340   4.476  1.00  0.00    +0.000 C 
ATOM     74  F15 UNL A   1      10.246  48.072   3.466  1.00  0.00    +0.000 F 
ATOM     64  C45 UNL A   1      11.996  47.645   5.016  1.00  0.00    +0.000 C 
ENDBRANCH   63   64
TORSDOF 19
ENDMDL
MODEL 6
REMARK VINA RESULT:      -8.4     19.158     23.998
ROOT
ATOM     27  C21 UNL A   1      12.364  29.736  -1.455  1.00  0.00    +0.000 C 
ATOM     28  C22 UNL A   1      11.678  28.918  -0.399  1.00  0.00    +0.000 C 
ATOM     29  N3  UNL A   1      10.409  28.873  -0.080  1.00  0.00    +0.000 N 
ATOM     30  C23 UNL A   1      10.307  27.932   0.935  1.00  0.00    +0.000 C 
ATOM     31  C24 UNL A   1       9.211  27.567   1.642  1.00  0.00    +0.000 C 
ATOM     43  C31 UNL A   1       7.894  28.115   1.442  1.00  0.00    +0.000 C 
ATOM     44  C32 UNL A   1       6.735  27.859   2.153  1.00  0.00    +0.000 C 
ATOM     45  C33 UNL A   1       5.690  28.579   1.563  1.00  0.00    +0.000 C 
ATOM     46  C34 UNL A   1       6.207  29.318   0.511  1.00  0.00    +0.000 C 
ATOM     47  N4  UNL A   1       7.560  29.025   0.449  1.00  0.00    +0.000 N 
ATOM     48  C35 UNL A   1       5.520  30.223  -0.376  1.00  0.00    +0.000 C 
ATOM     60  C42 UNL A   1       6.112  30.950  -1.355  1.00  0.00    +0.000 C 
ATOM     61  N5  UNL A   1       7.447  30.981  -1.730  1.00  0.00    +0.000 N 
ATOM     62  C43 UNL A   1       7.520  31.820  -2.734  1.00  0.00    +0.000 C 
ATOM     63  C44 UNL A   1       8.724  32.246  -3.525  1.00  0.00    +0.000 C 
ATOM     75  C51 UNL A   1       9.940  31.775  -3.186  1.00  0.00    +0.000 C 
ATOM     76  C52 UNL A   1      11.190  32.104  -3.862  1.00  0.00    +0.000 C 
ATOM     77  C53 UNL A   1      12.187  31.397  -3.308  1.00  0.00    +0.000 C 
ATOM     78  C54 UNL A   1      11.648  30.589  -2.213  1.00  0.00    +0.000 C 
ATOM     79  N6  UNL A   1      10.311  30.901  -2.195  1.00  0.00    +0.000 N 
ATOM     80  C55 UNL A   1       6.230  32.409  -3.120  1.00  0.00    +0.000 C 
ATOM     81  C56 UNL A   1       5.411  31.869  -2.229  1.00  0.00    +0.000 C 
ATOM     82  C57 UNL A   1      11.635  27.392   1.142  1.00  0.00    +0.000 C 
ATOM     83  C58 UNL A   1      12.529  28.011   0.385  1.00  0.00    +0.000 C 
ATOM    109  H24 UNL A   1       6.654  27.243   2.977  1.00  0.00    +0.000 H 
ATOM    110  H25 UNL A   1       4.702  28.564   1.861  1.00  0.00    +0.000 H 
ATOM    111  H26 UNL A   1       8.192  29.406  -0.203  1.00  0.00    +0.000 H 
ATOM    112  H27 UNL A   1      11.291  32.774  -4.641  1.00  0.00    +0.000 H 
ATOM    113  H28 UNL A   1      13.174  31.418  -3.606  1.00  0.00    +0.000 H 
ATOM    114  H29 UNL A   1       9.680  30.533  -1.534  1.00  0.00    +0.000 H 
ATOM    115  H30 UNL A   1       6.018  33.070  -3.883  1.00  0.00    +0.000 H 
ATOM    116  H31 UNL A   1       4.403  32.077  -2.165  1.00  0.00    +0.000 H 
ATOM    117  H32 UNL A   1      11.855  26.624   1.796  1.00  0.00    +0.000 H 
ATOM    118  H33 UNL A   1      13.553  27.888   0.354  1.00  0.00    +0.000 H 
ENDROOT
BRANCH   27   26
ATOM    107  H22 UNL A   1      15.970  27.416  -3.179  1.00  0.00    +0.000 H 
ATOM    108  H23 UNL A   1      13.589  27.834  -2.955  1.00  0.00    +0.000 H 
ATOM     84  C59 UNL A   1      14.742  30.449  -1.196  1.00  0.00    +0.000 C 
ATOM     85  C60 UNL A   1      16.107  30.251  -1.390  1.00  0.00    +0.000 C 
ATOM    120  H35 UNL A   1      16.785  30.949  -1.048  1.00  0.00    +0.000 H 
ATOM     23  C17 UNL A   1      16.556  29.103  -2.050  1.00  0.00    +0.000 C 
ATOM     24  C18 UNL A   1      15.637  28.230  -2.640  1.00  0.00    +0.000 C 
ATOM     25  C19 UNL A   1      14.267  28.463  -2.498  1.00  0.00    +0.000 C 
ATOM    119  H34 UNL A   1      14.414  31.263  -0.652  1.00  0.00    +0.000 H 
ATOM     26  C20 UNL A   1      13.809  29.550  -1.736  1.00  0.00    +0.000 C 
BRANCH   23   21
ATOM     21  C16 UNL A   1      17.998  28.785  -2.141  1.00  0.00    +0.000 C 
ATOM     22  O4  UNL A   1      18.612  29.046  -3.172  1.00  0.00    +0.000 O 
BRANCH   21   20
ATOM    106  H21 UNL A   1      18.325  27.265  -0.881  1.00  0.00    +0.000 H 
ATOM     20  N2  UNL A   1      18.642  28.173  -1.093  1.00  0.00    +0.000 N 
BRANCH   20   19
ATOM    105  H20 UNL A   1      19.908  27.924   0.499  1.00  0.00    +0.000 H 
ATOM     19  C15 UNL A   1      19.722  28.664  -0.251  1.00  0.00    +0.000 C 
ATOM    104  H19 UNL A   1      19.423  29.597   0.179  1.00  0.00    +0.000 H 
BRANCH   19   18
ATOM     18  C14 UNL A   1      21.022  28.876  -1.022  1.00  0.00    +0.000 C 
ATOM    102  H17 UNL A   1      21.766  28.234  -0.600  1.00  0.00    +0.000 H 
ATOM    103  H18 UNL A   1      20.797  28.658  -2.045  1.00  0.00    +0.000 H 
BRANCH   18   17
ATOM     17  C13 UNL A   1      21.568  30.306  -1.004  1.00  0.00    +0.000 C 
ATOM    100  H15 UNL A   1      21.688  30.600   0.017  1.00  0.00    +0.000 H 
ATOM    101  H16 UNL A   1      22.485  30.277  -1.555  1.00  0.00    +0.000 H 
BRANCH   17   16
ATOM     98  H13 UNL A   1      21.295  31.848  -2.435  1.00  0.00    +0.000 H 
ATOM     99  H14 UNL A   1      19.863  30.820  -2.108  1.00  0.00    +0.000 H 
ATOM     16  C12 UNL A   1      20.694  31.354  -1.699  1.00  0.00    +0.000 C 
BRANCH   16   15
ATOM     97  H12 UNL A   1      19.272  32.857  -1.320  1.00  0.00    +0.000 H 
ATOM     15  C11 UNL A   1      20.093  32.429  -0.784  1.00  0.00    +0.000 C 
ATOM     96  H11 UNL A   1      20.860  33.138  -0.552  1.00  0.00    +0.000 H 
BRANCH   15   14
ATOM     94  H9  UNL A   1      19.312  30.857   0.424  1.00  0.00    +0.000 H 
ATOM     14  C10 UNL A   1      19.521  31.900   0.533  1.00  0.00    +0.000 C 
ATOM     95  H10 UNL A   1      20.246  32.070   1.301  1.00  0.00    +0.000 H 
BRANCH   14   13
ATOM     13  N1  UNL A   1      18.301  32.586   0.905  1.00  0.00    +0.000 N 
ATOM     93  H8  UNL A   1      17.971  33.316   0.332  1.00  0.00    +0.000 H 
BRANCH   13    2
ATOM      1  O1  UNL A   1      18.088  32.116   3.141  1.00  0.00    +0.000 O 
ATOM      2  C1  UNL A   1      17.594  32.253   2.028  1.00  0.00    +0.000 C 
BRANCH    2    3
ATOM      3  C2  UNL A   1      16.126  32.098   1.861  1.00  0.00    +0.000 C 
ATOM     86  H1  UNL A   1      15.727  31.165   2.049  1.00  0.00    +0.000 H 
BRANCH    3    4
ATOM      4  C3  UNL A   1      15.273  33.065   1.486  1.00  0.00    +0.000 C 
ATOM     87  H2  UNL A   1      15.638  34.017   1.331  1.00  0.00    +0.000 H 
BRANCH    4    5
ATOM      5  C4  UNL A   1      13.836  32.817   1.291  1.00  0.00    +0.000 C 
ATOM      6  C5  UNL A   1      13.075  33.526   0.344  1.00  0.00    +0.000 C 
ATOM      7  C6  UNL A   1      11.704  33.283   0.199  1.00  0.00    +0.000 C 
ATOM      8  C7  UNL A   1      11.099  32.321   0.995  1.00  0.00    +0.000 C 
ATOM     10  C8  UNL A   1      11.852  31.597   1.914  1.00  0.00    +0.000 C 
ATOM     12  C9  UNL A   1      13.212  31.829   2.064  1.00  0.00    +0.000 C 
ATOM     88  H3  UNL A   1      13.533  34.233  -0.252  1.00  0.00    +0.000 H 
ATOM     89  H4  UNL A   1      11.150  33.813  -0.492  1.00  0.00    +0.000 H 
ATOM     92  H7  UNL A   1      13.763  31.277   2.741  1.00  0.00    +0.000 H 
BRANCH    8    9
ATOM      9  O2  UNL A   1       9.761  32.052   0.916  1.00  0.00    +0.000 O 
ATOM     90  H5  UNL A   1       9.467  31.245   0.541  1.00  0.00    +0.000 H 
ENDBRANCH    8    9
BRANCH   10   11
ATOM     11  O3  UNL A   1      11.251  30.648   2.691  1.00  0.00    +0.000 O 
ATOM     91  H6  UNL A   1      11.106  29.787   2.351  1.00  0.00    +0.000 H 
ENDBRANCH   10   11
ENDBRANCH    4    5
ENDBRANCH    3    4
ENDBRANCH    2    3
ENDBRANCH   13    2
ENDBRANCH   14   13
ENDBRANCH   15   14
ENDBRANCH   16   15
ENDBRANCH   17   16
ENDBRANCH   18   17
ENDBRANCH   19   18
ENDBRANCH   20   19
ENDBRANCH   21   20
ENDBRANCH   23   21
ENDBRANCH   27   26
BRANCH   31   32
ATOM     33  C26 UNL A   1       9.755  26.863   4.016  1.00  0.00    +0.000 C 
ATOM     34  F1  UNL A   1       9.974  28.146   4.344  1.00  0.00    +0.000 F 
ATOM     35  C27 UNL A   1       9.938  25.883   4.988  1.00  0.00    +0.000 C 
ATOM     36  F2  UNL A   1      10.336  26.230   6.220  1.00  0.00    +0.000 F 
ATOM     37  C28 UNL A   1       9.727  24.548   4.678  1.00  0.00    +0.000 C 
ATOM     38  F3  UNL A   1       9.902  23.606   5.615  1.00  0.00    +0.000 F 
ATOM     39  C29 UNL A   1       9.342  24.189   3.395  1.00  0.00    +0.000 C 
ATOM     40  F4  UNL A   1       9.127  22.900   3.098  1.00  0.00    +0.000 F 
ATOM     41  C30 UNL A   1       9.187  25.165   2.413  1.00  0.00    +0.000 C 
ATOM     42  F5  UNL A   1       8.833  24.784   1.176  1.00  0.00    +0.000 F 
ATOM     32  C25 UNL A   1       9.394  26.521   2.703  1.00  0.00    +0.000 C 
ENDBRANCH   31   32
BRANCH   48   49
ATOM     49  C36 UNL A   1       4.040  30.392  -0.197  1.00  0.00    +0.000 C 
ATOM     50  C37 UNL A   1       3.134  29.421  -0.645  1.00  0.00    +0.000 C 
ATOM     51  F6  UNL A   1       3.577  28.334  -1.296  1.00  0.00    +0.000 F 
ATOM     52  C38 UNL A   1       1.763  29.579  -0.456  1.00  0.00    +0.000 C 
ATOM     53  F7  UNL A   1       0.912  28.657  -0.928  1.00  0.00    +0.000 F 
ATOM     54  C39 UNL A   1       1.276  30.694   0.208  1.00  0.00    +0.000 C 
ATOM     55  F8  UNL A   1      -0.042  30.842   0.395  1.00  0.00    +0.000 F 
ATOM     56  C40 UNL A   1       2.156  31.662   0.672  1.00  0.00    +0.000 C 
ATOM     57  F9  UNL A   1       1.687  32.736   1.322  1.00  0.00    +0.000 F 
ATOM     58  C41 UNL A   1       3.525  31.520   0.462  1.00  0.00    +0.000 C 
ATOM     59  F10 UNL A   1       4.350  32.476   0.912  1.00  0.00    +0.000 F 
ENDBRANCH   48   49
BRANCH   63   64
ATOM     65  C46 UNL A   1       8.686  32.732  -5.988  1.00  0.00    +0.000 C 
ATOM     66  F11 UNL A   1       8.932  31.438  -6.234  1.00  0.00    +0.000 F 
ATOM     67  C47 UNL A   1       8.544  33.610  -7.060  1.00  0.00    +0.000 C 
ATOM     68  F12 UNL A   1       8.659  33.155  -8.315  1.00  0.00    +0.000 F 
ATOM     69  C48 UNL A   1       8.291  34.955  -6.832  1.00  0.00    +0.000 C 
ATOM     70  F13 UNL A   1       8.143  35.796  -7.864  1.00  0.00    +0.000 F 
ATOM     71  C49 UNL A   1       8.196  35.426  -5.530  1.00  0.00    +0.000 C 
ATOM     72  F14 UNL A   1       7.937  36.722  -5.306  1.00  0.00    +0.000 F 
ATOM     73  C50 UNL A   1       8.361  34.554  -4.457  1.00  0.00    +0.000 C 
ATOM     74  F15 UNL A   1       8.264  35.037  -3.210  1.00  0.00    +0.000 F 
ATOM     64  C45 UNL A   1       8.600  33.189  -4.665  1.00  0.00    +0.000 C 
ENDBRANCH   63   64
TORSDOF 19
ENDMDL
MODEL 7
REMARK VINA RESULT:      -8.3     37.908     43.070
ROOT
ATOM     27  C21 UNL A   1      38.162  30.186  29.780  1.00  0.00    +0.000 C 
ATOM     28  C22 UNL A   1      39.167  29.212  29.237  1.00  0.00    +0.000 C 
ATOM     29  N3  UNL A   1      40.252  28.743  29.798  1.00  0.00    +0.000 N 
ATOM     30  C23 UNL A   1      40.797  27.853  28.883  1.00  0.00    +0.000 C 
ATOM     31  C24 UNL A   1      41.954  27.153  28.971  1.00  0.00    +0.000 C 
ATOM     43  C31 UNL A   1      42.855  27.208  30.092  1.00  0.00    +0.000 C 
ATOM     44  C32 UNL A   1      44.083  26.588  30.244  1.00  0.00    +0.000 C 
ATOM     45  C33 UNL A   1      44.570  26.888  31.522  1.00  0.00    +0.000 C 
ATOM     46  C34 UNL A   1      43.666  27.729  32.150  1.00  0.00    +0.000 C 
ATOM     47  N4  UNL A   1      42.619  27.918  31.261  1.00  0.00    +0.000 N 
ATOM     48  C35 UNL A   1      43.745  28.316  33.464  1.00  0.00    +0.000 C 
ATOM     60  C42 UNL A   1      42.836  29.174  33.987  1.00  0.00    +0.000 C 
ATOM     61  N5  UNL A   1      41.663  29.652  33.421  1.00  0.00    +0.000 N 
ATOM     62  C43 UNL A   1      41.122  30.436  34.321  1.00  0.00    +0.000 C 
ATOM     63  C44 UNL A   1      39.847  31.228  34.242  1.00  0.00    +0.000 C 
ATOM     75  C51 UNL A   1      39.129  31.215  33.103  1.00  0.00    +0.000 C 
ATOM     76  C52 UNL A   1      37.879  31.935  32.885  1.00  0.00    +0.000 C 
ATOM     77  C53 UNL A   1      37.404  31.631  31.668  1.00  0.00    +0.000 C 
ATOM     78  C54 UNL A   1      38.337  30.718  31.005  1.00  0.00    +0.000 C 
ATOM     79  N6  UNL A   1      39.346  30.551  31.921  1.00  0.00    +0.000 N 
ATOM     80  C55 UNL A   1      41.887  30.534  35.572  1.00  0.00    +0.000 C 
ATOM     81  C56 UNL A   1      42.937  29.770  35.304  1.00  0.00    +0.000 C 
ATOM     82  C57 UNL A   1      39.895  27.810  27.751  1.00  0.00    +0.000 C 
ATOM     83  C58 UNL A   1      38.904  28.677  27.893  1.00  0.00    +0.000 C 
ATOM    109  H24 UNL A   1      44.559  26.006  29.538  1.00  0.00    +0.000 H 
ATOM    110  H25 UNL A   1      45.453  26.541  31.928  1.00  0.00    +0.000 H 
ATOM    111  H26 UNL A   1      41.826  28.475  31.432  1.00  0.00    +0.000 H 
ATOM    112  H27 UNL A   1      37.432  32.576  33.560  1.00  0.00    +0.000 H 
ATOM    113  H28 UNL A   1      36.522  31.982  31.264  1.00  0.00    +0.000 H 
ATOM    114  H29 UNL A   1      40.149  30.007  31.746  1.00  0.00    +0.000 H 
ATOM    115  H30 UNL A   1      41.666  31.059  36.432  1.00  0.00    +0.000 H 
ATOM    116  H31 UNL A   1      43.726  29.619  35.951  1.00  0.00    +0.000 H 
ATOM    117  H32 UNL A   1      40.011  27.184  26.938  1.00  0.00    +0.000 H 
ATOM    118  H33 UNL A   1      38.145  28.914  27.234  1.00  0.00    +0.000 H 
ENDROOT
BRANCH   27   26
ATOM    107  H22 UNL A   1      35.219  33.082  27.704  1.00  0.00    +0.000 H 
ATOM    108  H23 UNL A   1      37.361  32.551  28.716  1.00  0.00    +0.000 H 
ATOM     84  C59 UNL A   1      35.992  29.487  28.762  1.00  0.00    +0.000 C 
ATOM     85  C60 UNL A   1      34.795  29.779  28.112  1.00  0.00    +0.000 C 
ATOM    120  H35 UNL A   1      34.141  29.020  27.866  1.00  0.00    +0.000 H 
ATOM     23  C17 UNL A   1      34.482  31.104  27.794  1.00  0.00    +0.000 C 
ATOM     24  C18 UNL A   1      35.427  32.114  27.995  1.00  0.00    +0.000 C 
ATOM     25  C19 UNL A   1      36.653  31.811  28.591  1.00  0.00    +0.000 C 
ATOM    119  H34 UNL A   1      36.193  28.518  29.055  1.00  0.00    +0.000 H 
ATOM     26  C20 UNL A   1      36.926  30.502  29.020  1.00  0.00    +0.000 C 
BRANCH   23   21
ATOM     21  C16 UNL A   1      33.158  31.468  27.242  1.00  0.00    +0.000 C 
ATOM     22  O4  UNL A   1      32.825  32.650  27.197  1.00  0.00    +0.000 O 
BRANCH   21   20
ATOM    106  H21 UNL A   1      31.809  30.018  27.527  1.00  0.00    +0.000 H 
ATOM     20  N2  UNL A   1      32.292  30.493  26.813  1.00  0.00    +0.000 N 
BRANCH   20   19
ATOM    105  H20 UNL A   1      32.164  30.882  24.804  1.00  0.00    +0.000 H 
ATOM     19  C15 UNL A   1      31.981  30.056  25.460  1.00  0.00    +0.000 C 
ATOM    104  H19 UNL A   1      30.958  29.744  25.427  1.00  0.00    +0.000 H 
BRANCH   19   18
ATOM     18  C14 UNL A   1      32.860  28.897  24.997  1.00  0.00    +0.000 C 
ATOM    102  H17 UNL A   1      32.632  28.698  23.971  1.00  0.00    +0.000 H 
ATOM    103  H18 UNL A   1      33.871  29.210  25.160  1.00  0.00    +0.000 H 
BRANCH   18   17
ATOM     17  C13 UNL A   1      32.690  27.593  25.780  1.00  0.00    +0.000 C 
ATOM    100  H15 UNL A   1      32.572  27.842  26.814  1.00  0.00    +0.000 H 
ATOM    101  H16 UNL A   1      31.837  27.105  25.355  1.00  0.00    +0.000 H 
BRANCH   17   16
ATOM     98  H13 UNL A   1      34.237  26.662  24.668  1.00  0.00    +0.000 H 
ATOM     99  H14 UNL A   1      34.547  26.868  26.422  1.00  0.00    +0.000 H 
ATOM     16  C12 UNL A   1      33.846  26.596  25.662  1.00  0.00    +0.000 C 
BRANCH   16   15
ATOM     97  H12 UNL A   1      32.419  25.088  26.003  1.00  0.00    +0.000 H 
ATOM     15  C11 UNL A   1      33.486  25.128  25.929  1.00  0.00    +0.000 C 
ATOM     96  H11 UNL A   1      33.981  24.821  26.827  1.00  0.00    +0.000 H 
BRANCH   15   14
ATOM     94  H9  UNL A   1      34.604  24.632  24.184  1.00  0.00    +0.000 H 
ATOM     14  C10 UNL A   1      33.879  24.159  24.814  1.00  0.00    +0.000 C 
ATOM     95  H10 UNL A   1      34.281  23.276  25.267  1.00  0.00    +0.000 H 
BRANCH   14   13
ATOM     13  N1  UNL A   1      32.740  23.773  24.008  1.00  0.00    +0.000 N 
ATOM     93  H8  UNL A   1      32.370  22.866  24.109  1.00  0.00    +0.000 H 
BRANCH   13    2
ATOM      1  O1  UNL A   1      32.766  25.197  22.209  1.00  0.00    +0.000 O 
ATOM      2  C1  UNL A   1      32.161  24.628  23.110  1.00  0.00    +0.000 C 
BRANCH    2    3
ATOM      3  C2  UNL A   1      30.694  24.822  23.235  1.00  0.00    +0.000 C 
ATOM     86  H1  UNL A   1      30.090  24.249  22.626  1.00  0.00    +0.000 H 
BRANCH    3    4
ATOM      4  C3  UNL A   1      30.085  25.678  24.072  1.00  0.00    +0.000 C 
ATOM     87  H2  UNL A   1      30.093  25.475  25.083  1.00  0.00    +0.000 H 
BRANCH    4    5
ATOM      5  C4  UNL A   1      29.404  26.893  23.599  1.00  0.00    +0.000 C 
ATOM      6  C5  UNL A   1      28.037  27.126  23.834  1.00  0.00    +0.000 C 
ATOM      7  C6  UNL A   1      27.413  28.282  23.350  1.00  0.00    +0.000 C 
ATOM      8  C7  UNL A   1      28.163  29.210  22.641  1.00  0.00    +0.000 C 
ATOM     10  C8  UNL A   1      29.522  28.998  22.430  1.00  0.00    +0.000 C 
ATOM     12  C9  UNL A   1      30.150  27.856  22.907  1.00  0.00    +0.000 C 
ATOM     88  H3  UNL A   1      27.488  26.437  24.371  1.00  0.00    +0.000 H 
ATOM     89  H4  UNL A   1      26.408  28.442  23.519  1.00  0.00    +0.000 H 
ATOM     92  H7  UNL A   1      31.161  27.716  22.754  1.00  0.00    +0.000 H 
BRANCH    8    9
ATOM      9  O2  UNL A   1      27.608  30.348  22.126  1.00  0.00    +0.000 O 
ATOM     90  H5  UNL A   1      27.156  30.945  22.688  1.00  0.00    +0.000 H 
ENDBRANCH    8    9
BRANCH   10   11
ATOM     11  O3  UNL A   1      30.255  29.918  21.735  1.00  0.00    +0.000 O 
ATOM     91  H6  UNL A   1      30.991  29.642  21.225  1.00  0.00    +0.000 H 
ENDBRANCH   10   11
ENDBRANCH    4    5
ENDBRANCH    3    4
ENDBRANCH    2    3
ENDBRANCH   13    2
ENDBRANCH   14   13
ENDBRANCH   15   14
ENDBRANCH   16   15
ENDBRANCH   17   16
ENDBRANCH   18   17
ENDBRANCH   19   18
ENDBRANCH   20   19
ENDBRANCH   21   20
ENDBRANCH   23   21
ENDBRANCH   27   26
BRANCH   31   32
ATOM     33  C26 UNL A   1      43.231  26.669  26.834  1.00  0.00    +0.000 C 
ATOM     34  F1  UNL A   1      43.797  27.884  26.900  1.00  0.00    +0.000 F 
ATOM     35  C27 UNL A   1      43.540  25.844  25.756  1.00  0.00    +0.000 C 
ATOM     36  F2  UNL A   1      44.381  26.273  24.806  1.00  0.00    +0.000 F 
ATOM     37  C28 UNL A   1      42.966  24.586  25.656  1.00  0.00    +0.000 C 
ATOM     38  F3  UNL A   1      43.265  23.791  24.619  1.00  0.00    +0.000 F 
ATOM     39  C29 UNL A   1      42.074  24.154  26.627  1.00  0.00    +0.000 C 
ATOM     40  F4  UNL A   1      41.527  22.933  26.537  1.00  0.00    +0.000 F 
ATOM     41  C30 UNL A   1      41.740  24.990  27.690  1.00  0.00    +0.000 C 
ATOM     42  F5  UNL A   1      40.860  24.551  28.603  1.00  0.00    +0.000 F 
ATOM     32  C25 UNL A   1      42.309  26.265  27.813  1.00  0.00    +0.000 C 
ENDBRANCH   31   32
BRANCH   48   49
ATOM     49  C36 UNL A   1      44.930  27.970  34.316  1.00  0.00    +0.000 C 
ATOM     50  C37 UNL A   1      46.092  28.754  34.305  1.00  0.00    +0.000 C 
ATOM     51  F6  UNL A   1      46.186  29.811  33.483  1.00  0.00    +0.000 F 
ATOM     52  C38 UNL A   1      47.179  28.435  35.116  1.00  0.00    +0.000 C 
ATOM     53  F7  UNL A   1      48.295  29.174  35.059  1.00  0.00    +0.000 F 
ATOM     54  C39 UNL A   1      47.113  27.345  35.970  1.00  0.00    +0.000 C 
ATOM     55  F8  UNL A   1      48.157  27.042  36.754  1.00  0.00    +0.000 F 
ATOM     56  C40 UNL A   1      45.968  26.563  36.007  1.00  0.00    +0.000 C 
ATOM     57  F9  UNL A   1      45.899  25.515  36.840  1.00  0.00    +0.000 F 
ATOM     58  C41 UNL A   1      44.889  26.864  35.180  1.00  0.00    +0.000 C 
ATOM     59  F10 UNL A   1      43.800  26.085  35.229  1.00  0.00    +0.000 F 
ENDBRANCH   48   49
BRANCH   63   64
ATOM     65  C46 UNL A   1      39.735  33.386  35.521  1.00  0.00    +0.000 C 
ATOM     66  F11 UNL A   1      40.559  33.946  34.624  1.00  0.00    +0.000 F 
ATOM     67  C47 UNL A   1      39.271  34.154  36.586  1.00  0.00    +0.000 C 
ATOM     68  F12 UNL A   1      39.654  35.433  36.703  1.00  0.00    +0.000 F 
ATOM     69  C48 UNL A   1      38.420  33.598  37.529  1.00  0.00    +0.000 C 
ATOM     70  F13 UNL A   1      37.965  34.341  38.546  1.00  0.00    +0.000 F 
ATOM     71  C49 UNL A   1      38.044  32.267  37.417  1.00  0.00    +0.000 C 
ATOM     72  F14 UNL A   1      37.211  31.729  38.318  1.00  0.00    +0.000 F 
ATOM     73  C50 UNL A   1      38.526  31.490  36.366  1.00  0.00    +0.000 C 
ATOM     74  F15 UNL A   1      38.148  30.207  36.283  1.00  0.00    +0.000 F 
ATOM     64  C45 UNL A   1      39.374  32.037  35.392  1.00  0.00    +0.000 C 
ENDBRANCH   63   64
TORSDOF 19
ENDMDL
MODEL 8
REMARK VINA RESULT:      -8.3     65.583     71.680
ROOT
ATOM     27  C21 UNL A   1      24.811 -12.422  29.977  1.00  0.00    +0.000 C 
ATOM     28  C22 UNL A   1      24.078 -11.872  31.166  1.00  0.00    +0.000 C 
ATOM     29  N3  UNL A   1      24.334 -12.027  32.441  1.00  0.00    +0.000 N 
ATOM     30  C23 UNL A   1      23.374 -11.283  33.113  1.00  0.00    +0.000 C 
ATOM     31  C24 UNL A   1      23.176 -11.168  34.448  1.00  0.00    +0.000 C 
ATOM     43  C31 UNL A   1      23.977 -11.823  35.449  1.00  0.00    +0.000 C 
ATOM     44  C32 UNL A   1      23.813 -11.822  36.823  1.00  0.00    +0.000 C 
ATOM     45  C33 UNL A   1      24.864 -12.552  37.390  1.00  0.00    +0.000 C 
ATOM     46  C34 UNL A   1      25.659 -13.045  36.367  1.00  0.00    +0.000 C 
ATOM     47  N4  UNL A   1      25.102 -12.591  35.182  1.00  0.00    +0.000 N 
ATOM     48  C35 UNL A   1      26.839 -13.865  36.460  1.00  0.00    +0.000 C 
ATOM     60  C42 UNL A   1      27.535 -14.349  35.403  1.00  0.00    +0.000 C 
ATOM     61  N5  UNL A   1      27.299 -14.164  34.048  1.00  0.00    +0.000 N 
ATOM     62  C43 UNL A   1      28.251 -14.814  33.425  1.00  0.00    +0.000 C 
ATOM     63  C44 UNL A   1      28.484 -14.962  31.948  1.00  0.00    +0.000 C 
ATOM     75  C51 UNL A   1      27.610 -14.416  31.081  1.00  0.00    +0.000 C 
ATOM     76  C52 UNL A   1      27.710 -14.484  29.627  1.00  0.00    +0.000 C 
ATOM     77  C53 UNL A   1      26.714 -13.766  29.085  1.00  0.00    +0.000 C 
ATOM     78  C54 UNL A   1      25.884 -13.216  30.158  1.00  0.00    +0.000 C 
ATOM     79  N6  UNL A   1      26.474 -13.679  31.307  1.00  0.00    +0.000 N 
ATOM     80  C55 UNL A   1      29.211 -15.476  34.318  1.00  0.00    +0.000 C 
ATOM     81  C56 UNL A   1      28.711 -15.187  35.511  1.00  0.00    +0.000 C 
ATOM     82  C57 UNL A   1      22.563 -10.634  32.104  1.00  0.00    +0.000 C 
ATOM     83  C58 UNL A   1      22.918 -11.014  30.885  1.00  0.00    +0.000 C 
ATOM    109  H24 UNL A   1      23.048 -11.363  37.341  1.00  0.00    +0.000 H 
ATOM    110  H25 UNL A   1      25.021 -12.700  38.400  1.00  0.00    +0.000 H 
ATOM    111  H26 UNL A   1      25.452 -12.784  34.283  1.00  0.00    +0.000 H 
ATOM    112  H27 UNL A   1      28.432 -15.001  29.100  1.00  0.00    +0.000 H 
ATOM    113  H28 UNL A   1      26.559 -13.625  28.076  1.00  0.00    +0.000 H 
ATOM    114  H29 UNL A   1      26.117 -13.500  32.208  1.00  0.00    +0.000 H 
ATOM    115  H30 UNL A   1      30.053 -16.023  34.079  1.00  0.00    +0.000 H 
ATOM    116  H31 UNL A   1      29.110 -15.517  36.403  1.00  0.00    +0.000 H 
ATOM    117  H32 UNL A   1      21.805  -9.964  32.308  1.00  0.00    +0.000 H 
ATOM    118  H33 UNL A   1      22.493 -10.770  29.976  1.00  0.00    +0.000 H 
ENDROOT
BRANCH   27   26
ATOM    107  H22 UNL A   1      22.534 -13.016  25.999  1.00  0.00    +0.000 H 
ATOM    108  H23 UNL A   1      22.958 -13.531  28.334  1.00  0.00    +0.000 H 
ATOM     84  C59 UNL A   1      25.046 -10.927  27.991  1.00  0.00    +0.000 C 
ATOM     85  C60 UNL A   1      24.745 -10.585  26.674  1.00  0.00    +0.000 C 
ATOM    120  H35 UNL A   1      25.156  -9.738  26.253  1.00  0.00    +0.000 H 
ATOM     23  C17 UNL A   1      23.885 -11.393  25.925  1.00  0.00    +0.000 C 
ATOM     24  C18 UNL A   1      23.215 -12.458  26.537  1.00  0.00    +0.000 C 
ATOM     25  C19 UNL A   1      23.470 -12.763  27.875  1.00  0.00    +0.000 C 
ATOM    119  H34 UNL A   1      25.731 -10.367  28.522  1.00  0.00    +0.000 H 
ATOM     26  C20 UNL A   1      24.422 -12.027  28.600  1.00  0.00    +0.000 C 
BRANCH   23   21
ATOM     21  C16 UNL A   1      23.662 -11.147  24.483  1.00  0.00    +0.000 C 
ATOM     22  O4  UNL A   1      22.554 -11.356  23.997  1.00  0.00    +0.000 O 
BRANCH   21   20
ATOM    106  H21 UNL A   1      24.691  -9.755  23.480  1.00  0.00    +0.000 H 
ATOM     20  N2  UNL A   1      24.693 -10.718  23.684  1.00  0.00    +0.000 N 
BRANCH   20   19
ATOM    105  H20 UNL A   1      25.800 -11.260  22.046  1.00  0.00    +0.000 H 
ATOM     19  C15 UNL A   1      25.789 -11.473  23.095  1.00  0.00    +0.000 C 
ATOM    104  H19 UNL A   1      25.629 -12.514  23.285  1.00  0.00    +0.000 H 
BRANCH   19   18
ATOM     18  C14 UNL A   1      27.151 -11.077  23.660  1.00  0.00    +0.000 C 
ATOM    102  H17 UNL A   1      27.345 -11.690  24.514  1.00  0.00    +0.000 H 
ATOM    103  H18 UNL A   1      27.851 -11.214  22.863  1.00  0.00    +0.000 H 
BRANCH   18   17
ATOM     17  C13 UNL A   1      27.280  -9.613  24.090  1.00  0.00    +0.000 C 
ATOM    100  H15 UNL A   1      27.854  -9.101  23.347  1.00  0.00    +0.000 H 
ATOM    101  H16 UNL A   1      26.279  -9.247  24.190  1.00  0.00    +0.000 H 
BRANCH   17   16
ATOM     98  H13 UNL A   1      27.695 -10.204  26.085  1.00  0.00    +0.000 H 
ATOM     99  H14 UNL A   1      28.997  -9.297  25.249  1.00  0.00    +0.000 H 
ATOM     16  C12 UNL A   1      27.949  -9.381  25.448  1.00  0.00    +0.000 C 
BRANCH   16   15
ATOM     97  H12 UNL A   1      26.893  -8.372  26.962  1.00  0.00    +0.000 H 
ATOM     15  C11 UNL A   1      27.554  -8.086  26.170  1.00  0.00    +0.000 C 
ATOM     96  H11 UNL A   1      27.097  -7.433  25.456  1.00  0.00    +0.000 H 
BRANCH   15   14
ATOM     94  H9  UNL A   1      29.636  -7.722  26.437  1.00  0.00    +0.000 H 
ATOM     14  C10 UNL A   1      28.715  -7.338  26.825  1.00  0.00    +0.000 C 
ATOM     95  H10 UNL A   1      28.607  -6.297  26.602  1.00  0.00    +0.000 H 
BRANCH   14   13
ATOM     13  N1  UNL A   1      28.714  -7.493  28.264  1.00  0.00    +0.000 N 
ATOM     93  H8  UNL A   1      28.027  -7.025  28.793  1.00  0.00    +0.000 H 
BRANCH   13    2
ATOM      1  O1  UNL A   1      30.626  -7.828  29.488  1.00  0.00    +0.000 O 
ATOM      2  C1  UNL A   1      29.636  -8.267  28.914  1.00  0.00    +0.000 C 
BRANCH    2    3
ATOM      3  C2  UNL A   1      29.369  -9.728  28.943  1.00  0.00    +0.000 C 
ATOM     86  H1  UNL A   1      30.114 -10.350  28.594  1.00  0.00    +0.000 H 
BRANCH    3    4
ATOM      4  C3  UNL A   1      28.241 -10.310  29.383  1.00  0.00    +0.000 C 
ATOM     87  H2  UNL A   1      27.762 -10.989  28.773  1.00  0.00    +0.000 H 
BRANCH    4    5
ATOM      5  C4  UNL A   1      27.665 -10.014  30.704  1.00  0.00    +0.000 C 
ATOM      6  C5  UNL A   1      26.611  -9.097  30.874  1.00  0.00    +0.000 C 
ATOM      7  C6  UNL A   1      26.101  -8.819  32.147  1.00  0.00    +0.000 C 
ATOM      8  C7  UNL A   1      26.638  -9.470  33.249  1.00  0.00    +0.000 C 
ATOM     10  C8  UNL A   1      27.661 -10.400  33.084  1.00  0.00    +0.000 C 
ATOM     12  C9  UNL A   1      28.173 -10.683  31.825  1.00  0.00    +0.000 C 
ATOM     88  H3  UNL A   1      26.210  -8.624  30.049  1.00  0.00    +0.000 H 
ATOM     89  H4  UNL A   1      25.334  -8.139  32.265  1.00  0.00    +0.000 H 
ATOM     92  H7  UNL A   1      28.923 -11.383  31.714  1.00  0.00    +0.000 H 
BRANCH    8    9
ATOM      9  O2  UNL A   1      26.197  -9.228  34.520  1.00  0.00    +0.000 O 
ATOM     90  H5  UNL A   1      26.114  -9.935  35.130  1.00  0.00    +0.000 H 
ENDBRANCH    8    9
BRANCH   10   11
ATOM     11  O3  UNL A   1      28.181 -11.040  34.172  1.00  0.00    +0.000 O 
ATOM     91  H6  UNL A   1      27.633 -11.588  34.700  1.00  0.00    +0.000 H 
ENDBRANCH   10   11
ENDBRANCH    4    5
ENDBRANCH    3    4
ENDBRANCH    2    3
ENDBRANCH   13    2
ENDBRANCH   14   13
ENDBRANCH   15   14
ENDBRANCH   16   15
ENDBRANCH   17   16
ENDBRANCH   18   17
ENDBRANCH   19   18
ENDBRANCH   20   19
ENDBRANCH   21   20
ENDBRANCH   23   21
ENDBRANCH   27   26
BRANCH   31   32
ATOM     33  C26 UNL A   1      20.723 -10.774  34.954  1.00  0.00    +0.000 C 
ATOM     34  F1  UNL A   1      20.445 -12.029  34.566  1.00  0.00    +0.000 F 
ATOM     35  C27 UNL A   1      19.676  -9.951  35.360  1.00  0.00    +0.000 C 
ATOM     36  F2  UNL A   1      18.419 -10.414  35.350  1.00  0.00    +0.000 F 
ATOM     37  C28 UNL A   1      19.931  -8.648  35.759  1.00  0.00    +0.000 C 
ATOM     38  F3  UNL A   1      18.923  -7.857  36.152  1.00  0.00    +0.000 F 
ATOM     39  C29 UNL A   1      21.230  -8.161  35.743  1.00  0.00    +0.000 C 
ATOM     40  F4  UNL A   1      21.479  -6.905  36.140  1.00  0.00    +0.000 F 
ATOM     41  C30 UNL A   1      22.275  -8.973  35.308  1.00  0.00    +0.000 C 
ATOM     42  F5  UNL A   1      23.517  -8.468  35.286  1.00  0.00    +0.000 F 
ATOM     32  C25 UNL A   1      22.041 -10.295  34.901  1.00  0.00    +0.000 C 
ENDBRANCH   31   32
BRANCH   48   49
ATOM     49  C36 UNL A   1      27.333 -14.231  37.830  1.00  0.00    +0.000 C 
ATOM     50  C37 UNL A   1      28.475 -13.632  38.379  1.00  0.00    +0.000 C 
ATOM     51  F6  UNL A   1      29.186 -12.748  37.660  1.00  0.00    +0.000 F 
ATOM     52  C38 UNL A   1      28.913 -13.964  39.658  1.00  0.00    +0.000 C 
ATOM     53  F7  UNL A   1      30.030 -13.409  40.148  1.00  0.00    +0.000 F 
ATOM     54  C39 UNL A   1      28.203 -14.879  40.421  1.00  0.00    +0.000 C 
ATOM     55  F8  UNL A   1      28.622 -15.193  41.654  1.00  0.00    +0.000 F 
ATOM     56  C40 UNL A   1      27.062 -15.474  39.902  1.00  0.00    +0.000 C 
ATOM     57  F9  UNL A   1      26.369 -16.351  40.642  1.00  0.00    +0.000 F 
ATOM     58  C41 UNL A   1      26.636 -15.163  38.614  1.00  0.00    +0.000 C 
ATOM     59  F10 UNL A   1      25.536 -15.762  38.135  1.00  0.00    +0.000 F 
ENDBRANCH   48   49
BRANCH   63   64
ATOM     65  C46 UNL A   1      29.578 -17.095  31.201  1.00  0.00    +0.000 C 
ATOM     66  F11 UNL A   1      28.456 -17.762  31.504  1.00  0.00    +0.000 F 
ATOM     67  C47 UNL A   1      30.666 -17.798  30.688  1.00  0.00    +0.000 C 
ATOM     68  F12 UNL A   1      30.579 -19.124  30.509  1.00  0.00    +0.000 F 
ATOM     69  C48 UNL A   1      31.840 -17.132  30.370  1.00  0.00    +0.000 C 
ATOM     70  F13 UNL A   1      32.881 -17.808  29.866  1.00  0.00    +0.000 F 
ATOM     71  C49 UNL A   1      31.934 -15.764  30.579  1.00  0.00    +0.000 C 
ATOM     72  F14 UNL A   1      33.061 -15.114  30.259  1.00  0.00    +0.000 F 
ATOM     73  C50 UNL A   1      30.856 -15.063  31.114  1.00  0.00    +0.000 C 
ATOM     74  F15 UNL A   1      30.974 -13.741  31.306  1.00  0.00    +0.000 F 
ATOM     64  C45 UNL A   1      29.654 -15.713  31.427  1.00  0.00    +0.000 C 
ENDBRANCH   63   64
TORSDOF 19
ENDMDL
MODEL 9
REMARK VINA RESULT:      -8.3     37.413     42.677
ROOT
ATOM     27  C21 UNL A   1      38.034  31.473  30.512  1.00  0.00    +0.000 C 
ATOM     28  C22 UNL A   1      38.926  30.449  29.870  1.00  0.00    +0.000 C 
ATOM     29  N3  UNL A   1      39.925  29.781  30.389  1.00  0.00    +0.000 N 
ATOM     30  C23 UNL A   1      40.384  28.944  29.381  1.00  0.00    +0.000 C 
ATOM     31  C24 UNL A   1      41.440  28.096  29.403  1.00  0.00    +0.000 C 
ATOM     43  C31 UNL A   1      42.304  27.901  30.537  1.00  0.00    +0.000 C 
ATOM     44  C32 UNL A   1      43.439  27.115  30.634  1.00  0.00    +0.000 C 
ATOM     45  C33 UNL A   1      43.918  27.195  31.947  1.00  0.00    +0.000 C 
ATOM     46  C34 UNL A   1      43.106  28.065  32.657  1.00  0.00    +0.000 C 
ATOM     47  N4  UNL A   1      42.121  28.491  31.780  1.00  0.00    +0.000 N 
ATOM     48  C35 UNL A   1      43.216  28.477  34.034  1.00  0.00    +0.000 C 
ATOM     60  C42 UNL A   1      42.406  29.376  34.642  1.00  0.00    +0.000 C 
ATOM     61  N5  UNL A   1      41.321  30.065  34.118  1.00  0.00    +0.000 N 
ATOM     62  C43 UNL A   1      40.854  30.800  35.098  1.00  0.00    +0.000 C 
ATOM     63  C44 UNL A   1      39.692  31.753  35.095  1.00  0.00    +0.000 C 
ATOM     75  C51 UNL A   1      39.015  31.967  33.950  1.00  0.00    +0.000 C 
ATOM     76  C52 UNL A   1      37.873  32.863  33.801  1.00  0.00    +0.000 C 
ATOM     77  C53 UNL A   1      37.403  32.768  32.548  1.00  0.00    +0.000 C 
ATOM     78  C54 UNL A   1      38.235  31.829  31.795  1.00  0.00    +0.000 C 
ATOM     79  N6  UNL A   1      39.185  31.426  32.700  1.00  0.00    +0.000 N 
ATOM     80  C55 UNL A   1      41.584  30.649  36.364  1.00  0.00    +0.000 C 
ATOM     81  C56 UNL A   1      42.538  29.794  36.024  1.00  0.00    +0.000 C 
ATOM     82  C57 UNL A   1      39.520  29.151  28.237  1.00  0.00    +0.000 C 
ATOM     83  C58 UNL A   1      38.641  30.116  28.467  1.00  0.00    +0.000 C 
ATOM    109  H24 UNL A   1      43.861  26.564  29.870  1.00  0.00    +0.000 H 
ATOM    110  H25 UNL A   1      44.737  26.692  32.323  1.00  0.00    +0.000 H 
ATOM    111  H26 UNL A   1      41.399  29.121  32.005  1.00  0.00    +0.000 H 
ATOM    112  H27 UNL A   1      37.488  33.471  34.541  1.00  0.00    +0.000 H 
ATOM    113  H28 UNL A   1      36.586  33.276  32.175  1.00  0.00    +0.000 H 
ATOM    114  H29 UNL A   1      39.919  30.808  32.474  1.00  0.00    +0.000 H 
ATOM    115  H30 UNL A   1      41.402  31.092  37.278  1.00  0.00    +0.000 H 
ATOM    116  H31 UNL A   1      43.280  29.467  36.661  1.00  0.00    +0.000 H 
ATOM    117  H32 UNL A   1      39.583  28.617  27.356  1.00  0.00    +0.000 H 
ATOM    118  H33 UNL A   1      37.940  30.524  27.830  1.00  0.00    +0.000 H 
ENDROOT
BRANCH   27   26
ATOM    107  H22 UNL A   1      35.852  34.799  28.159  1.00  0.00    +0.000 H 
ATOM    108  H23 UNL A   1      37.841  33.802  29.132  1.00  0.00    +0.000 H 
ATOM     84  C59 UNL A   1      35.670  31.314  29.726  1.00  0.00    +0.000 C 
ATOM     85  C60 UNL A   1      34.549  31.855  29.100  1.00  0.00    +0.000 C 
ATOM    120  H35 UNL A   1      33.687  31.296  29.009  1.00  0.00    +0.000 H 
ATOM     23  C17 UNL A   1      34.596  33.157  28.595  1.00  0.00    +0.000 C 
ATOM     24  C18 UNL A   1      35.804  33.862  28.587  1.00  0.00    +0.000 C 
ATOM     25  C19 UNL A   1      36.944  33.294  29.160  1.00  0.00    +0.000 C 
ATOM    119  H34 UNL A   1      35.614  30.377  30.156  1.00  0.00    +0.000 H 
ATOM     26  C20 UNL A   1      36.873  32.033  29.774  1.00  0.00    +0.000 C 
BRANCH   23   21
ATOM     21  C16 UNL A   1      33.384  33.817  28.060  1.00  0.00    +0.000 C 
ATOM     22  O4  UNL A   1      32.999  34.871  28.559  1.00  0.00    +0.000 O 
BRANCH   21   20
ATOM    106  H21 UNL A   1      33.016  33.434  26.131  1.00  0.00    +0.000 H 
ATOM     20  N2  UNL A   1      32.675  33.242  27.034  1.00  0.00    +0.000 N 
BRANCH   20   19
ATOM    105  H20 UNL A   1      30.688  32.934  26.636  1.00  0.00    +0.000 H 
ATOM     19  C15 UNL A   1      31.496  32.392  27.082  1.00  0.00    +0.000 C 
ATOM    104  H19 UNL A   1      31.291  32.148  28.104  1.00  0.00    +0.000 H 
BRANCH   19   18
ATOM     18  C14 UNL A   1      31.670  31.095  26.296  1.00  0.00    +0.000 C 
ATOM    102  H17 UNL A   1      30.701  30.672  26.135  1.00  0.00    +0.000 H 
ATOM    103  H18 UNL A   1      32.177  31.364  25.393  1.00  0.00    +0.000 H 
BRANCH   18   17
ATOM     17  C13 UNL A   1      32.542  30.033  26.970  1.00  0.00    +0.000 C 
ATOM    100  H15 UNL A   1      33.422  29.902  26.375  1.00  0.00    +0.000 H 
ATOM    101  H16 UNL A   1      32.740  30.399  27.956  1.00  0.00    +0.000 H 
BRANCH   17   16
ATOM     98  H13 UNL A   1      31.682  28.533  28.198  1.00  0.00    +0.000 H 
ATOM     99  H14 UNL A   1      31.013  28.667  26.540  1.00  0.00    +0.000 H 
ATOM     16  C12 UNL A   1      31.888  28.661  27.155  1.00  0.00    +0.000 C 
BRANCH   16   15
ATOM     97  H12 UNL A   1      32.759  26.780  27.513  1.00  0.00    +0.000 H 
ATOM     15  C11 UNL A   1      32.720  27.460  26.688  1.00  0.00    +0.000 C 
ATOM     96  H11 UNL A   1      33.685  27.818  26.391  1.00  0.00    +0.000 H 
BRANCH   15   14
ATOM     94  H9  UNL A   1      32.300  25.638  25.666  1.00  0.00    +0.000 H 
ATOM     14  C10 UNL A   1      32.120  26.682  25.516  1.00  0.00    +0.000 C 
ATOM     95  H10 UNL A   1      31.071  26.892  25.482  1.00  0.00    +0.000 H 
BRANCH   14   13
ATOM     13  N1  UNL A   1      32.700  27.080  24.251  1.00  0.00    +0.000 N 
ATOM     93  H8  UNL A   1      33.478  26.584  23.906  1.00  0.00    +0.000 H 
BRANCH   13    2
ATOM      1  O1  UNL A   1      32.893  28.972  22.966  1.00  0.00    +0.000 O 
ATOM      2  C1  UNL A   1      32.202  28.124  23.519  1.00  0.00    +0.000 C 
BRANCH    2    3
ATOM      3  C2  UNL A   1      30.726  28.178  23.367  1.00  0.00    +0.000 C 
ATOM     86  H1  UNL A   1      30.280  27.417  22.831  1.00  0.00    +0.000 H 
BRANCH    3    4
ATOM      4  C3  UNL A   1      29.920  29.129  23.866  1.00  0.00    +0.000 C 
ATOM     87  H2  UNL A   1      29.745  29.150  24.882  1.00  0.00    +0.000 H 
BRANCH    4    5
ATOM      5  C4  UNL A   1      29.277  30.143  23.016  1.00  0.00    +0.000 C 
ATOM      6  C5  UNL A   1      28.648  29.815  21.802  1.00  0.00    +0.000 C 
ATOM      7  C6  UNL A   1      28.066  30.807  21.003  1.00  0.00    +0.000 C 
ATOM      8  C7  UNL A   1      28.104  32.127  21.430  1.00  0.00    +0.000 C 
ATOM     10  C8  UNL A   1      28.699  32.455  22.645  1.00  0.00    +0.000 C 
ATOM     12  C9  UNL A   1      29.277  31.477  23.443  1.00  0.00    +0.000 C 
ATOM     88  H3  UNL A   1      28.615  28.830  21.495  1.00  0.00    +0.000 H 
ATOM     89  H4  UNL A   1      27.615  30.559  20.109  1.00  0.00    +0.000 H 
ATOM     92  H7  UNL A   1      29.706  31.731  24.347  1.00  0.00    +0.000 H 
BRANCH    8    9
ATOM      9  O2  UNL A   1      27.571  33.143  20.688  1.00  0.00    +0.000 O 
ATOM     90  H5  UNL A   1      27.354  33.002  19.787  1.00  0.00    +0.000 H 
ENDBRANCH    8    9
BRANCH   10   11
ATOM     11  O3  UNL A   1      28.728  33.755  23.060  1.00  0.00    +0.000 O 
ATOM     91  H6  UNL A   1      28.443  33.977  23.926  1.00  0.00    +0.000 H 
ENDBRANCH   10   11
ENDBRANCH    4    5
ENDBRANCH    3    4
ENDBRANCH    2    3
ENDBRANCH   13    2
ENDBRANCH   14   13
ENDBRANCH   15   14
ENDBRANCH   16   15
ENDBRANCH   17   16
ENDBRANCH   18   17
ENDBRANCH   19   18
ENDBRANCH   20   19
ENDBRANCH   21   20
ENDBRANCH   23   21
ENDBRANCH   27   26
BRANCH   31   32
ATOM     33  C26 UNL A   1      42.623  27.775  27.183  1.00  0.00    +0.000 C 
ATOM     34  F1  UNL A   1      43.243  28.955  27.346  1.00  0.00    +0.000 F 
ATOM     35  C27 UNL A   1      42.861  27.049  26.019  1.00  0.00    +0.000 C 
ATOM     36  F2  UNL A   1      43.688  27.537  25.084  1.00  0.00    +0.000 F 
ATOM     37  C28 UNL A   1      42.230  25.831  25.819  1.00  0.00    +0.000 C 
ATOM     38  F3  UNL A   1      42.461  25.131  24.699  1.00  0.00    +0.000 F 
ATOM     39  C29 UNL A   1      41.353  25.341  26.775  1.00  0.00    +0.000 C 
ATOM     40  F4  UNL A   1      40.752  24.158  26.587  1.00  0.00    +0.000 F 
ATOM     41  C30 UNL A   1      41.091  26.079  27.926  1.00  0.00    +0.000 C 
ATOM     42  F5  UNL A   1      40.223  25.588  28.824  1.00  0.00    +0.000 F 
ATOM     32  C25 UNL A   1      41.718  27.313  28.152  1.00  0.00    +0.000 C 
ENDBRANCH   31   32
BRANCH   48   49
ATOM     49  C36 UNL A   1      44.321  27.883  34.858  1.00  0.00    +0.000 C 
ATOM     50  C37 UNL A   1      45.568  28.513  34.972  1.00  0.00    +0.000 C 
ATOM     51  F6  UNL A   1      45.816  29.645  34.295  1.00  0.00    +0.000 F 
ATOM     52  C38 UNL A   1      46.579  27.962  35.755  1.00  0.00    +0.000 C 
ATOM     53  F7  UNL A   1      47.777  28.560  35.817  1.00  0.00    +0.000 F 
ATOM     54  C39 UNL A   1      46.353  26.790  36.460  1.00  0.00    +0.000 C 
ATOM     55  F8  UNL A   1      47.325  26.265  37.218  1.00  0.00    +0.000 F 
ATOM     56  C40 UNL A   1      45.121  26.157  36.372  1.00  0.00    +0.000 C 
ATOM     57  F9  UNL A   1      44.898  25.029  37.061  1.00  0.00    +0.000 F 
ATOM     58  C41 UNL A   1      44.117  26.691  35.570  1.00  0.00    +0.000 C 
ATOM     59  F10 UNL A   1      42.941  26.052  35.496  1.00  0.00    +0.000 F 
ENDBRANCH   48   49
BRANCH   63   64
ATOM     65  C46 UNL A   1      38.324  31.934  37.192  1.00  0.00    +0.000 C 
ATOM     66  F11 UNL A   1      37.721  30.777  36.883  1.00  0.00    +0.000 F 
ATOM     67  C47 UNL A   1      37.959  32.595  38.362  1.00  0.00    +0.000 C 
ATOM     68  F12 UNL A   1      37.015  32.074  39.158  1.00  0.00    +0.000 F 
ATOM     69  C48 UNL A   1      38.566  33.796  38.702  1.00  0.00    +0.000 C 
ATOM     70  F13 UNL A   1      38.223  34.425  39.834  1.00  0.00    +0.000 F 
ATOM     71  C49 UNL A   1      39.526  34.344  37.865  1.00  0.00    +0.000 C 
ATOM     72  F14 UNL A   1      40.124  35.496  38.197  1.00  0.00    +0.000 F 
ATOM     73  C50 UNL A   1      39.874  33.696  36.682  1.00  0.00    +0.000 C 
ATOM     74  F15 UNL A   1      40.804  34.249  35.890  1.00  0.00    +0.000 F 
ATOM     64  C45 UNL A   1      39.286  32.473  36.327  1.00  0.00    +0.000 C 
ENDBRANCH   63   64
TORSDOF 19
ENDMDL
MODEL 10
REMARK VINA RESULT:      -8.3     44.703     47.902
ROOT
ATOM     27  C21 UNL A   1      21.375  38.129  49.436  1.00  0.00    +0.000 C 
ATOM     28  C22 UNL A   1      22.198  39.380  49.553  1.00  0.00    +0.000 C 
ATOM     29  N3  UNL A   1      23.375  39.646  49.045  1.00  0.00    +0.000 N 
ATOM     30  C23 UNL A   1      23.664  40.950  49.425  1.00  0.00    +0.000 C 
ATOM     31  C24 UNL A   1      24.791  41.666  49.197  1.00  0.00    +0.000 C 
ATOM     43  C31 UNL A   1      25.936  41.174  48.476  1.00  0.00    +0.000 C 
ATOM     44  C32 UNL A   1      27.150  41.800  48.251  1.00  0.00    +0.000 C 
ATOM     45  C33 UNL A   1      27.935  40.960  47.453  1.00  0.00    +0.000 C 
ATOM     46  C34 UNL A   1      27.227  39.792  47.216  1.00  0.00    +0.000 C 
ATOM     47  N4  UNL A   1      26.003  39.937  47.850  1.00  0.00    +0.000 N 
ATOM     48  C35 UNL A   1      27.633  38.631  46.465  1.00  0.00    +0.000 C 
ATOM     60  C42 UNL A   1      26.896  37.503  46.322  1.00  0.00    +0.000 C 
ATOM     61  N5  UNL A   1      25.633  37.218  46.822  1.00  0.00    +0.000 N 
ATOM     62  C43 UNL A   1      25.342  36.013  46.398  1.00  0.00    +0.000 C 
ATOM     63  C44 UNL A   1      24.104  35.197  46.646  1.00  0.00    +0.000 C 
ATOM     75  C51 UNL A   1      23.134  35.690  47.440  1.00  0.00    +0.000 C 
ATOM     76  C52 UNL A   1      21.886  35.009  47.767  1.00  0.00    +0.000 C 
ATOM     77  C53 UNL A   1      21.125  35.824  48.515  1.00  0.00    +0.000 C 
ATOM     78  C54 UNL A   1      21.851  37.074  48.748  1.00  0.00    +0.000 C 
ATOM     79  N6  UNL A   1      23.046  36.892  48.097  1.00  0.00    +0.000 N 
ATOM     80  C55 UNL A   1      26.386  35.398  45.567  1.00  0.00    +0.000 C 
ATOM     81  C56 UNL A   1      27.323  36.336  45.577  1.00  0.00    +0.000 C 
ATOM     82  C57 UNL A   1      22.516  41.437  50.161  1.00  0.00    +0.000 C 
ATOM     83  C58 UNL A   1      21.608  40.486  50.321  1.00  0.00    +0.000 C 
ATOM    109  H24 UNL A   1      27.429  42.726  48.611  1.00  0.00    +0.000 H 
ATOM    110  H25 UNL A   1      28.882  41.173  47.101  1.00  0.00    +0.000 H 
ATOM    111  H26 UNL A   1      25.287  39.262  47.856  1.00  0.00    +0.000 H 
ATOM    112  H27 UNL A   1      21.628  34.055  47.471  1.00  0.00    +0.000 H 
ATOM    113  H28 UNL A   1      20.181  35.606  48.868  1.00  0.00    +0.000 H 
ATOM    114  H29 UNL A   1      23.771  37.559  48.102  1.00  0.00    +0.000 H 
ATOM    115  H30 UNL A   1      26.389  34.478  45.099  1.00  0.00    +0.000 H 
ATOM    116  H31 UNL A   1      28.240  36.246  45.114  1.00  0.00    +0.000 H 
ATOM    117  H32 UNL A   1      22.419  42.401  50.516  1.00  0.00    +0.000 H 
ATOM    118  H33 UNL A   1      20.720  40.514  50.845  1.00  0.00    +0.000 H 
ENDROOT
BRANCH   27   26
ATOM    107  H22 UNL A   1      16.824  38.923  49.300  1.00  0.00    +0.000 H 
ATOM    108  H23 UNL A   1      19.017  38.788  48.266  1.00  0.00    +0.000 H 
ATOM     84  C59 UNL A   1      19.806  37.614  51.308  1.00  0.00    +0.000 C 
ATOM     85  C60 UNL A   1      18.533  37.620  51.876  1.00  0.00    +0.000 C 
ATOM    120  H35 UNL A   1      18.384  37.221  52.815  1.00  0.00    +0.000 H 
ATOM     23  C17 UNL A   1      17.460  38.168  51.168  1.00  0.00    +0.000 C 
ATOM     24  C18 UNL A   1      17.631  38.576  49.842  1.00  0.00    +0.000 C 
ATOM     25  C19 UNL A   1      18.895  38.512  49.252  1.00  0.00    +0.000 C 
ATOM    119  H34 UNL A   1      20.610  37.269  51.857  1.00  0.00    +0.000 H 
ATOM     26  C20 UNL A   1      20.001  38.072  49.997  1.00  0.00    +0.000 C 
BRANCH   23   21
ATOM     21  C16 UNL A   1      16.129  38.329  51.796  1.00  0.00    +0.000 C 
ATOM     22  O4  UNL A   1      15.842  39.390  52.344  1.00  0.00    +0.000 O 
BRANCH   21   20
ATOM    106  H21 UNL A   1      15.568  36.446  52.173  1.00  0.00    +0.000 H 
ATOM     20  N2  UNL A   1      15.231  37.290  51.795  1.00  0.00    +0.000 N 
BRANCH   20   19
ATOM    105  H20 UNL A   1      13.268  37.852  51.982  1.00  0.00    +0.000 H 
ATOM     19  C15 UNL A   1      13.856  37.250  51.320  1.00  0.00    +0.000 C 
ATOM    104  H19 UNL A   1      13.526  36.232  51.312  1.00  0.00    +0.000 H 
BRANCH   19   18
ATOM     18  C14 UNL A   1      13.700  37.825  49.914  1.00  0.00    +0.000 C 
ATOM    102  H17 UNL A   1      13.141  38.734  49.988  1.00  0.00    +0.000 H 
ATOM    103  H18 UNL A   1      14.693  37.960  49.539  1.00  0.00    +0.000 H 
BRANCH   18   17
ATOM     17  C13 UNL A   1      12.989  36.914  48.910  1.00  0.00    +0.000 C 
ATOM    100  H15 UNL A   1      12.363  36.243  49.460  1.00  0.00    +0.000 H 
ATOM    101  H16 UNL A   1      12.452  37.565  48.253  1.00  0.00    +0.000 H 
BRANCH   17   16
ATOM     98  H13 UNL A   1      13.980  35.098  48.441  1.00  0.00    +0.000 H 
ATOM     99  H14 UNL A   1      13.461  36.092  47.041  1.00  0.00    +0.000 H 
ATOM     16  C12 UNL A   1      13.907  36.077  48.014  1.00  0.00    +0.000 C 
BRANCH   16   15
ATOM     97  H12 UNL A   1      15.915  36.204  48.625  1.00  0.00    +0.000 H 
ATOM     15  C11 UNL A   1      15.330  36.619  47.831  1.00  0.00    +0.000 C 
ATOM     96  H11 UNL A   1      15.286  37.688  47.856  1.00  0.00    +0.000 H 
BRANCH   15   14
ATOM     94  H9  UNL A   1      16.443  35.230  46.660  1.00  0.00    +0.000 H 
ATOM     14  C10 UNL A   1      16.012  36.201  46.528  1.00  0.00    +0.000 C 
ATOM     95  H10 UNL A   1      15.272  36.192  45.755  1.00  0.00    +0.000 H 
BRANCH   14   13
ATOM     13  N1  UNL A   1      17.055  37.128  46.143  1.00  0.00    +0.000 N 
ATOM     93  H8  UNL A   1      16.819  38.071  45.983  1.00  0.00    +0.000 H 
BRANCH   13    2
ATOM      1  O1  UNL A   1      19.305  37.508  45.896  1.00  0.00    +0.000 O 
ATOM      2  C1  UNL A   1      18.358  36.736  45.993  1.00  0.00    +0.000 C 
BRANCH    2    3
ATOM      3  C2  UNL A   1      18.610  35.272  45.995  1.00  0.00    +0.000 C 
ATOM     86  H1  UNL A   1      18.194  34.724  46.764  1.00  0.00    +0.000 H 
BRANCH    3    4
ATOM      4  C3  UNL A   1      19.333  34.599  45.085  1.00  0.00    +0.000 C 
ATOM     87  H2  UNL A   1      20.194  35.031  44.716  1.00  0.00    +0.000 H 
BRANCH    4    5
ATOM      5  C4  UNL A   1      18.941  33.270  44.594  1.00  0.00    +0.000 C 
ATOM      6  C5  UNL A   1      17.922  33.093  43.641  1.00  0.00    +0.000 C 
ATOM      7  C6  UNL A   1      17.555  31.811  43.211  1.00  0.00    +0.000 C 
ATOM      8  C7  UNL A   1      18.221  30.708  43.728  1.00  0.00    +0.000 C 
ATOM     10  C8  UNL A   1      19.251  30.879  44.649  1.00  0.00    +0.000 C 
ATOM     12  C9  UNL A   1      19.621  32.145  45.080  1.00  0.00    +0.000 C 
ATOM     88  H3  UNL A   1      17.438  33.917  43.254  1.00  0.00    +0.000 H 
ATOM     89  H4  UNL A   1      16.800  31.689  42.519  1.00  0.00    +0.000 H 
ATOM     92  H7  UNL A   1      20.394  32.260  45.755  1.00  0.00    +0.000 H 
BRANCH    8    9
ATOM      9  O2  UNL A   1      17.898  29.431  43.364  1.00  0.00    +0.000 O 
ATOM     90  H5  UNL A   1      18.434  28.715  43.642  1.00  0.00    +0.000 H 
ENDBRANCH    8    9
BRANCH   10   11
ATOM     11  O3  UNL A   1      19.904  29.789  45.149  1.00  0.00    +0.000 O 
ATOM     91  H6  UNL A   1      19.508  28.941  45.099  1.00  0.00    +0.000 H 
ENDBRANCH   10   11
ENDBRANCH    4    5
ENDBRANCH    3    4
ENDBRANCH    2    3
ENDBRANCH   13    2
ENDBRANCH   14   13
ENDBRANCH   15   14
ENDBRANCH   16   15
ENDBRANCH   17   16
ENDBRANCH   18   17
ENDBRANCH   19   18
ENDBRANCH   20   19
ENDBRANCH   21   20
ENDBRANCH   23   21
ENDBRANCH   27   26
BRANCH   31   32
ATOM     33  C26 UNL A   1      25.305  43.333  51.037  1.00  0.00    +0.000 C 
ATOM     34  F1  UNL A   1      25.697  42.328  51.835  1.00  0.00    +0.000 F 
ATOM     35  C27 UNL A   1      25.329  44.633  51.536  1.00  0.00    +0.000 C 
ATOM     36  F2  UNL A   1      25.728  44.858  52.796  1.00  0.00    +0.000 F 
ATOM     37  C28 UNL A   1      24.923  45.692  50.738  1.00  0.00    +0.000 C 
ATOM     38  F3  UNL A   1      24.948  46.943  51.219  1.00  0.00    +0.000 F 
ATOM     39  C29 UNL A   1      24.484  45.453  49.444  1.00  0.00    +0.000 C 
ATOM     40  F4  UNL A   1      24.103  46.478  48.668  1.00  0.00    +0.000 F 
ATOM     41  C30 UNL A   1      24.431  44.151  48.953  1.00  0.00    +0.000 C 
ATOM     42  F5  UNL A   1      23.984  43.951  47.704  1.00  0.00    +0.000 F 
ATOM     32  C25 UNL A   1      24.838  43.065  49.741  1.00  0.00    +0.000 C 
ENDBRANCH   31   32
BRANCH   48   49
ATOM     49  C36 UNL A   1      28.979  38.658  45.804  1.00  0.00    +0.000 C 
ATOM     50  C37 UNL A   1      29.188  39.348  44.601  1.00  0.00    +0.000 C 
ATOM     51  F6  UNL A   1      28.164  39.959  43.986  1.00  0.00    +0.000 F 
ATOM     52  C38 UNL A   1      30.447  39.383  44.006  1.00  0.00    +0.000 C 
ATOM     53  F7  UNL A   1      30.616  40.014  42.836  1.00  0.00    +0.000 F 
ATOM     54  C39 UNL A   1      31.523  38.756  44.615  1.00  0.00    +0.000 C 
ATOM     55  F8  UNL A   1      32.734  38.796  44.045  1.00  0.00    +0.000 F 
ATOM     56  C40 UNL A   1      31.341  38.079  45.813  1.00  0.00    +0.000 C 
ATOM     57  F9  UNL A   1      32.382  37.480  46.407  1.00  0.00    +0.000 F 
ATOM     58  C41 UNL A   1      30.079  38.019  46.397  1.00  0.00    +0.000 C 
ATOM     59  F10 UNL A   1      29.931  37.349  47.549  1.00  0.00    +0.000 F 
ENDBRANCH   48   49
BRANCH   63   64
ATOM     65  C46 UNL A   1      24.491  32.716  46.654  1.00  0.00    +0.000 C 
ATOM     66  F11 UNL A   1      25.222  32.847  47.771  1.00  0.00    +0.000 F 
ATOM     67  C47 UNL A   1      24.316  31.449  46.105  1.00  0.00    +0.000 C 
ATOM     68  F12 UNL A   1      24.879  30.383  46.691  1.00  0.00    +0.000 F 
ATOM     69  C48 UNL A   1      23.567  31.287  44.948  1.00  0.00    +0.000 C 
ATOM     70  F13 UNL A   1      23.389  30.066  44.428  1.00  0.00    +0.000 F 
ATOM     71  C49 UNL A   1      23.005  32.395  44.331  1.00  0.00    +0.000 C 
ATOM     72  F14 UNL A   1      22.269  32.242  43.222  1.00  0.00    +0.000 F 
ATOM     73  C50 UNL A   1      23.200  33.667  44.866  1.00  0.00    +0.000 C 
ATOM     74  F15 UNL A   1      22.646  34.720  44.249  1.00  0.00    +0.000 F 
ATOM     64  C45 UNL A   1      23.939  33.851  46.043  1.00  0.00    +0.000 C 
ENDBRANCH   63   64
TORSDOF 19
ENDMDL
