MODEL 1
REMARK VINA RESULT:     -11.5      0.000      0.000
ROOT
ATOM     33  C22 UNL A   1      25.953  35.357  45.233  1.00  0.00    +0.000 C 
ATOM     34  C23 UNL A   1      27.300  35.345  44.566  1.00  0.00    +0.000 C 
ATOM     35  N6  UNL A   1      28.311  36.159  44.733  1.00  0.00    +0.000 N 
ATOM     36  C24 UNL A   1      29.318  35.685  43.902  1.00  0.00    +0.000 C 
ATOM     37  C25 UNL A   1      30.543  36.218  43.673  1.00  0.00    +0.000 C 
ATOM     49  C32 UNL A   1      31.033  37.426  44.289  1.00  0.00    +0.000 C 
ATOM     50  C33 UNL A   1      32.232  38.080  44.071  1.00  0.00    +0.000 C 
ATOM     51  C34 UNL A   1      32.303  39.169  44.946  1.00  0.00    +0.000 C 
ATOM     52  C35 UNL A   1      31.122  39.230  45.667  1.00  0.00    +0.000 C 
ATOM     53  N7  UNL A   1      30.350  38.156  45.251  1.00  0.00    +0.000 N 
ATOM     54  C36 UNL A   1      30.727  40.193  46.664  1.00  0.00    +0.000 C 
ATOM     66  C43 UNL A   1      29.528  40.205  47.296  1.00  0.00    +0.000 C 
ATOM     67  N8  UNL A   1      28.456  39.335  47.153  1.00  0.00    +0.000 N 
ATOM     68  C44 UNL A   1      27.540  39.751  47.993  1.00  0.00    +0.000 C 
ATOM     69  C45 UNL A   1      26.166  39.197  48.248  1.00  0.00    +0.000 C 
ATOM     81  C52 UNL A   1      25.748  38.126  47.547  1.00  0.00    +0.000 C 
ATOM     82  C53 UNL A   1      24.447  37.481  47.686  1.00  0.00    +0.000 C 
ATOM     83  C54 UNL A   1      24.402  36.408  46.882  1.00  0.00    +0.000 C 
ATOM     84  C55 UNL A   1      25.658  36.313  46.135  1.00  0.00    +0.000 C 
ATOM     85  N9  UNL A   1      26.391  37.382  46.586  1.00  0.00    +0.000 N 
ATOM     86  C56 UNL A   1      27.939  40.924  48.784  1.00  0.00    +0.000 C 
ATOM     87  C57 UNL A   1      29.141  41.185  48.290  1.00  0.00    +0.000 C 
ATOM     88  C58 UNL A   1      28.816  34.483  43.272  1.00  0.00    +0.000 C 
ATOM     89  C59 UNL A   1      27.551  34.261  43.604  1.00  0.00    +0.000 C 
ATOM    118  H24 UNL A   1      32.952  37.810  43.382  1.00  0.00    +0.000 H 
ATOM    119  H25 UNL A   1      33.100  39.819  45.037  1.00  0.00    +0.000 H 
ATOM    120  H26 UNL A   1      29.450  37.943  45.590  1.00  0.00    +0.000 H 
ATOM    121  H27 UNL A   1      23.684  37.799  48.304  1.00  0.00    +0.000 H 
ATOM    122  H28 UNL A   1      23.608  35.752  46.804  1.00  0.00    +0.000 H 
ATOM    123  H29 UNL A   1      27.293  37.596  46.253  1.00  0.00    +0.000 H 
ATOM    124  H30 UNL A   1      27.419  41.415  49.528  1.00  0.00    +0.000 H 
ATOM    125  H31 UNL A   1      29.727  41.985  48.578  1.00  0.00    +0.000 H 
ATOM    126  H32 UNL A   1      29.369  33.878  42.647  1.00  0.00    +0.000 H 
ATOM    127  H33 UNL A   1      26.912  33.521  43.275  1.00  0.00    +0.000 H 
ENDROOT
BRANCH   33   32
ATOM    129  H35 UNL A   1      24.081  31.234  46.084  1.00  0.00    +0.000 H 
ATOM    128  H34 UNL A   1      25.737  32.968  46.442  1.00  0.00    +0.000 H 
ATOM    116  H22 UNL A   1      22.198  33.620  43.178  1.00  0.00    +0.000 H 
ATOM    117  H23 UNL A   1      23.976  35.260  43.378  1.00  0.00    +0.000 H 
ATOM     90  C60 UNL A   1      24.991  33.106  45.741  1.00  0.00    +0.000 C 
ATOM     91  C61 UNL A   1      24.017  32.124  45.566  1.00  0.00    +0.000 C 
ATOM     29  C18 UNL A   1      22.954  32.348  44.687  1.00  0.00    +0.000 C 
ATOM     30  C19 UNL A   1      22.949  33.485  43.872  1.00  0.00    +0.000 C 
ATOM     31  C20 UNL A   1      23.963  34.436  44.000  1.00  0.00    +0.000 C 
ATOM     32  C21 UNL A   1      24.965  34.279  44.972  1.00  0.00    +0.000 C 
BRANCH   29   27
ATOM     27  C17 UNL A   1      21.820  31.402  44.590  1.00  0.00    +0.000 C 
ATOM     28  O5  UNL A   1      21.982  30.227  44.909  1.00  0.00    +0.000 O 
BRANCH   27   26
ATOM     26  N5  UNL A   1      20.601  31.824  44.120  1.00  0.00    +0.000 N 
ATOM    115  H21 UNL A   1      20.470  31.723  43.149  1.00  0.00    +0.000 H 
BRANCH   26   25
ATOM     25  C16 UNL A   1      19.474  32.396  44.837  1.00  0.00    +0.000 C 
ATOM    114  H20 UNL A   1      19.863  33.118  45.524  1.00  0.00    +0.000 H 
ATOM    113  H19 UNL A   1      18.954  31.607  45.341  1.00  0.00    +0.000 H 
BRANCH   25   24
ATOM    112  H18 UNL A   1      17.747  32.393  43.667  1.00  0.00    +0.000 H 
ATOM    111  H17 UNL A   1      19.041  33.490  43.080  1.00  0.00    +0.000 H 
ATOM     24  C15 UNL A   1      18.492  33.118  43.919  1.00  0.00    +0.000 C 
BRANCH   24   23
ATOM    109  H15 UNL A   1      17.626  34.091  45.588  1.00  0.00    +0.000 H 
ATOM    110  H16 UNL A   1      18.313  35.160  44.312  1.00  0.00    +0.000 H 
ATOM     23  C14 UNL A   1      17.732  34.291  44.542  1.00  0.00    +0.000 C 
BRANCH   23   22
ATOM    107  H13 UNL A   1      15.629  34.404  44.764  1.00  0.00    +0.000 H 
ATOM    108  H14 UNL A   1      16.374  35.587  43.630  1.00  0.00    +0.000 H 
ATOM     22  C13 UNL A   1      16.337  34.576  43.980  1.00  0.00    +0.000 C 
BRANCH   22   21
ATOM    105  H11 UNL A   1      15.443  34.410  42.071  1.00  0.00    +0.000 H 
ATOM    106  H12 UNL A   1      16.796  33.274  42.421  1.00  0.00    +0.000 H 
ATOM     21  C12 UNL A   1      15.903  33.747  42.773  1.00  0.00    +0.000 C 
BRANCH   21   20
ATOM     20  C11 UNL A   1      14.925  32.609  43.042  1.00  0.00    +0.000 C 
ATOM    103  H9  UNL A   1      14.320  32.879  43.882  1.00  0.00    +0.000 H 
ATOM    104  H10 UNL A   1      14.356  32.476  42.145  1.00  0.00    +0.000 H 
BRANCH   20   19
ATOM     19  N4  UNL A   1      15.555  31.331  43.328  1.00  0.00    +0.000 N 
ATOM    102  H8  UNL A   1      15.642  31.120  44.285  1.00  0.00    +0.000 H 
BRANCH   19   17
ATOM     17  C10 UNL A   1      16.051  30.365  42.479  1.00  0.00    +0.000 C 
ATOM     18  O4  UNL A   1      16.506  30.705  41.384  1.00  0.00    +0.000 O 
BRANCH   17   16
ATOM    130  H36 UNL A   1      14.515  28.248  41.726  1.00  0.00    +0.000 H 
ATOM     99  H5  UNL A   1      16.167  25.383  44.306  1.00  0.00    +0.000 H 
ATOM    100  H6  UNL A   1      18.025  26.883  44.748  1.00  0.00    +0.000 H 
ATOM     11  C5  UNL A   1      15.125  26.727  43.056  1.00  0.00    +0.000 C 
ATOM     12  C6  UNL A   1      16.173  26.328  43.892  1.00  0.00    +0.000 C 
ATOM     13  C7  UNL A   1      17.230  27.201  44.172  1.00  0.00    +0.000 C 
ATOM     14  C8  UNL A   1      17.205  28.502  43.673  1.00  0.00    +0.000 C 
ATOM     16  C9  UNL A   1      16.149  28.933  42.861  1.00  0.00    +0.000 C 
ATOM     92  C62 UNL A   1      15.189  27.998  42.467  1.00  0.00    +0.000 C 
BRANCH   11   10
ATOM     10  N3  UNL A   1      14.003  25.878  42.890  1.00  0.00    +0.000 N 
BRANCH   10    9
ATOM      9  N2  UNL A   1      13.883  25.565  41.681  1.00  0.00    +0.000 N 
BRANCH    9    8
ATOM     97  H3  UNL A   1      13.810  21.917  38.994  1.00  0.00    +0.000 H 
ATOM     98  H4  UNL A   1      14.332  24.242  39.465  1.00  0.00    +0.000 H 
ATOM    131  H37 UNL A   1      12.961  23.761  43.411  1.00  0.00    +0.000 H 
ATOM    132  H38 UNL A   1      12.422  21.440  42.945  1.00  0.00    +0.000 H 
ATOM      5  C1  UNL A   1      13.073  21.511  40.935  1.00  0.00    +0.000 C 
ATOM      6  C2  UNL A   1      13.627  22.309  39.931  1.00  0.00    +0.000 C 
ATOM      7  C3  UNL A   1      13.931  23.647  40.207  1.00  0.00    +0.000 C 
ATOM      8  C4  UNL A   1      13.699  24.188  41.479  1.00  0.00    +0.000 C 
ATOM     93  C63 UNL A   1      13.142  23.372  42.473  1.00  0.00    +0.000 C 
ATOM     94  C64 UNL A   1      12.829  22.035  42.207  1.00  0.00    +0.000 C 
BRANCH    5    2
ATOM      2  S1  UNL A   1      12.658  19.825  40.590  1.00  0.00    +0.000 S 
ATOM      3  O1  UNL A   1      11.222  19.691  40.562  1.00  0.00    +0.000 O 
ATOM      4  O2  UNL A   1      13.512  18.975  41.387  1.00  0.00    +0.000 O 
BRANCH    2    1
ATOM      1  N1  UNL A   1      13.148  19.627  38.993  1.00  0.00    +0.000 N 
ATOM     95  H1  UNL A   1      12.337  19.415  38.412  1.00  0.00    +0.000 H 
ATOM     96  H2  UNL A   1      13.819  18.862  38.935  1.00  0.00    +0.000 H 
ENDBRANCH    2    1
ENDBRANCH    5    2
ENDBRANCH    9    8
ENDBRANCH   10    9
ENDBRANCH   11   10
BRANCH   14   15
ATOM    101  H7  UNL A   1      18.181  29.862  44.786  1.00  0.00    +0.000 H 
ATOM     15  O3  UNL A   1      18.251  29.313  44.030  1.00  0.00    +0.000 O 
ENDBRANCH   14   15
ENDBRANCH   17   16
ENDBRANCH   19   17
ENDBRANCH   20   19
ENDBRANCH   21   20
ENDBRANCH   22   21
ENDBRANCH   23   22
ENDBRANCH   24   23
ENDBRANCH   25   24
ENDBRANCH   26   25
ENDBRANCH   27   26
ENDBRANCH   29   27
ENDBRANCH   33   32
BRANCH   37   38
ATOM     38  C26 UNL A   1      31.452  35.498  42.718  1.00  0.00    +0.000 C 
ATOM     39  C27 UNL A   1      32.228  34.402  43.123  1.00  0.00    +0.000 C 
ATOM     40  F1  UNL A   1      32.220  34.004  44.404  1.00  0.00    +0.000 F 
ATOM     41  C28 UNL A   1      33.043  33.727  42.217  1.00  0.00    +0.000 C 
ATOM     42  F2  UNL A   1      33.811  32.711  42.637  1.00  0.00    +0.000 F 
ATOM     43  C29 UNL A   1      33.072  34.110  40.885  1.00  0.00    +0.000 C 
ATOM     44  F3  UNL A   1      33.849  33.452  40.013  1.00  0.00    +0.000 F 
ATOM     45  C30 UNL A   1      32.299  35.179  40.458  1.00  0.00    +0.000 C 
ATOM     46  F4  UNL A   1      32.313  35.543  39.169  1.00  0.00    +0.000 F 
ATOM     47  C31 UNL A   1      31.507  35.875  41.368  1.00  0.00    +0.000 C 
ATOM     48  F5  UNL A   1      30.780  36.913  40.926  1.00  0.00    +0.000 F 
ENDBRANCH   37   38
BRANCH   54   55
ATOM     65  F10 UNL A   1      33.064  39.745  48.226  1.00  0.00    +0.000 F 
ATOM     55  C37 UNL A   1      31.703  41.279  47.018  1.00  0.00    +0.000 C 
ATOM     56  C38 UNL A   1      31.502  42.607  46.612  1.00  0.00    +0.000 C 
ATOM     57  F6  UNL A   1      30.449  42.926  45.844  1.00  0.00    +0.000 F 
ATOM     58  C39 UNL A   1      32.408  43.606  46.957  1.00  0.00    +0.000 C 
ATOM     59  F7  UNL A   1      32.223  44.857  46.514  1.00  0.00    +0.000 F 
ATOM     60  C40 UNL A   1      33.508  43.307  47.746  1.00  0.00    +0.000 C 
ATOM     61  F8  UNL A   1      34.375  44.271  48.085  1.00  0.00    +0.000 F 
ATOM     62  C41 UNL A   1      33.715  42.005  48.177  1.00  0.00    +0.000 C 
ATOM     63  F9  UNL A   1      34.770  41.716  48.952  1.00  0.00    +0.000 F 
ATOM     64  C42 UNL A   1      32.829  40.997  47.805  1.00  0.00    +0.000 C 
ENDBRANCH   54   55
BRANCH   69   70
ATOM     70  C46 UNL A   1      25.267  39.817  49.258  1.00  0.00    +0.000 C 
ATOM     71  C47 UNL A   1      25.316  39.427  50.604  1.00  0.00    +0.000 C 
ATOM     72  F11 UNL A   1      26.171  38.471  50.992  1.00  0.00    +0.000 F 
ATOM     73  C48 UNL A   1      24.457  39.987  51.547  1.00  0.00    +0.000 C 
ATOM     74  F12 UNL A   1      24.492  39.561  52.817  1.00  0.00    +0.000 F 
ATOM     75  C49 UNL A   1      23.556  40.972  51.170  1.00  0.00    +0.000 C 
ATOM     76  F13 UNL A   1      22.735  41.516  52.079  1.00  0.00    +0.000 F 
ATOM     77  C50 UNL A   1      23.505  41.389  49.849  1.00  0.00    +0.000 C 
ATOM     78  F14 UNL A   1      22.650  42.355  49.484  1.00  0.00    +0.000 F 
ATOM     79  C51 UNL A   1      24.340  40.807  48.899  1.00  0.00    +0.000 C 
ATOM     80  F15 UNL A   1      24.259  41.222  47.626  1.00  0.00    +0.000 F 
ENDBRANCH   69   70
TORSDOF 21
ENDMDL
MODEL 2
REMARK VINA RESULT:     -11.4     18.072     23.976
ROOT
ATOM     33  C22 UNL A   1      37.980  29.912  29.809  1.00  0.00    +0.000 C 
ATOM     34  C23 UNL A   1      38.225  30.435  31.196  1.00  0.00    +0.000 C 
ATOM     35  N6  UNL A   1      39.238  30.214  31.995  1.00  0.00    +0.000 N 
ATOM     36  C24 UNL A   1      38.985  30.958  33.141  1.00  0.00    +0.000 C 
ATOM     37  C25 UNL A   1      39.709  31.018  34.285  1.00  0.00    +0.000 C 
ATOM     49  C32 UNL A   1      40.928  30.286  34.514  1.00  0.00    +0.000 C 
ATOM     50  C33 UNL A   1      41.698  30.231  35.663  1.00  0.00    +0.000 C 
ATOM     51  C34 UNL A   1      42.827  29.450  35.397  1.00  0.00    +0.000 C 
ATOM     52  C35 UNL A   1      42.734  28.969  34.101  1.00  0.00    +0.000 C 
ATOM     53  N7  UNL A   1      41.561  29.488  33.572  1.00  0.00    +0.000 N 
ATOM     54  C36 UNL A   1      43.646  28.105  33.396  1.00  0.00    +0.000 C 
ATOM     66  C43 UNL A   1      43.457  27.644  32.135  1.00  0.00    +0.000 C 
ATOM     67  N8  UNL A   1      42.405  27.890  31.264  1.00  0.00    +0.000 N 
ATOM     68  C44 UNL A   1      42.690  27.239  30.163  1.00  0.00    +0.000 C 
ATOM     69  C45 UNL A   1      41.895  27.133  28.891  1.00  0.00    +0.000 C 
ATOM     81  C52 UNL A   1      40.709  27.766  28.802  1.00  0.00    +0.000 C 
ATOM     82  C53 UNL A   1      39.832  27.754  27.637  1.00  0.00    +0.000 C 
ATOM     83  C54 UNL A   1      38.774  28.544  27.877  1.00  0.00    +0.000 C 
ATOM     84  C55 UNL A   1      38.875  29.084  29.235  1.00  0.00    +0.000 C 
ATOM     85  N9  UNL A   1      40.050  28.558  29.712  1.00  0.00    +0.000 N 
ATOM     86  C56 UNL A   1      43.973  26.523  30.203  1.00  0.00    +0.000 C 
ATOM     87  C57 UNL A   1      44.378  26.769  31.442  1.00  0.00    +0.000 C 
ATOM     88  C58 UNL A   1      37.750  31.678  32.912  1.00  0.00    +0.000 C 
ATOM     89  C59 UNL A   1      37.209  31.344  31.748  1.00  0.00    +0.000 C 
ATOM    118  H24 UNL A   1      41.476  30.687  36.562  1.00  0.00    +0.000 H 
ATOM    119  H25 UNL A   1      43.600  29.263  36.056  1.00  0.00    +0.000 H 
ATOM    120  H26 UNL A   1      41.228  29.314  32.662  1.00  0.00    +0.000 H 
ATOM    121  H27 UNL A   1      39.998  27.224  26.767  1.00  0.00    +0.000 H 
ATOM    122  H28 UNL A   1      38.010  28.739  27.212  1.00  0.00    +0.000 H 
ATOM    123  H29 UNL A   1      40.389  28.732  30.620  1.00  0.00    +0.000 H 
ATOM    124  H30 UNL A   1      44.436  25.974  29.462  1.00  0.00    +0.000 H 
ATOM    125  H31 UNL A   1      45.241  26.385  31.857  1.00  0.00    +0.000 H 
ATOM    126  H32 UNL A   1      37.344  32.362  33.569  1.00  0.00    +0.000 H 
ATOM    127  H33 UNL A   1      36.312  31.645  31.337  1.00  0.00    +0.000 H 
ENDROOT
BRANCH   33   32
ATOM    129  H35 UNL A   1      33.825  29.244  27.935  1.00  0.00    +0.000 H 
ATOM    128  H34 UNL A   1      35.792  28.504  29.144  1.00  0.00    +0.000 H 
ATOM    116  H22 UNL A   1      35.466  33.101  27.607  1.00  0.00    +0.000 H 
ATOM    117  H23 UNL A   1      37.523  32.307  28.622  1.00  0.00    +0.000 H 
ATOM     90  C60 UNL A   1      35.729  29.479  28.811  1.00  0.00    +0.000 C 
ATOM     91  C61 UNL A   1      34.581  29.913  28.151  1.00  0.00    +0.000 C 
ATOM     29  C18 UNL A   1      34.453  31.255  27.783  1.00  0.00    +0.000 C 
ATOM     30  C19 UNL A   1      35.537  32.127  27.936  1.00  0.00    +0.000 C 
ATOM     31  C20 UNL A   1      36.714  31.674  28.536  1.00  0.00    +0.000 C 
ATOM     32  C21 UNL A   1      36.801  30.359  29.024  1.00  0.00    +0.000 C 
BRANCH   29   27
ATOM     27  C17 UNL A   1      33.190  31.786  27.225  1.00  0.00    +0.000 C 
ATOM     28  O5  UNL A   1      32.857  32.942  27.471  1.00  0.00    +0.000 O 
BRANCH   27   26
ATOM     26  N5  UNL A   1      32.379  30.986  26.458  1.00  0.00    +0.000 N 
ATOM    115  H21 UNL A   1      31.443  31.286  26.389  1.00  0.00    +0.000 H 
BRANCH   26   25
ATOM     25  C16 UNL A   1      32.691  29.767  25.732  1.00  0.00    +0.000 C 
ATOM    114  H20 UNL A   1      33.676  29.464  26.022  1.00  0.00    +0.000 H 
ATOM    113  H19 UNL A   1      32.629  29.968  24.683  1.00  0.00    +0.000 H 
BRANCH   25   24
ATOM    112  H18 UNL A   1      31.123  28.497  25.200  1.00  0.00    +0.000 H 
ATOM    111  H17 UNL A   1      31.204  28.886  26.951  1.00  0.00    +0.000 H 
ATOM     24  C15 UNL A   1      31.741  28.620  26.065  1.00  0.00    +0.000 C 
BRANCH   24   23
ATOM    109  H15 UNL A   1      32.401  27.078  27.358  1.00  0.00    +0.000 H 
ATOM    110  H16 UNL A   1      31.813  26.560  25.737  1.00  0.00    +0.000 H 
ATOM     23  C14 UNL A   1      32.395  27.257  26.302  1.00  0.00    +0.000 C 
BRANCH   23   22
ATOM    107  H13 UNL A   1      34.017  27.870  25.087  1.00  0.00    +0.000 H 
ATOM    108  H14 UNL A   1      34.445  27.130  26.671  1.00  0.00    +0.000 H 
ATOM     22  C13 UNL A   1      33.830  27.091  25.796  1.00  0.00    +0.000 C 
BRANCH   22   21
ATOM    105  H11 UNL A   1      33.251  25.234  24.966  1.00  0.00    +0.000 H 
ATOM    106  H12 UNL A   1      34.695  26.022  24.231  1.00  0.00    +0.000 H 
ATOM     21  C12 UNL A   1      34.169  25.761  25.125  1.00  0.00    +0.000 C 
BRANCH   21   20
ATOM     20  C11 UNL A   1      35.108  24.832  25.886  1.00  0.00    +0.000 C 
ATOM    103  H9  UNL A   1      35.634  25.412  26.615  1.00  0.00    +0.000 H 
ATOM    104  H10 UNL A   1      34.497  24.069  26.323  1.00  0.00    +0.000 H 
BRANCH   20   19
ATOM     19  N4  UNL A   1      36.086  24.153  25.053  1.00  0.00    +0.000 N 
ATOM    102  H8  UNL A   1      37.005  24.495  25.136  1.00  0.00    +0.000 H 
BRANCH   19   17
ATOM     17  C10 UNL A   1      35.940  23.109  24.166  1.00  0.00    +0.000 C 
ATOM     18  O4  UNL A   1      36.939  22.656  23.602  1.00  0.00    +0.000 O 
BRANCH   17   16
ATOM    130  H36 UNL A   1      33.772  23.956  22.756  1.00  0.00    +0.000 H 
ATOM     99  H5  UNL A   1      31.150  20.852  23.799  1.00  0.00    +0.000 H 
ATOM    100  H6  UNL A   1      33.033  19.575  24.648  1.00  0.00    +0.000 H 
ATOM     11  C5  UNL A   1      32.284  22.560  23.297  1.00  0.00    +0.000 C 
ATOM     12  C6  UNL A   1      32.093  21.271  23.805  1.00  0.00    +0.000 C 
ATOM     13  C7  UNL A   1      33.171  20.544  24.322  1.00  0.00    +0.000 C 
ATOM     14  C8  UNL A   1      34.432  21.134  24.398  1.00  0.00    +0.000 C 
ATOM     16  C9  UNL A   1      34.638  22.436  23.925  1.00  0.00    +0.000 C 
ATOM     92  C62 UNL A   1      33.586  23.080  23.270  1.00  0.00    +0.000 C 
BRANCH   11   10
ATOM     10  N3  UNL A   1      31.161  23.326  22.899  1.00  0.00    +0.000 N 
BRANCH   10    9
ATOM      9  N2  UNL A   1      30.762  24.026  23.860  1.00  0.00    +0.000 N 
BRANCH    9    8
ATOM     97  H3  UNL A   1      31.713  27.979  21.857  1.00  0.00    +0.000 H 
ATOM     98  H4  UNL A   1      32.156  25.639  22.338  1.00  0.00    +0.000 H 
ATOM    131  H37 UNL A   1      28.605  25.416  24.578  1.00  0.00    +0.000 H 
ATOM    132  H38 UNL A   1      28.161  27.758  24.116  1.00  0.00    +0.000 H 
ATOM      5  C1  UNL A   1      29.907  28.039  22.956  1.00  0.00    +0.000 C 
ATOM      6  C2  UNL A   1      31.055  27.436  22.437  1.00  0.00    +0.000 C 
ATOM      7  C3  UNL A   1      31.304  26.086  22.712  1.00  0.00    +0.000 C 
ATOM      8  C4  UNL A   1      30.412  25.334  23.488  1.00  0.00    +0.000 C 
ATOM     93  C63 UNL A   1      29.266  25.958  24.000  1.00  0.00    +0.000 C 
ATOM     94  C64 UNL A   1      29.008  27.307  23.737  1.00  0.00    +0.000 C 
BRANCH    5    2
ATOM      2  S1  UNL A   1      29.594  29.752  22.640  1.00  0.00    +0.000 S 
ATOM      3  O1  UNL A   1      30.323  30.154  21.462  1.00  0.00    +0.000 O 
ATOM      4  O2  UNL A   1      29.670  30.467  23.894  1.00  0.00    +0.000 O 
BRANCH    2    1
ATOM      1  N1  UNL A   1      27.975  29.769  22.182  1.00  0.00    +0.000 N 
ATOM     95  H1  UNL A   1      27.839  30.457  21.441  1.00  0.00    +0.000 H 
ATOM     96  H2  UNL A   1      27.396  30.014  22.985  1.00  0.00    +0.000 H 
ENDBRANCH    2    1
ENDBRANCH    5    2
ENDBRANCH    9    8
ENDBRANCH   10    9
ENDBRANCH   11   10
BRANCH   14   15
ATOM    101  H7  UNL A   1      35.365  19.443  24.952  1.00  0.00    +0.000 H 
ATOM     15  O3  UNL A   1      35.426  20.378  24.960  1.00  0.00    +0.000 O 
ENDBRANCH   14   15
ENDBRANCH   17   16
ENDBRANCH   19   17
ENDBRANCH   20   19
ENDBRANCH   21   20
ENDBRANCH   22   21
ENDBRANCH   23   22
ENDBRANCH   24   23
ENDBRANCH   25   24
ENDBRANCH   26   25
ENDBRANCH   27   26
ENDBRANCH   29   27
ENDBRANCH   33   32
BRANCH   37   38
ATOM     38  C26 UNL A   1      39.208  31.914  35.383  1.00  0.00    +0.000 C 
ATOM     39  C27 UNL A   1      38.395  31.427  36.417  1.00  0.00    +0.000 C 
ATOM     40  F1  UNL A   1      37.993  30.148  36.417  1.00  0.00    +0.000 F 
ATOM     41  C28 UNL A   1      37.964  32.265  37.443  1.00  0.00    +0.000 C 
ATOM     42  F2  UNL A   1      37.150  31.789  38.397  1.00  0.00    +0.000 F 
ATOM     43  C29 UNL A   1      38.364  33.592  37.475  1.00  0.00    +0.000 C 
ATOM     44  F3  UNL A   1      37.957  34.393  38.470  1.00  0.00    +0.000 F 
ATOM     45  C30 UNL A   1      39.183  34.090  36.473  1.00  0.00    +0.000 C 
ATOM     46  F4  UNL A   1      39.585  35.367  36.509  1.00  0.00    +0.000 F 
ATOM     47  C31 UNL A   1      39.591  33.262  35.429  1.00  0.00    +0.000 C 
ATOM     48  F5  UNL A   1      40.372  33.777  34.468  1.00  0.00    +0.000 F 
ENDBRANCH   37   38
BRANCH   54   55
ATOM     65  F10 UNL A   1      43.786  25.729  34.957  1.00  0.00    +0.000 F 
ATOM     55  C37 UNL A   1      44.889  27.661  34.112  1.00  0.00    +0.000 C 
ATOM     56  C38 UNL A   1      46.070  28.418  34.071  1.00  0.00    +0.000 C 
ATOM     57  F6  UNL A   1      46.126  29.541  33.338  1.00  0.00    +0.000 F 
ATOM     58  C39 UNL A   1      47.213  28.001  34.748  1.00  0.00    +0.000 C 
ATOM     59  F7  UNL A   1      48.344  28.713  34.652  1.00  0.00    +0.000 F 
ATOM     60  C40 UNL A   1      47.187  26.842  35.509  1.00  0.00    +0.000 C 
ATOM     61  F8  UNL A   1      48.285  26.446  36.168  1.00  0.00    +0.000 F 
ATOM     62  C41 UNL A   1      46.024  26.089  35.582  1.00  0.00    +0.000 C 
ATOM     63  F9  UNL A   1      45.993  24.977  36.329  1.00  0.00    +0.000 F 
ATOM     64  C42 UNL A   1      44.890  26.486  34.879  1.00  0.00    +0.000 C 
ENDBRANCH   54   55
BRANCH   69   70
ATOM     70  C46 UNL A   1      42.399  26.339  27.739  1.00  0.00    +0.000 C 
ATOM     71  C47 UNL A   1      42.036  24.994  27.575  1.00  0.00    +0.000 C 
ATOM     72  F11 UNL A   1      41.236  24.404  28.474  1.00  0.00    +0.000 F 
ATOM     73  C48 UNL A   1      42.528  24.241  26.512  1.00  0.00    +0.000 C 
ATOM     74  F12 UNL A   1      42.204  22.945  26.406  1.00  0.00    +0.000 F 
ATOM     75  C49 UNL A   1      43.364  24.825  25.572  1.00  0.00    +0.000 C 
ATOM     76  F13 UNL A   1      43.832  24.102  24.545  1.00  0.00    +0.000 F 
ATOM     77  C50 UNL A   1      43.720  26.159  25.702  1.00  0.00    +0.000 C 
ATOM     78  F14 UNL A   1      44.511  26.734  24.785  1.00  0.00    +0.000 F 
ATOM     79  C51 UNL A   1      43.255  26.905  26.782  1.00  0.00    +0.000 C 
ATOM     80  F15 UNL A   1      43.626  28.190  26.888  1.00  0.00    +0.000 F 
ENDBRANCH   69   70
TORSDOF 21
ENDMDL
MODEL 3
REMARK VINA RESULT:     -11.2     40.802     47.188
ROOT
ATOM     33  C22 UNL A   1      53.600  19.673  11.483  1.00  0.00    +0.000 C 
ATOM     34  C23 UNL A   1      54.968  19.066  11.351  1.00  0.00    +0.000 C 
ATOM     35  N6  UNL A   1      55.958  19.068  12.208  1.00  0.00    +0.000 N 
ATOM     36  C24 UNL A   1      56.980  18.344  11.607  1.00  0.00    +0.000 C 
ATOM     37  C25 UNL A   1      58.233  18.111  12.067  1.00  0.00    +0.000 C 
ATOM     49  C32 UNL A   1      58.740  18.597  13.325  1.00  0.00    +0.000 C 
ATOM     50  C33 UNL A   1      60.015  18.468  13.848  1.00  0.00    +0.000 C 
ATOM     51  C34 UNL A   1      60.023  19.036  15.127  1.00  0.00    +0.000 C 
ATOM     52  C35 UNL A   1      58.769  19.570  15.378  1.00  0.00    +0.000 C 
ATOM     53  N7  UNL A   1      57.993  19.297  14.262  1.00  0.00    +0.000 N 
ATOM     54  C36 UNL A   1      58.312  20.275  16.548  1.00  0.00    +0.000 C 
ATOM     66  C43 UNL A   1      57.074  20.806  16.698  1.00  0.00    +0.000 C 
ATOM     67  N8  UNL A   1      56.004  20.790  15.813  1.00  0.00    +0.000 N 
ATOM     68  C44 UNL A   1      55.025  21.415  16.421  1.00  0.00    +0.000 C 
ATOM     69  C45 UNL A   1      53.637  21.711  15.925  1.00  0.00    +0.000 C 
ATOM     81  C52 UNL A   1      53.281  21.311  14.689  1.00  0.00    +0.000 C 
ATOM     82  C53 UNL A   1      51.975  21.526  14.077  1.00  0.00    +0.000 C 
ATOM     83  C54 UNL A   1      51.955  20.938  12.871  1.00  0.00    +0.000 C 
ATOM     84  C55 UNL A   1      53.265  20.341  12.605  1.00  0.00    +0.000 C 
ATOM     85  N9  UNL A   1      53.992  20.623  13.734  1.00  0.00    +0.000 N 
ATOM     86  C56 UNL A   1      55.358  21.879  17.775  1.00  0.00    +0.000 C 
ATOM     87  C57 UNL A   1      56.630  21.520  17.877  1.00  0.00    +0.000 C 
ATOM     88  C58 UNL A   1      56.471  17.873  10.335  1.00  0.00    +0.000 C 
ATOM     89  C59 UNL A   1      55.252  18.342  10.104  1.00  0.00    +0.000 C 
ATOM    118  H24 UNL A   1      60.821  18.030  13.376  1.00  0.00    +0.000 H 
ATOM    119  H25 UNL A   1      60.827  19.053  15.774  1.00  0.00    +0.000 H 
ATOM    120  H26 UNL A   1      57.051  19.560  14.152  1.00  0.00    +0.000 H 
ATOM    121  H27 UNL A   1      51.192  22.046  14.502  1.00  0.00    +0.000 H 
ATOM    122  H28 UNL A   1      51.144  20.910  12.232  1.00  0.00    +0.000 H 
ATOM    123  H29 UNL A   1      54.933  20.358  13.851  1.00  0.00    +0.000 H 
ATOM    124  H30 UNL A   1      54.759  22.359  18.465  1.00  0.00    +0.000 H 
ATOM    125  H31 UNL A   1      57.228  21.723  18.694  1.00  0.00    +0.000 H 
ATOM    126  H32 UNL A   1      56.990  17.254   9.694  1.00  0.00    +0.000 H 
ATOM    127  H33 UNL A   1      54.659  18.227   9.268  1.00  0.00    +0.000 H 
ENDROOT
BRANCH   33   32
ATOM    129  H35 UNL A   1      50.155  17.340   9.505  1.00  0.00    +0.000 H 
ATOM    128  H34 UNL A   1      51.884  17.629  11.180  1.00  0.00    +0.000 H 
ATOM    116  H22 UNL A   1      51.175  21.046   7.799  1.00  0.00    +0.000 H 
ATOM    117  H23 UNL A   1      53.044  21.234   9.335  1.00  0.00    +0.000 H 
ATOM     90  C60 UNL A   1      51.741  18.353  10.457  1.00  0.00    +0.000 C 
ATOM     91  C61 UNL A   1      50.720  18.203   9.520  1.00  0.00    +0.000 C 
ATOM     29  C18 UNL A   1      50.464  19.224   8.600  1.00  0.00    +0.000 C 
ATOM     30  C19 UNL A   1      51.326  20.323   8.518  1.00  0.00    +0.000 C 
ATOM     31  C20 UNL A   1      52.390  20.439   9.414  1.00  0.00    +0.000 C 
ATOM     32  C21 UNL A   1      52.577  19.480  10.424  1.00  0.00    +0.000 C 
BRANCH   29   27
ATOM     27  C17 UNL A   1      49.294  19.172   7.695  1.00  0.00    +0.000 C 
ATOM     28  O5  UNL A   1      48.373  19.969   7.849  1.00  0.00    +0.000 O 
BRANCH   27   26
ATOM     26  N5  UNL A   1      49.222  18.222   6.706  1.00  0.00    +0.000 N 
ATOM    115  H21 UNL A   1      48.334  17.813   6.585  1.00  0.00    +0.000 H 
BRANCH   26   25
ATOM     25  C16 UNL A   1      50.256  17.730   5.812  1.00  0.00    +0.000 C 
ATOM    114  H20 UNL A   1      51.060  18.436   5.830  1.00  0.00    +0.000 H 
ATOM    113  H19 UNL A   1      49.838  17.627   4.831  1.00  0.00    +0.000 H 
BRANCH   25   24
ATOM    112  H18 UNL A   1      50.390  16.181   7.203  1.00  0.00    +0.000 H 
ATOM    111  H17 UNL A   1      51.887  16.458   6.252  1.00  0.00    +0.000 H 
ATOM     24  C15 UNL A   1      50.820  16.379   6.245  1.00  0.00    +0.000 C 
BRANCH   24   23
ATOM    109  H15 UNL A   1      51.351  14.746   5.006  1.00  0.00    +0.000 H 
ATOM    110  H16 UNL A   1      49.859  14.544   5.993  1.00  0.00    +0.000 H 
ATOM     23  C14 UNL A   1      50.443  15.184   5.366  1.00  0.00    +0.000 C 
BRANCH   23   22
ATOM    107  H13 UNL A   1      49.804  16.461   3.802  1.00  0.00    +0.000 H 
ATOM    108  H14 UNL A   1      49.761  14.695   3.456  1.00  0.00    +0.000 H 
ATOM     22  C13 UNL A   1      49.557  15.481   4.153  1.00  0.00    +0.000 C 
BRANCH   22   21
ATOM    105  H11 UNL A   1      47.809  14.479   4.796  1.00  0.00    +0.000 H 
ATOM    106  H12 UNL A   1      47.835  16.266   5.023  1.00  0.00    +0.000 H 
ATOM     21  C12 UNL A   1      48.047  15.437   4.382  1.00  0.00    +0.000 C 
BRANCH   21   20
ATOM     20  C11 UNL A   1      47.165  15.641   3.156  1.00  0.00    +0.000 C 
ATOM    103  H9  UNL A   1      47.599  16.413   2.556  1.00  0.00    +0.000 H 
ATOM    104  H10 UNL A   1      47.119  14.698   2.651  1.00  0.00    +0.000 H 
BRANCH   20   19
ATOM     19  N4  UNL A   1      45.794  16.017   3.459  1.00  0.00    +0.000 N 
ATOM    102  H8  UNL A   1      45.109  15.484   2.995  1.00  0.00    +0.000 H 
BRANCH   19   17
ATOM     17  C10 UNL A   1      45.294  16.996   4.290  1.00  0.00    +0.000 C 
ATOM     18  O4  UNL A   1      45.364  16.839   5.512  1.00  0.00    +0.000 O 
BRANCH   17   16
ATOM    130  H36 UNL A   1      42.847  17.578   3.251  1.00  0.00    +0.000 H 
ATOM     99  H5  UNL A   1      43.654  21.508   2.028  1.00  0.00    +0.000 H 
ATOM    100  H6  UNL A   1      45.680  21.487   3.366  1.00  0.00    +0.000 H 
ATOM     11  C5  UNL A   1      43.127  19.507   2.441  1.00  0.00    +0.000 C 
ATOM     12  C6  UNL A   1      43.933  20.647   2.522  1.00  0.00    +0.000 C 
ATOM     13  C7  UNL A   1      45.116  20.629   3.268  1.00  0.00    +0.000 C 
ATOM     14  C8  UNL A   1      45.533  19.446   3.878  1.00  0.00    +0.000 C 
ATOM     16  C9  UNL A   1      44.757  18.284   3.782  1.00  0.00    +0.000 C 
ATOM     92  C62 UNL A   1      43.506  18.369   3.167  1.00  0.00    +0.000 C 
BRANCH   11   10
ATOM     10  N3  UNL A   1      42.004  19.507   1.577  1.00  0.00    +0.000 N 
BRANCH   10    9
ATOM      9  N2  UNL A   1      41.760  20.677   1.197  1.00  0.00    +0.000 N 
BRANCH    9    8
ATOM     97  H3  UNL A   1      38.654  21.955  -1.845  1.00  0.00    +0.000 H 
ATOM     98  H4  UNL A   1      40.920  21.386  -1.181  1.00  0.00    +0.000 H 
ATOM    131  H37 UNL A   1      39.564  20.463   2.691  1.00  0.00    +0.000 H 
ATOM    132  H38 UNL A   1      37.298  21.044   2.041  1.00  0.00    +0.000 H 
ATOM      5  C1  UNL A   1      37.812  21.545   0.052  1.00  0.00    +0.000 C 
ATOM      6  C2  UNL A   1      38.847  21.641  -0.881  1.00  0.00    +0.000 C 
ATOM      7  C3  UNL A   1      40.151  21.308  -0.497  1.00  0.00    +0.000 C 
ATOM      8  C4  UNL A   1      40.425  20.868   0.806  1.00  0.00    +0.000 C 
ATOM     93  C63 UNL A   1      39.373  20.779   1.728  1.00  0.00    +0.000 C 
ATOM     94  C64 UNL A   1      38.068  21.114   1.357  1.00  0.00    +0.000 C 
BRANCH    5    2
ATOM      2  S1  UNL A   1      36.164  21.991  -0.413  1.00  0.00    +0.000 S 
ATOM      3  O1  UNL A   1      35.338  22.040   0.769  1.00  0.00    +0.000 O 
ATOM      4  O2  UNL A   1      35.804  21.236  -1.592  1.00  0.00    +0.000 O 
BRANCH    2    1
ATOM      1  N1  UNL A   1      36.322  23.592  -0.905  1.00  0.00    +0.000 N 
ATOM     95  H1  UNL A   1      35.635  23.794  -1.631  1.00  0.00    +0.000 H 
ATOM     96  H2  UNL A   1      37.261  23.743  -1.274  1.00  0.00    +0.000 H 
ENDBRANCH    2    1
ENDBRANCH    5    2
ENDBRANCH    9    8
ENDBRANCH   10    9
ENDBRANCH   11   10
BRANCH   14   15
ATOM    101  H7  UNL A   1      46.876  18.921   5.277  1.00  0.00    +0.000 H 
ATOM     15  O3  UNL A   1      46.726  19.494   4.551  1.00  0.00    +0.000 O 
ENDBRANCH   14   15
ENDBRANCH   17   16
ENDBRANCH   19   17
ENDBRANCH   20   19
ENDBRANCH   21   20
ENDBRANCH   22   21
ENDBRANCH   23   22
ENDBRANCH   24   23
ENDBRANCH   25   24
ENDBRANCH   26   25
ENDBRANCH   27   26
ENDBRANCH   29   27
ENDBRANCH   33   32
BRANCH   37   38
ATOM     38  C26 UNL A   1      59.151  17.286  11.209  1.00  0.00    +0.000 C 
ATOM     39  C27 UNL A   1      59.996  17.874  10.257  1.00  0.00    +0.000 C 
ATOM     40  F1  UNL A   1      59.960  19.198  10.046  1.00  0.00    +0.000 F 
ATOM     41  C28 UNL A   1      60.861  17.096   9.490  1.00  0.00    +0.000 C 
ATOM     42  F2  UNL A   1      61.627  17.675   8.554  1.00  0.00    +0.000 F 
ATOM     43  C29 UNL A   1      60.925  15.725   9.686  1.00  0.00    +0.000 C 
ATOM     44  F3  UNL A   1      61.767  14.981   8.955  1.00  0.00    +0.000 F 
ATOM     45  C30 UNL A   1      60.113  15.125  10.636  1.00  0.00    +0.000 C 
ATOM     46  F4  UNL A   1      60.183  13.803  10.837  1.00  0.00    +0.000 F 
ATOM     47  C31 UNL A   1      59.224  15.896  11.381  1.00  0.00    +0.000 C 
ATOM     48  F5  UNL A   1      58.442  15.283  12.283  1.00  0.00    +0.000 F 
ENDBRANCH   37   38
BRANCH   54   55
ATOM     65  F10 UNL A   1      58.802  18.280  18.519  1.00  0.00    +0.000 F 
ATOM     55  C37 UNL A   1      59.280  20.456  17.683  1.00  0.00    +0.000 C 
ATOM     56  C38 UNL A   1      59.994  21.652  17.854  1.00  0.00    +0.000 C 
ATOM     57  F6  UNL A   1      59.864  22.649  16.965  1.00  0.00    +0.000 F 
ATOM     58  C39 UNL A   1      60.879  21.812  18.917  1.00  0.00    +0.000 C 
ATOM     59  F7  UNL A   1      61.589  22.943  19.031  1.00  0.00    +0.000 F 
ATOM     60  C40 UNL A   1      61.038  20.799  19.849  1.00  0.00    +0.000 C 
ATOM     61  F8  UNL A   1      61.884  20.957  20.877  1.00  0.00    +0.000 F 
ATOM     62  C41 UNL A   1      60.326  19.616  19.712  1.00  0.00    +0.000 C 
ATOM     63  F9  UNL A   1      60.467  18.641  20.621  1.00  0.00    +0.000 F 
ATOM     64  C42 UNL A   1      59.466  19.440  18.632  1.00  0.00    +0.000 C 
ENDBRANCH   54   55
BRANCH   69   70
ATOM     70  C46 UNL A   1      52.660  22.437  16.779  1.00  0.00    +0.000 C 
ATOM     71  C47 UNL A   1      51.955  21.775  17.795  1.00  0.00    +0.000 C 
ATOM     72  F11 UNL A   1      52.149  20.464  17.997  1.00  0.00    +0.000 F 
ATOM     73  C48 UNL A   1      51.019  22.447  18.578  1.00  0.00    +0.000 C 
ATOM     74  F12 UNL A   1      50.326  21.779  19.509  1.00  0.00    +0.000 F 
ATOM     75  C49 UNL A   1      50.794  23.801  18.384  1.00  0.00    +0.000 C 
ATOM     76  F13 UNL A   1      49.899  24.450  19.143  1.00  0.00    +0.000 F 
ATOM     77  C50 UNL A   1      51.494  24.482  17.400  1.00  0.00    +0.000 C 
ATOM     78  F14 UNL A   1      51.294  25.796  17.222  1.00  0.00    +0.000 F 
ATOM     79  C51 UNL A   1      52.405  23.805  16.595  1.00  0.00    +0.000 C 
ATOM     80  F15 UNL A   1      53.059  24.487  15.641  1.00  0.00    +0.000 F 
ENDBRANCH   69   70
TORSDOF 21
ENDMDL
MODEL 4
REMARK VINA RESULT:     -11.2     17.883     23.848
ROOT
ATOM     33  C22 UNL A   1      38.209  30.076  29.961  1.00  0.00    +0.000 C 
ATOM     34  C23 UNL A   1      38.457  30.545  31.367  1.00  0.00    +0.000 C 
ATOM     35  N6  UNL A   1      39.453  30.262  32.168  1.00  0.00    +0.000 N 
ATOM     36  C24 UNL A   1      39.215  30.977  33.335  1.00  0.00    +0.000 C 
ATOM     37  C25 UNL A   1      39.928  30.974  34.487  1.00  0.00    +0.000 C 
ATOM     49  C32 UNL A   1      41.118  30.190  34.704  1.00  0.00    +0.000 C 
ATOM     50  C33 UNL A   1      41.872  30.070  35.859  1.00  0.00    +0.000 C 
ATOM     51  C34 UNL A   1      42.975  29.257  35.578  1.00  0.00    +0.000 C 
ATOM     52  C35 UNL A   1      42.878  28.822  34.267  1.00  0.00    +0.000 C 
ATOM     53  N7  UNL A   1      41.731  29.400  33.743  1.00  0.00    +0.000 N 
ATOM     54  C36 UNL A   1      43.765  27.948  33.543  1.00  0.00    +0.000 C 
ATOM     66  C43 UNL A   1      43.574  27.535  32.265  1.00  0.00    +0.000 C 
ATOM     67  N8  UNL A   1      42.541  27.847  31.393  1.00  0.00    +0.000 N 
ATOM     68  C44 UNL A   1      42.814  27.222  30.274  1.00  0.00    +0.000 C 
ATOM     69  C45 UNL A   1      42.030  27.186  28.991  1.00  0.00    +0.000 C 
ATOM     81  C52 UNL A   1      40.869  27.865  28.912  1.00  0.00    +0.000 C 
ATOM     82  C53 UNL A   1      40.005  27.923  27.738  1.00  0.00    +0.000 C 
ATOM     83  C54 UNL A   1      38.973  28.742  27.994  1.00  0.00    +0.000 C 
ATOM     84  C55 UNL A   1      39.080  29.234  29.369  1.00  0.00    +0.000 C 
ATOM     85  N9  UNL A   1      40.229  28.651  29.840  1.00  0.00    +0.000 N 
ATOM     86  C56 UNL A   1      44.070  26.459  30.303  1.00  0.00    +0.000 C 
ATOM     87  C57 UNL A   1      44.470  26.649  31.553  1.00  0.00    +0.000 C 
ATOM     88  C58 UNL A   1      38.009  31.749  33.118  1.00  0.00    +0.000 C 
ATOM     89  C59 UNL A   1      37.470  31.473  31.938  1.00  0.00    +0.000 C 
ATOM    118  H24 UNL A   1      41.657  30.505  36.769  1.00  0.00    +0.000 H 
ATOM    119  H25 UNL A   1      43.733  29.021  36.238  1.00  0.00    +0.000 H 
ATOM    120  H26 UNL A   1      41.401  29.268  32.825  1.00  0.00    +0.000 H 
ATOM    121  H27 UNL A   1      40.160  27.415  26.854  1.00  0.00    +0.000 H 
ATOM    122  H28 UNL A   1      38.224  28.987  27.327  1.00  0.00    +0.000 H 
ATOM    123  H29 UNL A   1      40.564  28.783  30.757  1.00  0.00    +0.000 H 
ATOM    124  H30 UNL A   1      44.521  25.916  29.550  1.00  0.00    +0.000 H 
ATOM    125  H31 UNL A   1      45.314  26.220  31.964  1.00  0.00    +0.000 H 
ATOM    126  H32 UNL A   1      37.621  32.426  33.792  1.00  0.00    +0.000 H 
ATOM    127  H33 UNL A   1      36.588  31.819  31.529  1.00  0.00    +0.000 H 
ENDROOT
BRANCH   33   32
ATOM    129  H35 UNL A   1      34.075  29.606  27.983  1.00  0.00    +0.000 H 
ATOM    128  H34 UNL A   1      36.001  28.758  29.187  1.00  0.00    +0.000 H 
ATOM    116  H22 UNL A   1      35.813  33.434  27.882  1.00  0.00    +0.000 H 
ATOM    117  H23 UNL A   1      37.831  32.539  28.891  1.00  0.00    +0.000 H 
ATOM     90  C60 UNL A   1      35.967  29.750  28.903  1.00  0.00    +0.000 C 
ATOM     91  C61 UNL A   1      34.842  30.244  28.247  1.00  0.00    +0.000 C 
ATOM     29  C18 UNL A   1      34.753  31.606  27.946  1.00  0.00    +0.000 C 
ATOM     30  C19 UNL A   1      35.854  32.442  28.162  1.00  0.00    +0.000 C 
ATOM     31  C20 UNL A   1      37.008  31.931  28.759  1.00  0.00    +0.000 C 
ATOM     32  C21 UNL A   1      37.056  30.591  29.180  1.00  0.00    +0.000 C 
BRANCH   29   27
ATOM     27  C17 UNL A   1      33.513  32.196  27.393  1.00  0.00    +0.000 C 
ATOM     28  O5  UNL A   1      33.111  33.273  27.823  1.00  0.00    +0.000 O 
BRANCH   27   26
ATOM     26  N5  UNL A   1      32.800  31.533  26.425  1.00  0.00    +0.000 N 
ATOM    115  H21 UNL A   1      33.034  31.771  25.498  1.00  0.00    +0.000 H 
BRANCH   26   25
ATOM     25  C16 UNL A   1      31.755  30.534  26.560  1.00  0.00    +0.000 C 
ATOM    114  H20 UNL A   1      30.832  31.052  26.718  1.00  0.00    +0.000 H 
ATOM    113  H19 UNL A   1      31.998  29.894  27.383  1.00  0.00    +0.000 H 
BRANCH   25   24
ATOM    112  H18 UNL A   1      31.444  30.365  24.504  1.00  0.00    +0.000 H 
ATOM    111  H17 UNL A   1      30.766  29.013  25.472  1.00  0.00    +0.000 H 
ATOM     24  C15 UNL A   1      31.590  29.675  25.308  1.00  0.00    +0.000 C 
BRANCH   24   23
ATOM    109  H15 UNL A   1      32.527  28.243  24.061  1.00  0.00    +0.000 H 
ATOM    110  H16 UNL A   1      33.591  29.530  24.734  1.00  0.00    +0.000 H 
ATOM     23  C14 UNL A   1      32.803  28.829  24.913  1.00  0.00    +0.000 C 
BRANCH   23   22
ATOM    107  H13 UNL A   1      34.345  27.614  25.706  1.00  0.00    +0.000 H 
ATOM    108  H14 UNL A   1      33.258  28.403  26.904  1.00  0.00    +0.000 H 
ATOM     22  C13 UNL A   1      33.343  27.872  25.979  1.00  0.00    +0.000 C 
BRANCH   22   21
ATOM    105  H11 UNL A   1      32.582  26.034  25.262  1.00  0.00    +0.000 H 
ATOM    106  H12 UNL A   1      33.059  26.078  26.998  1.00  0.00    +0.000 H 
ATOM     21  C12 UNL A   1      32.568  26.572  26.187  1.00  0.00    +0.000 C 
BRANCH   21   20
ATOM     20  C11 UNL A   1      31.113  26.707  26.620  1.00  0.00    +0.000 C 
ATOM    103  H9  UNL A   1      31.042  26.416  27.647  1.00  0.00    +0.000 H 
ATOM    104  H10 UNL A   1      30.838  27.729  26.457  1.00  0.00    +0.000 H 
BRANCH   20   19
ATOM     19  N4  UNL A   1      30.180  25.899  25.853  1.00  0.00    +0.000 N 
ATOM    102  H8  UNL A   1      29.723  25.197  26.369  1.00  0.00    +0.000 H 
BRANCH   19   17
ATOM     17  C10 UNL A   1      29.830  25.953  24.521  1.00  0.00    +0.000 C 
ATOM     18  O4  UNL A   1      28.689  26.310  24.215  1.00  0.00    +0.000 O 
BRANCH   17   16
ATOM    130  H36 UNL A   1      31.141  23.661  23.862  1.00  0.00    +0.000 H 
ATOM     99  H5  UNL A   1      33.651  25.257  20.904  1.00  0.00    +0.000 H 
ATOM    100  H6  UNL A   1      32.286  27.265  20.858  1.00  0.00    +0.000 H 
ATOM     11  C5  UNL A   1      32.575  24.326  22.462  1.00  0.00    +0.000 C 
ATOM     12  C6  UNL A   1      32.866  25.358  21.565  1.00  0.00    +0.000 C 
ATOM     13  C7  UNL A   1      32.099  26.529  21.556  1.00  0.00    +0.000 C 
ATOM     14  C8  UNL A   1      31.083  26.699  22.495  1.00  0.00    +0.000 C 
ATOM     16  C9  UNL A   1      30.797  25.691  23.424  1.00  0.00    +0.000 C 
ATOM     92  C62 UNL A   1      31.468  24.471  23.311  1.00  0.00    +0.000 C 
BRANCH   11   10
ATOM     10  N3  UNL A   1      33.441  23.207  22.543  1.00  0.00    +0.000 N 
BRANCH   10    9
ATOM      9  N2  UNL A   1      33.760  23.003  23.738  1.00  0.00    +0.000 N 
BRANCH    9    8
ATOM     97  H3  UNL A   1      35.744  19.243  25.310  1.00  0.00    +0.000 H 
ATOM     98  H4  UNL A   1      35.681  21.633  24.878  1.00  0.00    +0.000 H 
ATOM    131  H37 UNL A   1      31.770  21.268  23.375  1.00  0.00    +0.000 H 
ATOM    132  H38 UNL A   1      31.829  18.877  23.790  1.00  0.00    +0.000 H 
ATOM      5  C1  UNL A   1      33.792  18.886  24.577  1.00  0.00    +0.000 C 
ATOM      6  C2  UNL A   1      34.901  19.673  24.897  1.00  0.00    +0.000 C 
ATOM      7  C3  UNL A   1      34.860  21.050  24.651  1.00  0.00    +0.000 C 
ATOM      8  C4  UNL A   1      33.717  21.647  24.101  1.00  0.00    +0.000 C 
ATOM     93  C63 UNL A   1      32.615  20.841  23.786  1.00  0.00    +0.000 C 
ATOM     94  C64 UNL A   1      32.646  19.463  24.023  1.00  0.00    +0.000 C 
BRANCH    5    2
ATOM      2  S1  UNL A   1      33.841  17.139  24.856  1.00  0.00    +0.000 S 
ATOM      3  O1  UNL A   1      32.788  16.779  25.773  1.00  0.00    +0.000 O 
ATOM      4  O2  UNL A   1      35.219  16.749  25.049  1.00  0.00    +0.000 O 
BRANCH    2    1
ATOM      1  N1  UNL A   1      33.370  16.499  23.373  1.00  0.00    +0.000 N 
ATOM     95  H1  UNL A   1      33.763  15.563  23.267  1.00  0.00    +0.000 H 
ATOM     96  H2  UNL A   1      33.709  17.098  22.621  1.00  0.00    +0.000 H 
ENDBRANCH    2    1
ENDBRANCH    5    2
ENDBRANCH    9    8
ENDBRANCH   10    9
ENDBRANCH   11   10
BRANCH   14   15
ATOM    101  H7  UNL A   1      30.626  28.572  23.059  1.00  0.00    +0.000 H 
ATOM     15  O3  UNL A   1      30.408  27.890  22.455  1.00  0.00    +0.000 O 
ENDBRANCH   14   15
ENDBRANCH   17   16
ENDBRANCH   19   17
ENDBRANCH   20   19
ENDBRANCH   21   20
ENDBRANCH   22   21
ENDBRANCH   23   22
ENDBRANCH   24   23
ENDBRANCH   25   24
ENDBRANCH   26   25
ENDBRANCH   27   26
ENDBRANCH   29   27
ENDBRANCH   33   32
BRANCH   37   38
ATOM     38  C26 UNL A   1      39.448  31.851  35.609  1.00  0.00    +0.000 C 
ATOM     39  C27 UNL A   1      38.490  31.409  36.533  1.00  0.00    +0.000 C 
ATOM     40  F1  UNL A   1      37.930  30.198  36.399  1.00  0.00    +0.000 F 
ATOM     41  C28 UNL A   1      38.078  32.225  37.584  1.00  0.00    +0.000 C 
ATOM     42  F2  UNL A   1      37.128  31.798  38.429  1.00  0.00    +0.000 F 
ATOM     43  C29 UNL A   1      38.639  33.481  37.753  1.00  0.00    +0.000 C 
ATOM     44  F3  UNL A   1      38.250  34.260  38.772  1.00  0.00    +0.000 F 
ATOM     45  C30 UNL A   1      39.602  33.932  36.862  1.00  0.00    +0.000 C 
ATOM     46  F4  UNL A   1      40.158  35.139  37.031  1.00  0.00    +0.000 F 
ATOM     47  C31 UNL A   1      39.993  33.131  35.793  1.00  0.00    +0.000 C 
ATOM     48  F5  UNL A   1      40.918  33.601  34.941  1.00  0.00    +0.000 F 
ENDBRANCH   37   38
BRANCH   54   55
ATOM     65  F10 UNL A   1      46.272  29.298  33.522  1.00  0.00    +0.000 F 
ATOM     55  C37 UNL A   1      44.984  27.435  34.256  1.00  0.00    +0.000 C 
ATOM     56  C38 UNL A   1      44.963  26.226  34.967  1.00  0.00    +0.000 C 
ATOM     57  F6  UNL A   1      43.825  25.523  35.070  1.00  0.00    +0.000 F 
ATOM     58  C39 UNL A   1      46.103  25.756  35.614  1.00  0.00    +0.000 C 
ATOM     59  F7  UNL A   1      46.047  24.625  36.331  1.00  0.00    +0.000 F 
ATOM     60  C40 UNL A   1      47.293  26.463  35.530  1.00  0.00    +0.000 C 
ATOM     61  F8  UNL A   1      48.392  26.005  36.146  1.00  0.00    +0.000 F 
ATOM     62  C41 UNL A   1      47.342  27.650  34.814  1.00  0.00    +0.000 C 
ATOM     63  F9  UNL A   1      48.495  28.327  34.719  1.00  0.00    +0.000 F 
ATOM     64  C42 UNL A   1      46.196  28.140  34.195  1.00  0.00    +0.000 C 
ENDBRANCH   54   55
BRANCH   69   70
ATOM     70  C46 UNL A   1      42.517  26.412  27.819  1.00  0.00    +0.000 C 
ATOM     71  C47 UNL A   1      42.125  25.080  27.620  1.00  0.00    +0.000 C 
ATOM     72  F11 UNL A   1      41.311  24.484  28.503  1.00  0.00    +0.000 F 
ATOM     73  C48 UNL A   1      42.601  24.344  26.538  1.00  0.00    +0.000 C 
ATOM     74  F12 UNL A   1      42.248  23.059  26.398  1.00  0.00    +0.000 F 
ATOM     75  C49 UNL A   1      43.450  24.934  25.614  1.00  0.00    +0.000 C 
ATOM     76  F13 UNL A   1      43.902  24.227  24.568  1.00  0.00    +0.000 F 
ATOM     77  C50 UNL A   1      43.835  26.255  25.778  1.00  0.00    +0.000 C 
ATOM     78  F14 UNL A   1      44.640  26.837  24.878  1.00  0.00    +0.000 F 
ATOM     79  C51 UNL A   1      43.386  26.983  26.877  1.00  0.00    +0.000 C 
ATOM     80  F15 UNL A   1      43.785  28.256  27.017  1.00  0.00    +0.000 F 
ENDBRANCH   69   70
TORSDOF 21
ENDMDL
MODEL 5
REMARK VINA RESULT:     -11.0      0.731      2.101
ROOT
ATOM     33  C22 UNL A   1      25.802  36.143  45.398  1.00  0.00    +0.000 C 
ATOM     34  C23 UNL A   1      27.128  35.978  44.711  1.00  0.00    +0.000 C 
ATOM     35  N6  UNL A   1      28.231  36.664  44.869  1.00  0.00    +0.000 N 
ATOM     36  C24 UNL A   1      29.163  36.083  44.019  1.00  0.00    +0.000 C 
ATOM     37  C25 UNL A   1      30.439  36.469  43.775  1.00  0.00    +0.000 C 
ATOM     49  C32 UNL A   1      31.077  37.603  44.394  1.00  0.00    +0.000 C 
ATOM     50  C33 UNL A   1      32.343  38.112  44.163  1.00  0.00    +0.000 C 
ATOM     51  C34 UNL A   1      32.555  39.177  45.046  1.00  0.00    +0.000 C 
ATOM     52  C35 UNL A   1      31.401  39.370  45.786  1.00  0.00    +0.000 C 
ATOM     53  N7  UNL A   1      30.500  38.399  45.373  1.00  0.00    +0.000 N 
ATOM     54  C36 UNL A   1      31.138  40.362  46.796  1.00  0.00    +0.000 C 
ATOM     66  C43 UNL A   1      29.958  40.511  47.448  1.00  0.00    +0.000 C 
ATOM     67  N8  UNL A   1      28.788  39.775  47.314  1.00  0.00    +0.000 N 
ATOM     68  C44 UNL A   1      27.940  40.289  48.171  1.00  0.00    +0.000 C 
ATOM     69  C45 UNL A   1      26.513  39.899  48.443  1.00  0.00    +0.000 C 
ATOM     81  C52 UNL A   1      25.961  38.893  47.739  1.00  0.00    +0.000 C 
ATOM     82  C53 UNL A   1      24.595  38.405  47.893  1.00  0.00    +0.000 C 
ATOM     83  C54 UNL A   1      24.411  37.353  47.081  1.00  0.00    +0.000 C 
ATOM     84  C55 UNL A   1      25.636  37.118  46.313  1.00  0.00    +0.000 C 
ATOM     85  N9  UNL A   1      26.498  38.087  46.762  1.00  0.00    +0.000 N 
ATOM     86  C56 UNL A   1      28.487  41.398  48.966  1.00  0.00    +0.000 C 
ATOM     87  C57 UNL A   1      29.704  41.519  48.455  1.00  0.00    +0.000 C 
ATOM     88  C58 UNL A   1      28.512  34.955  43.386  1.00  0.00    +0.000 C 
ATOM     89  C59 UNL A   1      27.235  34.882  43.736  1.00  0.00    +0.000 C 
ATOM    118  H24 UNL A   1      33.015  37.766  43.461  1.00  0.00    +0.000 H 
ATOM    119  H25 UNL A   1      33.426  39.725  45.130  1.00  0.00    +0.000 H 
ATOM    120  H26 UNL A   1      29.586  38.291  45.723  1.00  0.00    +0.000 H 
ATOM    121  H27 UNL A   1      23.884  38.806  48.525  1.00  0.00    +0.000 H 
ATOM    122  H28 UNL A   1      23.544  36.798  47.009  1.00  0.00    +0.000 H 
ATOM    123  H29 UNL A   1      27.413  38.196  46.417  1.00  0.00    +0.000 H 
ATOM    124  H30 UNL A   1      28.040  41.939  49.722  1.00  0.00    +0.000 H 
ATOM    125  H31 UNL A   1      30.385  42.240  48.741  1.00  0.00    +0.000 H 
ATOM    126  H32 UNL A   1      28.981  34.295  42.747  1.00  0.00    +0.000 H 
ATOM    127  H33 UNL A   1      26.508  34.227  43.410  1.00  0.00    +0.000 H 
ENDROOT
BRANCH   33   32
ATOM    129  H35 UNL A   1      23.564  32.180  46.118  1.00  0.00    +0.000 H 
ATOM    128  H34 UNL A   1      25.417  33.706  46.461  1.00  0.00    +0.000 H 
ATOM    116  H22 UNL A   1      21.750  34.951  43.527  1.00  0.00    +0.000 H 
ATOM    117  H23 UNL A   1      23.702  36.382  43.698  1.00  0.00    +0.000 H 
ATOM     90  C60 UNL A   1      24.643  33.970  45.830  1.00  0.00    +0.000 C 
ATOM     91  C61 UNL A   1      23.561  33.108  45.666  1.00  0.00    +0.000 C 
ATOM     29  C18 UNL A   1      22.469  33.502  44.888  1.00  0.00    +0.000 C 
ATOM     30  C19 UNL A   1      22.528  34.690  44.151  1.00  0.00    +0.000 C 
ATOM     31  C20 UNL A   1      23.645  35.522  44.264  1.00  0.00    +0.000 C 
ATOM     32  C21 UNL A   1      24.690  35.193  45.144  1.00  0.00    +0.000 C 
BRANCH   29   27
ATOM     27  C17 UNL A   1      21.237  32.685  44.816  1.00  0.00    +0.000 C 
ATOM     28  O5  UNL A   1      21.238  31.642  44.168  1.00  0.00    +0.000 O 
BRANCH   27   26
ATOM     26  N5  UNL A   1      20.089  33.102  45.444  1.00  0.00    +0.000 N 
ATOM    115  H21 UNL A   1      20.208  33.399  46.376  1.00  0.00    +0.000 H 
BRANCH   26   25
ATOM     25  C16 UNL A   1      18.727  33.171  44.944  1.00  0.00    +0.000 C 
ATOM    114  H20 UNL A   1      18.141  32.477  45.509  1.00  0.00    +0.000 H 
ATOM    113  H19 UNL A   1      18.733  32.931  43.901  1.00  0.00    +0.000 H 
BRANCH   25   24
ATOM    112  H18 UNL A   1      18.538  35.166  44.362  1.00  0.00    +0.000 H 
ATOM    111  H17 UNL A   1      18.304  34.878  46.119  1.00  0.00    +0.000 H 
ATOM     24  C15 UNL A   1      18.100  34.552  45.121  1.00  0.00    +0.000 C 
BRANCH   24   23
ATOM    109  H15 UNL A   1      16.164  33.698  45.200  1.00  0.00    +0.000 H 
ATOM    110  H16 UNL A   1      16.262  35.475  45.474  1.00  0.00    +0.000 H 
ATOM     23  C14 UNL A   1      16.588  34.634  44.899  1.00  0.00    +0.000 C 
BRANCH   23   22
ATOM    107  H13 UNL A   1      15.251  35.534  43.526  1.00  0.00    +0.000 H 
ATOM    108  H14 UNL A   1      16.960  35.372  42.983  1.00  0.00    +0.000 H 
ATOM     22  C13 UNL A   1      16.123  34.916  43.468  1.00  0.00    +0.000 C 
BRANCH   22   21
ATOM    105  H11 UNL A   1      15.196  34.043  41.779  1.00  0.00    +0.000 H 
ATOM    106  H12 UNL A   1      16.713  33.259  42.352  1.00  0.00    +0.000 H 
ATOM     21  C12 UNL A   1      15.774  33.700  42.611  1.00  0.00    +0.000 C 
BRANCH   21   20
ATOM     20  C11 UNL A   1      14.984  32.588  43.293  1.00  0.00    +0.000 C 
ATOM    103  H9  UNL A   1      14.688  32.933  44.261  1.00  0.00    +0.000 H 
ATOM    104  H10 UNL A   1      14.152  32.369  42.656  1.00  0.00    +0.000 H 
BRANCH   20   19
ATOM     19  N4  UNL A   1      15.719  31.345  43.459  1.00  0.00    +0.000 N 
ATOM    102  H8  UNL A   1      16.008  31.158  44.381  1.00  0.00    +0.000 H 
BRANCH   19   17
ATOM     17  C10 UNL A   1      16.078  30.385  42.538  1.00  0.00    +0.000 C 
ATOM     18  O4  UNL A   1      16.399  30.736  41.400  1.00  0.00    +0.000 O 
BRANCH   17   16
ATOM    130  H36 UNL A   1      14.570  28.275  41.712  1.00  0.00    +0.000 H 
ATOM     99  H5  UNL A   1      16.230  25.355  44.225  1.00  0.00    +0.000 H 
ATOM    100  H6  UNL A   1      18.068  26.860  44.725  1.00  0.00    +0.000 H 
ATOM     11  C5  UNL A   1      15.185  26.723  43.004  1.00  0.00    +0.000 C 
ATOM     12  C6  UNL A   1      16.229  26.311  43.838  1.00  0.00    +0.000 C 
ATOM     13  C7  UNL A   1      17.275  27.186  44.152  1.00  0.00    +0.000 C 
ATOM     14  C8  UNL A   1      17.241  28.501  43.689  1.00  0.00    +0.000 C 
ATOM     16  C9  UNL A   1      16.187  28.943  42.881  1.00  0.00    +0.000 C 
ATOM     92  C62 UNL A   1      15.241  28.011  42.451  1.00  0.00    +0.000 C 
BRANCH   11   10
ATOM     10  N3  UNL A   1      14.073  25.868  42.804  1.00  0.00    +0.000 N 
BRANCH   10    9
ATOM      9  N2  UNL A   1      13.960  25.597  41.585  1.00  0.00    +0.000 N 
BRANCH    9    8
ATOM     97  H3  UNL A   1      12.328  21.616  43.008  1.00  0.00    +0.000 H 
ATOM     98  H4  UNL A   1      12.823  23.976  43.300  1.00  0.00    +0.000 H 
ATOM    131  H37 UNL A   1      14.236  24.180  39.345  1.00  0.00    +0.000 H 
ATOM    132  H38 UNL A   1      13.759  21.818  39.048  1.00  0.00    +0.000 H 
ATOM      5  C1  UNL A   1      13.012  21.545  41.007  1.00  0.00    +0.000 C 
ATOM      6  C2  UNL A   1      12.736  22.160  42.231  1.00  0.00    +0.000 C 
ATOM      7  C3  UNL A   1      13.017  23.521  42.395  1.00  0.00    +0.000 C 
ATOM      8  C4  UNL A   1      13.560  24.273  41.344  1.00  0.00    +0.000 C 
ATOM     93  C63 UNL A   1      13.831  23.638  40.124  1.00  0.00    +0.000 C 
ATOM     94  C64 UNL A   1      13.559  22.278  39.950  1.00  0.00    +0.000 C 
BRANCH    5    2
ATOM      2  S1  UNL A   1      12.687  19.818  40.796  1.00  0.00    +0.000 S 
ATOM      3  O1  UNL A   1      11.269  19.588  40.921  1.00  0.00    +0.000 O 
ATOM      4  O2  UNL A   1      13.673  19.075  41.546  1.00  0.00    +0.000 O 
BRANCH    2    1
ATOM      1  N1  UNL A   1      13.033  19.557  39.170  1.00  0.00    +0.000 N 
ATOM     95  H1  UNL A   1      12.332  20.024  38.595  1.00  0.00    +0.000 H 
ATOM     96  H2  UNL A   1      13.021  18.557  38.976  1.00  0.00    +0.000 H 
ENDBRANCH    2    1
ENDBRANCH    5    2
ENDBRANCH    9    8
ENDBRANCH   10    9
ENDBRANCH   11   10
BRANCH   14   15
ATOM    101  H7  UNL A   1      18.903  29.605  43.447  1.00  0.00    +0.000 H 
ATOM     15  O3  UNL A   1      18.275  29.311  44.078  1.00  0.00    +0.000 O 
ENDBRANCH   14   15
ENDBRANCH   17   16
ENDBRANCH   19   17
ENDBRANCH   20   19
ENDBRANCH   21   20
ENDBRANCH   22   21
ENDBRANCH   23   22
ENDBRANCH   24   23
ENDBRANCH   25   24
ENDBRANCH   26   25
ENDBRANCH   27   26
ENDBRANCH   29   27
ENDBRANCH   33   32
BRANCH   37   38
ATOM     38  C26 UNL A   1      31.242  35.655  42.800  1.00  0.00    +0.000 C 
ATOM     39  C27 UNL A   1      31.384  36.042  41.459  1.00  0.00    +0.000 C 
ATOM     40  F1  UNL A   1      30.749  37.129  40.997  1.00  0.00    +0.000 F 
ATOM     41  C28 UNL A   1      32.156  35.290  40.575  1.00  0.00    +0.000 C 
ATOM     42  F2  UNL A   1      32.240  35.654  39.287  1.00  0.00    +0.000 F 
ATOM     43  C29 UNL A   1      32.828  34.163  41.021  1.00  0.00    +0.000 C 
ATOM     44  F3  UNL A   1      33.579  33.448  40.171  1.00  0.00    +0.000 F 
ATOM     45  C30 UNL A   1      32.717  33.773  42.347  1.00  0.00    +0.000 C 
ATOM     46  F4  UNL A   1      33.377  32.692  42.784  1.00  0.00    +0.000 F 
ATOM     47  C31 UNL A   1      31.921  34.504  43.225  1.00  0.00    +0.000 C 
ATOM     48  F5  UNL A   1      31.824  34.093  44.499  1.00  0.00    +0.000 F 
ENDBRANCH   37   38
BRANCH   54   55
ATOM     65  F10 UNL A   1      31.215  43.056  45.880  1.00  0.00    +0.000 F 
ATOM     55  C37 UNL A   1      32.240  41.321  47.145  1.00  0.00    +0.000 C 
ATOM     56  C38 UNL A   1      33.329  40.929  47.939  1.00  0.00    +0.000 C 
ATOM     57  F6  UNL A   1      33.380  39.690  48.451  1.00  0.00    +0.000 F 
ATOM     58  C39 UNL A   1      34.351  41.824  48.245  1.00  0.00    +0.000 C 
ATOM     59  F7  UNL A   1      35.355  41.443  49.047  1.00  0.00    +0.000 F 
ATOM     60  C40 UNL A   1      34.325  43.113  47.734  1.00  0.00    +0.000 C 
ATOM     61  F8  UNL A   1      35.313  43.971  48.022  1.00  0.00    +0.000 F 
ATOM     62  C41 UNL A   1      33.269  43.515  46.930  1.00  0.00    +0.000 C 
ATOM     63  F9  UNL A   1      33.248  44.756  46.422  1.00  0.00    +0.000 F 
ATOM     64  C42 UNL A   1      32.229  42.633  46.649  1.00  0.00    +0.000 C 
ENDBRANCH   54   55
BRANCH   69   70
ATOM     70  C46 UNL A   1      25.710  40.611  49.472  1.00  0.00    +0.000 C 
ATOM     71  C47 UNL A   1      24.971  41.758  49.145  1.00  0.00    +0.000 C 
ATOM     72  F11 UNL A   1      24.996  42.234  47.892  1.00  0.00    +0.000 F 
ATOM     73  C48 UNL A   1      24.239  42.442  50.113  1.00  0.00    +0.000 C 
ATOM     74  F12 UNL A   1      23.581  43.562  49.783  1.00  0.00    +0.000 F 
ATOM     75  C49 UNL A   1      24.203  41.976  51.418  1.00  0.00    +0.000 C 
ATOM     76  F13 UNL A   1      23.493  42.630  52.347  1.00  0.00    +0.000 F 
ATOM     77  C50 UNL A   1      24.909  40.832  51.760  1.00  0.00    +0.000 C 
ATOM     78  F14 UNL A   1      24.861  40.365  53.016  1.00  0.00    +0.000 F 
ATOM     79  C51 UNL A   1      25.667  40.166  50.802  1.00  0.00    +0.000 C 
ATOM     80  F15 UNL A   1      26.350  39.069  51.164  1.00  0.00    +0.000 F 
ENDBRANCH   69   70
TORSDOF 21
ENDMDL
MODEL 6
REMARK VINA RESULT:     -11.0     42.451     46.085
ROOT
ATOM     33  C22 UNL A   1      14.097  53.845   5.107  1.00  0.00    +0.000 C 
ATOM     34  C23 UNL A   1      15.018  54.322   4.020  1.00  0.00    +0.000 C 
ATOM     35  N6  UNL A   1      15.522  53.656   3.013  1.00  0.00    +0.000 N 
ATOM     36  C24 UNL A   1      16.281  54.572   2.294  1.00  0.00    +0.000 C 
ATOM     37  C25 UNL A   1      17.048  54.356   1.199  1.00  0.00    +0.000 C 
ATOM     49  C32 UNL A   1      17.211  53.075   0.559  1.00  0.00    +0.000 C 
ATOM     50  C33 UNL A   1      18.019  52.744  -0.515  1.00  0.00    +0.000 C 
ATOM     51  C34 UNL A   1      17.796  51.400  -0.833  1.00  0.00    +0.000 C 
ATOM     52  C35 UNL A   1      16.895  50.877   0.080  1.00  0.00    +0.000 C 
ATOM     53  N7  UNL A   1      16.547  51.915   0.931  1.00  0.00    +0.000 N 
ATOM     54  C36 UNL A   1      16.386  49.532   0.168  1.00  0.00    +0.000 C 
ATOM     66  C43 UNL A   1      15.533  49.088   1.125  1.00  0.00    +0.000 C 
ATOM     67  N8  UNL A   1      14.967  49.787   2.182  1.00  0.00    +0.000 N 
ATOM     68  C44 UNL A   1      14.200  48.929   2.810  1.00  0.00    +0.000 C 
ATOM     69  C45 UNL A   1      13.360  49.132   4.041  1.00  0.00    +0.000 C 
ATOM     81  C52 UNL A   1      13.351  50.339   4.638  1.00  0.00    +0.000 C 
ATOM     82  C53 UNL A   1      12.587  50.684   5.832  1.00  0.00    +0.000 C 
ATOM     83  C54 UNL A   1      12.764  51.985   6.105  1.00  0.00    +0.000 C 
ATOM     84  C55 UNL A   1      13.692  52.560   5.129  1.00  0.00    +0.000 C 
ATOM     85  N9  UNL A   1      13.997  51.506   4.304  1.00  0.00    +0.000 N 
ATOM     86  C56 UNL A   1      14.174  47.590   2.205  1.00  0.00    +0.000 C 
ATOM     87  C57 UNL A   1      15.037  47.731   1.207  1.00  0.00    +0.000 C 
ATOM     88  C58 UNL A   1      16.128  55.853   2.951  1.00  0.00    +0.000 C 
ATOM     89  C59 UNL A   1      15.404  55.741   4.057  1.00  0.00    +0.000 C 
ATOM    118  H24 UNL A   1      18.672  53.380  -0.999  1.00  0.00    +0.000 H 
ATOM    119  H25 UNL A   1      18.231  50.886  -1.615  1.00  0.00    +0.000 H 
ATOM    120  H26 UNL A   1      15.921  51.839   1.687  1.00  0.00    +0.000 H 
ATOM    121  H27 UNL A   1      12.005  50.031   6.380  1.00  0.00    +0.000 H 
ATOM    122  H28 UNL A   1      12.317  52.500   6.880  1.00  0.00    +0.000 H 
ATOM    123  H29 UNL A   1      14.620  51.578   3.545  1.00  0.00    +0.000 H 
ATOM    124  H30 UNL A   1      13.629  46.759   2.483  1.00  0.00    +0.000 H 
ATOM    125  H31 UNL A   1      15.316  46.969   0.569  1.00  0.00    +0.000 H 
ATOM    126  H32 UNL A   1      16.529  56.737   2.603  1.00  0.00    +0.000 H 
ATOM    127  H33 UNL A   1      15.173  56.461   4.758  1.00  0.00    +0.000 H 
ENDROOT
BRANCH   33   32
ATOM    129  H35 UNL A   1      14.416  56.286   9.001  1.00  0.00    +0.000 H 
ATOM    128  H34 UNL A   1      15.248  54.681   7.385  1.00  0.00    +0.000 H 
ATOM    116  H22 UNL A   1      10.964  56.858   6.670  1.00  0.00    +0.000 H 
ATOM    117  H23 UNL A   1      11.692  55.096   5.168  1.00  0.00    +0.000 H 
ATOM     90  C60 UNL A   1      14.333  55.136   7.235  1.00  0.00    +0.000 C 
ATOM     91  C61 UNL A   1      13.876  56.087   8.145  1.00  0.00    +0.000 C 
ATOM     29  C18 UNL A   1      12.684  56.773   7.895  1.00  0.00    +0.000 C 
ATOM     30  C19 UNL A   1      11.874  56.397   6.819  1.00  0.00    +0.000 C 
ATOM     31  C20 UNL A   1      12.302  55.395   5.945  1.00  0.00    +0.000 C 
ATOM     32  C21 UNL A   1      13.558  54.791   6.117  1.00  0.00    +0.000 C 
BRANCH   29   27
ATOM     27  C17 UNL A   1      12.245  57.897   8.753  1.00  0.00    +0.000 C 
ATOM     28  O5  UNL A   1      12.746  59.007   8.599  1.00  0.00    +0.000 O 
BRANCH   27   26
ATOM     26  N5  UNL A   1      11.306  57.696   9.734  1.00  0.00    +0.000 N 
ATOM    115  H21 UNL A   1      11.169  58.460  10.342  1.00  0.00    +0.000 H 
BRANCH   26   25
ATOM     25  C16 UNL A   1      10.483  56.532  10.011  1.00  0.00    +0.000 C 
ATOM    114  H20 UNL A   1      10.595  55.855   9.190  1.00  0.00    +0.000 H 
ATOM    113  H19 UNL A   1       9.468  56.851  10.129  1.00  0.00    +0.000 H 
BRANCH   25   24
ATOM    112  H18 UNL A   1      10.105  55.126  11.506  1.00  0.00    +0.000 H 
ATOM    111  H17 UNL A   1      11.101  56.524  12.034  1.00  0.00    +0.000 H 
ATOM     24  C15 UNL A   1      10.910  55.792  11.277  1.00  0.00    +0.000 C 
BRANCH   24   23
ATOM    109  H15 UNL A   1      12.787  55.348  10.404  1.00  0.00    +0.000 H 
ATOM    110  H16 UNL A   1      12.580  54.877  12.130  1.00  0.00    +0.000 H 
ATOM     23  C14 UNL A   1      12.154  54.911  11.149  1.00  0.00    +0.000 C 
BRANCH   23   22
ATOM    107  H13 UNL A   1      11.945  52.865  11.654  1.00  0.00    +0.000 H 
ATOM    108  H14 UNL A   1      10.976  53.441  10.251  1.00  0.00    +0.000 H 
ATOM     22  C13 UNL A   1      11.918  53.449  10.759  1.00  0.00    +0.000 C 
BRANCH   22   21
ATOM    105  H11 UNL A   1      12.703  51.789   9.710  1.00  0.00    +0.000 H 
ATOM    106  H12 UNL A   1      12.774  53.376   8.861  1.00  0.00    +0.000 H 
ATOM     21  C12 UNL A   1      12.913  52.836   9.774  1.00  0.00    +0.000 C 
BRANCH   21   20
ATOM     20  C11 UNL A   1      14.391  52.991  10.112  1.00  0.00    +0.000 C 
ATOM    103  H9  UNL A   1      14.962  52.531   9.333  1.00  0.00    +0.000 H 
ATOM    104  H10 UNL A   1      14.577  54.042  10.199  1.00  0.00    +0.000 H 
BRANCH   20   19
ATOM     19  N4  UNL A   1      14.784  52.394  11.378  1.00  0.00    +0.000 N 
ATOM    102  H8  UNL A   1      14.530  52.914  12.174  1.00  0.00    +0.000 H 
BRANCH   19   17
ATOM     17  C10 UNL A   1      15.452  51.219  11.647  1.00  0.00    +0.000 C 
ATOM     18  O4  UNL A   1      15.947  51.054  12.765  1.00  0.00    +0.000 O 
BRANCH   17   16
ATOM    130  H36 UNL A   1      13.523  49.469  10.857  1.00  0.00    +0.000 H 
ATOM     99  H5  UNL A   1      15.949  46.922   8.572  1.00  0.00    +0.000 H 
ATOM    100  H6  UNL A   1      17.712  48.590   8.623  1.00  0.00    +0.000 H 
ATOM     11  C5  UNL A   1      14.619  48.008   9.799  1.00  0.00    +0.000 C 
ATOM     12  C6  UNL A   1      15.820  47.788   9.117  1.00  0.00    +0.000 C 
ATOM     13  C7  UNL A   1      16.849  48.734   9.169  1.00  0.00    +0.000 C 
ATOM     14  C8  UNL A   1      16.706  49.872   9.962  1.00  0.00    +0.000 C 
ATOM     16  C9  UNL A   1      15.524  50.095  10.678  1.00  0.00    +0.000 C 
ATOM     92  C62 UNL A   1      14.454  49.219  10.486  1.00  0.00    +0.000 C 
BRANCH   11   10
ATOM     10  N3  UNL A   1      13.642  46.982   9.840  1.00  0.00    +0.000 N 
BRANCH   10    9
ATOM      9  N2  UNL A   1      12.605  47.405  10.403  1.00  0.00    +0.000 N 
BRANCH    9    8
ATOM     97  H3  UNL A   1       9.739  49.335   7.471  1.00  0.00    +0.000 H 
ATOM     98  H4  UNL A   1      11.812  49.263   8.734  1.00  0.00    +0.000 H 
ATOM    131  H37 UNL A   1      10.774  45.477  10.241  1.00  0.00    +0.000 H 
ATOM    132  H38 UNL A   1       8.692  45.546   8.993  1.00  0.00    +0.000 H 
ATOM      5  C1  UNL A   1       9.063  47.447   8.145  1.00  0.00    +0.000 C 
ATOM      6  C2  UNL A   1       9.957  48.517   8.061  1.00  0.00    +0.000 C 
ATOM      7  C3  UNL A   1      11.153  48.470   8.787  1.00  0.00    +0.000 C 
ATOM      8  C4  UNL A   1      11.468  47.360   9.582  1.00  0.00    +0.000 C 
ATOM     93  C63 UNL A   1      10.556  46.296   9.654  1.00  0.00    +0.000 C 
ATOM     94  C64 UNL A   1       9.356  46.334   8.937  1.00  0.00    +0.000 C 
BRANCH    5    2
ATOM      2  S1  UNL A   1       7.534  47.507   7.255  1.00  0.00    +0.000 S 
ATOM      3  O1  UNL A   1       7.735  48.229   6.023  1.00  0.00    +0.000 O 
ATOM      4  O2  UNL A   1       6.477  47.822   8.188  1.00  0.00    +0.000 O 
BRANCH    2    1
ATOM      1  N1  UNL A   1       7.296  45.907   6.792  1.00  0.00    +0.000 N 
ATOM     95  H1  UNL A   1       7.294  45.844   5.774  1.00  0.00    +0.000 H 
ATOM     96  H2  UNL A   1       6.402  45.577   7.155  1.00  0.00    +0.000 H 
ENDBRANCH    2    1
ENDBRANCH    5    2
ENDBRANCH    9    8
ENDBRANCH   10    9
ENDBRANCH   11   10
BRANCH   14   15
ATOM    101  H7  UNL A   1      17.746  51.489  10.546  1.00  0.00    +0.000 H 
ATOM     15  O3  UNL A   1      17.775  50.728   9.999  1.00  0.00    +0.000 O 
ENDBRANCH   14   15
ENDBRANCH   17   16
ENDBRANCH   19   17
ENDBRANCH   20   19
ENDBRANCH   21   20
ENDBRANCH   22   21
ENDBRANCH   23   22
ENDBRANCH   24   23
ENDBRANCH   25   24
ENDBRANCH   26   25
ENDBRANCH   27   26
ENDBRANCH   29   27
ENDBRANCH   33   32
BRANCH   37   38
ATOM     38  C26 UNL A   1      17.772  55.534   0.609  1.00  0.00    +0.000 C 
ATOM     39  C27 UNL A   1      19.037  55.928   1.070  1.00  0.00    +0.000 C 
ATOM     40  F1  UNL A   1      19.610  55.290   2.101  1.00  0.00    +0.000 F 
ATOM     41  C28 UNL A   1      19.706  57.005   0.493  1.00  0.00    +0.000 C 
ATOM     42  F2  UNL A   1      20.894  57.392   0.980  1.00  0.00    +0.000 F 
ATOM     43  C29 UNL A   1      19.142  57.684  -0.576  1.00  0.00    +0.000 C 
ATOM     44  F3  UNL A   1      19.793  58.713  -1.138  1.00  0.00    +0.000 F 
ATOM     45  C30 UNL A   1      17.901  57.300  -1.061  1.00  0.00    +0.000 C 
ATOM     46  F4  UNL A   1      17.360  57.945  -2.103  1.00  0.00    +0.000 F 
ATOM     47  C31 UNL A   1      17.216  56.244  -0.465  1.00  0.00    +0.000 C 
ATOM     48  F5  UNL A   1      16.011  55.905  -0.949  1.00  0.00    +0.000 F 
ENDBRANCH   37   38
BRANCH   54   55
ATOM     65  F10 UNL A   1      14.937  48.962  -2.214  1.00  0.00    +0.000 F 
ATOM     55  C37 UNL A   1      16.846  48.537  -0.858  1.00  0.00    +0.000 C 
ATOM     56  C38 UNL A   1      18.027  47.799  -0.687  1.00  0.00    +0.000 C 
ATOM     57  F6  UNL A   1      18.806  48.010   0.385  1.00  0.00    +0.000 F 
ATOM     58  C39 UNL A   1      18.436  46.871  -1.641  1.00  0.00    +0.000 C 
ATOM     59  F7  UNL A   1      19.595  46.215  -1.482  1.00  0.00    +0.000 F 
ATOM     60  C40 UNL A   1      17.656  46.634  -2.762  1.00  0.00    +0.000 C 
ATOM     61  F8  UNL A   1      18.046  45.733  -3.675  1.00  0.00    +0.000 F 
ATOM     62  C41 UNL A   1      16.473  47.336  -2.941  1.00  0.00    +0.000 C 
ATOM     63  F9  UNL A   1      15.709  47.098  -4.016  1.00  0.00    +0.000 F 
ATOM     64  C42 UNL A   1      16.078  48.289  -2.006  1.00  0.00    +0.000 C 
ENDBRANCH   54   55
BRANCH   69   70
ATOM     70  C46 UNL A   1      12.547  48.021   4.603  1.00  0.00    +0.000 C 
ATOM     71  C47 UNL A   1      13.010  47.267   5.691  1.00  0.00    +0.000 C 
ATOM     72  F11 UNL A   1      14.209  47.535   6.228  1.00  0.00    +0.000 F 
ATOM     73  C48 UNL A   1      12.263  46.208   6.202  1.00  0.00    +0.000 C 
ATOM     74  F12 UNL A   1      12.751  45.474   7.210  1.00  0.00    +0.000 F 
ATOM     75  C49 UNL A   1      11.024  45.905   5.659  1.00  0.00    +0.000 C 
ATOM     76  F13 UNL A   1      10.301  44.890   6.156  1.00  0.00    +0.000 F 
ATOM     77  C50 UNL A   1      10.536  46.650   4.597  1.00  0.00    +0.000 C 
ATOM     78  F14 UNL A   1       9.329  46.374   4.081  1.00  0.00    +0.000 F 
ATOM     79  C51 UNL A   1      11.296  47.687   4.063  1.00  0.00    +0.000 C 
ATOM     80  F15 UNL A   1      10.804  48.384   3.027  1.00  0.00    +0.000 F 
ENDBRANCH   69   70
TORSDOF 21
ENDMDL
MODEL 7
REMARK VINA RESULT:     -10.9      5.615     11.492
ROOT
ATOM     33  C22 UNL A   1      26.183  40.562  46.600  1.00  0.00    +0.000 C 
ATOM     34  C23 UNL A   1      26.068  41.919  47.235  1.00  0.00    +0.000 C 
ATOM     35  N6  UNL A   1      25.075  42.429  47.919  1.00  0.00    +0.000 N 
ATOM     36  C24 UNL A   1      25.492  43.697  48.303  1.00  0.00    +0.000 C 
ATOM     37  C25 UNL A   1      24.798  44.645  48.979  1.00  0.00    +0.000 C 
ATOM     49  C32 UNL A   1      23.442  44.485  49.441  1.00  0.00    +0.000 C 
ATOM     50  C33 UNL A   1      22.633  45.411  50.076  1.00  0.00    +0.000 C 
ATOM     51  C34 UNL A   1      21.423  44.787  50.399  1.00  0.00    +0.000 C 
ATOM     52  C35 UNL A   1      21.454  43.490  49.913  1.00  0.00    +0.000 C 
ATOM     53  N7  UNL A   1      22.698  43.320  49.323  1.00  0.00    +0.000 N 
ATOM     54  C36 UNL A   1      20.429  42.481  49.982  1.00  0.00    +0.000 C 
ATOM     66  C43 UNL A   1      20.525  41.241  49.440  1.00  0.00    +0.000 C 
ATOM     67  N8  UNL A   1      21.579  40.675  48.737  1.00  0.00    +0.000 N 
ATOM     68  C44 UNL A   1      21.200  39.455  48.441  1.00  0.00    +0.000 C 
ATOM     69  C45 UNL A   1      21.936  38.394  47.671  1.00  0.00    +0.000 C 
ATOM     81  C52 UNL A   1      23.161  38.667  47.182  1.00  0.00    +0.000 C 
ATOM     82  C53 UNL A   1      23.991  37.741  46.420  1.00  0.00    +0.000 C 
ATOM     83  C54 UNL A   1      25.169  38.325  46.155  1.00  0.00    +0.000 C 
ATOM     84  C55 UNL A   1      25.162  39.688  46.691  1.00  0.00    +0.000 C 
ATOM     85  N9  UNL A   1      23.925  39.807  47.273  1.00  0.00    +0.000 N 
ATOM     86  C56 UNL A   1      19.866  39.101  48.946  1.00  0.00    +0.000 C 
ATOM     87  C57 UNL A   1      19.482  40.239  49.510  1.00  0.00    +0.000 C 
ATOM     88  C58 UNL A   1      26.847  43.859  47.822  1.00  0.00    +0.000 C 
ATOM     89  C59 UNL A   1      27.230  42.811  47.105  1.00  0.00    +0.000 C 
ATOM    118  H24 UNL A   1      22.880  46.392  50.277  1.00  0.00    +0.000 H 
ATOM    119  H25 UNL A   1      20.639  45.220  50.912  1.00  0.00    +0.000 H 
ATOM    120  H26 UNL A   1      23.007  42.493  48.887  1.00  0.00    +0.000 H 
ATOM    121  H27 UNL A   1      23.716  36.789  46.131  1.00  0.00    +0.000 H 
ATOM    122  H28 UNL A   1      25.956  37.884  45.654  1.00  0.00    +0.000 H 
ATOM    123  H29 UNL A   1      23.613  40.630  47.714  1.00  0.00    +0.000 H 
ATOM    124  H30 UNL A   1      19.361  38.204  48.879  1.00  0.00    +0.000 H 
ATOM    125  H31 UNL A   1      18.558  40.389  49.944  1.00  0.00    +0.000 H 
ATOM    126  H32 UNL A   1      27.439  44.682  48.013  1.00  0.00    +0.000 H 
ATOM    127  H33 UNL A   1      28.111  42.661  46.591  1.00  0.00    +0.000 H 
ENDROOT
BRANCH   33   32
ATOM    129  H35 UNL A   1      29.209  40.646  43.127  1.00  0.00    +0.000 H 
ATOM    128  H34 UNL A   1      27.117  41.268  44.183  1.00  0.00    +0.000 H 
ATOM    116  H22 UNL A   1      30.258  38.386  46.515  1.00  0.00    +0.000 H 
ATOM    117  H23 UNL A   1      28.075  38.828  47.479  1.00  0.00    +0.000 H 
ATOM     90  C60 UNL A   1      27.779  40.648  44.677  1.00  0.00    +0.000 C 
ATOM     91  C61 UNL A   1      28.998  40.325  44.085  1.00  0.00    +0.000 C 
ATOM     29  C18 UNL A   1      29.935  39.565  44.790  1.00  0.00    +0.000 C 
ATOM     30  C19 UNL A   1      29.590  39.000  46.023  1.00  0.00    +0.000 C 
ATOM     31  C20 UNL A   1      28.341  39.269  46.585  1.00  0.00    +0.000 C 
ATOM     32  C21 UNL A   1      27.444  40.137  45.940  1.00  0.00    +0.000 C 
BRANCH   29   27
ATOM     27  C17 UNL A   1      31.297  39.333  44.261  1.00  0.00    +0.000 C 
ATOM     28  O5  UNL A   1      32.222  40.049  44.634  1.00  0.00    +0.000 O 
BRANCH   27   26
ATOM     26  N5  UNL A   1      31.525  38.343  43.337  1.00  0.00    +0.000 N 
ATOM    115  H21 UNL A   1      31.776  38.661  42.438  1.00  0.00    +0.000 H 
BRANCH   26   25
ATOM     25  C16 UNL A   1      31.452  36.899  43.482  1.00  0.00    +0.000 C 
ATOM    114  H20 UNL A   1      31.062  36.693  44.457  1.00  0.00    +0.000 H 
ATOM    113  H19 UNL A   1      32.434  36.493  43.351  1.00  0.00    +0.000 H 
BRANCH   25   24
ATOM    112  H18 UNL A   1      31.155  35.786  41.743  1.00  0.00    +0.000 H 
ATOM    111  H17 UNL A   1      29.884  37.012  42.067  1.00  0.00    +0.000 H 
ATOM     24  C15 UNL A   1      30.517  36.248  42.467  1.00  0.00    +0.000 C 
BRANCH   24   23
ATOM    109  H15 UNL A   1      29.311  34.532  42.171  1.00  0.00    +0.000 H 
ATOM    110  H16 UNL A   1      30.218  34.609  43.724  1.00  0.00    +0.000 H 
ATOM     23  C14 UNL A   1      29.622  35.129  43.004  1.00  0.00    +0.000 C 
BRANCH   23   22
ATOM    107  H13 UNL A   1      28.673  36.035  44.666  1.00  0.00    +0.000 H 
ATOM    108  H14 UNL A   1      27.837  36.207  43.081  1.00  0.00    +0.000 H 
ATOM     22  C13 UNL A   1      28.362  35.564  43.757  1.00  0.00    +0.000 C 
BRANCH   22   21
ATOM    105  H11 UNL A   1      27.214  33.862  43.249  1.00  0.00    +0.000 H 
ATOM    106  H12 UNL A   1      27.810  33.946  44.947  1.00  0.00    +0.000 H 
ATOM     21  C12 UNL A   1      27.368  34.462  44.121  1.00  0.00    +0.000 C 
BRANCH   21   20
ATOM     20  C11 UNL A   1      26.000  34.915  44.617  1.00  0.00    +0.000 C 
ATOM    103  H9  UNL A   1      25.882  35.951  44.378  1.00  0.00    +0.000 H 
ATOM    104  H10 UNL A   1      25.277  34.291  44.132  1.00  0.00    +0.000 H 
BRANCH   20   19
ATOM     19  N4  UNL A   1      25.795  34.751  46.047  1.00  0.00    +0.000 N 
ATOM    102  H8  UNL A   1      26.224  35.440  46.605  1.00  0.00    +0.000 H 
BRANCH   19   17
ATOM     17  C10 UNL A   1      25.100  33.792  46.751  1.00  0.00    +0.000 C 
ATOM     18  O4  UNL A   1      24.499  34.120  47.777  1.00  0.00    +0.000 O 
BRANCH   17   16
ATOM    130  H36 UNL A   1      23.100  32.622  45.323  1.00  0.00    +0.000 H 
ATOM     99  H5  UNL A   1      24.458  28.661  45.558  1.00  0.00    +0.000 H 
ATOM    100  H6  UNL A   1      26.612  29.467  46.334  1.00  0.00    +0.000 H 
ATOM     11  C5  UNL A   1      23.556  30.567  45.472  1.00  0.00    +0.000 C 
ATOM     12  C6  UNL A   1      24.598  29.669  45.724  1.00  0.00    +0.000 C 
ATOM     13  C7  UNL A   1      25.832  30.128  46.199  1.00  0.00    +0.000 C 
ATOM     14  C8  UNL A   1      26.002  31.480  46.492  1.00  0.00    +0.000 C 
ATOM     16  C9  UNL A   1      24.961  32.391  46.278  1.00  0.00    +0.000 C 
ATOM     92  C62 UNL A   1      23.797  31.937  45.655  1.00  0.00    +0.000 C 
BRANCH   11   10
ATOM     10  N3  UNL A   1      22.278  30.070  45.115  1.00  0.00    +0.000 N 
BRANCH   10    9
ATOM      9  N2  UNL A   1      21.392  30.884  45.470  1.00  0.00    +0.000 N 
BRANCH    9    8
ATOM     97  H3  UNL A   1      18.528  32.876  42.579  1.00  0.00    +0.000 H 
ATOM     98  H4  UNL A   1      20.604  32.773  43.835  1.00  0.00    +0.000 H 
ATOM    131  H37 UNL A   1      19.552  28.966  45.279  1.00  0.00    +0.000 H 
ATOM    132  H38 UNL A   1      17.467  29.067  44.038  1.00  0.00    +0.000 H 
ATOM      5  C1  UNL A   1      17.845  30.980  43.222  1.00  0.00    +0.000 C 
ATOM      6  C2  UNL A   1      18.744  32.047  43.154  1.00  0.00    +0.000 C 
ATOM      7  C3  UNL A   1      19.941  31.982  43.875  1.00  0.00    +0.000 C 
ATOM      8  C4  UNL A   1      20.253  30.857  44.651  1.00  0.00    +0.000 C 
ATOM     93  C63 UNL A   1      19.337  29.797  44.707  1.00  0.00    +0.000 C 
ATOM     94  C64 UNL A   1      18.135  29.853  43.994  1.00  0.00    +0.000 C 
BRANCH    5    2
ATOM      2  S1  UNL A   1      16.314  31.062  42.337  1.00  0.00    +0.000 S 
ATOM      3  O1  UNL A   1      16.583  31.403  40.961  1.00  0.00    +0.000 O 
ATOM      4  O2  UNL A   1      15.356  31.774  43.150  1.00  0.00    +0.000 O 
BRANCH    2    1
ATOM      1  N1  UNL A   1      15.805  29.458  42.300  1.00  0.00    +0.000 N 
ATOM     95  H1  UNL A   1      16.394  28.900  42.918  1.00  0.00    +0.000 H 
ATOM     96  H2  UNL A   1      15.876  29.101  41.348  1.00  0.00    +0.000 H 
ENDBRANCH    2    1
ENDBRANCH    5    2
ENDBRANCH    9    8
ENDBRANCH   10    9
ENDBRANCH   11   10
BRANCH   14   15
ATOM    101  H7  UNL A   1      27.833  31.188  47.267  1.00  0.00    +0.000 H 
ATOM     15  O3  UNL A   1      27.222  31.846  46.999  1.00  0.00    +0.000 O 
ENDBRANCH   14   15
ENDBRANCH   17   16
ENDBRANCH   19   17
ENDBRANCH   20   19
ENDBRANCH   21   20
ENDBRANCH   22   21
ENDBRANCH   23   22
ENDBRANCH   24   23
ENDBRANCH   25   24
ENDBRANCH   26   25
ENDBRANCH   27   26
ENDBRANCH   29   27
ENDBRANCH   33   32
BRANCH   37   38
ATOM     38  C26 UNL A   1      25.492  45.945  49.271  1.00  0.00    +0.000 C 
ATOM     39  C27 UNL A   1      26.232  46.137  50.448  1.00  0.00    +0.000 C 
ATOM     40  F1  UNL A   1      26.287  45.173  51.377  1.00  0.00    +0.000 F 
ATOM     41  C28 UNL A   1      26.893  47.340  50.689  1.00  0.00    +0.000 C 
ATOM     42  F2  UNL A   1      27.556  47.518  51.841  1.00  0.00    +0.000 F 
ATOM     43  C29 UNL A   1      26.859  48.356  49.747  1.00  0.00    +0.000 C 
ATOM     44  F3  UNL A   1      27.505  49.507  49.977  1.00  0.00    +0.000 F 
ATOM     45  C30 UNL A   1      26.150  48.181  48.568  1.00  0.00    +0.000 C 
ATOM     46  F4  UNL A   1      26.127  49.155  47.649  1.00  0.00    +0.000 F 
ATOM     47  C31 UNL A   1      25.462  46.992  48.338  1.00  0.00    +0.000 C 
ATOM     48  F5  UNL A   1      24.774  46.858  47.194  1.00  0.00    +0.000 F 
ENDBRANCH   37   38
BRANCH   54   55
ATOM     65  F10 UNL A   1      18.238  43.771  48.702  1.00  0.00    +0.000 F 
ATOM     55  C37 UNL A   1      19.149  42.825  50.688  1.00  0.00    +0.000 C 
ATOM     56  C38 UNL A   1      18.964  42.547  52.050  1.00  0.00    +0.000 C 
ATOM     57  F6  UNL A   1      19.920  41.911  52.745  1.00  0.00    +0.000 F 
ATOM     58  C39 UNL A   1      17.776  42.882  52.695  1.00  0.00    +0.000 C 
ATOM     59  F7  UNL A   1      17.602  42.560  53.984  1.00  0.00    +0.000 F 
ATOM     60  C40 UNL A   1      16.768  43.535  52.003  1.00  0.00    +0.000 C 
ATOM     61  F8  UNL A   1      15.629  43.865  52.627  1.00  0.00    +0.000 F 
ATOM     62  C41 UNL A   1      16.938  43.840  50.660  1.00  0.00    +0.000 C 
ATOM     63  F9  UNL A   1      15.970  44.484  49.993  1.00  0.00    +0.000 F 
ATOM     64  C42 UNL A   1      18.110  43.476  50.004  1.00  0.00    +0.000 C 
ENDBRANCH   54   55
BRANCH   69   70
ATOM     70  C46 UNL A   1      21.329  37.056  47.443  1.00  0.00    +0.000 C 
ATOM     71  C47 UNL A   1      21.427  36.044  48.410  1.00  0.00    +0.000 C 
ATOM     72  F11 UNL A   1      22.087  36.274  49.553  1.00  0.00    +0.000 F 
ATOM     73  C48 UNL A   1      20.882  34.782  48.188  1.00  0.00    +0.000 C 
ATOM     74  F12 UNL A   1      21.031  33.820  49.108  1.00  0.00    +0.000 F 
ATOM     75  C49 UNL A   1      20.200  34.515  47.010  1.00  0.00    +0.000 C 
ATOM     76  F13 UNL A   1      19.670  33.302  46.799  1.00  0.00    +0.000 F 
ATOM     77  C50 UNL A   1      20.073  35.505  46.048  1.00  0.00    +0.000 C 
ATOM     78  F14 UNL A   1      19.398  35.259  44.917  1.00  0.00    +0.000 F 
ATOM     79  C51 UNL A   1      20.645  36.758  46.255  1.00  0.00    +0.000 C 
ATOM     80  F15 UNL A   1      20.517  37.693  45.302  1.00  0.00    +0.000 F 
ENDBRANCH   69   70
TORSDOF 21
ENDMDL
MODEL 8
REMARK VINA RESULT:     -10.8     42.373     46.017
ROOT
ATOM     33  C22 UNL A   1      14.208  53.915   4.942  1.00  0.00    +0.000 C 
ATOM     34  C23 UNL A   1      15.133  54.346   3.839  1.00  0.00    +0.000 C 
ATOM     35  N6  UNL A   1      15.624  53.642   2.851  1.00  0.00    +0.000 N 
ATOM     36  C24 UNL A   1      16.393  54.525   2.103  1.00  0.00    +0.000 C 
ATOM     37  C25 UNL A   1      17.154  54.266   1.013  1.00  0.00    +0.000 C 
ATOM     49  C32 UNL A   1      17.297  52.964   0.411  1.00  0.00    +0.000 C 
ATOM     50  C33 UNL A   1      18.096  52.590  -0.655  1.00  0.00    +0.000 C 
ATOM     51  C34 UNL A   1      17.853  51.240  -0.931  1.00  0.00    +0.000 C 
ATOM     52  C35 UNL A   1      16.947  50.757  -0.001  1.00  0.00    +0.000 C 
ATOM     53  N7  UNL A   1      16.617  51.826   0.820  1.00  0.00    +0.000 N 
ATOM     54  C36 UNL A   1      16.420  49.423   0.129  1.00  0.00    +0.000 C 
ATOM     66  C43 UNL A   1      15.563  49.020   1.101  1.00  0.00    +0.000 C 
ATOM     67  N8  UNL A   1      15.011  49.759   2.138  1.00  0.00    +0.000 N 
ATOM     68  C44 UNL A   1      14.233  48.931   2.794  1.00  0.00    +0.000 C 
ATOM     69  C45 UNL A   1      13.400  49.183   4.020  1.00  0.00    +0.000 C 
ATOM     81  C52 UNL A   1      13.410  50.408   4.581  1.00  0.00    +0.000 C 
ATOM     82  C53 UNL A   1      12.655  50.799   5.766  1.00  0.00    +0.000 C 
ATOM     83  C54 UNL A   1      12.852  52.105   5.999  1.00  0.00    +0.000 C 
ATOM     84  C55 UNL A   1      13.785  52.637   5.004  1.00  0.00    +0.000 C 
ATOM     85  N9  UNL A   1      14.072  51.554   4.210  1.00  0.00    +0.000 N 
ATOM     86  C56 UNL A   1      14.187  47.575   2.229  1.00  0.00    +0.000 C 
ATOM     87  C57 UNL A   1      15.048  47.673   1.225  1.00  0.00    +0.000 C 
ATOM     88  C58 UNL A   1      16.261  55.827   2.722  1.00  0.00    +0.000 C 
ATOM     89  C59 UNL A   1      15.539  55.759   3.832  1.00  0.00    +0.000 C 
ATOM    118  H24 UNL A   1      18.757  53.201  -1.159  1.00  0.00    +0.000 H 
ATOM    119  H25 UNL A   1      18.278  50.696  -1.699  1.00  0.00    +0.000 H 
ATOM    120  H26 UNL A   1      15.992  51.781   1.579  1.00  0.00    +0.000 H 
ATOM    121  H27 UNL A   1      12.065  50.171   6.335  1.00  0.00    +0.000 H 
ATOM    122  H28 UNL A   1      12.414  52.650   6.760  1.00  0.00    +0.000 H 
ATOM    123  H29 UNL A   1      14.693  51.595   3.447  1.00  0.00    +0.000 H 
ATOM    124  H30 UNL A   1      13.631  46.761   2.534  1.00  0.00    +0.000 H 
ATOM    125  H31 UNL A   1      15.314  46.888   0.610  1.00  0.00    +0.000 H 
ATOM    126  H32 UNL A   1      16.673  56.695   2.346  1.00  0.00    +0.000 H 
ATOM    127  H33 UNL A   1      15.320  56.503   4.512  1.00  0.00    +0.000 H 
ENDROOT
BRANCH   33   32
ATOM    129  H35 UNL A   1      10.981  56.800   6.519  1.00  0.00    +0.000 H 
ATOM    128  H34 UNL A   1      11.882  55.255   4.881  1.00  0.00    +0.000 H 
ATOM    116  H22 UNL A   1      14.381  56.242   8.929  1.00  0.00    +0.000 H 
ATOM    117  H23 UNL A   1      15.380  54.870   7.194  1.00  0.00    +0.000 H 
ATOM     90  C60 UNL A   1      12.419  55.470   5.736  1.00  0.00    +0.000 C 
ATOM     91  C61 UNL A   1      11.881  56.327   6.695  1.00  0.00    +0.000 C 
ATOM     29  C18 UNL A   1      12.563  56.545   7.895  1.00  0.00    +0.000 C 
ATOM     30  C19 UNL A   1      13.851  56.029   8.070  1.00  0.00    +0.000 C 
ATOM     31  C20 UNL A   1      14.418  55.225   7.079  1.00  0.00    +0.000 C 
ATOM     32  C21 UNL A   1      13.686  54.898   5.925  1.00  0.00    +0.000 C 
BRANCH   29   27
ATOM     27  C17 UNL A   1      11.954  57.320   8.999  1.00  0.00    +0.000 C 
ATOM     28  O5  UNL A   1      12.198  58.519   9.105  1.00  0.00    +0.000 O 
BRANCH   27   26
ATOM     26  N5  UNL A   1      11.143  56.701   9.918  1.00  0.00    +0.000 N 
ATOM    115  H21 UNL A   1      11.005  57.201  10.756  1.00  0.00    +0.000 H 
BRANCH   26   25
ATOM     25  C16 UNL A   1      10.457  55.423   9.843  1.00  0.00    +0.000 C 
ATOM    114  H20 UNL A   1      10.525  55.080   8.831  1.00  0.00    +0.000 H 
ATOM    113  H19 UNL A   1       9.440  55.562  10.148  1.00  0.00    +0.000 H 
BRANCH   25   24
ATOM    112  H18 UNL A   1      10.272  53.824  11.171  1.00  0.00    +0.000 H 
ATOM    111  H17 UNL A   1      11.718  54.854  11.442  1.00  0.00    +0.000 H 
ATOM     24  C15 UNL A   1      11.090  54.357  10.733  1.00  0.00    +0.000 C 
BRANCH   24   23
ATOM    109  H15 UNL A   1      11.648  52.342  10.396  1.00  0.00    +0.000 H 
ATOM    110  H16 UNL A   1      11.739  53.442   8.973  1.00  0.00    +0.000 H 
ATOM     23  C14 UNL A   1      11.934  53.301  10.016  1.00  0.00    +0.000 C 
BRANCH   23   22
ATOM    107  H13 UNL A   1      13.847  52.440  10.303  1.00  0.00    +0.000 H 
ATOM    108  H14 UNL A   1      13.785  53.917   9.275  1.00  0.00    +0.000 H 
ATOM     22  C13 UNL A   1      13.453  53.425  10.165  1.00  0.00    +0.000 C 
BRANCH   22   21
ATOM    105  H11 UNL A   1      14.944  54.623  11.067  1.00  0.00    +0.000 H 
ATOM    106  H12 UNL A   1      13.236  55.075  11.418  1.00  0.00    +0.000 H 
ATOM     21  C12 UNL A   1      13.958  54.292  11.317  1.00  0.00    +0.000 C 
BRANCH   21   20
ATOM     20  C11 UNL A   1      14.027  53.631  12.689  1.00  0.00    +0.000 C 
ATOM    103  H9  UNL A   1      14.087  54.402  13.429  1.00  0.00    +0.000 H 
ATOM    104  H10 UNL A   1      13.146  53.031  12.785  1.00  0.00    +0.000 H 
BRANCH   20   19
ATOM     19  N4  UNL A   1      15.159  52.738  12.869  1.00  0.00    +0.000 N 
ATOM    102  H8  UNL A   1      16.028  53.191  12.966  1.00  0.00    +0.000 H 
BRANCH   19   17
ATOM     17  C10 UNL A   1      15.218  51.363  12.928  1.00  0.00    +0.000 C 
ATOM     18  O4  UNL A   1      15.053  50.801  14.013  1.00  0.00    +0.000 O 
BRANCH   17   16
ATOM    130  H36 UNL A   1      13.335  50.356  11.240  1.00  0.00    +0.000 H 
ATOM     99  H5  UNL A   1      15.858  47.915   8.944  1.00  0.00    +0.000 H 
ATOM    100  H6  UNL A   1      17.783  49.058   9.883  1.00  0.00    +0.000 H 
ATOM     11  C5  UNL A   1      14.431  48.966  10.089  1.00  0.00    +0.000 C 
ATOM     12  C6  UNL A   1      15.723  48.634   9.671  1.00  0.00    +0.000 C 
ATOM     13  C7  UNL A   1      16.836  49.270  10.231  1.00  0.00    +0.000 C 
ATOM     14  C8  UNL A   1      16.662  50.191  11.264  1.00  0.00    +0.000 C 
ATOM     16  C9  UNL A   1      15.378  50.513  11.720  1.00  0.00    +0.000 C 
ATOM     92  C62 UNL A   1      14.278  49.986  11.040  1.00  0.00    +0.000 C 
BRANCH   11   10
ATOM     10  N3  UNL A   1      13.327  48.221   9.604  1.00  0.00    +0.000 N 
BRANCH   10    9
ATOM      9  N2  UNL A   1      12.394  48.998   9.292  1.00  0.00    +0.000 N 
BRANCH    9    8
ATOM     97  H3  UNL A   1       8.466  48.833   7.037  1.00  0.00    +0.000 H 
ATOM     98  H4  UNL A   1      10.622  49.828   7.549  1.00  0.00    +0.000 H 
ATOM    131  H37 UNL A   1      11.452  46.683  10.215  1.00  0.00    +0.000 H 
ATOM    132  H38 UNL A   1       9.292  45.689   9.721  1.00  0.00    +0.000 H 
ATOM      5  C1  UNL A   1       8.721  47.191   8.346  1.00  0.00    +0.000 C 
ATOM      6  C2  UNL A   1       9.099  48.378   7.714  1.00  0.00    +0.000 C 
ATOM      7  C3  UNL A   1      10.344  48.946   8.007  1.00  0.00    +0.000 C 
ATOM      8  C4  UNL A   1      11.217  48.332   8.915  1.00  0.00    +0.000 C 
ATOM     93  C63 UNL A   1      10.820  47.141   9.540  1.00  0.00    +0.000 C 
ATOM     94  C64 UNL A   1       9.577  46.567   9.259  1.00  0.00    +0.000 C 
BRANCH    5    2
ATOM      2  S1  UNL A   1       7.138  46.477   8.006  1.00  0.00    +0.000 S 
ATOM      3  O1  UNL A   1       6.571  45.981   9.236  1.00  0.00    +0.000 O 
ATOM      4  O2  UNL A   1       7.249  45.673   6.810  1.00  0.00    +0.000 O 
BRANCH    2    1
ATOM      1  N1  UNL A   1       6.196  47.810   7.595  1.00  0.00    +0.000 N 
ATOM     95  H1  UNL A   1       6.756  48.467   7.051  1.00  0.00    +0.000 H 
ATOM     96  H2  UNL A   1       5.864  48.266   8.443  1.00  0.00    +0.000 H 
ENDBRANCH    2    1
ENDBRANCH    5    2
ENDBRANCH    9    8
ENDBRANCH   10    9
ENDBRANCH   11   10
BRANCH   14   15
ATOM    101  H7  UNL A   1      18.406  51.189  11.240  1.00  0.00    +0.000 H 
ATOM     15  O3  UNL A   1      17.801  50.736  11.794  1.00  0.00    +0.000 O 
ENDBRANCH   14   15
ENDBRANCH   17   16
ENDBRANCH   19   17
ENDBRANCH   20   19
ENDBRANCH   21   20
ENDBRANCH   22   21
ENDBRANCH   23   22
ENDBRANCH   24   23
ENDBRANCH   25   24
ENDBRANCH   26   25
ENDBRANCH   27   26
ENDBRANCH   29   27
ENDBRANCH   33   32
BRANCH   37   38
ATOM     38  C26 UNL A   1      17.893  55.415   0.386  1.00  0.00    +0.000 C 
ATOM     39  C27 UNL A   1      19.130  55.854   0.881  1.00  0.00    +0.000 C 
ATOM     40  F1  UNL A   1      19.660  55.288   1.975  1.00  0.00    +0.000 F 
ATOM     41  C28 UNL A   1      19.814  56.902   0.270  1.00  0.00    +0.000 C 
ATOM     42  F2  UNL A   1      20.974  57.335   0.788  1.00  0.00    +0.000 F 
ATOM     43  C29 UNL A   1      19.295  57.507  -0.864  1.00  0.00    +0.000 C 
ATOM     44  F3  UNL A   1      19.962  58.508  -1.457  1.00  0.00    +0.000 F 
ATOM     45  C30 UNL A   1      18.083  57.077  -1.382  1.00  0.00    +0.000 C 
ATOM     46  F4  UNL A   1      17.586  57.649  -2.487  1.00  0.00    +0.000 F 
ATOM     47  C31 UNL A   1      17.381  56.050  -0.756  1.00  0.00    +0.000 C 
ATOM     48  F5  UNL A   1      16.205  55.666  -1.274  1.00  0.00    +0.000 F 
ENDBRANCH   37   38
BRANCH   54   55
ATOM     65  F10 UNL A   1      18.814  47.908   0.405  1.00  0.00    +0.000 F 
ATOM     55  C37 UNL A   1      16.862  48.391  -0.868  1.00  0.00    +0.000 C 
ATOM     56  C38 UNL A   1      16.118  48.126  -2.028  1.00  0.00    +0.000 C 
ATOM     57  F6  UNL A   1      14.955  48.759  -2.244  1.00  0.00    +0.000 F 
ATOM     58  C39 UNL A   1      16.545  47.174  -2.951  1.00  0.00    +0.000 C 
ATOM     59  F7  UNL A   1      15.792  46.900  -4.025  1.00  0.00    +0.000 F 
ATOM     60  C40 UNL A   1      17.740  46.499  -2.753  1.00  0.00    +0.000 C 
ATOM     61  F8  UNL A   1      18.154  45.590  -3.646  1.00  0.00    +0.000 F 
ATOM     62  C41 UNL A   1      18.502  46.761  -1.624  1.00  0.00    +0.000 C 
ATOM     63  F9  UNL A   1      19.665  46.120  -1.438  1.00  0.00    +0.000 F 
ATOM     64  C42 UNL A   1      18.061  47.687  -0.683  1.00  0.00    +0.000 C 
ENDBRANCH   54   55
BRANCH   69   70
ATOM     70  C46 UNL A   1      12.573  48.102   4.618  1.00  0.00    +0.000 C 
ATOM     71  C47 UNL A   1      11.294  47.812   4.120  1.00  0.00    +0.000 C 
ATOM     72  F11 UNL A   1      10.797  48.525   3.100  1.00  0.00    +0.000 F 
ATOM     73  C48 UNL A   1      10.507  46.817   4.695  1.00  0.00    +0.000 C 
ATOM     74  F12 UNL A   1       9.271  46.593   4.230  1.00  0.00    +0.000 F 
ATOM     75  C49 UNL A   1      10.995  46.069   5.756  1.00  0.00    +0.000 C 
ATOM     76  F13 UNL A   1      10.240  45.107   6.305  1.00  0.00    +0.000 F 
ATOM     77  C50 UNL A   1      12.264  46.324   6.252  1.00  0.00    +0.000 C 
ATOM     78  F14 UNL A   1      12.749  45.591   7.264  1.00  0.00    +0.000 F 
ATOM     79  C51 UNL A   1      13.040  47.339   5.699  1.00  0.00    +0.000 C 
ATOM     80  F15 UNL A   1      14.260  47.572   6.208  1.00  0.00    +0.000 F 
ENDBRANCH   69   70
TORSDOF 21
ENDMDL
MODEL 9
REMARK VINA RESULT:     -10.7     45.518     50.551
ROOT
ATOM     33  C22 UNL A   1      29.179 -13.937  31.131  1.00  0.00    +0.000 C 
ATOM     34  C23 UNL A   1      28.908 -14.072  32.603  1.00  0.00    +0.000 C 
ATOM     35  N6  UNL A   1      27.900 -13.614  33.302  1.00  0.00    +0.000 N 
ATOM     36  C24 UNL A   1      28.118 -14.044  34.605  1.00  0.00    +0.000 C 
ATOM     37  C25 UNL A   1      27.387 -13.778  35.714  1.00  0.00    +0.000 C 
ATOM     49  C32 UNL A   1      26.196 -12.967  35.727  1.00  0.00    +0.000 C 
ATOM     50  C33 UNL A   1      25.424 -12.586  36.811  1.00  0.00    +0.000 C 
ATOM     51  C34 UNL A   1      24.327 -11.860  36.334  1.00  0.00    +0.000 C 
ATOM     52  C35 UNL A   1      24.446 -11.737  34.960  1.00  0.00    +0.000 C 
ATOM     53  N7  UNL A   1      25.600 -12.418  34.601  1.00  0.00    +0.000 N 
ATOM     54  C36 UNL A   1      23.572 -11.053  34.041  1.00  0.00    +0.000 C 
ATOM     66  C43 UNL A   1      23.785 -10.943  32.706  1.00  0.00    +0.000 C 
ATOM     67  N8  UNL A   1      24.831 -11.445  31.945  1.00  0.00    +0.000 N 
ATOM     68  C44 UNL A   1      24.577 -11.093  30.708  1.00  0.00    +0.000 C 
ATOM     69  C45 UNL A   1      25.382 -11.350  29.464  1.00  0.00    +0.000 C 
ATOM     81  C52 UNL A   1      26.542 -12.028  29.561  1.00  0.00    +0.000 C 
ATOM     82  C53 UNL A   1      27.425 -12.352  28.446  1.00  0.00    +0.000 C 
ATOM     83  C54 UNL A   1      28.450 -13.090  28.899  1.00  0.00    +0.000 C 
ATOM     84  C55 UNL A   1      28.321 -13.254  30.348  1.00  0.00    +0.000 C 
ATOM     85  N9  UNL A   1      27.165 -12.580  30.655  1.00  0.00    +0.000 N 
ATOM     86  C56 UNL A   1      23.323 -10.345  30.542  1.00  0.00    +0.000 C 
ATOM     87  C57 UNL A   1      22.903 -10.244  31.796  1.00  0.00    +0.000 C 
ATOM     88  C58 UNL A   1      29.325 -14.843  34.589  1.00  0.00    +0.000 C 
ATOM     89  C59 UNL A   1      29.884 -14.844  33.387  1.00  0.00    +0.000 C 
ATOM    118  H24 UNL A   1      25.623 -12.801  37.801  1.00  0.00    +0.000 H 
ATOM    119  H25 UNL A   1      23.559 -11.481  36.910  1.00  0.00    +0.000 H 
ATOM    120  H26 UNL A   1      25.944 -12.499  33.682  1.00  0.00    +0.000 H 
ATOM    121  H27 UNL A   1      27.285 -12.060  27.466  1.00  0.00    +0.000 H 
ATOM    122  H28 UNL A   1      29.209 -13.480  28.318  1.00  0.00    +0.000 H 
ATOM    123  H29 UNL A   1      26.815 -12.500  31.572  1.00  0.00    +0.000 H 
ATOM    124  H30 UNL A   1      22.886  -9.990  29.677  1.00  0.00    +0.000 H 
ATOM    125  H31 UNL A   1      22.053  -9.734  32.084  1.00  0.00    +0.000 H 
ATOM    126  H32 UNL A   1      29.700 -15.347  35.407  1.00  0.00    +0.000 H 
ATOM    127  H33 UNL A   1      30.771 -15.274  33.082  1.00  0.00    +0.000 H 
ENDROOT
BRANCH   33   32
ATOM    129  H35 UNL A   1      33.615 -14.144  29.902  1.00  0.00    +0.000 H 
ATOM    128  H34 UNL A   1      31.686 -13.016  30.844  1.00  0.00    +0.000 H 
ATOM    116  H22 UNL A   1      31.277 -17.566  29.190  1.00  0.00    +0.000 H 
ATOM    117  H23 UNL A   1      29.302 -16.365  29.928  1.00  0.00    +0.000 H 
ATOM     90  C60 UNL A   1      31.595 -13.980  30.485  1.00  0.00    +0.000 C 
ATOM     91  C61 UNL A   1      32.714 -14.641  29.981  1.00  0.00    +0.000 C 
ATOM     29  C18 UNL A   1      32.613 -15.976  29.583  1.00  0.00    +0.000 C 
ATOM     30  C19 UNL A   1      31.362 -16.601  29.543  1.00  0.00    +0.000 C 
ATOM     31  C20 UNL A   1      30.229 -15.916  29.985  1.00  0.00    +0.000 C 
ATOM     32  C21 UNL A   1      30.344 -14.616  30.507  1.00  0.00    +0.000 C 
BRANCH   29   27
ATOM     27  C17 UNL A   1      33.808 -16.757  29.191  1.00  0.00    +0.000 C 
ATOM     28  O5  UNL A   1      34.368 -17.466  30.022  1.00  0.00    +0.000 O 
BRANCH   27   26
ATOM     26  N5  UNL A   1      34.306 -16.671  27.914  1.00  0.00    +0.000 N 
ATOM    115  H21 UNL A   1      35.286 -16.749  27.843  1.00  0.00    +0.000 H 
BRANCH   26   25
ATOM     25  C16 UNL A   1      33.609 -16.484  26.654  1.00  0.00    +0.000 C 
ATOM    114  H20 UNL A   1      32.626 -16.891  26.766  1.00  0.00    +0.000 H 
ATOM    113  H19 UNL A   1      34.160 -16.980  25.882  1.00  0.00    +0.000 H 
BRANCH   25   24
ATOM    112  H18 UNL A   1      33.743 -14.951  25.245  1.00  0.00    +0.000 H 
ATOM    111  H17 UNL A   1      34.071 -14.439  26.934  1.00  0.00    +0.000 H 
ATOM     24  C15 UNL A   1      33.456 -15.013  26.273  1.00  0.00    +0.000 C 
BRANCH   24   23
ATOM    109  H15 UNL A   1      31.569 -14.626  25.396  1.00  0.00    +0.000 H 
ATOM    110  H16 UNL A   1      31.572 -14.948  27.167  1.00  0.00    +0.000 H 
ATOM     23  C14 UNL A   1      32.036 -14.449  26.342  1.00  0.00    +0.000 C 
BRANCH   23   22
ATOM    107  H13 UNL A   1      31.770 -12.442  25.720  1.00  0.00    +0.000 H 
ATOM    108  H14 UNL A   1      31.086 -12.874  27.328  1.00  0.00    +0.000 H 
ATOM     22  C13 UNL A   1      31.909 -12.954  26.649  1.00  0.00    +0.000 C 
BRANCH   22   21
ATOM    105  H11 UNL A   1      32.981 -12.493  28.413  1.00  0.00    +0.000 H 
ATOM    106  H12 UNL A   1      33.962 -12.732  26.922  1.00  0.00    +0.000 H 
ATOM     21  C12 UNL A   1      33.090 -12.302  27.366  1.00  0.00    +0.000 C 
BRANCH   21   20
ATOM     20  C11 UNL A   1      33.250 -10.796  27.187  1.00  0.00    +0.000 C 
ATOM    103  H9  UNL A   1      34.295 -10.569  27.179  1.00  0.00    +0.000 H 
ATOM    104  H10 UNL A   1      32.762 -10.543  26.268  1.00  0.00    +0.000 H 
BRANCH   20   19
ATOM     19  N4  UNL A   1      32.619  -9.998  28.226  1.00  0.00    +0.000 N 
ATOM    102  H8  UNL A   1      33.234  -9.415  28.727  1.00  0.00    +0.000 H 
BRANCH   19   17
ATOM     17  C10 UNL A   1      31.302  -9.921  28.624  1.00  0.00    +0.000 C 
ATOM     18  O4  UNL A   1      30.961 -10.470  29.674  1.00  0.00    +0.000 O 
BRANCH   17   16
ATOM    130  H36 UNL A   1      29.509 -10.700  26.730  1.00  0.00    +0.000 H 
ATOM     99  H5  UNL A   1      28.070  -6.899  25.694  1.00  0.00    +0.000 H 
ATOM    100  H6  UNL A   1      29.119  -5.982  27.683  1.00  0.00    +0.000 H 
ATOM     11  C5  UNL A   1      28.786  -8.862  25.984  1.00  0.00    +0.000 C 
ATOM     12  C6  UNL A   1      28.642  -7.507  26.299  1.00  0.00    +0.000 C 
ATOM     13  C7  UNL A   1      29.270  -6.970  27.428  1.00  0.00    +0.000 C 
ATOM     14  C8  UNL A   1      30.102  -7.773  28.206  1.00  0.00    +0.000 C 
ATOM     16  C9  UNL A   1      30.286  -9.125  27.890  1.00  0.00    +0.000 C 
ATOM     92  C62 UNL A   1      29.526  -9.675  26.855  1.00  0.00    +0.000 C 
BRANCH   11   10
ATOM     10  N3  UNL A   1      28.250  -9.357  24.769  1.00  0.00    +0.000 N 
BRANCH   10    9
ATOM      9  N2  UNL A   1      28.405 -10.600  24.711  1.00  0.00    +0.000 N 
BRANCH    9    8
ATOM     97  H3  UNL A   1      25.593 -14.149  24.890  1.00  0.00    +0.000 H 
ATOM     98  H4  UNL A   1      27.430 -12.805  25.737  1.00  0.00    +0.000 H 
ATOM    131  H37 UNL A   1      26.797  -9.993  22.676  1.00  0.00    +0.000 H 
ATOM    132  H38 UNL A   1      24.968 -11.337  21.813  1.00  0.00    +0.000 H 
ATOM      5  C1  UNL A   1      25.150 -12.842  23.286  1.00  0.00    +0.000 C 
ATOM      6  C2  UNL A   1      25.850 -13.268  24.418  1.00  0.00    +0.000 C 
ATOM      7  C3  UNL A   1      26.905 -12.489  24.907  1.00  0.00    +0.000 C 
ATOM      8  C4  UNL A   1      27.257 -11.284  24.282  1.00  0.00    +0.000 C 
ATOM     93  C63 UNL A   1      26.543 -10.875  23.147  1.00  0.00    +0.000 C 
ATOM     94  C64 UNL A   1      25.491 -11.647  22.647  1.00  0.00    +0.000 C 
BRANCH    5    2
ATOM      2  S1  UNL A   1      23.833 -13.833  22.642  1.00  0.00    +0.000 S 
ATOM      3  O1  UNL A   1      24.383 -15.049  22.095  1.00  0.00    +0.000 O 
ATOM      4  O2  UNL A   1      22.937 -12.973  21.903  1.00  0.00    +0.000 O 
BRANCH    2    1
ATOM      1  N1  UNL A   1      23.000 -14.311  24.024  1.00  0.00    +0.000 N 
ATOM     95  H1  UNL A   1      22.411 -13.544  24.348  1.00  0.00    +0.000 H 
ATOM     96  H2  UNL A   1      23.666 -14.562  24.753  1.00  0.00    +0.000 H 
ENDBRANCH    2    1
ENDBRANCH    5    2
ENDBRANCH    9    8
ENDBRANCH   10    9
ENDBRANCH   11   10
BRANCH   14   15
ATOM    101  H7  UNL A   1      31.231  -6.391  29.131  1.00  0.00    +0.000 H 
ATOM     15  O3  UNL A   1      30.720  -7.165  29.267  1.00  0.00    +0.000 O 
ENDBRANCH   14   15
ENDBRANCH   17   16
ENDBRANCH   19   17
ENDBRANCH   20   19
ENDBRANCH   21   20
ENDBRANCH   22   21
ENDBRANCH   23   22
ENDBRANCH   24   23
ENDBRANCH   25   24
ENDBRANCH   26   25
ENDBRANCH   27   26
ENDBRANCH   29   27
ENDBRANCH   33   32
BRANCH   37   38
ATOM     38  C26 UNL A   1      27.846 -14.375  37.014  1.00  0.00    +0.000 C 
ATOM     39  C27 UNL A   1      27.324 -15.584  37.496  1.00  0.00    +0.000 C 
ATOM     40  F1  UNL A   1      26.347 -16.213  36.826  1.00  0.00    +0.000 F 
ATOM     41  C28 UNL A   1      27.782 -16.138  38.689  1.00  0.00    +0.000 C 
ATOM     42  F2  UNL A   1      27.236 -17.271  39.153  1.00  0.00    +0.000 F 
ATOM     43  C29 UNL A   1      28.793 -15.515  39.404  1.00  0.00    +0.000 C 
ATOM     44  F3  UNL A   1      29.240 -16.055  40.546  1.00  0.00    +0.000 F 
ATOM     45  C30 UNL A   1      29.338 -14.328  38.937  1.00  0.00    +0.000 C 
ATOM     46  F4  UNL A   1      30.325 -13.731  39.618  1.00  0.00    +0.000 F 
ATOM     47  C31 UNL A   1      28.860 -13.756  37.761  1.00  0.00    +0.000 C 
ATOM     48  F5  UNL A   1      29.398 -12.600  37.343  1.00  0.00    +0.000 F 
ENDBRANCH   37   38
BRANCH   54   55
ATOM     65  F10 UNL A   1      20.997 -12.265  34.013  1.00  0.00    +0.000 F 
ATOM     55  C37 UNL A   1      22.344 -10.392  34.598  1.00  0.00    +0.000 C 
ATOM     56  C38 UNL A   1      22.391  -9.104  35.153  1.00  0.00    +0.000 C 
ATOM     57  F6  UNL A   1      23.560  -8.452  35.247  1.00  0.00    +0.000 F 
ATOM     58  C39 UNL A   1      21.242  -8.498  35.656  1.00  0.00    +0.000 C 
ATOM     59  F7  UNL A   1      21.321  -7.289  36.229  1.00  0.00    +0.000 F 
ATOM     60  C40 UNL A   1      20.021  -9.149  35.578  1.00  0.00    +0.000 C 
ATOM     61  F8  UNL A   1      18.914  -8.561  36.053  1.00  0.00    +0.000 F 
ATOM     62  C41 UNL A   1      19.947 -10.414  35.013  1.00  0.00    +0.000 C 
ATOM     63  F9  UNL A   1      18.764 -11.039  34.923  1.00  0.00    +0.000 F 
ATOM     64  C42 UNL A   1      21.099 -11.036  34.541  1.00  0.00    +0.000 C 
ENDBRANCH   54   55
BRANCH   69   70
ATOM     70  C46 UNL A   1      24.916 -10.865  28.138  1.00  0.00    +0.000 C 
ATOM     71  C47 UNL A   1      25.462  -9.711  27.559  1.00  0.00    +0.000 C 
ATOM     72  F11 UNL A   1      26.408  -9.020  28.210  1.00  0.00    +0.000 F 
ATOM     73  C48 UNL A   1      25.008  -9.239  26.329  1.00  0.00    +0.000 C 
ATOM     74  F12 UNL A   1      25.513  -8.107  25.822  1.00  0.00    +0.000 F 
ATOM     75  C49 UNL A   1      24.024  -9.930  25.639  1.00  0.00    +0.000 C 
ATOM     76  F13 UNL A   1      23.592  -9.480  24.452  1.00  0.00    +0.000 F 
ATOM     77  C50 UNL A   1      23.484 -11.086  26.182  1.00  0.00    +0.000 C 
ATOM     78  F14 UNL A   1      22.547 -11.769  25.509  1.00  0.00    +0.000 F 
ATOM     79  C51 UNL A   1      23.913 -11.541  27.425  1.00  0.00    +0.000 C 
ATOM     80  F15 UNL A   1      23.364 -12.655  27.932  1.00  0.00    +0.000 F 
ENDBRANCH   69   70
TORSDOF 21
ENDMDL
MODEL 10
REMARK VINA RESULT:     -10.7     37.055     43.241
ROOT
ATOM     33  C22 UNL A   1      21.042  18.749   5.935  1.00  0.00    +0.000 C 
ATOM     34  C23 UNL A   1      20.860  19.740   4.821  1.00  0.00    +0.000 C 
ATOM     35  N6  UNL A   1      19.793  20.420   4.486  1.00  0.00    +0.000 N 
ATOM     36  C24 UNL A   1      20.171  21.211   3.409  1.00  0.00    +0.000 C 
ATOM     37  C25 UNL A   1      19.407  22.050   2.669  1.00  0.00    +0.000 C 
ATOM     49  C32 UNL A   1      18.001  22.277   2.890  1.00  0.00    +0.000 C 
ATOM     50  C33 UNL A   1      17.127  23.057   2.153  1.00  0.00    +0.000 C 
ATOM     51  C34 UNL A   1      15.879  23.032   2.784  1.00  0.00    +0.000 C 
ATOM     52  C35 UNL A   1      15.958  22.190   3.881  1.00  0.00    +0.000 C 
ATOM     53  N7  UNL A   1      17.266  21.730   3.932  1.00  0.00    +0.000 N 
ATOM     54  C36 UNL A   1      14.921  21.832   4.815  1.00  0.00    +0.000 C 
ATOM     66  C43 UNL A   1      15.072  20.961   5.843  1.00  0.00    +0.000 C 
ATOM     67  N8  UNL A   1      16.202  20.254   6.230  1.00  0.00    +0.000 N 
ATOM     68  C44 UNL A   1      15.850  19.566   7.288  1.00  0.00    +0.000 C 
ATOM     69  C45 UNL A   1      16.668  18.609   8.112  1.00  0.00    +0.000 C 
ATOM     81  C52 UNL A   1      17.948  18.374   7.767  1.00  0.00    +0.000 C 
ATOM     82  C53 UNL A   1      18.859  17.476   8.469  1.00  0.00    +0.000 C 
ATOM     83  C54 UNL A   1      20.069  17.540   7.891  1.00  0.00    +0.000 C 
ATOM     84  C55 UNL A   1      20.007  18.452   6.747  1.00  0.00    +0.000 C 
ATOM     85  N9  UNL A   1      18.707  18.890   6.743  1.00  0.00    +0.000 N 
ATOM     86  C56 UNL A   1      14.458  19.779   7.709  1.00  0.00    +0.000 C 
ATOM     87  C57 UNL A   1      14.018  20.605   6.769  1.00  0.00    +0.000 C 
ATOM     88  C58 UNL A   1      21.579  20.966   3.180  1.00  0.00    +0.000 C 
ATOM     89  C59 UNL A   1      22.039  20.021   3.988  1.00  0.00    +0.000 C 
ATOM    118  H24 UNL A   1      17.357  23.569   1.287  1.00  0.00    +0.000 H 
ATOM    119  H25 UNL A   1      15.040  23.554   2.483  1.00  0.00    +0.000 H 
ATOM    120  H26 UNL A   1      17.619  21.108   4.608  1.00  0.00    +0.000 H 
ATOM    121  H27 UNL A   1      18.613  16.886   9.279  1.00  0.00    +0.000 H 
ATOM    122  H28 UNL A   1      20.909  17.028   8.203  1.00  0.00    +0.000 H 
ATOM    123  H29 UNL A   1      18.350  19.515   6.071  1.00  0.00    +0.000 H 
ATOM    124  H30 UNL A   1      13.956  19.388   8.521  1.00  0.00    +0.000 H 
ATOM    125  H31 UNL A   1      13.047  20.950   6.708  1.00  0.00    +0.000 H 
ATOM    126  H32 UNL A   1      22.151  21.463   2.479  1.00  0.00    +0.000 H 
ATOM    127  H33 UNL A   1      22.978  19.595   4.024  1.00  0.00    +0.000 H 
ENDROOT
BRANCH   33   32
ATOM    129  H35 UNL A   1      24.191  15.415   5.494  1.00  0.00    +0.000 H 
ATOM    128  H34 UNL A   1      21.995  16.373   5.123  1.00  0.00    +0.000 H 
ATOM    116  H22 UNL A   1      25.342  18.856   7.619  1.00  0.00    +0.000 H 
ATOM    117  H23 UNL A   1      23.082  19.719   7.437  1.00  0.00    +0.000 H 
ATOM     90  C60 UNL A   1      22.701  16.899   5.661  1.00  0.00    +0.000 C 
ATOM     91  C61 UNL A   1      23.976  16.364   5.839  1.00  0.00    +0.000 C 
ATOM     29  C18 UNL A   1      24.962  17.114   6.485  1.00  0.00    +0.000 C 
ATOM     30  C19 UNL A   1      24.631  18.332   7.087  1.00  0.00    +0.000 C 
ATOM     31  C20 UNL A   1      23.334  18.836   6.967  1.00  0.00    +0.000 C 
ATOM     32  C21 UNL A   1      22.372  18.148   6.210  1.00  0.00    +0.000 C 
BRANCH   29   27
ATOM     27  C17 UNL A   1      26.365  16.647   6.554  1.00  0.00    +0.000 C 
ATOM     28  O5  UNL A   1      26.611  15.529   6.997  1.00  0.00    +0.000 O 
BRANCH   27   26
ATOM     26  N5  UNL A   1      27.391  17.468   6.154  1.00  0.00    +0.000 N 
ATOM    115  H21 UNL A   1      27.403  17.682   5.192  1.00  0.00    +0.000 H 
BRANCH   26   25
ATOM     25  C16 UNL A   1      28.461  18.068   6.932  1.00  0.00    +0.000 C 
ATOM    114  H20 UNL A   1      29.337  18.080   6.319  1.00  0.00    +0.000 H 
ATOM    113  H19 UNL A   1      28.604  17.488   7.821  1.00  0.00    +0.000 H 
BRANCH   25   24
ATOM    112  H18 UNL A   1      27.371  19.831   6.692  1.00  0.00    +0.000 H 
ATOM    111  H17 UNL A   1      29.067  20.072   7.231  1.00  0.00    +0.000 H 
ATOM     24  C15 UNL A   1      28.163  19.510   7.335  1.00  0.00    +0.000 C 
BRANCH   24   23
ATOM    109  H15 UNL A   1      26.710  19.199   8.844  1.00  0.00    +0.000 H 
ATOM    110  H16 UNL A   1      28.417  19.336   9.400  1.00  0.00    +0.000 H 
ATOM     23  C14 UNL A   1      27.645  19.713   8.761  1.00  0.00    +0.000 C 
BRANCH   23   22
ATOM    107  H13 UNL A   1      28.296  21.478   9.734  1.00  0.00    +0.000 H 
ATOM    108  H14 UNL A   1      27.220  21.704   8.308  1.00  0.00    +0.000 H 
ATOM     22  C13 UNL A   1      27.420  21.160   9.207  1.00  0.00    +0.000 C 
BRANCH   22   21
ATOM    105  H11 UNL A   1      25.872  22.412   9.919  1.00  0.00    +0.000 H 
ATOM    106  H12 UNL A   1      25.513  20.648   9.869  1.00  0.00    +0.000 H 
ATOM     21  C12 UNL A   1      26.216  21.417  10.111  1.00  0.00    +0.000 C 
BRANCH   21   20
ATOM     20  C11 UNL A   1      26.449  21.291  11.612  1.00  0.00    +0.000 C 
ATOM    103  H9  UNL A   1      26.850  20.318  11.808  1.00  0.00    +0.000 H 
ATOM    104  H10 UNL A   1      27.119  22.080  11.885  1.00  0.00    +0.000 H 
BRANCH   20   19
ATOM     19  N4  UNL A   1      25.254  21.462  12.422  1.00  0.00    +0.000 N 
ATOM    102  H8  UNL A   1      25.363  22.062  13.194  1.00  0.00    +0.000 H 
BRANCH   19   17
ATOM     17  C10 UNL A   1      23.993  20.922  12.287  1.00  0.00    +0.000 C 
ATOM     18  O4  UNL A   1      23.045  21.670  12.036  1.00  0.00    +0.000 O 
BRANCH   17   16
ATOM    130  H36 UNL A   1      24.912  18.931  10.674  1.00  0.00    +0.000 H 
ATOM     99  H5  UNL A   1      22.599  15.801  12.239  1.00  0.00    +0.000 H 
ATOM    100  H6  UNL A   1      22.046  17.193  14.150  1.00  0.00    +0.000 H 
ATOM     11  C5  UNL A   1      23.721  17.282  11.238  1.00  0.00    +0.000 C 
ATOM     12  C6  UNL A   1      22.931  16.777  12.275  1.00  0.00    +0.000 C 
ATOM     13  C7  UNL A   1      22.586  17.586  13.364  1.00  0.00    +0.000 C 
ATOM     14  C8  UNL A   1      22.972  18.926  13.382  1.00  0.00    +0.000 C 
ATOM     16  C9  UNL A   1      23.735  19.460  12.337  1.00  0.00    +0.000 C 
ATOM     92  C62 UNL A   1      24.200  18.596  11.343  1.00  0.00    +0.000 C 
BRANCH   11   10
ATOM     10  N3  UNL A   1      23.950  16.489  10.086  1.00  0.00    +0.000 N 
BRANCH   10    9
ATOM      9  N2  UNL A   1      22.867  16.291   9.484  1.00  0.00    +0.000 N 
BRANCH    9    8
ATOM     97  H3  UNL A   1      24.629  12.268   8.368  1.00  0.00    +0.000 H 
ATOM     98  H4  UNL A   1      24.736  14.456   9.417  1.00  0.00    +0.000 H 
ATOM    131  H37 UNL A   1      20.724  15.162   8.376  1.00  0.00    +0.000 H 
ATOM    132  H38 UNL A   1      20.612  12.983   7.311  1.00  0.00    +0.000 H 
ATOM      5  C1  UNL A   1      22.613  12.469   7.759  1.00  0.00    +0.000 C 
ATOM      6  C2  UNL A   1      23.801  12.884   8.367  1.00  0.00    +0.000 C 
ATOM      7  C3  UNL A   1      23.857  14.143   8.975  1.00  0.00    +0.000 C 
ATOM      8  C4  UNL A   1      22.736  14.984   8.992  1.00  0.00    +0.000 C 
ATOM     93  C63 UNL A   1      21.554  14.550   8.375  1.00  0.00    +0.000 C 
ATOM     94  C64 UNL A   1      21.487  13.296   7.760  1.00  0.00    +0.000 C 
BRANCH    5    2
ATOM      2  S1  UNL A   1      22.537  10.891   6.962  1.00  0.00    +0.000 S 
ATOM      3  O1  UNL A   1      21.162  10.590   6.644  1.00  0.00    +0.000 O 
ATOM      4  O2  UNL A   1      23.397   9.977   7.679  1.00  0.00    +0.000 O 
BRANCH    2    1
ATOM      1  N1  UNL A   1      23.279  11.173   5.478  1.00  0.00    +0.000 N 
ATOM     95  H1  UNL A   1      23.714  12.096   5.486  1.00  0.00    +0.000 H 
ATOM     96  H2  UNL A   1      22.581  11.133   4.736  1.00  0.00    +0.000 H 
ENDBRANCH    2    1
ENDBRANCH    5    2
ENDBRANCH    9    8
ENDBRANCH   10    9
ENDBRANCH   11   10
BRANCH   14   15
ATOM    101  H7  UNL A   1      23.186  20.026  15.049  1.00  0.00    +0.000 H 
ATOM     15  O3  UNL A   1      22.556  19.666  14.457  1.00  0.00    +0.000 O 
ENDBRANCH   14   15
ENDBRANCH   17   16
ENDBRANCH   19   17
ENDBRANCH   20   19
ENDBRANCH   21   20
ENDBRANCH   22   21
ENDBRANCH   23   22
ENDBRANCH   24   23
ENDBRANCH   25   24
ENDBRANCH   26   25
ENDBRANCH   27   26
ENDBRANCH   29   27
ENDBRANCH   33   32
BRANCH   37   38
ATOM     38  C26 UNL A   1      20.072  22.797   1.547  1.00  0.00    +0.000 C 
ATOM     39  C27 UNL A   1      20.009  22.345   0.221  1.00  0.00    +0.000 C 
ATOM     40  F1  UNL A   1      19.395  21.189  -0.071  1.00  0.00    +0.000 F 
ATOM     41  C28 UNL A   1      20.608  23.065  -0.810  1.00  0.00    +0.000 C 
ATOM     42  F2  UNL A   1      20.574  22.590  -2.064  1.00  0.00    +0.000 F 
ATOM     43  C29 UNL A   1      21.247  24.265  -0.543  1.00  0.00    +0.000 C 
ATOM     44  F3  UNL A   1      21.812  24.962  -1.539  1.00  0.00    +0.000 F 
ATOM     45  C30 UNL A   1      21.306  24.741   0.758  1.00  0.00    +0.000 C 
ATOM     46  F4  UNL A   1      21.910  25.908   1.018  1.00  0.00    +0.000 F 
ATOM     47  C31 UNL A   1      20.736  24.008   1.796  1.00  0.00    +0.000 C 
ATOM     48  F5  UNL A   1      20.820  24.489   3.045  1.00  0.00    +0.000 F 
ENDBRANCH   37   38
BRANCH   54   55
ATOM     65  F10 UNL A   1      12.977  20.817   3.000  1.00  0.00    +0.000 F 
ATOM     55  C37 UNL A   1      13.564  22.449   4.630  1.00  0.00    +0.000 C 
ATOM     56  C38 UNL A   1      13.178  23.598   5.337  1.00  0.00    +0.000 C 
ATOM     57  F6  UNL A   1      14.005  24.143   6.243  1.00  0.00    +0.000 F 
ATOM     58  C39 UNL A   1      11.921  24.167   5.148  1.00  0.00    +0.000 C 
ATOM     59  F7  UNL A   1      11.555  25.233   5.872  1.00  0.00    +0.000 F 
ATOM     60  C40 UNL A   1      11.043  23.624   4.223  1.00  0.00    +0.000 C 
ATOM     61  F8  UNL A   1       9.837  24.178   4.035  1.00  0.00    +0.000 F 
ATOM     62  C41 UNL A   1      11.412  22.502   3.496  1.00  0.00    +0.000 C 
ATOM     63  F9  UNL A   1      10.570  21.984   2.591  1.00  0.00    +0.000 F 
ATOM     64  C42 UNL A   1      12.655  21.910   3.708  1.00  0.00    +0.000 C 
ENDBRANCH   54   55
BRANCH   69   70
ATOM     70  C46 UNL A   1      16.080  17.922   9.292  1.00  0.00    +0.000 C 
ATOM     71  C47 UNL A   1      15.586  16.613   9.194  1.00  0.00    +0.000 C 
ATOM     72  F11 UNL A   1      15.627  15.969   8.019  1.00  0.00    +0.000 F 
ATOM     73  C48 UNL A   1      15.011  15.977  10.292  1.00  0.00    +0.000 C 
ATOM     74  F12 UNL A   1      14.503  14.744  10.158  1.00  0.00    +0.000 F 
ATOM     75  C49 UNL A   1      14.948  16.623  11.517  1.00  0.00    +0.000 C 
ATOM     76  F13 UNL A   1      14.401  16.008  12.575  1.00  0.00    +0.000 F 
ATOM     77  C50 UNL A   1      15.449  17.910  11.644  1.00  0.00    +0.000 C 
ATOM     78  F14 UNL A   1      15.410  18.532  12.831  1.00  0.00    +0.000 F 
ATOM     79  C51 UNL A   1      15.995  18.559  10.540  1.00  0.00    +0.000 C 
ATOM     80  F15 UNL A   1      16.460  19.809  10.688  1.00  0.00    +0.000 F 
ENDBRANCH   69   70
TORSDOF 21
ENDMDL
