MODEL 1
REMARK VINA RESULT:     -10.6      0.000      0.000
ROOT
ATOM     30  C25 UNL A   1      38.137  29.887  29.932  1.00  0.00    +0.000 C 
ATOM     31  C26 UNL A   1      38.410  30.400  31.318  1.00  0.00    +0.000 C 
ATOM     32  N4  UNL A   1      39.449  30.194  32.089  1.00  0.00    +0.000 N 
ATOM     33  C27 UNL A   1      39.217  30.934  33.240  1.00  0.00    +0.000 C 
ATOM     34  C28 UNL A   1      39.973  31.010  34.363  1.00  0.00    +0.000 C 
ATOM     46  C35 UNL A   1      41.205  30.293  34.561  1.00  0.00    +0.000 C 
ATOM     47  C36 UNL A   1      42.012  30.257  35.685  1.00  0.00    +0.000 C 
ATOM     48  C37 UNL A   1      43.123  29.455  35.400  1.00  0.00    +0.000 C 
ATOM     49  C38 UNL A   1      42.987  28.959  34.114  1.00  0.00    +0.000 C 
ATOM     50  N5  UNL A   1      41.808  29.485  33.610  1.00  0.00    +0.000 N 
ATOM     51  C39 UNL A   1      43.866  28.072  33.397  1.00  0.00    +0.000 C 
ATOM     63  C46 UNL A   1      43.656  27.618  32.136  1.00  0.00    +0.000 C 
ATOM     64  N6  UNL A   1      42.596  27.882  31.281  1.00  0.00    +0.000 N 
ATOM     65  C47 UNL A   1      42.852  27.225  30.176  1.00  0.00    +0.000 C 
ATOM     66  C48 UNL A   1      42.034  27.126  28.918  1.00  0.00    +0.000 C 
ATOM     78  C55 UNL A   1      40.848  27.762  28.852  1.00  0.00    +0.000 C 
ATOM     79  C56 UNL A   1      39.947  27.754  27.703  1.00  0.00    +0.000 C 
ATOM     80  C57 UNL A   1      38.887  28.532  27.974  1.00  0.00    +0.000 C 
ATOM     81  C58 UNL A   1      39.019  29.065  29.330  1.00  0.00    +0.000 C 
ATOM     82  N7  UNL A   1      40.208  28.548  29.778  1.00  0.00    +0.000 N 
ATOM     83  C59 UNL A   1      44.124  26.489  30.198  1.00  0.00    +0.000 C 
ATOM     84  C60 UNL A   1      44.556  26.732  31.428  1.00  0.00    +0.000 C 
ATOM     85  C61 UNL A   1      37.963  31.631  33.050  1.00  0.00    +0.000 C 
ATOM     86  C62 UNL A   1      37.392  31.285  31.905  1.00  0.00    +0.000 C 
ATOM    119  H28 UNL A   1      41.826  30.739  36.579  1.00  0.00    +0.000 H 
ATOM    120  H29 UNL A   1      43.910  29.266  36.041  1.00  0.00    +0.000 H 
ATOM    121  H30 UNL A   1      41.452  29.310  32.709  1.00  0.00    +0.000 H 
ATOM    122  H31 UNL A   1      40.100  27.234  26.825  1.00  0.00    +0.000 H 
ATOM    123  H32 UNL A   1      38.104  28.722  27.330  1.00  0.00    +0.000 H 
ATOM    124  H33 UNL A   1      40.568  28.722  30.677  1.00  0.00    +0.000 H 
ATOM    125  H34 UNL A   1      44.567  25.930  29.451  1.00  0.00    +0.000 H 
ATOM    126  H35 UNL A   1      45.422  26.340  31.829  1.00  0.00    +0.000 H 
ATOM    127  H36 UNL A   1      37.565  32.308  33.719  1.00  0.00    +0.000 H 
ATOM    128  H37 UNL A   1      36.475  31.564  31.525  1.00  0.00    +0.000 H 
ENDROOT
BRANCH   30   29
ATOM    129  H38 UNL A   1      36.029  28.423  29.167  1.00  0.00    +0.000 H 
ATOM    130  H39 UNL A   1      34.098  29.107  27.871  1.00  0.00    +0.000 H 
ATOM    117  H26 UNL A   1      35.495  33.075  27.872  1.00  0.00    +0.000 H 
ATOM    118  H27 UNL A   1      37.524  32.357  28.995  1.00  0.00    +0.000 H 
ATOM     87  C63 UNL A   1      35.928  29.407  28.874  1.00  0.00    +0.000 C 
ATOM     88  C64 UNL A   1      34.798  29.807  28.163  1.00  0.00    +0.000 C 
ATOM     26  C21 UNL A   1      34.612  31.155  27.846  1.00  0.00    +0.000 C 
ATOM     27  C22 UNL A   1      35.613  32.086  28.140  1.00  0.00    +0.000 C 
ATOM     28  C23 UNL A   1      36.776  31.674  28.798  1.00  0.00    +0.000 C 
ATOM     29  C24 UNL A   1      36.930  30.337  29.193  1.00  0.00    +0.000 C 
BRANCH   26   24
ATOM     25  O2  UNL A   1      32.991  32.763  27.322  1.00  0.00    +0.000 O 
ATOM     24  C20 UNL A   1      33.390  31.618  27.150  1.00  0.00    +0.000 C 
BRANCH   24   23
ATOM    116  H25 UNL A   1      33.044  30.735  25.385  1.00  0.00    +0.000 H 
ATOM     23  N3  UNL A   1      32.707  30.773  26.309  1.00  0.00    +0.000 N 
BRANCH   23   22
ATOM    114  H23 UNL A   1      31.419  29.869  27.647  1.00  0.00    +0.000 H 
ATOM    115  H24 UNL A   1      30.704  30.362  26.109  1.00  0.00    +0.000 H 
ATOM     22  C19 UNL A   1      31.556  29.927  26.587  1.00  0.00    +0.000 C 
BRANCH   22   21
ATOM    113  H22 UNL A   1      30.914  28.343  25.375  1.00  0.00    +0.000 H 
ATOM     21  C18 UNL A   1      31.738  28.515  26.035  1.00  0.00    +0.000 C 
ATOM    112  H21 UNL A   1      31.767  27.836  26.862  1.00  0.00    +0.000 H 
BRANCH   21   20
ATOM     20  C17 UNL A   1      33.008  28.305  25.203  1.00  0.00    +0.000 C 
ATOM    110  H19 UNL A   1      32.724  28.270  24.172  1.00  0.00    +0.000 H 
ATOM    111  H20 UNL A   1      33.655  29.122  25.448  1.00  0.00    +0.000 H 
BRANCH   20   19
ATOM     19  C16 UNL A   1      33.806  27.032  25.516  1.00  0.00    +0.000 C 
ATOM    108  H17 UNL A   1      34.291  26.717  24.617  1.00  0.00    +0.000 H 
ATOM    109  H18 UNL A   1      34.483  27.294  26.301  1.00  0.00    +0.000 H 
BRANCH   19   18
ATOM     18  C15 UNL A   1      32.980  25.854  26.046  1.00  0.00    +0.000 C 
ATOM    107  H16 UNL A   1      32.256  25.620  25.294  1.00  0.00    +0.000 H 
ATOM    106  H15 UNL A   1      32.533  26.146  26.973  1.00  0.00    +0.000 H 
BRANCH   18   17
ATOM     17  C14 UNL A   1      33.796  24.581  26.286  1.00  0.00    +0.000 C 
ATOM    105  H14 UNL A   1      33.434  24.121  27.182  1.00  0.00    +0.000 H 
ATOM    104  H13 UNL A   1      34.829  24.844  26.377  1.00  0.00    +0.000 H 
BRANCH   17   16
ATOM    103  H12 UNL A   1      33.391  22.724  25.487  1.00  0.00    +0.000 H 
ATOM     16  N2  UNL A   1      33.647  23.632  25.203  1.00  0.00    +0.000 N 
BRANCH   16   14
ATOM     14  C13 UNL A   1      33.801  23.781  23.858  1.00  0.00    +0.000 C 
ATOM     15  O1  UNL A   1      34.945  24.033  23.459  1.00  0.00    +0.000 O 
BRANCH   14   12
ATOM     99  H8  UNL A   1      32.013  22.888  23.219  1.00  0.00    +0.000 H 
ATOM     12  C11 UNL A   1      32.645  23.671  22.853  1.00  0.00    +0.000 C 
BRANCH   12   11
ATOM     97  H6  UNL A   1      31.416  28.027  21.711  1.00  0.00    +0.000 H 
ATOM     98  H7  UNL A   1      32.819  26.077  21.504  1.00  0.00    +0.000 H 
ATOM    131  H40 UNL A   1      30.331  24.011  24.170  1.00  0.00    +0.000 H 
ATOM    132  H41 UNL A   1      28.852  25.914  24.269  1.00  0.00    +0.000 H 
ATOM      8  C7  UNL A   1      30.007  27.162  23.021  1.00  0.00    +0.000 C 
ATOM      9  C8  UNL A   1      31.168  27.170  22.230  1.00  0.00    +0.000 C 
ATOM     10  C9  UNL A   1      31.996  26.046  22.126  1.00  0.00    +0.000 C 
ATOM     11  C10 UNL A   1      31.728  24.883  22.852  1.00  0.00    +0.000 C 
ATOM     89  C65 UNL A   1      30.565  24.862  23.635  1.00  0.00    +0.000 C 
ATOM     90  C66 UNL A   1      29.713  25.973  23.704  1.00  0.00    +0.000 C 
BRANCH    8    7
ATOM      3  C3  UNL A   1      28.842  30.775  23.369  1.00  0.00    +0.000 C 
ATOM      4  C4  UNL A   1      27.472  30.553  23.286  1.00  0.00    +0.000 C 
ATOM      5  N1  UNL A   1      26.906  29.336  23.128  1.00  0.00    +0.000 N 
ATOM    133  H42 UNL A   1      30.701  29.777  23.362  1.00  0.00    +0.000 H 
ATOM      7  C6  UNL A   1      29.149  28.361  23.130  1.00  0.00    +0.000 C 
ATOM      6  C5  UNL A   1      27.755  28.282  23.063  1.00  0.00    +0.000 C 
ATOM     91  C67 UNL A   1      29.678  29.653  23.295  1.00  0.00    +0.000 C 
ATOM     95  H4  UNL A   1      26.847  31.371  23.348  1.00  0.00    +0.000 H 
ATOM     96  H5  UNL A   1      27.339  27.344  22.953  1.00  0.00    +0.000 H 
BRANCH    3    2
ATOM      2  C2  UNL A   1      29.349  32.134  23.588  1.00  0.00    +0.000 C 
ATOM     94  H3  UNL A   1      30.073  32.269  24.309  1.00  0.00    +0.000 H 
BRANCH    2    1
ATOM      1  C1  UNL A   1      28.931  33.212  22.911  1.00  0.00    +0.000 C 
ATOM     92  H1  UNL A   1      29.423  34.113  23.021  1.00  0.00    +0.000 H 
ATOM     93  H2  UNL A   1      28.117  33.142  22.280  1.00  0.00    +0.000 H 
ENDBRANCH    2    1
ENDBRANCH    3    2
ENDBRANCH    8    7
ENDBRANCH   12   11
BRANCH   12   13
ATOM    101  H10 UNL A   1      33.064  22.061  21.506  1.00  0.00    +0.000 H 
ATOM    100  H9  UNL A   1      32.358  23.466  20.743  1.00  0.00    +0.000 H 
ATOM     13  C12 UNL A   1      33.056  23.131  21.481  1.00  0.00    +0.000 C 
ATOM    102  H11 UNL A   1      34.034  23.490  21.236  1.00  0.00    +0.000 H 
ENDBRANCH   12   13
ENDBRANCH   14   12
ENDBRANCH   16   14
ENDBRANCH   17   16
ENDBRANCH   18   17
ENDBRANCH   19   18
ENDBRANCH   20   19
ENDBRANCH   21   20
ENDBRANCH   22   21
ENDBRANCH   23   22
ENDBRANCH   24   23
ENDBRANCH   26   24
ENDBRANCH   30   29
BRANCH   34   35
ATOM     35  C29 UNL A   1      39.482  31.900  35.468  1.00  0.00    +0.000 C 
ATOM     36  C30 UNL A   1      39.902  33.234  35.576  1.00  0.00    +0.000 C 
ATOM     37  F1  UNL A   1      40.792  33.734  34.706  1.00  0.00    +0.000 F 
ATOM     38  C31 UNL A   1      39.438  34.050  36.604  1.00  0.00    +0.000 C 
ATOM     39  F2  UNL A   1      39.890  35.307  36.716  1.00  0.00    +0.000 F 
ATOM     40  C32 UNL A   1      38.521  33.560  37.522  1.00  0.00    +0.000 C 
ATOM     41  F3  UNL A   1      38.072  34.348  38.509  1.00  0.00    +0.000 F 
ATOM     42  C33 UNL A   1      38.076  32.251  37.421  1.00  0.00    +0.000 C 
ATOM     43  F4  UNL A   1      37.181  31.780  38.300  1.00  0.00    +0.000 F 
ATOM     44  C34 UNL A   1      38.560  31.423  36.411  1.00  0.00    +0.000 C 
ATOM     45  F5  UNL A   1      38.121  30.157  36.348  1.00  0.00    +0.000 F 
ENDBRANCH   34   35
BRANCH   51   52
ATOM     52  C40 UNL A   1      45.100  27.592  34.101  1.00  0.00    +0.000 C 
ATOM     53  C41 UNL A   1      46.306  28.304  34.036  1.00  0.00    +0.000 C 
ATOM     54  F6  UNL A   1      46.394  29.416  33.291  1.00  0.00    +0.000 F 
ATOM     55  C42 UNL A   1      47.439  27.855  34.709  1.00  0.00    +0.000 C 
ATOM     56  F7  UNL A   1      48.593  28.527  34.599  1.00  0.00    +0.000 F 
ATOM     57  C43 UNL A   1      47.379  26.704  35.482  1.00  0.00    +0.000 C 
ATOM     58  F8  UNL A   1      48.469  26.275  36.133  1.00  0.00    +0.000 F 
ATOM     59  C44 UNL A   1      46.192  25.993  35.572  1.00  0.00    +0.000 C 
ATOM     60  F9  UNL A   1      46.130  24.886  36.326  1.00  0.00    +0.000 F 
ATOM     61  C45 UNL A   1      45.065  26.426  34.880  1.00  0.00    +0.000 C 
ATOM     62  F10 UNL A   1      43.933  25.711  34.976  1.00  0.00    +0.000 F 
ENDBRANCH   51   52
BRANCH   66   67
ATOM     67  C49 UNL A   1      42.502  26.312  27.768  1.00  0.00    +0.000 C 
ATOM     68  C50 UNL A   1      42.093  24.980  27.620  1.00  0.00    +0.000 C 
ATOM     69  F11 UNL A   1      41.289  24.421  28.536  1.00  0.00    +0.000 F 
ATOM     70  C51 UNL A   1      42.539  24.205  26.552  1.00  0.00    +0.000 C 
ATOM     71  F12 UNL A   1      42.165  22.922  26.456  1.00  0.00    +0.000 F 
ATOM     72  C52 UNL A   1      43.380  24.756  25.597  1.00  0.00    +0.000 C 
ATOM     73  F13 UNL A   1      43.804  24.012  24.566  1.00  0.00    +0.000 F 
ATOM     74  C53 UNL A   1      43.786  26.077  25.715  1.00  0.00    +0.000 C 
ATOM     75  F14 UNL A   1      44.588  26.616  24.786  1.00  0.00    +0.000 F 
ATOM     76  C54 UNL A   1      43.360  26.845  26.796  1.00  0.00    +0.000 C 
ATOM     77  F15 UNL A   1      43.775  28.117  26.890  1.00  0.00    +0.000 F 
ENDBRANCH   66   67
TORSDOF 20
ENDMDL
MODEL 2
REMARK VINA RESULT:     -10.5      4.301      7.522
ROOT
ATOM     30  C25 UNL A   1      41.276  26.164  27.485  1.00  0.00    +0.000 C 
ATOM     31  C26 UNL A   1      40.621  27.251  28.291  1.00  0.00    +0.000 C 
ATOM     32  N4  UNL A   1      41.112  28.397  28.692  1.00  0.00    +0.000 N 
ATOM     33  C27 UNL A   1      40.077  29.039  29.358  1.00  0.00    +0.000 C 
ATOM     34  C28 UNL A   1      40.097  30.231  30.004  1.00  0.00    +0.000 C 
ATOM     46  C35 UNL A   1      41.259  31.073  30.115  1.00  0.00    +0.000 C 
ATOM     47  C36 UNL A   1      41.397  32.268  30.798  1.00  0.00    +0.000 C 
ATOM     48  C37 UNL A   1      42.697  32.742  30.593  1.00  0.00    +0.000 C 
ATOM     49  C38 UNL A   1      43.382  31.822  29.817  1.00  0.00    +0.000 C 
ATOM     50  N5  UNL A   1      42.486  30.804  29.528  1.00  0.00    +0.000 N 
ATOM     51  C39 UNL A   1      44.751  31.865  29.371  1.00  0.00    +0.000 C 
ATOM     63  C46 UNL A   1      45.355  30.912  28.619  1.00  0.00    +0.000 C 
ATOM     64  N6  UNL A   1      44.829  29.726  28.129  1.00  0.00    +0.000 N 
ATOM     65  C47 UNL A   1      45.797  29.155  27.453  1.00  0.00    +0.000 C 
ATOM     66  C48 UNL A   1      45.800  27.837  26.728  1.00  0.00    +0.000 C 
ATOM     78  C55 UNL A   1      44.692  27.072  26.748  1.00  0.00    +0.000 C 
ATOM     79  C56 UNL A   1      44.549  25.773  26.095  1.00  0.00    +0.000 C 
ATOM     80  C57 UNL A   1      43.298  25.325  26.285  1.00  0.00    +0.000 C 
ATOM     81  C58 UNL A   1      42.562  26.290  27.102  1.00  0.00    +0.000 C 
ATOM     82  N7  UNL A   1      43.472  27.290  27.338  1.00  0.00    +0.000 N 
ATOM     83  C59 UNL A   1      47.043  29.933  27.417  1.00  0.00    +0.000 C 
ATOM     84  C60 UNL A   1      46.731  30.977  28.173  1.00  0.00    +0.000 C 
ATOM     85  C61 UNL A   1      38.918  28.177  29.270  1.00  0.00    +0.000 C 
ATOM     86  C62 UNL A   1      39.219  27.031  28.676  1.00  0.00    +0.000 C 
ATOM    119  H28 UNL A   1      40.666  32.731  31.362  1.00  0.00    +0.000 H 
ATOM    120  H29 UNL A   1      43.081  33.629  30.958  1.00  0.00    +0.000 H 
ATOM    121  H30 UNL A   1      42.691  30.009  28.985  1.00  0.00    +0.000 H 
ATOM    122  H31 UNL A   1      45.289  25.280  25.573  1.00  0.00    +0.000 H 
ATOM    123  H32 UNL A   1      42.916  24.441  25.914  1.00  0.00    +0.000 H 
ATOM    124  H33 UNL A   1      43.270  28.087  27.878  1.00  0.00    +0.000 H 
ATOM    125  H34 UNL A   1      47.929  29.724  26.929  1.00  0.00    +0.000 H 
ATOM    126  H35 UNL A   1      47.386  31.737  28.413  1.00  0.00    +0.000 H 
ATOM    127  H36 UNL A   1      37.981  28.422  29.623  1.00  0.00    +0.000 H 
ATOM    128  H37 UNL A   1      38.624  26.202  28.523  1.00  0.00    +0.000 H 
ENDROOT
BRANCH   30   29
ATOM    129  H38 UNL A   1      41.747  23.583  28.020  1.00  0.00    +0.000 H 
ATOM    130  H39 UNL A   1      40.546  21.629  27.235  1.00  0.00    +0.000 H 
ATOM    117  H26 UNL A   1      37.741  24.112  25.321  1.00  0.00    +0.000 H 
ATOM    118  H27 UNL A   1      39.052  26.061  25.937  1.00  0.00    +0.000 H 
ATOM     87  C63 UNL A   1      40.909  23.697  27.429  1.00  0.00    +0.000 C 
ATOM     88  C64 UNL A   1      40.197  22.574  27.011  1.00  0.00    +0.000 C 
ATOM     26  C21 UNL A   1      39.010  22.727  26.289  1.00  0.00    +0.000 C 
ATOM     27  C22 UNL A   1      38.597  24.001  25.888  1.00  0.00    +0.000 C 
ATOM     28  C23 UNL A   1      39.345  25.123  26.253  1.00  0.00    +0.000 C 
ATOM     29  C24 UNL A   1      40.492  24.982  27.049  1.00  0.00    +0.000 C 
BRANCH   26   24
ATOM     25  O2  UNL A   1      38.755  20.537  25.498  1.00  0.00    +0.000 O 
ATOM     24  C20 UNL A   1      38.199  21.555  25.890  1.00  0.00    +0.000 C 
BRANCH   24   23
ATOM    116  H25 UNL A   1      36.457  21.762  26.858  1.00  0.00    +0.000 H 
ATOM     23  N3  UNL A   1      36.827  21.602  25.960  1.00  0.00    +0.000 N 
BRANCH   23   22
ATOM    114  H23 UNL A   1      35.917  20.461  24.499  1.00  0.00    +0.000 H 
ATOM    115  H24 UNL A   1      34.875  21.627  25.320  1.00  0.00    +0.000 H 
ATOM     22  C19 UNL A   1      35.843  21.450  24.899  1.00  0.00    +0.000 C 
BRANCH   22   21
ATOM    113  H22 UNL A   1      35.590  22.040  22.904  1.00  0.00    +0.000 H 
ATOM     21  C18 UNL A   1      36.059  22.456  23.771  1.00  0.00    +0.000 C 
ATOM    112  H21 UNL A   1      37.113  22.603  23.654  1.00  0.00    +0.000 H 
BRANCH   21   20
ATOM     20  C17 UNL A   1      35.410  23.827  23.995  1.00  0.00    +0.000 C 
ATOM    110  H19 UNL A   1      36.164  24.574  23.857  1.00  0.00    +0.000 H 
ATOM    111  H20 UNL A   1      34.606  23.887  23.291  1.00  0.00    +0.000 H 
BRANCH   20   19
ATOM     19  C16 UNL A   1      34.775  24.046  25.375  1.00  0.00    +0.000 C 
ATOM    108  H17 UNL A   1      34.022  23.300  25.514  1.00  0.00    +0.000 H 
ATOM    109  H18 UNL A   1      35.575  23.986  26.081  1.00  0.00    +0.000 H 
BRANCH   19   18
ATOM     18  C15 UNL A   1      34.126  25.419  25.587  1.00  0.00    +0.000 C 
ATOM    107  H16 UNL A   1      34.825  26.009  26.142  1.00  0.00    +0.000 H 
ATOM    106  H15 UNL A   1      33.201  25.278  26.106  1.00  0.00    +0.000 H 
BRANCH   18   17
ATOM     17  C14 UNL A   1      33.838  26.177  24.290  1.00  0.00    +0.000 C 
ATOM    105  H14 UNL A   1      33.947  25.492  23.474  1.00  0.00    +0.000 H 
ATOM    104  H13 UNL A   1      34.527  26.992  24.205  1.00  0.00    +0.000 H 
BRANCH   17   16
ATOM    103  H12 UNL A   1      32.396  27.618  24.601  1.00  0.00    +0.000 H 
ATOM     16  N2  UNL A   1      32.488  26.700  24.257  1.00  0.00    +0.000 N 
BRANCH   16   14
ATOM     14  C13 UNL A   1      31.323  26.136  23.832  1.00  0.00    +0.000 C 
ATOM     15  O1  UNL A   1      30.834  26.598  22.794  1.00  0.00    +0.000 O 
BRANCH   14   12
ATOM     99  H8  UNL A   1      29.643  24.913  24.121  1.00  0.00    +0.000 H 
ATOM     12  C11 UNL A   1      30.608  24.999  24.577  1.00  0.00    +0.000 C 
BRANCH   12   11
ATOM     97  H6  UNL A   1      32.542  21.653  21.960  1.00  0.00    +0.000 H 
ATOM     98  H7  UNL A   1      31.754  23.904  22.313  1.00  0.00    +0.000 H 
ATOM    131  H40 UNL A   1      30.930  22.981  26.318  1.00  0.00    +0.000 H 
ATOM    132  H41 UNL A   1      31.848  20.773  26.001  1.00  0.00    +0.000 H 
ATOM      8  C7  UNL A   1      32.258  20.993  23.943  1.00  0.00    +0.000 C 
ATOM      9  C8  UNL A   1      32.213  21.930  22.899  1.00  0.00    +0.000 C 
ATOM     10  C9  UNL A   1      31.734  23.231  23.096  1.00  0.00    +0.000 C 
ATOM     11  C10 UNL A   1      31.229  23.633  24.334  1.00  0.00    +0.000 C 
ATOM     89  C65 UNL A   1      31.281  22.708  25.387  1.00  0.00    +0.000 C 
ATOM     90  C66 UNL A   1      31.801  21.420  25.199  1.00  0.00    +0.000 C 
BRANCH    8    7
ATOM      3  C3  UNL A   1      34.194  17.728  24.291  1.00  0.00    +0.000 C 
ATOM      4  C4  UNL A   1      33.596  17.028  23.248  1.00  0.00    +0.000 C 
ATOM      5  N1  UNL A   1      32.626  17.529  22.453  1.00  0.00    +0.000 N 
ATOM    133  H42 UNL A   1      34.188  19.596  25.270  1.00  0.00    +0.000 H 
ATOM      7  C6  UNL A   1      32.754  19.619  23.716  1.00  0.00    +0.000 C 
ATOM      6  C5  UNL A   1      32.241  18.804  22.704  1.00  0.00    +0.000 C 
ATOM     91  C67 UNL A   1      33.760  19.042  24.511  1.00  0.00    +0.000 C 
ATOM     95  H4  UNL A   1      33.913  16.062  23.072  1.00  0.00    +0.000 H 
ATOM     96  H5  UNL A   1      31.508  19.205  22.098  1.00  0.00    +0.000 H 
BRANCH    3    2
ATOM      2  C2  UNL A   1      35.273  17.103  25.064  1.00  0.00    +0.000 C 
ATOM     94  H3  UNL A   1      36.011  17.716  25.443  1.00  0.00    +0.000 H 
BRANCH    2    1
ATOM      1  C1  UNL A   1      35.361  15.790  25.310  1.00  0.00    +0.000 C 
ATOM     92  H1  UNL A   1      36.254  15.295  25.154  1.00  0.00    +0.000 H 
ATOM     93  H2  UNL A   1      34.537  15.273  25.654  1.00  0.00    +0.000 H 
ENDBRANCH    2    1
ENDBRANCH    3    2
ENDBRANCH    8    7
ENDBRANCH   12   11
BRANCH   12   13
ATOM    101  H10 UNL A   1      29.733  26.270  26.060  1.00  0.00    +0.000 H 
ATOM    100  H9  UNL A   1      29.609  24.564  26.418  1.00  0.00    +0.000 H 
ATOM     13  C12 UNL A   1      30.244  25.330  26.026  1.00  0.00    +0.000 C 
ATOM    102  H11 UNL A   1      31.137  25.389  26.613  1.00  0.00    +0.000 H 
ENDBRANCH   12   13
ENDBRANCH   14   12
ENDBRANCH   16   14
ENDBRANCH   17   16
ENDBRANCH   18   17
ENDBRANCH   19   18
ENDBRANCH   20   19
ENDBRANCH   21   20
ENDBRANCH   22   21
ENDBRANCH   23   22
ENDBRANCH   24   23
ENDBRANCH   26   24
ENDBRANCH   30   29
BRANCH   34   35
ATOM     35  C29 UNL A   1      38.821  30.693  30.643  1.00  0.00    +0.000 C 
ATOM     36  C30 UNL A   1      38.588  30.529  32.017  1.00  0.00    +0.000 C 
ATOM     37  F1  UNL A   1      39.496  29.910  32.786  1.00  0.00    +0.000 F 
ATOM     38  C31 UNL A   1      37.400  30.964  32.599  1.00  0.00    +0.000 C 
ATOM     39  F2  UNL A   1      37.179  30.753  33.904  1.00  0.00    +0.000 F 
ATOM     40  C32 UNL A   1      36.440  31.602  31.828  1.00  0.00    +0.000 C 
ATOM     41  F3  UNL A   1      35.299  32.025  32.391  1.00  0.00    +0.000 F 
ATOM     42  C33 UNL A   1      36.659  31.795  30.473  1.00  0.00    +0.000 C 
ATOM     43  F4  UNL A   1      35.737  32.422  29.729  1.00  0.00    +0.000 F 
ATOM     44  C34 UNL A   1      37.833  31.335  29.882  1.00  0.00    +0.000 C 
ATOM     45  F5  UNL A   1      38.010  31.524  28.565  1.00  0.00    +0.000 F 
ENDBRANCH   34   35
BRANCH   51   52
ATOM     52  C40 UNL A   1      45.583  33.042  29.785  1.00  0.00    +0.000 C 
ATOM     53  C41 UNL A   1      45.628  34.215  29.017  1.00  0.00    +0.000 C 
ATOM     54  F6  UNL A   1      44.959  34.289  27.857  1.00  0.00    +0.000 F 
ATOM     55  C42 UNL A   1      46.392  35.306  29.424  1.00  0.00    +0.000 C 
ATOM     56  F7  UNL A   1      46.456  36.401  28.655  1.00  0.00    +0.000 F 
ATOM     57  C43 UNL A   1      47.100  35.255  30.616  1.00  0.00    +0.000 C 
ATOM     58  F8  UNL A   1      47.831  36.307  31.008  1.00  0.00    +0.000 F 
ATOM     59  C44 UNL A   1      47.056  34.110  31.398  1.00  0.00    +0.000 C 
ATOM     60  F9  UNL A   1      47.731  34.063  32.555  1.00  0.00    +0.000 F 
ATOM     61  C45 UNL A   1      46.314  33.009  30.981  1.00  0.00    +0.000 C 
ATOM     62  F10 UNL A   1      46.300  31.910  31.752  1.00  0.00    +0.000 F 
ENDBRANCH   51   52
BRANCH   66   67
ATOM     67  C49 UNL A   1      47.016  27.360  26.022  1.00  0.00    +0.000 C 
ATOM     68  C50 UNL A   1      47.201  27.621  24.658  1.00  0.00    +0.000 C 
ATOM     69  F11 UNL A   1      46.262  28.288  23.971  1.00  0.00    +0.000 F 
ATOM     70  C51 UNL A   1      48.332  27.165  23.985  1.00  0.00    +0.000 C 
ATOM     71  F12 UNL A   1      48.465  27.394  22.672  1.00  0.00    +0.000 F 
ATOM     72  C52 UNL A   1      49.313  26.464  24.670  1.00  0.00    +0.000 C 
ATOM     73  F13 UNL A   1      50.403  26.030  24.024  1.00  0.00    +0.000 F 
ATOM     74  C53 UNL A   1      49.158  26.206  26.024  1.00  0.00    +0.000 C 
ATOM     75  F14 UNL A   1      50.110  25.539  26.691  1.00  0.00    +0.000 F 
ATOM     76  C54 UNL A   1      48.016  26.640  26.692  1.00  0.00    +0.000 C 
ATOM     77  F15 UNL A   1      47.888  26.370  28.000  1.00  0.00    +0.000 F 
ENDBRANCH   66   67
TORSDOF 20
ENDMDL
MODEL 3
REMARK VINA RESULT:     -10.5      1.079      7.278
ROOT
ATOM     30  C25 UNL A   1      37.903  30.161  29.901  1.00  0.00    +0.000 C 
ATOM     31  C26 UNL A   1      38.931  29.232  29.318  1.00  0.00    +0.000 C 
ATOM     32  N4  UNL A   1      40.029  28.765  29.860  1.00  0.00    +0.000 N 
ATOM     33  C27 UNL A   1      40.586  27.917  28.912  1.00  0.00    +0.000 C 
ATOM     34  C28 UNL A   1      41.754  27.233  28.973  1.00  0.00    +0.000 C 
ATOM     46  C35 UNL A   1      42.663  27.278  30.088  1.00  0.00    +0.000 C 
ATOM     47  C36 UNL A   1      43.899  26.669  30.220  1.00  0.00    +0.000 C 
ATOM     48  C37 UNL A   1      44.401  26.967  31.491  1.00  0.00    +0.000 C 
ATOM     49  C38 UNL A   1      43.497  27.795  32.135  1.00  0.00    +0.000 C 
ATOM     50  N5  UNL A   1      42.434  27.975  31.264  1.00  0.00    +0.000 N 
ATOM     51  C39 UNL A   1      43.593  28.381  33.448  1.00  0.00    +0.000 C 
ATOM     63  C46 UNL A   1      42.666  29.198  34.006  1.00  0.00    +0.000 C 
ATOM     64  N6  UNL A   1      41.466  29.646  33.473  1.00  0.00    +0.000 N 
ATOM     65  C47 UNL A   1      40.921  30.400  34.397  1.00  0.00    +0.000 C 
ATOM     66  C48 UNL A   1      39.627  31.167  34.357  1.00  0.00    +0.000 C 
ATOM     78  C55 UNL A   1      38.879  31.137  33.237  1.00  0.00    +0.000 C 
ATOM     79  C56 UNL A   1      37.608  31.831  33.050  1.00  0.00    +0.000 C 
ATOM     80  C57 UNL A   1      37.124  31.535  31.834  1.00  0.00    +0.000 C 
ATOM     81  C58 UNL A   1      38.068  30.657  31.143  1.00  0.00    +0.000 C 
ATOM     82  N7  UNL A   1      39.085  30.482  32.048  1.00  0.00    +0.000 N 
ATOM     83  C59 UNL A   1      41.706  30.491  35.637  1.00  0.00    +0.000 C 
ATOM     84  C60 UNL A   1      42.776  29.771  35.332  1.00  0.00    +0.000 C 
ATOM     85  C61 UNL A   1      39.684  27.896  27.781  1.00  0.00    +0.000 C 
ATOM     86  C62 UNL A   1      38.679  28.742  27.955  1.00  0.00    +0.000 C 
ATOM    119  H28 UNL A   1      44.369  26.093  29.503  1.00  0.00    +0.000 H 
ATOM    120  H29 UNL A   1      45.293  26.627  31.883  1.00  0.00    +0.000 H 
ATOM    121  H30 UNL A   1      41.634  28.517  31.453  1.00  0.00    +0.000 H 
ATOM    122  H31 UNL A   1      37.156  32.449  33.741  1.00  0.00    +0.000 H 
ATOM    123  H32 UNL A   1      36.229  31.874  31.447  1.00  0.00    +0.000 H 
ATOM    124  H33 UNL A   1      39.885  29.940  31.863  1.00  0.00    +0.000 H 
ATOM    125  H34 UNL A   1      41.482  30.986  36.515  1.00  0.00    +0.000 H 
ATOM    126  H35 UNL A   1      43.585  29.637  35.958  1.00  0.00    +0.000 H 
ATOM    127  H36 UNL A   1      39.808  27.302  26.947  1.00  0.00    +0.000 H 
ATOM    128  H37 UNL A   1      37.918  28.991  27.304  1.00  0.00    +0.000 H 
ENDROOT
BRANCH   30   29
ATOM    129  H38 UNL A   1      35.853  28.535  29.328  1.00  0.00    +0.000 H 
ATOM    130  H39 UNL A   1      33.877  28.997  28.002  1.00  0.00    +0.000 H 
ATOM    117  H26 UNL A   1      35.094  33.000  27.569  1.00  0.00    +0.000 H 
ATOM    118  H27 UNL A   1      37.168  32.492  28.725  1.00  0.00    +0.000 H 
ATOM     87  C63 UNL A   1      35.705  29.478  28.937  1.00  0.00    +0.000 C 
ATOM     88  C64 UNL A   1      34.549  29.753  28.208  1.00  0.00    +0.000 C 
ATOM     26  C21 UNL A   1      34.298  31.052  27.757  1.00  0.00    +0.000 C 
ATOM     27  C22 UNL A   1      35.261  32.050  27.936  1.00  0.00    +0.000 C 
ATOM     28  C23 UNL A   1      36.449  31.760  28.612  1.00  0.00    +0.000 C 
ATOM     29  C24 UNL A   1      36.668  30.479  29.141  1.00  0.00    +0.000 C 
BRANCH   26   24
ATOM     25  O2  UNL A   1      32.641  32.541  27.035  1.00  0.00    +0.000 O 
ATOM     24  C20 UNL A   1      33.048  31.386  27.038  1.00  0.00    +0.000 C 
BRANCH   24   23
ATOM    116  H25 UNL A   1      31.535  30.091  26.828  1.00  0.00    +0.000 H 
ATOM     23  N3  UNL A   1      32.346  30.411  26.372  1.00  0.00    +0.000 N 
BRANCH   23   22
ATOM    114  H23 UNL A   1      31.745  29.810  24.490  1.00  0.00    +0.000 H 
ATOM    115  H24 UNL A   1      33.430  30.321  24.629  1.00  0.00    +0.000 H 
ATOM     22  C19 UNL A   1      32.629  29.782  25.091  1.00  0.00    +0.000 C 
BRANCH   22   21
ATOM    113  H22 UNL A   1      32.175  27.756  25.374  1.00  0.00    +0.000 H 
ATOM     21  C18 UNL A   1      33.070  28.329  25.252  1.00  0.00    +0.000 C 
ATOM    112  H21 UNL A   1      33.727  28.272  26.095  1.00  0.00    +0.000 H 
BRANCH   21   20
ATOM     20  C17 UNL A   1      33.798  27.737  24.041  1.00  0.00    +0.000 C 
ATOM    110  H19 UNL A   1      33.329  28.115  23.157  1.00  0.00    +0.000 H 
ATOM    111  H20 UNL A   1      34.823  28.028  24.146  1.00  0.00    +0.000 H 
BRANCH   20   19
ATOM     19  C16 UNL A   1      33.806  26.204  23.952  1.00  0.00    +0.000 C 
ATOM    108  H17 UNL A   1      32.802  25.878  23.780  1.00  0.00    +0.000 H 
ATOM    109  H18 UNL A   1      34.480  25.958  23.159  1.00  0.00    +0.000 H 
BRANCH   19   18
ATOM     18  C15 UNL A   1      34.334  25.479  25.195  1.00  0.00    +0.000 C 
ATOM    107  H16 UNL A   1      33.479  25.153  25.750  1.00  0.00    +0.000 H 
ATOM    106  H15 UNL A   1      34.949  26.158  25.746  1.00  0.00    +0.000 H 
BRANCH   18   17
ATOM     17  C14 UNL A   1      35.160  24.229  24.881  1.00  0.00    +0.000 C 
ATOM    105  H14 UNL A   1      36.187  24.451  25.086  1.00  0.00    +0.000 H 
ATOM    104  H13 UNL A   1      35.018  23.969  23.853  1.00  0.00    +0.000 H 
BRANCH   17   16
ATOM    103  H12 UNL A   1      34.940  23.226  26.669  1.00  0.00    +0.000 H 
ATOM     16  N2  UNL A   1      34.772  23.104  25.707  1.00  0.00    +0.000 N 
BRANCH   16   14
ATOM     14  C13 UNL A   1      34.216  21.905  25.378  1.00  0.00    +0.000 C 
ATOM     15  O1  UNL A   1      34.992  21.027  24.982  1.00  0.00    +0.000 O 
BRANCH   14   12
ATOM     99  H8  UNL A   1      32.481  21.540  26.500  1.00  0.00    +0.000 H 
ATOM     12  C11 UNL A   1      32.709  21.618  25.457  1.00  0.00    +0.000 C 
BRANCH   12   11
ATOM     97  H6  UNL A   1      30.702  24.390  22.282  1.00  0.00    +0.000 H 
ATOM     98  H7  UNL A   1      31.914  22.409  22.931  1.00  0.00    +0.000 H 
ATOM    131  H40 UNL A   1      31.482  23.472  26.962  1.00  0.00    +0.000 H 
ATOM    132  H41 UNL A   1      30.151  25.378  26.319  1.00  0.00    +0.000 H 
ATOM      8  C7  UNL A   1      30.322  25.081  24.238  1.00  0.00    +0.000 C 
ATOM      9  C8  UNL A   1      30.851  24.196  23.285  1.00  0.00    +0.000 C 
ATOM     10  C9  UNL A   1      31.575  23.057  23.659  1.00  0.00    +0.000 C 
ATOM     11  C10 UNL A   1      31.847  22.785  25.001  1.00  0.00    +0.000 C 
ATOM     89  C65 UNL A   1      31.312  23.656  25.961  1.00  0.00    +0.000 C 
ATOM     90  C66 UNL A   1      30.551  24.772  25.587  1.00  0.00    +0.000 C 
BRANCH    8    7
ATOM      3  C3  UNL A   1      29.447  28.497  22.788  1.00  0.00    +0.000 C 
ATOM      4  C4  UNL A   1      28.082  28.484  23.057  1.00  0.00    +0.000 C 
ATOM      5  N1  UNL A   1      27.435  27.466  23.664  1.00  0.00    +0.000 N 
ATOM    133  H42 UNL A   1      31.205  27.354  23.017  1.00  0.00    +0.000 H 
ATOM      7  C6  UNL A   1      29.571  26.287  23.827  1.00  0.00    +0.000 C 
ATOM      6  C5  UNL A   1      28.194  26.407  24.036  1.00  0.00    +0.000 C 
ATOM     91  C67 UNL A   1      30.188  27.378  23.191  1.00  0.00    +0.000 C 
ATOM     95  H4  UNL A   1      27.528  29.307  22.772  1.00  0.00    +0.000 H 
ATOM     96  H5  UNL A   1      27.717  25.625  24.511  1.00  0.00    +0.000 H 
BRANCH    3    2
ATOM      2  C2  UNL A   1      30.057  29.676  22.165  1.00  0.00    +0.000 C 
ATOM     94  H3  UNL A   1      31.065  29.834  22.316  1.00  0.00    +0.000 H 
BRANCH    2    1
ATOM      1  C1  UNL A   1      29.390  30.561  21.413  1.00  0.00    +0.000 C 
ATOM     92  H1  UNL A   1      28.884  31.341  21.862  1.00  0.00    +0.000 H 
ATOM     93  H2  UNL A   1      29.381  30.463  20.386  1.00  0.00    +0.000 H 
ENDBRANCH    2    1
ENDBRANCH    3    2
ENDBRANCH    8    7
ENDBRANCH   12   11
BRANCH   12   13
ATOM    101  H10 UNL A   1      31.264  20.075  25.125  1.00  0.00    +0.000 H 
ATOM    100  H9  UNL A   1      32.495  20.179  23.889  1.00  0.00    +0.000 H 
ATOM     13  C12 UNL A   1      32.306  20.235  24.940  1.00  0.00    +0.000 C 
ATOM    102  H11 UNL A   1      32.877  19.485  25.447  1.00  0.00    +0.000 H 
ENDBRANCH   12   13
ENDBRANCH   14   12
ENDBRANCH   16   14
ENDBRANCH   17   16
ENDBRANCH   18   17
ENDBRANCH   19   18
ENDBRANCH   20   19
ENDBRANCH   21   20
ENDBRANCH   22   21
ENDBRANCH   23   22
ENDBRANCH   24   23
ENDBRANCH   26   24
ENDBRANCH   30   29
BRANCH   34   35
ATOM     35  C29 UNL A   1      42.117  26.377  27.794  1.00  0.00    +0.000 C 
ATOM     36  C30 UNL A   1      43.023  26.820  26.819  1.00  0.00    +0.000 C 
ATOM     37  F1  UNL A   1      43.557  28.047  26.900  1.00  0.00    +0.000 F 
ATOM     38  C31 UNL A   1      43.354  26.016  25.731  1.00  0.00    +0.000 C 
ATOM     39  F2  UNL A   1      44.183  26.478  24.786  1.00  0.00    +0.000 F 
ATOM     40  C32 UNL A   1      42.813  24.743  25.616  1.00  0.00    +0.000 C 
ATOM     41  F3  UNL A   1      43.136  23.969  24.571  1.00  0.00    +0.000 F 
ATOM     42  C33 UNL A   1      41.933  24.277  26.581  1.00  0.00    +0.000 C 
ATOM     43  F4  UNL A   1      41.420  23.044  26.477  1.00  0.00    +0.000 F 
ATOM     44  C34 UNL A   1      41.578  25.090  27.655  1.00  0.00    +0.000 C 
ATOM     45  F5  UNL A   1      40.713  24.616  28.564  1.00  0.00    +0.000 F 
ENDBRANCH   34   35
BRANCH   51   52
ATOM     52  C40 UNL A   1      44.822  28.087  34.255  1.00  0.00    +0.000 C 
ATOM     53  C41 UNL A   1      45.947  28.922  34.210  1.00  0.00    +0.000 C 
ATOM     54  F6  UNL A   1      45.965  29.987  33.394  1.00  0.00    +0.000 F 
ATOM     55  C42 UNL A   1      47.075  28.645  34.979  1.00  0.00    +0.000 C 
ATOM     56  F7  UNL A   1      48.155  29.432  34.889  1.00  0.00    +0.000 F 
ATOM     57  C43 UNL A   1      47.087  27.547  35.827  1.00  0.00    +0.000 C 
ATOM     58  F8  UNL A   1      48.171  27.284  36.569  1.00  0.00    +0.000 F 
ATOM     59  C44 UNL A   1      45.978  26.716  35.898  1.00  0.00    +0.000 C 
ATOM     60  F9  UNL A   1      45.985  25.661  36.724  1.00  0.00    +0.000 F 
ATOM     61  C45 UNL A   1      44.860  26.977  35.112  1.00  0.00    +0.000 C 
ATOM     62  F10 UNL A   1      43.806  26.149  35.193  1.00  0.00    +0.000 F 
ENDBRANCH   51   52
BRANCH   66   67
ATOM     67  C49 UNL A   1      39.187  31.978  35.519  1.00  0.00    +0.000 C 
ATOM     68  C50 UNL A   1      38.357  31.426  36.505  1.00  0.00    +0.000 C 
ATOM     69  F11 UNL A   1      37.934  30.158  36.389  1.00  0.00    +0.000 F 
ATOM     70  C51 UNL A   1      37.928  32.183  37.592  1.00  0.00    +0.000 C 
ATOM     71  F12 UNL A   1      37.103  31.642  38.498  1.00  0.00    +0.000 F 
ATOM     72  C52 UNL A   1      38.343  33.499  37.728  1.00  0.00    +0.000 C 
ATOM     73  F13 UNL A   1      37.934  34.227  38.777  1.00  0.00    +0.000 F 
ATOM     74  C53 UNL A   1      39.176  34.063  36.773  1.00  0.00    +0.000 C 
ATOM     75  F14 UNL A   1      39.588  35.331  36.909  1.00  0.00    +0.000 F 
ATOM     76  C54 UNL A   1      39.586  33.313  35.673  1.00  0.00    +0.000 C 
ATOM     77  F15 UNL A   1      40.384  33.886  34.760  1.00  0.00    +0.000 F 
ENDBRANCH   66   67
TORSDOF 20
ENDMDL
MODEL 4
REMARK VINA RESULT:     -10.3     19.973     26.176
ROOT
ATOM     30  C25 UNL A   1      53.341  19.841  11.424  1.00  0.00    +0.000 C 
ATOM     31  C26 UNL A   1      54.694  19.210  11.253  1.00  0.00    +0.000 C 
ATOM     32  N4  UNL A   1      55.692  19.143  12.100  1.00  0.00    +0.000 N 
ATOM     33  C27 UNL A   1      56.683  18.413  11.458  1.00  0.00    +0.000 C 
ATOM     34  C28 UNL A   1      57.931  18.116  11.896  1.00  0.00    +0.000 C 
ATOM     46  C35 UNL A   1      58.466  18.534  13.165  1.00  0.00    +0.000 C 
ATOM     47  C36 UNL A   1      59.738  18.334  13.674  1.00  0.00    +0.000 C 
ATOM     48  C37 UNL A   1      59.787  18.886  14.958  1.00  0.00    +0.000 C 
ATOM     49  C38 UNL A   1      58.559  19.465  15.233  1.00  0.00    +0.000 C 
ATOM     50  N5  UNL A   1      57.757  19.238  14.126  1.00  0.00    +0.000 N 
ATOM     51  C39 UNL A   1      58.146  20.174  16.418  1.00  0.00    +0.000 C 
ATOM     63  C46 UNL A   1      56.922  20.727  16.607  1.00  0.00    +0.000 C 
ATOM     64  N6  UNL A   1      55.833  20.747  15.748  1.00  0.00    +0.000 N 
ATOM     65  C47 UNL A   1      54.883  21.388  16.385  1.00  0.00    +0.000 C 
ATOM     66  C48 UNL A   1      53.492  21.729  15.925  1.00  0.00    +0.000 C 
ATOM     78  C55 UNL A   1      53.103  21.372  14.685  1.00  0.00    +0.000 C 
ATOM     79  C56 UNL A   1      51.791  21.637  14.102  1.00  0.00    +0.000 C 
ATOM     80  C57 UNL A   1      51.743  21.098  12.873  1.00  0.00    +0.000 C 
ATOM     81  C58 UNL A   1      53.034  20.479  12.571  1.00  0.00    +0.000 C 
ATOM     82  N7  UNL A   1      53.782  20.700  13.700  1.00  0.00    +0.000 N 
ATOM     83  C59 UNL A   1      55.258  21.824  17.738  1.00  0.00    +0.000 C 
ATOM     84  C60 UNL A   1      56.522  21.429  17.808  1.00  0.00    +0.000 C 
ATOM     85  C61 UNL A   1      56.153  18.019  10.171  1.00  0.00    +0.000 C 
ATOM     86  C62 UNL A   1      54.951  18.541   9.969  1.00  0.00    +0.000 C 
ATOM    119  H28 UNL A   1      60.516  17.859  13.189  1.00  0.00    +0.000 H 
ATOM    120  H29 UNL A   1      60.600  18.865  15.593  1.00  0.00    +0.000 H 
ATOM    121  H30 UNL A   1      56.822  19.533  14.035  1.00  0.00    +0.000 H 
ATOM    122  H31 UNL A   1      51.025  22.155  14.559  1.00  0.00    +0.000 H 
ATOM    123  H32 UNL A   1      50.926  21.117  12.243  1.00  0.00    +0.000 H 
ATOM    124  H33 UNL A   1      54.716  20.405  13.794  1.00  0.00    +0.000 H 
ATOM    125  H34 UNL A   1      54.687  22.310  18.448  1.00  0.00    +0.000 H 
ATOM    126  H35 UNL A   1      57.141  21.601  18.616  1.00  0.00    +0.000 H 
ATOM    127  H36 UNL A   1      56.645  17.413   9.498  1.00  0.00    +0.000 H 
ATOM    128  H37 UNL A   1      54.353  18.490   9.130  1.00  0.00    +0.000 H 
ENDROOT
BRANCH   30   29
ATOM    129  H38 UNL A   1      51.693  17.779  10.977  1.00  0.00    +0.000 H 
ATOM    130  H39 UNL A   1      50.082  17.485   9.189  1.00  0.00    +0.000 H 
ATOM    117  H26 UNL A   1      50.930  21.358   7.781  1.00  0.00    +0.000 H 
ATOM    118  H27 UNL A   1      52.683  21.576   9.446  1.00  0.00    +0.000 H 
ATOM     87  C63 UNL A   1      51.548  18.531  10.286  1.00  0.00    +0.000 C 
ATOM     88  C64 UNL A   1      50.594  18.377   9.282  1.00  0.00    +0.000 C 
ATOM     26  C21 UNL A   1      50.327  19.430   8.402  1.00  0.00    +0.000 C 
ATOM     27  C22 UNL A   1      51.098  20.595   8.455  1.00  0.00    +0.000 C 
ATOM     28  C23 UNL A   1      52.099  20.725   9.422  1.00  0.00    +0.000 C 
ATOM     29  C24 UNL A   1      52.314  19.706  10.361  1.00  0.00    +0.000 C 
BRANCH   26   24
ATOM     25  O2  UNL A   1      48.130  19.674   7.628  1.00  0.00    +0.000 O 
ATOM     24  C20 UNL A   1      49.273  19.319   7.369  1.00  0.00    +0.000 C 
BRANCH   24   23
ATOM    116  H25 UNL A   1      48.846  18.888   5.459  1.00  0.00    +0.000 H 
ATOM     23  N3  UNL A   1      49.571  18.823   6.122  1.00  0.00    +0.000 N 
BRANCH   23   22
ATOM    114  H23 UNL A   1      51.100  18.711   4.739  1.00  0.00    +0.000 H 
ATOM    115  H24 UNL A   1      51.544  18.325   6.404  1.00  0.00    +0.000 H 
ATOM     22  C19 UNL A   1      50.803  18.217   5.640  1.00  0.00    +0.000 C 
BRANCH   22   21
ATOM    113  H22 UNL A   1      51.225  16.212   6.081  1.00  0.00    +0.000 H 
ATOM     21  C18 UNL A   1      50.633  16.727   5.354  1.00  0.00    +0.000 C 
ATOM    112  H21 UNL A   1      50.947  16.544   4.346  1.00  0.00    +0.000 H 
BRANCH   21   20
ATOM     20  C17 UNL A   1      49.204  16.198   5.509  1.00  0.00    +0.000 C 
ATOM    110  H19 UNL A   1      49.146  15.675   6.441  1.00  0.00    +0.000 H 
ATOM    111  H20 UNL A   1      48.567  17.057   5.454  1.00  0.00    +0.000 H 
BRANCH   20   19
ATOM     19  C16 UNL A   1      48.721  15.248   4.404  1.00  0.00    +0.000 C 
ATOM    108  H17 UNL A   1      48.750  15.780   3.477  1.00  0.00    +0.000 H 
ATOM    109  H18 UNL A   1      49.373  14.402   4.436  1.00  0.00    +0.000 H 
BRANCH   19   18
ATOM     18  C15 UNL A   1      47.303  14.695   4.588  1.00  0.00    +0.000 C 
ATOM    107  H16 UNL A   1      46.991  14.966   5.575  1.00  0.00    +0.000 H 
ATOM    106  H15 UNL A   1      47.332  13.636   4.441  1.00  0.00    +0.000 H 
BRANCH   18   17
ATOM     17  C14 UNL A   1      46.275  15.287   3.621  1.00  0.00    +0.000 C 
ATOM    105  H14 UNL A   1      45.301  15.139   4.042  1.00  0.00    +0.000 H 
ATOM    104  H13 UNL A   1      46.365  14.793   2.676  1.00  0.00    +0.000 H 
BRANCH   17   16
ATOM    103  H12 UNL A   1      46.956  16.948   2.608  1.00  0.00    +0.000 H 
ATOM     16  N2  UNL A   1      46.468  16.709   3.429  1.00  0.00    +0.000 N 
BRANCH   16   14
ATOM     14  C13 UNL A   1      46.090  17.772   4.192  1.00  0.00    +0.000 C 
ATOM     15  O1  UNL A   1      45.798  17.529   5.369  1.00  0.00    +0.000 O 
BRANCH   14   12
ATOM     99  H8  UNL A   1      46.760  19.295   2.914  1.00  0.00    +0.000 H 
ATOM     12  C11 UNL A   1      45.996  19.209   3.659  1.00  0.00    +0.000 C 
BRANCH   12   11
ATOM     97  H6  UNL A   1      43.420  21.341   0.402  1.00  0.00    +0.000 H 
ATOM     98  H7  UNL A   1      45.521  20.816   1.461  1.00  0.00    +0.000 H 
ATOM    131  H40 UNL A   1      43.550  18.171   4.048  1.00  0.00    +0.000 H 
ATOM    132  H41 UNL A   1      41.472  18.591   2.898  1.00  0.00    +0.000 H 
ATOM      8  C7  UNL A   1      42.242  20.027   1.557  1.00  0.00    +0.000 C 
ATOM      9  C8  UNL A   1      43.439  20.652   1.170  1.00  0.00    +0.000 C 
ATOM     10  C9  UNL A   1      44.656  20.366   1.799  1.00  0.00    +0.000 C 
ATOM     11  C10 UNL A   1      44.720  19.482   2.878  1.00  0.00    +0.000 C 
ATOM     89  C65 UNL A   1      43.532  18.843   3.264  1.00  0.00    +0.000 C 
ATOM     90  C66 UNL A   1      42.322  19.098   2.605  1.00  0.00    +0.000 C 
BRANCH    8    7
ATOM      3  C3  UNL A   1      38.579  20.897   0.957  1.00  0.00    +0.000 C 
ATOM      4  C4  UNL A   1      38.620  20.986  -0.430  1.00  0.00    +0.000 C 
ATOM      5  N1  UNL A   1      39.730  20.788  -1.174  1.00  0.00    +0.000 N 
ATOM    133  H42 UNL A   1      39.782  20.482   2.641  1.00  0.00    +0.000 H 
ATOM      7  C6  UNL A   1      40.961  20.349   0.892  1.00  0.00    +0.000 C 
ATOM      6  C5  UNL A   1      40.859  20.470  -0.496  1.00  0.00    +0.000 C 
ATOM     91  C67 UNL A   1      39.774  20.567   1.611  1.00  0.00    +0.000 C 
ATOM     95  H4  UNL A   1      37.744  21.220  -0.923  1.00  0.00    +0.000 H 
ATOM     96  H5  UNL A   1      41.714  20.305  -1.051  1.00  0.00    +0.000 H 
BRANCH    3    2
ATOM      2  C2  UNL A   1      37.308  21.086   1.664  1.00  0.00    +0.000 C 
ATOM     94  H3  UNL A   1      36.468  21.284   1.100  1.00  0.00    +0.000 H 
BRANCH    2    1
ATOM      1  C1  UNL A   1      37.168  21.017   2.994  1.00  0.00    +0.000 C 
ATOM     92  H1  UNL A   1      37.999  20.891   3.594  1.00  0.00    +0.000 H 
ATOM     93  H2  UNL A   1      36.231  21.091   3.419  1.00  0.00    +0.000 H 
ENDBRANCH    2    1
ENDBRANCH    3    2
ENDBRANCH    8    7
ENDBRANCH   12   11
BRANCH   12   13
ATOM    101  H10 UNL A   1      46.511  19.840   5.638  1.00  0.00    +0.000 H 
ATOM    100  H9  UNL A   1      47.353  20.701   4.372  1.00  0.00    +0.000 H 
ATOM     13  C12 UNL A   1      46.415  20.281   4.668  1.00  0.00    +0.000 C 
ATOM    102  H11 UNL A   1      45.673  21.051   4.698  1.00  0.00    +0.000 H 
ENDBRANCH   12   13
ENDBRANCH   14   12
ENDBRANCH   16   14
ENDBRANCH   17   16
ENDBRANCH   18   17
ENDBRANCH   19   18
ENDBRANCH   20   19
ENDBRANCH   21   20
ENDBRANCH   22   21
ENDBRANCH   23   22
ENDBRANCH   24   23
ENDBRANCH   26   24
ENDBRANCH   30   29
BRANCH   34   35
ATOM     35  C29 UNL A   1      58.805  17.300  10.989  1.00  0.00    +0.000 C 
ATOM     36  C30 UNL A   1      59.669  17.906  10.064  1.00  0.00    +0.000 C 
ATOM     37  F1  UNL A   1      59.699  19.241   9.942  1.00  0.00    +0.000 F 
ATOM     38  C31 UNL A   1      60.478  17.138   9.230  1.00  0.00    +0.000 C 
ATOM     39  F2  UNL A   1      61.259  17.736   8.321  1.00  0.00    +0.000 F 
ATOM     40  C32 UNL A   1      60.465  15.754   9.329  1.00  0.00    +0.000 C 
ATOM     41  F3  UNL A   1      61.248  15.017   8.529  1.00  0.00    +0.000 F 
ATOM     42  C33 UNL A   1      59.636  15.136  10.252  1.00  0.00    +0.000 C 
ATOM     43  F4  UNL A   1      59.631  13.800  10.357  1.00  0.00    +0.000 F 
ATOM     44  C34 UNL A   1      58.804  15.900  11.068  1.00  0.00    +0.000 C 
ATOM     45  F5  UNL A   1      58.003  15.271  11.941  1.00  0.00    +0.000 F 
ENDBRANCH   34   35
BRANCH   51   52
ATOM     52  C40 UNL A   1      59.148  20.335  17.520  1.00  0.00    +0.000 C 
ATOM     53  C41 UNL A   1      59.898  21.512  17.665  1.00  0.00    +0.000 C 
ATOM     54  F6  UNL A   1      59.767  22.509  16.777  1.00  0.00    +0.000 F 
ATOM     55  C42 UNL A   1      60.813  21.653  18.705  1.00  0.00    +0.000 C 
ATOM     56  F7  UNL A   1      61.550  22.768  18.800  1.00  0.00    +0.000 F 
ATOM     57  C43 UNL A   1      60.974  20.636  19.634  1.00  0.00    +0.000 C 
ATOM     58  F8  UNL A   1      61.852  20.775  20.636  1.00  0.00    +0.000 F 
ATOM     59  C44 UNL A   1      60.232  19.470  19.518  1.00  0.00    +0.000 C 
ATOM     60  F9  UNL A   1      60.379  18.490  20.421  1.00  0.00    +0.000 F 
ATOM     61  C45 UNL A   1      59.335  19.315  18.465  1.00  0.00    +0.000 C 
ATOM     62  F10 UNL A   1      58.638  18.172  18.372  1.00  0.00    +0.000 F 
ENDBRANCH   51   52
BRANCH   66   67
ATOM     67  C49 UNL A   1      52.562  22.478  16.806  1.00  0.00    +0.000 C 
ATOM     68  C50 UNL A   1      51.849  21.821  17.818  1.00  0.00    +0.000 C 
ATOM     69  F11 UNL A   1      51.987  20.497  17.983  1.00  0.00    +0.000 F 
ATOM     70  C51 UNL A   1      50.963  22.513  18.640  1.00  0.00    +0.000 C 
ATOM     71  F12 UNL A   1      50.265  21.854  19.574  1.00  0.00    +0.000 F 
ATOM     72  C52 UNL A   1      50.793  23.880  18.483  1.00  0.00    +0.000 C 
ATOM     73  F13 UNL A   1      49.945  24.548  19.277  1.00  0.00    +0.000 F 
ATOM     74  C53 UNL A   1      51.499  24.554  17.498  1.00  0.00    +0.000 C 
ATOM     75  F14 UNL A   1      51.347  25.878  17.352  1.00  0.00    +0.000 F 
ATOM     76  C54 UNL A   1      52.367  23.858  16.659  1.00  0.00    +0.000 C 
ATOM     77  F15 UNL A   1      53.030  24.533  15.708  1.00  0.00    +0.000 F 
ENDBRANCH   66   67
TORSDOF 20
ENDMDL
MODEL 5
REMARK VINA RESULT:     -10.3     17.281     24.235
ROOT
ATOM     30  C25 UNL A   1      25.847  37.752  49.280  1.00  0.00    +0.000 C 
ATOM     31  C26 UNL A   1      27.113  38.509  48.992  1.00  0.00    +0.000 C 
ATOM     32  N4  UNL A   1      28.023  38.287  48.076  1.00  0.00    +0.000 N 
ATOM     33  C27 UNL A   1      28.956  39.305  48.215  1.00  0.00    +0.000 C 
ATOM     34  C28 UNL A   1      30.114  39.489  47.536  1.00  0.00    +0.000 C 
ATOM     46  C35 UNL A   1      30.598  38.609  46.505  1.00  0.00    +0.000 C 
ATOM     47  C36 UNL A   1      31.787  38.677  45.800  1.00  0.00    +0.000 C 
ATOM     48  C37 UNL A   1      31.807  37.628  44.874  1.00  0.00    +0.000 C 
ATOM     49  C38 UNL A   1      30.650  36.884  45.030  1.00  0.00    +0.000 C 
ATOM     50  N5  UNL A   1      29.915  37.499  46.032  1.00  0.00    +0.000 N 
ATOM     51  C39 UNL A   1      30.242  35.698  44.320  1.00  0.00    +0.000 C 
ATOM     63  C46 UNL A   1      29.091  35.015  44.542  1.00  0.00    +0.000 C 
ATOM     64  N6  UNL A   1      28.086  35.277  45.462  1.00  0.00    +0.000 N 
ATOM     65  C47 UNL A   1      27.182  34.344  45.283  1.00  0.00    +0.000 C 
ATOM     66  C48 UNL A   1      25.891  34.118  46.020  1.00  0.00    +0.000 C 
ATOM     78  C55 UNL A   1      25.557  34.943  47.031  1.00  0.00    +0.000 C 
ATOM     79  C56 UNL A   1      24.342  34.847  47.836  1.00  0.00    +0.000 C 
ATOM     80  C57 UNL A   1      24.321  35.859  48.717  1.00  0.00    +0.000 C 
ATOM     81  C58 UNL A   1      25.538  36.656  48.560  1.00  0.00    +0.000 C 
ATOM     82  N7  UNL A   1      26.217  36.033  47.544  1.00  0.00    +0.000 N 
ATOM     83  C59 UNL A   1      27.504  33.397  44.205  1.00  0.00    +0.000 C 
ATOM     84  C60 UNL A   1      28.694  33.829  43.812  1.00  0.00    +0.000 C 
ATOM     85  C61 UNL A   1      28.482  40.172  49.273  1.00  0.00    +0.000 C 
ATOM     86  C62 UNL A   1      27.380  39.689  49.829  1.00  0.00    +0.000 C 
ATOM    119  H28 UNL A   1      32.531  39.380  45.934  1.00  0.00    +0.000 H 
ATOM    120  H29 UNL A   1      32.557  37.441  44.190  1.00  0.00    +0.000 H 
ATOM    121  H30 UNL A   1      29.038  37.194  46.358  1.00  0.00    +0.000 H 
ATOM    122  H31 UNL A   1      23.618  34.117  47.743  1.00  0.00    +0.000 H 
ATOM    123  H32 UNL A   1      23.566  36.045  49.396  1.00  0.00    +0.000 H 
ATOM    124  H33 UNL A   1      27.092  36.336  47.214  1.00  0.00    +0.000 H 
ATOM    125  H34 UNL A   1      26.948  32.604  43.848  1.00  0.00    +0.000 H 
ATOM    126  H35 UNL A   1      29.264  33.378  43.080  1.00  0.00    +0.000 H 
ATOM    127  H36 UNL A   1      28.941  41.051  49.557  1.00  0.00    +0.000 H 
ATOM    128  H37 UNL A   1      26.849  40.047  50.637  1.00  0.00    +0.000 H 
ENDROOT
BRANCH   30   29
ATOM    129  H38 UNL A   1      25.451  36.802  51.752  1.00  0.00    +0.000 H 
ATOM    130  H39 UNL A   1      23.838  37.522  53.413  1.00  0.00    +0.000 H 
ATOM    117  H26 UNL A   1      22.603  40.639  50.871  1.00  0.00    +0.000 H 
ATOM    118  H27 UNL A   1      24.073  39.799  49.132  1.00  0.00    +0.000 H 
ATOM     87  C63 UNL A   1      24.831  37.603  51.555  1.00  0.00    +0.000 C 
ATOM     88  C64 UNL A   1      23.933  38.041  52.525  1.00  0.00    +0.000 C 
ATOM     26  C21 UNL A   1      23.159  39.183  52.299  1.00  0.00    +0.000 C 
ATOM     27  C22 UNL A   1      23.202  39.819  51.054  1.00  0.00    +0.000 C 
ATOM     28  C23 UNL A   1      24.058  39.342  50.058  1.00  0.00    +0.000 C 
ATOM     29  C24 UNL A   1      24.899  38.248  50.309  1.00  0.00    +0.000 C 
BRANCH   26   24
ATOM     25  O2  UNL A   1      22.323  40.883  53.676  1.00  0.00    +0.000 O 
ATOM     24  C20 UNL A   1      22.244  39.709  53.337  1.00  0.00    +0.000 C 
BRANCH   24   23
ATOM    116  H25 UNL A   1      21.443  38.707  54.876  1.00  0.00    +0.000 H 
ATOM     23  N3  UNL A   1      21.307  38.889  53.918  1.00  0.00    +0.000 N 
BRANCH   23   22
ATOM    114  H23 UNL A   1      20.394  37.244  53.067  1.00  0.00    +0.000 H 
ATOM    115  H24 UNL A   1      19.347  38.284  54.038  1.00  0.00    +0.000 H 
ATOM     22  C19 UNL A   1      20.143  38.252  53.323  1.00  0.00    +0.000 C 
BRANCH   22   21
ATOM    113  H22 UNL A   1      20.302  39.839  51.963  1.00  0.00    +0.000 H 
ATOM     21  C18 UNL A   1      19.675  38.978  52.064  1.00  0.00    +0.000 C 
ATOM    112  H21 UNL A   1      18.639  39.221  52.186  1.00  0.00    +0.000 H 
BRANCH   21   20
ATOM     20  C17 UNL A   1      19.826  38.181  50.764  1.00  0.00    +0.000 C 
ATOM    110  H19 UNL A   1      18.965  38.372  50.159  1.00  0.00    +0.000 H 
ATOM    111  H20 UNL A   1      20.746  38.509  50.326  1.00  0.00    +0.000 H 
BRANCH   20   19
ATOM     19  C16 UNL A   1      19.960  36.660  50.927  1.00  0.00    +0.000 C 
ATOM    108  H17 UNL A   1      20.073  36.449  51.969  1.00  0.00    +0.000 H 
ATOM    109  H18 UNL A   1      19.077  36.238  50.496  1.00  0.00    +0.000 H 
BRANCH   19   18
ATOM     18  C15 UNL A   1      21.139  36.023  50.184  1.00  0.00    +0.000 C 
ATOM    107  H16 UNL A   1      21.778  35.593  50.927  1.00  0.00    +0.000 H 
ATOM    106  H15 UNL A   1      21.627  36.784  49.611  1.00  0.00    +0.000 H 
BRANCH   18   17
ATOM     17  C14 UNL A   1      20.738  34.890  49.236  1.00  0.00    +0.000 C 
ATOM    105  H14 UNL A   1      20.510  34.028  49.829  1.00  0.00    +0.000 H 
ATOM    104  H13 UNL A   1      21.550  34.695  48.567  1.00  0.00    +0.000 H 
BRANCH   17   16
ATOM    103  H12 UNL A   1      18.733  34.793  48.769  1.00  0.00    +0.000 H 
ATOM     16  N2  UNL A   1      19.562  35.225  48.461  1.00  0.00    +0.000 N 
BRANCH   16   14
ATOM     14  C13 UNL A   1      19.408  36.036  47.378  1.00  0.00    +0.000 C 
ATOM     15  O1  UNL A   1      18.428  36.790  47.388  1.00  0.00    +0.000 O 
BRANCH   14   12
ATOM     99  H8  UNL A   1      19.801  36.436  45.356  1.00  0.00    +0.000 H 
ATOM     12  C11 UNL A   1      20.363  36.037  46.175  1.00  0.00    +0.000 C 
BRANCH   12   11
ATOM     97  H6  UNL A   1      22.553  39.721  48.023  1.00  0.00    +0.000 H 
ATOM     98  H7  UNL A   1      20.790  38.078  47.989  1.00  0.00    +0.000 H 
ATOM    131  H40 UNL A   1      22.603  36.209  44.705  1.00  0.00    +0.000 H 
ATOM    132  H41 UNL A   1      24.439  37.770  44.827  1.00  0.00    +0.000 H 
ATOM      8  C7  UNL A   1      23.658  38.911  46.419  1.00  0.00    +0.000 C 
ATOM      9  C8  UNL A   1      22.581  38.967  47.319  1.00  0.00    +0.000 C 
ATOM     10  C9  UNL A   1      21.544  38.027  47.286  1.00  0.00    +0.000 C 
ATOM     11  C10 UNL A   1      21.512  37.022  46.317  1.00  0.00    +0.000 C 
ATOM     89  C65 UNL A   1      22.590  36.950  45.422  1.00  0.00    +0.000 C 
ATOM     90  C66 UNL A   1      23.649  37.866  45.483  1.00  0.00    +0.000 C 
BRANCH    8    7
ATOM      3  C3  UNL A   1      25.732  41.980  47.321  1.00  0.00    +0.000 C 
ATOM      4  C4  UNL A   1      26.825  41.732  46.498  1.00  0.00    +0.000 C 
ATOM      5  N1  UNL A   1      26.938  40.659  45.684  1.00  0.00    +0.000 N 
ATOM    133  H42 UNL A   1      23.848  41.210  47.875  1.00  0.00    +0.000 H 
ATOM      7  C6  UNL A   1      24.740  39.919  46.458  1.00  0.00    +0.000 C 
ATOM      6  C5  UNL A   1      25.895  39.794  45.683  1.00  0.00    +0.000 C 
ATOM     91  C67 UNL A   1      24.681  41.054  47.284  1.00  0.00    +0.000 C 
ATOM     95  H4  UNL A   1      27.602  42.411  46.511  1.00  0.00    +0.000 H 
ATOM     96  H5  UNL A   1      25.961  38.974  45.059  1.00  0.00    +0.000 H 
BRANCH    3    2
ATOM      2  C2  UNL A   1      25.692  43.202  48.132  1.00  0.00    +0.000 C 
ATOM     94  H3  UNL A   1      25.638  44.106  47.639  1.00  0.00    +0.000 H 
BRANCH    2    1
ATOM      1  C1  UNL A   1      25.721  43.219  49.471  1.00  0.00    +0.000 C 
ATOM     92  H1  UNL A   1      25.093  43.851  49.992  1.00  0.00    +0.000 H 
ATOM     93  H2  UNL A   1      26.371  42.601  49.981  1.00  0.00    +0.000 H 
ENDBRANCH    2    1
ENDBRANCH    3    2
ENDBRANCH    8    7
ENDBRANCH   12   11
BRANCH   12   13
ATOM    101  H10 UNL A   1      20.182  34.441  44.761  1.00  0.00    +0.000 H 
ATOM    100  H9  UNL A   1      21.776  34.599  45.460  1.00  0.00    +0.000 H 
ATOM     13  C12 UNL A   1      20.727  34.642  45.661  1.00  0.00    +0.000 C 
ATOM    102  H11 UNL A   1      20.474  33.913  46.401  1.00  0.00    +0.000 H 
ENDBRANCH   12   13
ENDBRANCH   14   12
ENDBRANCH   16   14
ENDBRANCH   17   16
ENDBRANCH   18   17
ENDBRANCH   19   18
ENDBRANCH   20   19
ENDBRANCH   21   20
ENDBRANCH   22   21
ENDBRANCH   23   22
ENDBRANCH   24   23
ENDBRANCH   26   24
ENDBRANCH   30   29
BRANCH   34   35
ATOM     35  C29 UNL A   1      30.942  40.690  47.892  1.00  0.00    +0.000 C 
ATOM     36  C30 UNL A   1      31.821  40.676  48.985  1.00  0.00    +0.000 C 
ATOM     37  F1  UNL A   1      31.908  39.590  49.768  1.00  0.00    +0.000 F 
ATOM     38  C31 UNL A   1      32.585  41.795  49.304  1.00  0.00    +0.000 C 
ATOM     39  F2  UNL A   1      33.382  41.777  50.381  1.00  0.00    +0.000 F 
ATOM     40  C32 UNL A   1      32.512  42.935  48.517  1.00  0.00    +0.000 C 
ATOM     41  F3  UNL A   1      33.252  44.010  48.822  1.00  0.00    +0.000 F 
ATOM     42  C33 UNL A   1      31.667  42.963  47.418  1.00  0.00    +0.000 C 
ATOM     43  F4  UNL A   1      31.604  44.059  46.650  1.00  0.00    +0.000 F 
ATOM     44  C34 UNL A   1      30.879  41.855  47.114  1.00  0.00    +0.000 C 
ATOM     45  F5  UNL A   1      30.061  41.917  46.053  1.00  0.00    +0.000 F 
ENDBRANCH   34   35
BRANCH   51   52
ATOM     52  C40 UNL A   1      31.166  35.161  43.269  1.00  0.00    +0.000 C 
ATOM     53  C41 UNL A   1      31.989  34.051  43.513  1.00  0.00    +0.000 C 
ATOM     54  F6  UNL A   1      32.001  33.474  44.724  1.00  0.00    +0.000 F 
ATOM     55  C42 UNL A   1      32.829  33.553  42.521  1.00  0.00    +0.000 C 
ATOM     56  F7  UNL A   1      33.638  32.519  42.788  1.00  0.00    +0.000 F 
ATOM     57  C43 UNL A   1      32.842  34.135  41.262  1.00  0.00    +0.000 C 
ATOM     58  F8  UNL A   1      33.648  33.652  40.307  1.00  0.00    +0.000 F 
ATOM     59  C44 UNL A   1      32.025  35.224  40.995  1.00  0.00    +0.000 C 
ATOM     60  F9  UNL A   1      32.028  35.781  39.776  1.00  0.00    +0.000 F 
ATOM     61  C45 UNL A   1      31.202  35.739  41.992  1.00  0.00    +0.000 C 
ATOM     62  F10 UNL A   1      30.431  36.801  41.709  1.00  0.00    +0.000 F 
ENDBRANCH   51   52
BRANCH   66   67
ATOM     67  C49 UNL A   1      25.001  32.984  45.666  1.00  0.00    +0.000 C 
ATOM     68  C50 UNL A   1      23.977  33.144  44.722  1.00  0.00    +0.000 C 
ATOM     69  F11 UNL A   1      23.779  34.340  44.147  1.00  0.00    +0.000 F 
ATOM     70  C51 UNL A   1      23.128  32.089  44.395  1.00  0.00    +0.000 C 
ATOM     71  F12 UNL A   1      22.133  32.281  43.519  1.00  0.00    +0.000 F 
ATOM     72  C52 UNL A   1      23.305  30.847  44.984  1.00  0.00    +0.000 C 
ATOM     73  F13 UNL A   1      22.493  29.830  44.665  1.00  0.00    +0.000 F 
ATOM     74  C53 UNL A   1      24.322  30.660  45.909  1.00  0.00    +0.000 C 
ATOM     75  F14 UNL A   1      24.503  29.457  46.471  1.00  0.00    +0.000 F 
ATOM     76  C54 UNL A   1      25.155  31.722  46.256  1.00  0.00    +0.000 C 
ATOM     77  F15 UNL A   1      26.124  31.516  47.160  1.00  0.00    +0.000 F 
ENDBRANCH   66   67
TORSDOF 20
ENDMDL
MODEL 6
REMARK VINA RESULT:     -10.3     25.943     33.654
ROOT
ATOM     30  C25 UNL A   1      22.311  19.587   5.154  1.00  0.00    +0.000 C 
ATOM     31  C26 UNL A   1      21.132  18.900   5.785  1.00  0.00    +0.000 C 
ATOM     32  N4  UNL A   1      19.855  19.049   5.536  1.00  0.00    +0.000 N 
ATOM     33  C27 UNL A   1      19.201  18.145   6.362  1.00  0.00    +0.000 C 
ATOM     34  C28 UNL A   1      17.869  17.952   6.517  1.00  0.00    +0.000 C 
ATOM     46  C35 UNL A   1      16.854  18.695   5.816  1.00  0.00    +0.000 C 
ATOM     47  C36 UNL A   1      15.479  18.615   5.948  1.00  0.00    +0.000 C 
ATOM     48  C37 UNL A   1      14.900  19.503   5.035  1.00  0.00    +0.000 C 
ATOM     49  C38 UNL A   1      15.914  20.166   4.364  1.00  0.00    +0.000 C 
ATOM     50  N5  UNL A   1      17.108  19.657   4.851  1.00  0.00    +0.000 N 
ATOM     51  C39 UNL A   1      15.805  21.187   3.354  1.00  0.00    +0.000 C 
ATOM     63  C46 UNL A   1      16.853  21.800   2.750  1.00  0.00    +0.000 C 
ATOM     64  N6  UNL A   1      18.212  21.605   2.954  1.00  0.00    +0.000 N 
ATOM     65  C47 UNL A   1      18.821  22.422   2.128  1.00  0.00    +0.000 C 
ATOM     66  C48 UNL A   1      20.294  22.653   1.935  1.00  0.00    +0.000 C 
ATOM     78  C55 UNL A   1      21.173  21.974   2.697  1.00  0.00    +0.000 C 
ATOM     79  C56 UNL A   1      22.626  22.096   2.625  1.00  0.00    +0.000 C 
ATOM     80  C57 UNL A   1      23.180  21.237   3.495  1.00  0.00    +0.000 C 
ATOM     81  C58 UNL A   1      22.118  20.527   4.209  1.00  0.00    +0.000 C 
ATOM     82  N7  UNL A   1      20.961  21.036   3.677  1.00  0.00    +0.000 N 
ATOM     83  C59 UNL A   1      17.911  23.210   1.285  1.00  0.00    +0.000 C 
ATOM     84  C60 UNL A   1      16.724  22.820   1.730  1.00  0.00    +0.000 C 
ATOM     85  C61 UNL A   1      20.222  17.420   7.087  1.00  0.00    +0.000 C 
ATOM     86  C62 UNL A   1      21.430  17.893   6.814  1.00  0.00    +0.000 C 
ATOM    119  H28 UNL A   1      14.969  18.005   6.606  1.00  0.00    +0.000 H 
ATOM    120  H29 UNL A   1      13.887  19.641   4.887  1.00  0.00    +0.000 H 
ATOM    121  H30 UNL A   1      18.004  19.938   4.554  1.00  0.00    +0.000 H 
ATOM    122  H31 UNL A   1      23.144  22.740   2.007  1.00  0.00    +0.000 H 
ATOM    123  H32 UNL A   1      24.193  21.098   3.637  1.00  0.00    +0.000 H 
ATOM    124  H33 UNL A   1      20.064  20.757   3.970  1.00  0.00    +0.000 H 
ATOM    125  H34 UNL A   1      18.136  23.889   0.540  1.00  0.00    +0.000 H 
ATOM    126  H35 UNL A   1      15.824  23.196   1.394  1.00  0.00    +0.000 H 
ATOM    127  H36 UNL A   1      20.034  16.637   7.732  1.00  0.00    +0.000 H 
ATOM    128  H37 UNL A   1      22.340  17.624   7.218  1.00  0.00    +0.000 H 
ENDROOT
BRANCH   30   29
ATOM    129  H38 UNL A   1      23.884  17.796   3.932  1.00  0.00    +0.000 H 
ATOM    130  H39 UNL A   1      26.099  17.043   4.566  1.00  0.00    +0.000 H 
ATOM    117  H26 UNL A   1      26.149  19.821   7.725  1.00  0.00    +0.000 H 
ATOM    118  H27 UNL A   1      23.856  20.435   7.216  1.00  0.00    +0.000 H 
ATOM     87  C63 UNL A   1      24.354  18.212   4.751  1.00  0.00    +0.000 C 
ATOM     88  C64 UNL A   1      25.644  17.806   5.091  1.00  0.00    +0.000 C 
ATOM     26  C21 UNL A   1      26.321  18.432   6.141  1.00  0.00    +0.000 C 
ATOM     27  C22 UNL A   1      25.664  19.386   6.924  1.00  0.00    +0.000 C 
ATOM     28  C23 UNL A   1      24.348  19.748   6.623  1.00  0.00    +0.000 C 
ATOM     29  C24 UNL A   1      23.693  19.184   5.519  1.00  0.00    +0.000 C 
BRANCH   26   24
ATOM     25  O2  UNL A   1      28.341  17.315   5.746  1.00  0.00    +0.000 O 
ATOM     24  C20 UNL A   1      27.715  18.067   6.481  1.00  0.00    +0.000 C 
BRANCH   24   23
ATOM    116  H25 UNL A   1      28.672  19.482   7.528  1.00  0.00    +0.000 H 
ATOM     23  N3  UNL A   1      28.309  18.571   7.613  1.00  0.00    +0.000 N 
BRANCH   23   22
ATOM    114  H23 UNL A   1      27.592  17.403   9.158  1.00  0.00    +0.000 H 
ATOM    115  H24 UNL A   1      29.332  17.311   8.872  1.00  0.00    +0.000 H 
ATOM     22  C19 UNL A   1      28.478  17.953   8.919  1.00  0.00    +0.000 C 
BRANCH   22   21
ATOM    113  H22 UNL A   1      28.957  19.905   9.513  1.00  0.00    +0.000 H 
ATOM     21  C18 UNL A   1      28.725  18.989  10.014  1.00  0.00    +0.000 C 
ATOM    112  H21 UNL A   1      29.522  18.632  10.635  1.00  0.00    +0.000 H 
BRANCH   21   20
ATOM     20  C17 UNL A   1      27.518  19.281  10.911  1.00  0.00    +0.000 C 
ATOM    110  H19 UNL A   1      26.648  18.882  10.433  1.00  0.00    +0.000 H 
ATOM    111  H20 UNL A   1      27.740  18.828  11.855  1.00  0.00    +0.000 H 
BRANCH   20   19
ATOM     19  C16 UNL A   1      27.254  20.763  11.211  1.00  0.00    +0.000 C 
ATOM    108  H17 UNL A   1      26.938  20.843  12.229  1.00  0.00    +0.000 H 
ATOM    109  H18 UNL A   1      28.171  21.274  11.005  1.00  0.00    +0.000 H 
BRANCH   19   18
ATOM     18  C15 UNL A   1      26.191  21.431  10.331  1.00  0.00    +0.000 C 
ATOM    107  H16 UNL A   1      25.821  20.678   9.667  1.00  0.00    +0.000 H 
ATOM    106  H15 UNL A   1      26.647  22.249   9.814  1.00  0.00    +0.000 H 
BRANCH   18   17
ATOM     17  C14 UNL A   1      24.987  21.966  11.109  1.00  0.00    +0.000 C 
ATOM    105  H14 UNL A   1      24.137  21.946  10.459  1.00  0.00    +0.000 H 
ATOM    104  H13 UNL A   1      25.200  22.962  11.436  1.00  0.00    +0.000 H 
BRANCH   17   16
ATOM    103  H12 UNL A   1      25.261  21.312  13.046  1.00  0.00    +0.000 H 
ATOM     16  N2  UNL A   1      24.684  21.148  12.266  1.00  0.00    +0.000 N 
BRANCH   16   14
ATOM     14  C13 UNL A   1      23.734  20.190  12.457  1.00  0.00    +0.000 C 
ATOM     15  O1  UNL A   1      22.558  20.544  12.315  1.00  0.00    +0.000 O 
BRANCH   14   12
ATOM     99  H8  UNL A   1      23.323  18.464  13.576  1.00  0.00    +0.000 H 
ATOM     12  C11 UNL A   1      24.057  18.740  12.847  1.00  0.00    +0.000 C 
BRANCH   12   11
ATOM     97  H6  UNL A   1      22.698  14.650  11.055  1.00  0.00    +0.000 H 
ATOM     98  H7  UNL A   1      22.861  16.249  12.852  1.00  0.00    +0.000 H 
ATOM    131  H40 UNL A   1      24.667  18.988  10.244  1.00  0.00    +0.000 H 
ATOM    132  H41 UNL A   1      24.378  17.442   8.416  1.00  0.00    +0.000 H 
ATOM      8  C7  UNL A   1      23.535  15.888   9.566  1.00  0.00    +0.000 C 
ATOM      9  C8  UNL A   1      23.108  15.579  10.868  1.00  0.00    +0.000 C 
ATOM     10  C9  UNL A   1      23.222  16.498  11.918  1.00  0.00    +0.000 C 
ATOM     11  C10 UNL A   1      23.819  17.745  11.723  1.00  0.00    +0.000 C 
ATOM     89  C65 UNL A   1      24.237  18.067  10.424  1.00  0.00    +0.000 C 
ATOM     90  C66 UNL A   1      24.083  17.163   9.364  1.00  0.00    +0.000 C 
BRANCH    8    7
ATOM      3  C3  UNL A   1      23.783  14.205   6.154  1.00  0.00    +0.000 C 
ATOM      4  C4  UNL A   1      23.200  12.988   6.489  1.00  0.00    +0.000 C 
ATOM      5  N1  UNL A   1      22.739  12.677   7.720  1.00  0.00    +0.000 N 
ATOM    133  H42 UNL A   1      24.300  16.087   6.956  1.00  0.00    +0.000 H 
ATOM      7  C6  UNL A   1      23.420  14.902   8.470  1.00  0.00    +0.000 C 
ATOM      6  C5  UNL A   1      22.855  13.639   8.666  1.00  0.00    +0.000 C 
ATOM     91  C67 UNL A   1      23.881  15.167   7.169  1.00  0.00    +0.000 C 
ATOM     95  H4  UNL A   1      23.115  12.275   5.748  1.00  0.00    +0.000 H 
ATOM     96  H5  UNL A   1      22.498  13.422   9.610  1.00  0.00    +0.000 H 
BRANCH    3    2
ATOM      2  C2  UNL A   1      24.208  14.456   4.773  1.00  0.00    +0.000 C 
ATOM     94  H3  UNL A   1      25.198  14.293   4.536  1.00  0.00    +0.000 H 
BRANCH    2    1
ATOM      1  C1  UNL A   1      23.393  14.883   3.800  1.00  0.00    +0.000 C 
ATOM     92  H1  UNL A   1      23.761  15.028   2.846  1.00  0.00    +0.000 H 
ATOM     93  H2  UNL A   1      22.398  15.066   4.003  1.00  0.00    +0.000 H 
ENDBRANCH    2    1
ENDBRANCH    3    2
ENDBRANCH    8    7
ENDBRANCH   12   11
BRANCH   12   13
ATOM    101  H10 UNL A   1      25.906  17.740  13.248  1.00  0.00    +0.000 H 
ATOM    100  H9  UNL A   1      25.950  19.464  13.532  1.00  0.00    +0.000 H 
ATOM     13  C12 UNL A   1      25.360  18.577  13.632  1.00  0.00    +0.000 C 
ATOM    102  H11 UNL A   1      25.136  18.413  14.665  1.00  0.00    +0.000 H 
ENDBRANCH   12   13
ENDBRANCH   14   12
ENDBRANCH   16   14
ENDBRANCH   17   16
ENDBRANCH   18   17
ENDBRANCH   19   18
ENDBRANCH   20   19
ENDBRANCH   21   20
ENDBRANCH   22   21
ENDBRANCH   23   22
ENDBRANCH   24   23
ENDBRANCH   26   24
ENDBRANCH   30   29
BRANCH   34   35
ATOM     35  C29 UNL A   1      17.431  16.894   7.488  1.00  0.00    +0.000 C 
ATOM     36  C30 UNL A   1      16.943  17.225   8.761  1.00  0.00    +0.000 C 
ATOM     37  F1  UNL A   1      16.896  18.506   9.154  1.00  0.00    +0.000 F 
ATOM     38  C31 UNL A   1      16.537  16.234   9.652  1.00  0.00    +0.000 C 
ATOM     39  F2  UNL A   1      16.120  16.570  10.880  1.00  0.00    +0.000 F 
ATOM     40  C32 UNL A   1      16.579  14.900   9.276  1.00  0.00    +0.000 C 
ATOM     41  F3  UNL A   1      16.184  13.948  10.133  1.00  0.00    +0.000 F 
ATOM     42  C33 UNL A   1      17.037  14.552   8.014  1.00  0.00    +0.000 C 
ATOM     43  F4  UNL A   1      17.067  13.264   7.645  1.00  0.00    +0.000 F 
ATOM     44  C34 UNL A   1      17.471  15.538   7.131  1.00  0.00    +0.000 C 
ATOM     45  F5  UNL A   1      17.922  15.169   5.923  1.00  0.00    +0.000 F 
ENDBRANCH   34   35
BRANCH   51   52
ATOM     52  C40 UNL A   1      14.430  21.626   2.951  1.00  0.00    +0.000 C 
ATOM     53  C41 UNL A   1      13.746  21.015   1.889  1.00  0.00    +0.000 C 
ATOM     54  F6  UNL A   1      14.338  20.048   1.173  1.00  0.00    +0.000 F 
ATOM     55  C42 UNL A   1      12.462  21.422   1.538  1.00  0.00    +0.000 C 
ATOM     56  F7  UNL A   1      11.843  20.854   0.494  1.00  0.00    +0.000 F 
ATOM     57  C43 UNL A   1      11.827  22.424   2.257  1.00  0.00    +0.000 C 
ATOM     58  F8  UNL A   1      10.590  22.812   1.920  1.00  0.00    +0.000 F 
ATOM     59  C44 UNL A   1      12.480  23.031   3.320  1.00  0.00    +0.000 C 
ATOM     60  F9  UNL A   1      11.864  23.993   4.022  1.00  0.00    +0.000 F 
ATOM     61  C45 UNL A   1      13.773  22.644   3.657  1.00  0.00    +0.000 C 
ATOM     62  F10 UNL A   1      14.384  23.257   4.684  1.00  0.00    +0.000 F 
ENDBRANCH   51   52
BRANCH   66   67
ATOM     67  C49 UNL A   1      20.785  23.641   0.941  1.00  0.00    +0.000 C 
ATOM     68  C50 UNL A   1      21.091  24.953   1.327  1.00  0.00    +0.000 C 
ATOM     69  F11 UNL A   1      20.917  25.333   2.601  1.00  0.00    +0.000 F 
ATOM     70  C51 UNL A   1      21.538  25.891   0.399  1.00  0.00    +0.000 C 
ATOM     71  F12 UNL A   1      21.785  27.149   0.787  1.00  0.00    +0.000 F 
ATOM     72  C52 UNL A   1      21.715  25.526  -0.927  1.00  0.00    +0.000 C 
ATOM     73  F13 UNL A   1      22.151  26.426  -1.819  1.00  0.00    +0.000 F 
ATOM     74  C53 UNL A   1      21.434  24.229  -1.329  1.00  0.00    +0.000 C 
ATOM     75  F14 UNL A   1      21.616  23.870  -2.607  1.00  0.00    +0.000 F 
ATOM     76  C54 UNL A   1      20.962  23.297  -0.406  1.00  0.00    +0.000 C 
ATOM     77  F15 UNL A   1      20.689  22.052  -0.824  1.00  0.00    +0.000 F 
ENDBRANCH   66   67
TORSDOF 20
ENDMDL
MODEL 7
REMARK VINA RESULT:     -10.3     19.713     27.078
ROOT
ATOM     30  C25 UNL A   1      46.573  11.523  47.119  1.00  0.00    +0.000 C 
ATOM     31  C26 UNL A   1      46.785  10.589  48.277  1.00  0.00    +0.000 C 
ATOM     32  N4  UNL A   1      47.579  10.717  49.312  1.00  0.00    +0.000 N 
ATOM     33  C27 UNL A   1      47.354   9.597  50.101  1.00  0.00    +0.000 C 
ATOM     34  C28 UNL A   1      47.971   9.237  51.252  1.00  0.00    +0.000 C 
ATOM     46  C35 UNL A   1      49.021   9.995  51.881  1.00  0.00    +0.000 C 
ATOM     47  C36 UNL A   1      49.750   9.684  53.016  1.00  0.00    +0.000 C 
ATOM     48  C37 UNL A   1      50.637  10.735  53.267  1.00  0.00    +0.000 C 
ATOM     49  C38 UNL A   1      50.491  11.681  52.267  1.00  0.00    +0.000 C 
ATOM     50  N5  UNL A   1      49.493  11.216  51.425  1.00  0.00    +0.000 N 
ATOM     51  C39 UNL A   1      51.207  12.919  52.090  1.00  0.00    +0.000 C 
ATOM     63  C46 UNL A   1      51.012  13.791  51.070  1.00  0.00    +0.000 C 
ATOM     64  N6  UNL A   1      50.128  13.704  50.005  1.00  0.00    +0.000 N 
ATOM     65  C47 UNL A   1      50.307  14.793  49.297  1.00  0.00    +0.000 C 
ATOM     66  C48 UNL A   1      49.636  15.217  48.019  1.00  0.00    +0.000 C 
ATOM     78  C55 UNL A   1      48.724  14.403  47.453  1.00  0.00    +0.000 C 
ATOM     79  C56 UNL A   1      47.996  14.679  46.218  1.00  0.00    +0.000 C 
ATOM     80  C57 UNL A   1      47.138  13.673  45.983  1.00  0.00    +0.000 C 
ATOM     81  C58 UNL A   1      47.280  12.667  47.036  1.00  0.00    +0.000 C 
ATOM     82  N7  UNL A   1      48.251  13.180  47.859  1.00  0.00    +0.000 N 
ATOM     83  C59 UNL A   1      51.311  15.711  49.854  1.00  0.00    +0.000 C 
ATOM     84  C60 UNL A   1      51.736  15.036  50.912  1.00  0.00    +0.000 C 
ATOM     85  C61 UNL A   1      46.319   8.822  49.451  1.00  0.00    +0.000 C 
ATOM     86  C62 UNL A   1      45.978   9.359  48.288  1.00  0.00    +0.000 C 
ATOM    119  H28 UNL A   1      49.654   8.824  53.579  1.00  0.00    +0.000 H 
ATOM    120  H29 UNL A   1      51.291  10.795  54.065  1.00  0.00    +0.000 H 
ATOM    121  H30 UNL A   1      49.167  11.684  50.623  1.00  0.00    +0.000 H 
ATOM    122  H31 UNL A   1      48.122  15.511  45.621  1.00  0.00    +0.000 H 
ATOM    123  H32 UNL A   1      46.483  13.619  45.188  1.00  0.00    +0.000 H 
ATOM    124  H33 UNL A   1      48.577  12.716  48.663  1.00  0.00    +0.000 H 
ATOM    125  H34 UNL A   1      51.607  16.639  49.510  1.00  0.00    +0.000 H 
ATOM    126  H35 UNL A   1      52.487  15.356  51.543  1.00  0.00    +0.000 H 
ATOM    127  H36 UNL A   1      45.900   7.964  49.842  1.00  0.00    +0.000 H 
ATOM    128  H37 UNL A   1      45.319   9.007  47.577  1.00  0.00    +0.000 H 
ENDROOT
BRANCH   30   29
ATOM    129  H38 UNL A   1      46.896  10.382  44.718  1.00  0.00    +0.000 H 
ATOM    130  H39 UNL A   1      45.239   9.982  42.995  1.00  0.00    +0.000 H 
ATOM    117  H26 UNL A   1      42.224  11.431  45.546  1.00  0.00    +0.000 H 
ATOM    118  H27 UNL A   1      43.907  12.018  47.195  1.00  0.00    +0.000 H 
ATOM     87  C63 UNL A   1      45.908  10.626  44.887  1.00  0.00    +0.000 C 
ATOM     88  C64 UNL A   1      44.950  10.359  43.911  1.00  0.00    +0.000 C 
ATOM     26  C21 UNL A   1      43.598  10.600  44.172  1.00  0.00    +0.000 C 
ATOM     27  C22 UNL A   1      43.218  11.216  45.368  1.00  0.00    +0.000 C 
ATOM     28  C23 UNL A   1      44.186  11.542  46.322  1.00  0.00    +0.000 C 
ATOM     29  C24 UNL A   1      45.534  11.226  46.101  1.00  0.00    +0.000 C 
BRANCH   26   24
ATOM     25  O2  UNL A   1      42.793   9.448  42.298  1.00  0.00    +0.000 O 
ATOM     24  C20 UNL A   1      42.553  10.264  43.179  1.00  0.00    +0.000 C 
BRANCH   24   23
ATOM    116  H25 UNL A   1      40.585  10.277  43.553  1.00  0.00    +0.000 H 
ATOM     23  N3  UNL A   1      41.316  10.859  43.243  1.00  0.00    +0.000 N 
BRANCH   23   22
ATOM    114  H23 UNL A   1      40.007  12.203  42.381  1.00  0.00    +0.000 H 
ATOM    115  H24 UNL A   1      40.833  12.765  43.837  1.00  0.00    +0.000 H 
ATOM     22  C19 UNL A   1      40.931  12.224  42.920  1.00  0.00    +0.000 C 
BRANCH   22   21
ATOM    113  H22 UNL A   1      42.880  12.352  42.160  1.00  0.00    +0.000 H 
ATOM     21  C18 UNL A   1      41.983  12.928  42.066  1.00  0.00    +0.000 C 
ATOM    112  H21 UNL A   1      42.085  13.932  42.425  1.00  0.00    +0.000 H 
BRANCH   21   20
ATOM     20  C17 UNL A   1      41.665  12.989  40.568  1.00  0.00    +0.000 C 
ATOM    110  H19 UNL A   1      42.183  12.184  40.089  1.00  0.00    +0.000 H 
ATOM    111  H20 UNL A   1      40.599  12.925  40.494  1.00  0.00    +0.000 H 
BRANCH   20   19
ATOM     19  C16 UNL A   1      42.056  14.291  39.857  1.00  0.00    +0.000 C 
ATOM    108  H17 UNL A   1      42.894  14.084  39.225  1.00  0.00    +0.000 H 
ATOM    109  H18 UNL A   1      41.186  14.609  39.324  1.00  0.00    +0.000 H 
BRANCH   19   18
ATOM     18  C15 UNL A   1      42.436  15.454  40.780  1.00  0.00    +0.000 C 
ATOM    107  H16 UNL A   1      43.190  15.089  41.445  1.00  0.00    +0.000 H 
ATOM    106  H15 UNL A   1      41.554  15.778  41.294  1.00  0.00    +0.000 H 
BRANCH   18   17
ATOM     17  C14 UNL A   1      43.035  16.658  40.049  1.00  0.00    +0.000 C 
ATOM    105  H14 UNL A   1      42.347  17.474  40.136  1.00  0.00    +0.000 H 
ATOM    104  H13 UNL A   1      43.196  16.396  39.024  1.00  0.00    +0.000 H 
BRANCH   17   16
ATOM    103  H12 UNL A   1      45.078  16.934  40.052  1.00  0.00    +0.000 H 
ATOM     16  N2  UNL A   1      44.295  17.071  40.632  1.00  0.00    +0.000 N 
BRANCH   16   14
ATOM     14  C13 UNL A   1      44.580  17.618  41.846  1.00  0.00    +0.000 C 
ATOM     15  O1  UNL A   1      43.931  18.623  42.164  1.00  0.00    +0.000 O 
BRANCH   14   12
ATOM     99  H8  UNL A   1      46.182  17.920  43.167  1.00  0.00    +0.000 H 
ATOM     12  C11 UNL A   1      45.653  17.066  42.796  1.00  0.00    +0.000 C 
BRANCH   12   11
ATOM     97  H6  UNL A   1      43.118  13.957  45.182  1.00  0.00    +0.000 H 
ATOM     98  H7  UNL A   1      44.154  14.773  43.165  1.00  0.00    +0.000 H 
ATOM    131  H40 UNL A   1      45.891  17.912  45.333  1.00  0.00    +0.000 H 
ATOM    132  H41 UNL A   1      44.969  17.015  47.374  1.00  0.00    +0.000 H 
ATOM      8  C7  UNL A   1      43.933  15.416  46.469  1.00  0.00    +0.000 C 
ATOM      9  C8  UNL A   1      43.720  14.794  45.228  1.00  0.00    +0.000 C 
ATOM     10  C9  UNL A   1      44.302  15.280  44.051  1.00  0.00    +0.000 C 
ATOM     11  C10 UNL A   1      45.079  16.441  44.057  1.00  0.00    +0.000 C 
ATOM     89  C65 UNL A   1      45.308  17.061  45.294  1.00  0.00    +0.000 C 
ATOM     90  C66 UNL A   1      44.760  16.549  46.478  1.00  0.00    +0.000 C 
BRANCH    8    7
ATOM      3  C3  UNL A   1      43.164  13.291  49.540  1.00  0.00    +0.000 C 
ATOM      4  C4  UNL A   1      42.085  14.023  50.025  1.00  0.00    +0.000 C 
ATOM      5  N1  UNL A   1      41.596  15.137  49.438  1.00  0.00    +0.000 N 
ATOM    133  H42 UNL A   1      44.563  13.223  47.963  1.00  0.00    +0.000 H 
ATOM      7  C6  UNL A   1      43.301  14.898  47.702  1.00  0.00    +0.000 C 
ATOM      6  C5  UNL A   1      42.209  15.535  48.297  1.00  0.00    +0.000 C 
ATOM     91  C67 UNL A   1      43.765  13.745  48.358  1.00  0.00    +0.000 C 
ATOM     95  H4  UNL A   1      41.630  13.694  50.890  1.00  0.00    +0.000 H 
ATOM     96  H5  UNL A   1      41.840  16.379  47.831  1.00  0.00    +0.000 H 
BRANCH    3    2
ATOM      2  C2  UNL A   1      43.586  12.068  50.231  1.00  0.00    +0.000 C 
ATOM     94  H3  UNL A   1      43.025  11.215  50.086  1.00  0.00    +0.000 H 
BRANCH    2    1
ATOM      1  C1  UNL A   1      44.651  11.988  51.039  1.00  0.00    +0.000 C 
ATOM     92  H1  UNL A   1      44.868  12.764  51.684  1.00  0.00    +0.000 H 
ATOM     93  H2  UNL A   1      45.255  11.152  51.016  1.00  0.00    +0.000 H 
ENDBRANCH    2    1
ENDBRANCH    3    2
ENDBRANCH    8    7
ENDBRANCH   12   11
BRANCH   12   13
ATOM    101  H10 UNL A   1      46.941  16.699  41.127  1.00  0.00    +0.000 H 
ATOM    100  H9  UNL A   1      47.662  16.342  42.678  1.00  0.00    +0.000 H 
ATOM     13  C12 UNL A   1      46.766  16.282  42.097  1.00  0.00    +0.000 C 
ATOM    102  H11 UNL A   1      46.473  15.258  41.999  1.00  0.00    +0.000 H 
ENDBRANCH   12   13
ENDBRANCH   14   12
ENDBRANCH   16   14
ENDBRANCH   17   16
ENDBRANCH   18   17
ENDBRANCH   19   18
ENDBRANCH   20   19
ENDBRANCH   21   20
ENDBRANCH   22   21
ENDBRANCH   23   22
ENDBRANCH   24   23
ENDBRANCH   26   24
ENDBRANCH   30   29
BRANCH   34   35
ATOM     35  C29 UNL A   1      47.525   7.962  51.906  1.00  0.00    +0.000 C 
ATOM     36  C30 UNL A   1      46.397   7.920  52.740  1.00  0.00    +0.000 C 
ATOM     37  F1  UNL A   1      45.712   9.042  53.004  1.00  0.00    +0.000 F 
ATOM     38  C31 UNL A   1      45.992   6.730  53.339  1.00  0.00    +0.000 C 
ATOM     39  F2  UNL A   1      44.942   6.724  54.170  1.00  0.00    +0.000 F 
ATOM     40  C32 UNL A   1      46.685   5.554  53.089  1.00  0.00    +0.000 C 
ATOM     41  F3  UNL A   1      46.291   4.409  53.663  1.00  0.00    +0.000 F 
ATOM     42  C33 UNL A   1      47.789   5.568  52.251  1.00  0.00    +0.000 C 
ATOM     43  F4  UNL A   1      48.451   4.431  51.999  1.00  0.00    +0.000 F 
ATOM     44  C34 UNL A   1      48.214   6.762  51.673  1.00  0.00    +0.000 C 
ATOM     45  F5  UNL A   1      49.294   6.745  50.878  1.00  0.00    +0.000 F 
ENDBRANCH   34   35
BRANCH   51   52
ATOM     52  C40 UNL A   1      52.264  13.264  53.095  1.00  0.00    +0.000 C 
ATOM     53  C41 UNL A   1      51.960  13.978  54.264  1.00  0.00    +0.000 C 
ATOM     54  F6  UNL A   1      50.711  14.415  54.482  1.00  0.00    +0.000 F 
ATOM     55  C42 UNL A   1      52.950  14.276  55.197  1.00  0.00    +0.000 C 
ATOM     56  F7  UNL A   1      52.647  14.995  56.286  1.00  0.00    +0.000 F 
ATOM     57  C43 UNL A   1      54.252  13.842  54.993  1.00  0.00    +0.000 C 
ATOM     58  F8  UNL A   1      55.202  14.126  55.894  1.00  0.00    +0.000 F 
ATOM     59  C44 UNL A   1      54.570  13.122  53.851  1.00  0.00    +0.000 C 
ATOM     60  F9  UNL A   1      55.826  12.694  53.658  1.00  0.00    +0.000 F 
ATOM     61  C45 UNL A   1      53.589  12.845  52.905  1.00  0.00    +0.000 C 
ATOM     62  F10 UNL A   1      53.928  12.156  51.804  1.00  0.00    +0.000 F 
ENDBRANCH   51   52
BRANCH   66   67
ATOM     67  C49 UNL A   1      49.991  16.500  47.363  1.00  0.00    +0.000 C 
ATOM     68  C50 UNL A   1      49.262  17.667  47.630  1.00  0.00    +0.000 C 
ATOM     69  F11 UNL A   1      48.216  17.625  48.469  1.00  0.00    +0.000 F 
ATOM     70  C51 UNL A   1      49.579  18.872  47.009  1.00  0.00    +0.000 C 
ATOM     71  F12 UNL A   1      48.841  19.963  47.252  1.00  0.00    +0.000 F 
ATOM     72  C52 UNL A   1      50.649  18.940  46.129  1.00  0.00    +0.000 C 
ATOM     73  F13 UNL A   1      50.958  20.100  45.535  1.00  0.00    +0.000 F 
ATOM     74  C53 UNL A   1      51.394  17.801  45.861  1.00  0.00    +0.000 C 
ATOM     75  F14 UNL A   1      52.437  17.866  45.021  1.00  0.00    +0.000 F 
ATOM     76  C54 UNL A   1      51.062  16.590  46.463  1.00  0.00    +0.000 C 
ATOM     77  F15 UNL A   1      51.794  15.503  46.179  1.00  0.00    +0.000 F 
ENDBRANCH   66   67
TORSDOF 20
ENDMDL
MODEL 8
REMARK VINA RESULT:     -10.2      4.339      9.179
ROOT
ATOM     30  C25 UNL A   1      41.455  26.659  27.684  1.00  0.00    +0.000 C 
ATOM     31  C26 UNL A   1      42.896  26.938  27.359  1.00  0.00    +0.000 C 
ATOM     32  N4  UNL A   1      43.624  27.987  27.651  1.00  0.00    +0.000 N 
ATOM     33  C27 UNL A   1      44.894  27.713  27.160  1.00  0.00    +0.000 C 
ATOM     34  C28 UNL A   1      45.991  28.508  27.164  1.00  0.00    +0.000 C 
ATOM     46  C35 UNL A   1      46.024  29.842  27.703  1.00  0.00    +0.000 C 
ATOM     47  C36 UNL A   1      47.069  30.749  27.700  1.00  0.00    +0.000 C 
ATOM     48  C37 UNL A   1      46.648  31.904  28.369  1.00  0.00    +0.000 C 
ATOM     49  C38 UNL A   1      45.329  31.732  28.751  1.00  0.00    +0.000 C 
ATOM     50  N5  UNL A   1      44.959  30.461  28.339  1.00  0.00    +0.000 N 
ATOM     51  C39 UNL A   1      44.466  32.657  29.441  1.00  0.00    +0.000 C 
ATOM     63  C46 UNL A   1      43.173  32.418  29.770  1.00  0.00    +0.000 C 
ATOM     64  N6  UNL A   1      42.407  31.286  29.530  1.00  0.00    +0.000 N 
ATOM     65  C47 UNL A   1      41.228  31.532  30.048  1.00  0.00    +0.000 C 
ATOM     66  C48 UNL A   1      39.997  30.668  30.059  1.00  0.00    +0.000 C 
ATOM     78  C55 UNL A   1      40.031  29.465  29.454  1.00  0.00    +0.000 C 
ATOM     79  C56 UNL A   1      38.917  28.523  29.382  1.00  0.00    +0.000 C 
ATOM     80  C57 UNL A   1      39.326  27.412  28.748  1.00  0.00    +0.000 C 
ATOM     81  C58 UNL A   1      40.721  27.579  28.341  1.00  0.00    +0.000 C 
ATOM     82  N7  UNL A   1      41.053  28.831  28.794  1.00  0.00    +0.000 N 
ATOM     83  C59 UNL A   1      41.122  32.844  30.702  1.00  0.00    +0.000 C 
ATOM     84  C60 UNL A   1      42.323  33.358  30.472  1.00  0.00    +0.000 C 
ATOM     85  C61 UNL A   1      44.850  26.382  26.593  1.00  0.00    +0.000 C 
ATOM     86  C62 UNL A   1      43.622  25.885  26.633  1.00  0.00    +0.000 C 
ATOM    119  H28 UNL A   1      47.999  30.599  27.278  1.00  0.00    +0.000 H 
ATOM    120  H29 UNL A   1      47.225  32.741  28.547  1.00  0.00    +0.000 H 
ATOM    121  H30 UNL A   1      44.072  30.058  28.479  1.00  0.00    +0.000 H 
ATOM    122  H31 UNL A   1      37.969  28.686  29.755  1.00  0.00    +0.000 H 
ATOM    123  H32 UNL A   1      38.748  26.575  28.576  1.00  0.00    +0.000 H 
ATOM    124  H33 UNL A   1      41.939  29.237  28.657  1.00  0.00    +0.000 H 
ATOM    125  H34 UNL A   1      40.323  33.257  31.209  1.00  0.00    +0.000 H 
ATOM    126  H35 UNL A   1      42.614  34.306  30.756  1.00  0.00    +0.000 H 
ATOM    127  H36 UNL A   1      45.668  25.885  26.207  1.00  0.00    +0.000 H 
ATOM    128  H37 UNL A   1      43.269  24.993  26.254  1.00  0.00    +0.000 H 
ENDROOT
BRANCH   30   29
ATOM    129  H38 UNL A   1      39.700  26.099  25.740  1.00  0.00    +0.000 H 
ATOM    130  H39 UNL A   1      38.622  23.988  25.232  1.00  0.00    +0.000 H 
ATOM    117  H26 UNL A   1      40.887  22.103  28.235  1.00  0.00    +0.000 H 
ATOM    118  H27 UNL A   1      41.818  24.251  28.877  1.00  0.00    +0.000 H 
ATOM     87  C63 UNL A   1      39.937  25.256  26.286  1.00  0.00    +0.000 C 
ATOM     88  C64 UNL A   1      39.346  24.035  25.967  1.00  0.00    +0.000 C 
ATOM     26  C21 UNL A   1      39.734  22.873  26.640  1.00  0.00    +0.000 C 
ATOM     27  C22 UNL A   1      40.629  22.954  27.711  1.00  0.00    +0.000 C 
ATOM     28  C23 UNL A   1      41.174  24.189  28.072  1.00  0.00    +0.000 C 
ATOM     29  C24 UNL A   1      40.853  25.345  27.346  1.00  0.00    +0.000 C 
BRANCH   26   24
ATOM     25  O2  UNL A   1      39.888  20.560  26.309  1.00  0.00    +0.000 O 
ATOM     24  C20 UNL A   1      39.172  21.553  26.278  1.00  0.00    +0.000 C 
BRANCH   24   23
ATOM    116  H25 UNL A   1      37.230  21.226  26.643  1.00  0.00    +0.000 H 
ATOM     23  N3  UNL A   1      37.853  21.435  25.911  1.00  0.00    +0.000 N 
BRANCH   23   22
ATOM    114  H23 UNL A   1      38.016  21.750  23.877  1.00  0.00    +0.000 H 
ATOM    115  H24 UNL A   1      36.712  20.672  24.382  1.00  0.00    +0.000 H 
ATOM     22  C19 UNL A   1      37.245  21.575  24.597  1.00  0.00    +0.000 C 
BRANCH   22   21
ATOM    113  H22 UNL A   1      35.338  22.329  24.167  1.00  0.00    +0.000 H 
ATOM     21  C18 UNL A   1      36.252  22.734  24.547  1.00  0.00    +0.000 C 
ATOM    112  H21 UNL A   1      36.667  23.500  23.925  1.00  0.00    +0.000 H 
BRANCH   21   20
ATOM     20  C17 UNL A   1      35.915  23.355  25.906  1.00  0.00    +0.000 C 
ATOM    110  H19 UNL A   1      36.673  23.059  26.600  1.00  0.00    +0.000 H 
ATOM    111  H20 UNL A   1      35.868  24.412  25.740  1.00  0.00    +0.000 H 
BRANCH   20   19
ATOM     19  C16 UNL A   1      34.554  22.965  26.499  1.00  0.00    +0.000 C 
ATOM    108  H17 UNL A   1      34.315  23.668  27.268  1.00  0.00    +0.000 H 
ATOM    109  H18 UNL A   1      33.864  22.969  25.682  1.00  0.00    +0.000 H 
BRANCH   19   18
ATOM     18  C15 UNL A   1      34.482  21.559  27.105  1.00  0.00    +0.000 C 
ATOM    107  H16 UNL A   1      34.198  21.677  28.129  1.00  0.00    +0.000 H 
ATOM    106  H15 UNL A   1      35.439  21.094  26.993  1.00  0.00    +0.000 H 
BRANCH   18   17
ATOM     17  C14 UNL A   1      33.431  20.655  26.456  1.00  0.00    +0.000 C 
ATOM    105  H14 UNL A   1      32.466  21.069  26.663  1.00  0.00    +0.000 H 
ATOM    104  H13 UNL A   1      33.524  19.669  26.862  1.00  0.00    +0.000 H 
BRANCH   17   16
ATOM    103  H12 UNL A   1      34.498  20.789  24.697  1.00  0.00    +0.000 H 
ATOM     16  N2  UNL A   1      33.590  20.587  25.018  1.00  0.00    +0.000 N 
BRANCH   16   14
ATOM     14  C13 UNL A   1      32.696  20.290  24.035  1.00  0.00    +0.000 C 
ATOM     15  O1  UNL A   1      32.544  19.091  23.771  1.00  0.00    +0.000 O 
BRANCH   14   12
ATOM     99  H8  UNL A   1      30.878  21.181  23.483  1.00  0.00    +0.000 H 
ATOM     12  C11 UNL A   1      31.909  21.353  23.253  1.00  0.00    +0.000 C 
BRANCH   12   11
ATOM     97  H6  UNL A   1      31.013  25.088  25.905  1.00  0.00    +0.000 H 
ATOM     98  H7  UNL A   1      30.713  22.774  25.300  1.00  0.00    +0.000 H 
ATOM    131  H40 UNL A   1      33.694  23.157  22.378  1.00  0.00    +0.000 H 
ATOM    132  H41 UNL A   1      34.090  25.432  23.077  1.00  0.00    +0.000 H 
ATOM      8  C7  UNL A   1      32.571  25.486  24.540  1.00  0.00    +0.000 C 
ATOM      9  C8  UNL A   1      31.601  24.682  25.160  1.00  0.00    +0.000 C 
ATOM     10  C9  UNL A   1      31.409  23.344  24.794  1.00  0.00    +0.000 C 
ATOM     11  C10 UNL A   1      32.143  22.769  23.755  1.00  0.00    +0.000 C 
ATOM     89  C65 UNL A   1      33.124  23.560  23.139  1.00  0.00    +0.000 C 
ATOM     90  C66 UNL A   1      33.344  24.886  23.535  1.00  0.00    +0.000 C 
BRANCH    8    7
ATOM      3  C3  UNL A   1      33.860  28.652  26.227  1.00  0.00    +0.000 C 
ATOM      4  C4  UNL A   1      33.056  29.574  25.564  1.00  0.00    +0.000 C 
ATOM      5  N1  UNL A   1      32.140  29.249  24.625  1.00  0.00    +0.000 N 
ATOM    133  H42 UNL A   1      34.262  26.586  26.374  1.00  0.00    +0.000 H 
ATOM      7  C6  UNL A   1      32.753  26.901  24.928  1.00  0.00    +0.000 C 
ATOM      6  C5  UNL A   1      32.011  27.930  24.342  1.00  0.00    +0.000 C 
ATOM     91  C67 UNL A   1      33.689  27.301  25.896  1.00  0.00    +0.000 C 
ATOM     95  H4  UNL A   1      33.167  30.570  25.805  1.00  0.00    +0.000 H 
ATOM     96  H5  UNL A   1      31.308  27.664  23.634  1.00  0.00    +0.000 H 
BRANCH    3    2
ATOM      2  C2  UNL A   1      34.791  29.109  27.264  1.00  0.00    +0.000 C 
ATOM     94  H3  UNL A   1      35.371  28.400  27.737  1.00  0.00    +0.000 H 
BRANCH    2    1
ATOM      1  C1  UNL A   1      34.935  30.387  27.637  1.00  0.00    +0.000 C 
ATOM     92  H1  UNL A   1      34.775  30.658  28.621  1.00  0.00    +0.000 H 
ATOM     93  H2  UNL A   1      35.205  31.100  26.942  1.00  0.00    +0.000 H 
ENDBRANCH    2    1
ENDBRANCH    3    2
ENDBRANCH    8    7
ENDBRANCH   12   11
BRANCH   12   13
ATOM    101  H10 UNL A   1      31.655  20.153  21.500  1.00  0.00    +0.000 H 
ATOM    100  H9  UNL A   1      31.239  21.836  21.280  1.00  0.00    +0.000 H 
ATOM     13  C12 UNL A   1      31.931  21.160  21.735  1.00  0.00    +0.000 C 
ATOM    102  H11 UNL A   1      32.916  21.355  21.366  1.00  0.00    +0.000 H 
ENDBRANCH   12   13
ENDBRANCH   14   12
ENDBRANCH   16   14
ENDBRANCH   17   16
ENDBRANCH   18   17
ENDBRANCH   19   18
ENDBRANCH   20   19
ENDBRANCH   21   20
ENDBRANCH   22   21
ENDBRANCH   23   22
ENDBRANCH   24   23
ENDBRANCH   26   24
ENDBRANCH   30   29
BRANCH   34   35
ATOM     35  C29 UNL A   1      47.249  27.953  26.562  1.00  0.00    +0.000 C 
ATOM     36  C30 UNL A   1      48.228  27.333  27.353  1.00  0.00    +0.000 C 
ATOM     37  F1  UNL A   1      48.075  27.260  28.683  1.00  0.00    +0.000 F 
ATOM     38  C31 UNL A   1      49.390  26.820  26.783  1.00  0.00    +0.000 C 
ATOM     39  F2  UNL A   1      50.334  26.275  27.562  1.00  0.00    +0.000 F 
ATOM     40  C32 UNL A   1      49.580  26.886  25.410  1.00  0.00    +0.000 C 
ATOM     41  F3  UNL A   1      50.697  26.387  24.862  1.00  0.00    +0.000 F 
ATOM     42  C33 UNL A   1      48.615  27.475  24.607  1.00  0.00    +0.000 C 
ATOM     43  F4  UNL A   1      48.792  27.528  23.280  1.00  0.00    +0.000 F 
ATOM     44  C34 UNL A   1      47.465  28.014  25.178  1.00  0.00    +0.000 C 
ATOM     45  F5  UNL A   1      46.556  28.590  24.376  1.00  0.00    +0.000 F 
ENDBRANCH   34   35
BRANCH   51   52
ATOM     52  C40 UNL A   1      45.030  33.998  29.806  1.00  0.00    +0.000 C 
ATOM     53  C41 UNL A   1      44.923  35.098  28.943  1.00  0.00    +0.000 C 
ATOM     54  F6  UNL A   1      44.351  34.958  27.738  1.00  0.00    +0.000 F 
ATOM     55  C42 UNL A   1      45.436  36.342  29.304  1.00  0.00    +0.000 C 
ATOM     56  F7  UNL A   1      45.361  37.369  28.448  1.00  0.00    +0.000 F 
ATOM     57  C43 UNL A   1      46.038  36.514  30.542  1.00  0.00    +0.000 C 
ATOM     58  F8  UNL A   1      46.527  37.712  30.889  1.00  0.00    +0.000 F 
ATOM     59  C44 UNL A   1      46.140  35.442  31.416  1.00  0.00    +0.000 C 
ATOM     60  F9  UNL A   1      46.713  35.610  32.617  1.00  0.00    +0.000 F 
ATOM     61  C45 UNL A   1      45.651  34.193  31.048  1.00  0.00    +0.000 C 
ATOM     62  F10 UNL A   1      45.775  33.171  31.910  1.00  0.00    +0.000 F 
ENDBRANCH   51   52
BRANCH   66   67
ATOM     67  C49 UNL A   1      38.742  31.140  30.698  1.00  0.00    +0.000 C 
ATOM     68  C50 UNL A   1      38.542  30.994  32.077  1.00  0.00    +0.000 C 
ATOM     69  F11 UNL A   1      39.481  30.401  32.830  1.00  0.00    +0.000 F 
ATOM     70  C51 UNL A   1      37.363  31.421  32.683  1.00  0.00    +0.000 C 
ATOM     71  F12 UNL A   1      37.182  31.233  33.997  1.00  0.00    +0.000 F 
ATOM     72  C52 UNL A   1      36.373  32.027  31.925  1.00  0.00    +0.000 C 
ATOM     73  F13 UNL A   1      35.240  32.443  32.508  1.00  0.00    +0.000 F 
ATOM     74  C53 UNL A   1      36.555  32.196  30.560  1.00  0.00    +0.000 C 
ATOM     75  F14 UNL A   1      35.605  32.793  29.827  1.00  0.00    +0.000 F 
ATOM     76  C54 UNL A   1      37.724  31.747  29.950  1.00  0.00    +0.000 C 
ATOM     77  F15 UNL A   1      37.870  31.915  28.627  1.00  0.00    +0.000 F 
ENDBRANCH   66   67
TORSDOF 20
ENDMDL
MODEL 9
REMARK VINA RESULT:     -10.2     37.946     43.333
ROOT
ATOM     30  C25 UNL A   1      13.095  50.021   3.428  1.00  0.00    +0.000 C 
ATOM     31  C26 UNL A   1      13.996  49.589   2.305  1.00  0.00    +0.000 C 
ATOM     32  N4  UNL A   1      14.889  50.283   1.644  1.00  0.00    +0.000 N 
ATOM     33  C27 UNL A   1      15.469  49.396   0.748  1.00  0.00    +0.000 C 
ATOM     34  C28 UNL A   1      16.409  49.642  -0.197  1.00  0.00    +0.000 C 
ATOM     46  C35 UNL A   1      16.990  50.935  -0.445  1.00  0.00    +0.000 C 
ATOM     47  C36 UNL A   1      17.905  51.299  -1.418  1.00  0.00    +0.000 C 
ATOM     48  C37 UNL A   1      18.207  52.654  -1.250  1.00  0.00    +0.000 C 
ATOM     49  C38 UNL A   1      17.450  53.145  -0.199  1.00  0.00    +0.000 C 
ATOM     50  N5  UNL A   1      16.711  52.078   0.288  1.00  0.00    +0.000 N 
ATOM     51  C39 UNL A   1      17.402  54.487   0.324  1.00  0.00    +0.000 C 
ATOM     63  C46 UNL A   1      16.620  54.893   1.354  1.00  0.00    +0.000 C 
ATOM     64  N6  UNL A   1      15.720  54.155   2.110  1.00  0.00    +0.000 N 
ATOM     65  C47 UNL A   1      15.220  54.988   2.990  1.00  0.00    +0.000 C 
ATOM     66  C48 UNL A   1      14.180  54.740   4.048  1.00  0.00    +0.000 C 
ATOM     78  C55 UNL A   1      13.625  53.517   4.153  1.00  0.00    +0.000 C 
ATOM     79  C56 UNL A   1      12.606  53.131   5.125  1.00  0.00    +0.000 C 
ATOM     80  C57 UNL A   1      12.325  51.828   4.968  1.00  0.00    +0.000 C 
ATOM     81  C58 UNL A   1      13.121  51.296   3.862  1.00  0.00    +0.000 C 
ATOM     82  N7  UNL A   1      13.856  52.372   3.432  1.00  0.00    +0.000 N 
ATOM     83  C59 UNL A   1      15.771  56.348   2.909  1.00  0.00    +0.000 C 
ATOM     84  C60 UNL A   1      16.591  56.245   1.872  1.00  0.00    +0.000 C 
ATOM     85  C61 UNL A   1      14.861  48.103   0.979  1.00  0.00    +0.000 C 
ATOM     86  C62 UNL A   1      13.899  48.182   1.887  1.00  0.00    +0.000 C 
ATOM    119  H28 UNL A   1      18.297  50.677  -2.143  1.00  0.00    +0.000 H 
ATOM    120  H29 UNL A   1      18.880  53.197  -1.814  1.00  0.00    +0.000 H 
ATOM    121  H30 UNL A   1      16.081  52.126   1.043  1.00  0.00    +0.000 H 
ATOM    122  H31 UNL A   1      12.171  53.759   5.819  1.00  0.00    +0.000 H 
ATOM    123  H32 UNL A   1      11.654  51.288   5.537  1.00  0.00    +0.000 H 
ATOM    124  H33 UNL A   1      14.487  52.328   2.679  1.00  0.00    +0.000 H 
ATOM    125  H34 UNL A   1      15.572  57.169   3.503  1.00  0.00    +0.000 H 
ATOM    126  H35 UNL A   1      17.139  57.029   1.484  1.00  0.00    +0.000 H 
ATOM    127  H36 UNL A   1      15.140  47.233   0.500  1.00  0.00    +0.000 H 
ATOM    128  H37 UNL A   1      13.252  47.449   2.215  1.00  0.00    +0.000 H 
ENDROOT
BRANCH   30   29
ATOM    129  H38 UNL A   1      10.534  49.437   2.906  1.00  0.00    +0.000 H 
ATOM    130  H39 UNL A   1       9.061  47.904   4.069  1.00  0.00    +0.000 H 
ATOM    117  H26 UNL A   1      12.246  46.709   6.544  1.00  0.00    +0.000 H 
ATOM    118  H27 UNL A   1      13.670  48.385   5.514  1.00  0.00    +0.000 H 
ATOM     87  C63 UNL A   1      10.894  48.875   3.692  1.00  0.00    +0.000 C 
ATOM     88  C64 UNL A   1      10.056  47.965   4.335  1.00  0.00    +0.000 C 
ATOM     26  C21 UNL A   1      10.564  47.135   5.338  1.00  0.00    +0.000 C 
ATOM     27  C22 UNL A   1      11.882  47.295   5.776  1.00  0.00    +0.000 C 
ATOM     28  C23 UNL A   1      12.704  48.252   5.175  1.00  0.00    +0.000 C 
ATOM     29  C24 UNL A   1      12.225  49.030   4.111  1.00  0.00    +0.000 C 
BRANCH   26   24
ATOM     25  O2  UNL A   1       8.735  45.672   5.403  1.00  0.00    +0.000 O 
ATOM     24  C20 UNL A   1       9.714  46.113   5.991  1.00  0.00    +0.000 C 
BRANCH   24   23
ATOM    116  H25 UNL A   1      10.502  44.799   7.281  1.00  0.00    +0.000 H 
ATOM     23  N3  UNL A   1      10.020  45.656   7.250  1.00  0.00    +0.000 N 
BRANCH   23   22
ATOM    114  H23 UNL A   1       9.400  47.261   8.392  1.00  0.00    +0.000 H 
ATOM    115  H24 UNL A   1       8.984  45.665   9.024  1.00  0.00    +0.000 H 
ATOM     22  C19 UNL A   1       9.736  46.256   8.544  1.00  0.00    +0.000 C 
BRANCH   22   21
ATOM    113  H22 UNL A   1      11.605  45.493   9.104  1.00  0.00    +0.000 H 
ATOM     21  C18 UNL A   1      10.966  46.280   9.447  1.00  0.00    +0.000 C 
ATOM    112  H21 UNL A   1      10.639  46.149  10.459  1.00  0.00    +0.000 H 
BRANCH   21   20
ATOM     20  C17 UNL A   1      11.794  47.567   9.379  1.00  0.00    +0.000 C 
ATOM    110  H19 UNL A   1      11.943  47.808   8.347  1.00  0.00    +0.000 H 
ATOM    111  H20 UNL A   1      11.235  48.302   9.921  1.00  0.00    +0.000 H 
BRANCH   20   19
ATOM     19  C16 UNL A   1      13.172  47.510  10.054  1.00  0.00    +0.000 C 
ATOM    108  H17 UNL A   1      13.586  46.540   9.877  1.00  0.00    +0.000 H 
ATOM    109  H18 UNL A   1      13.743  48.306   9.625  1.00  0.00    +0.000 H 
BRANCH   19   18
ATOM     18  C15 UNL A   1      13.172  47.757  11.566  1.00  0.00    +0.000 C 
ATOM    107  H16 UNL A   1      14.164  48.055  11.832  1.00  0.00    +0.000 H 
ATOM    106  H15 UNL A   1      12.867  46.855  12.055  1.00  0.00    +0.000 H 
BRANCH   18   17
ATOM     17  C14 UNL A   1      12.237  48.884  12.012  1.00  0.00    +0.000 C 
ATOM    105  H14 UNL A   1      11.373  48.439  12.460  1.00  0.00    +0.000 H 
ATOM    104  H13 UNL A   1      11.971  49.471  11.158  1.00  0.00    +0.000 H 
BRANCH   17   16
ATOM    103  H12 UNL A   1      12.535  49.613  13.918  1.00  0.00    +0.000 H 
ATOM     16  N2  UNL A   1      12.859  49.744  12.998  1.00  0.00    +0.000 N 
BRANCH   16   14
ATOM     14  C13 UNL A   1      13.817  50.703  12.867  1.00  0.00    +0.000 C 
ATOM     15  O1  UNL A   1      14.645  50.784  13.782  1.00  0.00    +0.000 O 
BRANCH   14   12
ATOM     99  H8  UNL A   1      14.664  52.372  11.919  1.00  0.00    +0.000 H 
ATOM     12  C11 UNL A   1      13.894  51.670  11.676  1.00  0.00    +0.000 C 
BRANCH   12   11
ATOM     97  H6  UNL A   1      17.028  49.384   9.080  1.00  0.00    +0.000 H 
ATOM     98  H7  UNL A   1      16.193  50.217  11.182  1.00  0.00    +0.000 H 
ATOM    131  H40 UNL A   1      12.733  51.591   9.256  1.00  0.00    +0.000 H 
ATOM    132  H41 UNL A   1      13.505  50.635   7.181  1.00  0.00    +0.000 H 
ATOM      8  C7  UNL A   1      15.353  49.942   7.926  1.00  0.00    +0.000 C 
ATOM      9  C8  UNL A   1      16.103  49.841   9.109  1.00  0.00    +0.000 C 
ATOM     10  C9  UNL A   1      15.630  50.345  10.327  1.00  0.00    +0.000 C 
ATOM     11  C10 UNL A   1      14.410  51.019  10.402  1.00  0.00    +0.000 C 
ATOM     89  C65 UNL A   1      13.647  51.113   9.229  1.00  0.00    +0.000 C 
ATOM     90  C66 UNL A   1      14.102  50.570   8.019  1.00  0.00    +0.000 C 
BRANCH    8    7
ATOM      3  C3  UNL A   1      17.047  49.699   4.519  1.00  0.00    +0.000 C 
ATOM      4  C4  UNL A   1      16.845  48.342   4.292  1.00  0.00    +0.000 C 
ATOM      5  N1  UNL A   1      16.209  47.512   5.149  1.00  0.00    +0.000 N 
ATOM    133  H42 UNL A   1      16.664  51.234   5.915  1.00  0.00    +0.000 H 
ATOM      7  C6  UNL A   1      15.872  49.416   6.645  1.00  0.00    +0.000 C 
ATOM      6  C5  UNL A   1      15.738  48.071   6.289  1.00  0.00    +0.000 C 
ATOM     91  C67 UNL A   1      16.542  50.228   5.715  1.00  0.00    +0.000 C 
ATOM     95  H4  UNL A   1      17.205  47.942   3.412  1.00  0.00    +0.000 H 
ATOM     96  H5  UNL A   1      15.241  47.453   6.949  1.00  0.00    +0.000 H 
BRANCH    3    2
ATOM      2  C2  UNL A   1      17.710  50.519   3.500  1.00  0.00    +0.000 C 
ATOM     94  H3  UNL A   1      17.437  51.511   3.428  1.00  0.00    +0.000 H 
BRANCH    2    1
ATOM      1  C1  UNL A   1      18.645  50.063   2.657  1.00  0.00    +0.000 C 
ATOM     92  H1  UNL A   1      19.633  50.025   2.955  1.00  0.00    +0.000 H 
ATOM     93  H2  UNL A   1      18.378  49.749   1.711  1.00  0.00    +0.000 H 
ENDBRANCH    2    1
ENDBRANCH    3    2
ENDBRANCH    8    7
ENDBRANCH   12   11
BRANCH   12   13
ATOM    101  H10 UNL A   1      12.497  53.097  12.446  1.00  0.00    +0.000 H 
ATOM    100  H9  UNL A   1      12.851  53.289  10.745  1.00  0.00    +0.000 H 
ATOM     13  C12 UNL A   1      12.672  52.579  11.526  1.00  0.00    +0.000 C 
ATOM    102  H11 UNL A   1      11.816  51.987  11.281  1.00  0.00    +0.000 H 
ENDBRANCH   12   13
ENDBRANCH   14   12
ENDBRANCH   16   14
ENDBRANCH   17   16
ENDBRANCH   18   17
ENDBRANCH   19   18
ENDBRANCH   20   19
ENDBRANCH   21   20
ENDBRANCH   22   21
ENDBRANCH   23   22
ENDBRANCH   24   23
ENDBRANCH   26   24
ENDBRANCH   30   29
BRANCH   34   35
ATOM     35  C29 UNL A   1      16.865  48.485  -1.037  1.00  0.00    +0.000 C 
ATOM     36  C30 UNL A   1      16.161  48.091  -2.186  1.00  0.00    +0.000 C 
ATOM     37  F1  UNL A   1      15.031  48.722  -2.535  1.00  0.00    +0.000 F 
ATOM     38  C31 UNL A   1      16.596  47.018  -2.959  1.00  0.00    +0.000 C 
ATOM     39  F2  UNL A   1      15.882  46.628  -4.023  1.00  0.00    +0.000 F 
ATOM     40  C32 UNL A   1      17.758  46.341  -2.620  1.00  0.00    +0.000 C 
ATOM     41  F3  UNL A   1      18.178  45.311  -3.368  1.00  0.00    +0.000 F 
ATOM     42  C33 UNL A   1      18.481  46.728  -1.502  1.00  0.00    +0.000 C 
ATOM     43  F4  UNL A   1      19.611  46.083  -1.180  1.00  0.00    +0.000 F 
ATOM     44  C34 UNL A   1      18.034  47.783  -0.710  1.00  0.00    +0.000 C 
ATOM     45  F5  UNL A   1      18.748  48.124   0.373  1.00  0.00    +0.000 F 
ENDBRANCH   34   35
BRANCH   51   52
ATOM     52  C40 UNL A   1      18.266  55.522  -0.331  1.00  0.00    +0.000 C 
ATOM     53  C41 UNL A   1      17.857  56.187  -1.497  1.00  0.00    +0.000 C 
ATOM     54  F6  UNL A   1      16.694  55.868  -2.084  1.00  0.00    +0.000 F 
ATOM     55  C42 UNL A   1      18.663  57.159  -2.084  1.00  0.00    +0.000 C 
ATOM     56  F7  UNL A   1      18.274  57.752  -3.221  1.00  0.00    +0.000 F 
ATOM     57  C43 UNL A   1      19.874  57.505  -1.503  1.00  0.00    +0.000 C 
ATOM     58  F8  UNL A   1      20.646  58.443  -2.067  1.00  0.00    +0.000 F 
ATOM     59  C44 UNL A   1      20.289  56.870  -0.341  1.00  0.00    +0.000 C 
ATOM     60  F9  UNL A   1      21.455  57.210   0.227  1.00  0.00    +0.000 F 
ATOM     61  C45 UNL A   1      19.498  55.880   0.234  1.00  0.00    +0.000 C 
ATOM     62  F10 UNL A   1      19.931  55.275   1.351  1.00  0.00    +0.000 F 
ENDBRANCH   51   52
BRANCH   66   67
ATOM     67  C49 UNL A   1      13.739  55.833   4.951  1.00  0.00    +0.000 C 
ATOM     68  C50 UNL A   1      12.657  56.655   4.606  1.00  0.00    +0.000 C 
ATOM     69  F11 UNL A   1      12.025  56.471   3.437  1.00  0.00    +0.000 F 
ATOM     70  C51 UNL A   1      12.245  57.691   5.440  1.00  0.00    +0.000 C 
ATOM     71  F12 UNL A   1      11.234  58.486   5.067  1.00  0.00    +0.000 F 
ATOM     72  C52 UNL A   1      12.889  57.908   6.648  1.00  0.00    +0.000 C 
ATOM     73  F13 UNL A   1      12.490  58.901   7.454  1.00  0.00    +0.000 F 
ATOM     74  C53 UNL A   1      13.953  57.098   7.018  1.00  0.00    +0.000 C 
ATOM     75  F14 UNL A   1      14.570  57.298   8.192  1.00  0.00    +0.000 F 
ATOM     76  C54 UNL A   1      14.382  56.077   6.173  1.00  0.00    +0.000 C 
ATOM     77  F15 UNL A   1      15.419  55.315   6.551  1.00  0.00    +0.000 F 
ENDBRANCH   66   67
TORSDOF 20
ENDMDL
MODEL 10
REMARK VINA RESULT:     -10.2     33.175     39.358
ROOT
ATOM     30  C25 UNL A   1       7.164   2.828  26.033  1.00  0.00    +0.000 C 
ATOM     31  C26 UNL A   1       6.425   3.969  25.391  1.00  0.00    +0.000 C 
ATOM     32  N4  UNL A   1       6.646   5.257  25.483  1.00  0.00    +0.000 N 
ATOM     33  C27 UNL A   1       5.706   5.861  24.658  1.00  0.00    +0.000 C 
ATOM     34  C28 UNL A   1       5.488   7.182  24.452  1.00  0.00    +0.000 C 
ATOM     46  C35 UNL A   1       6.230   8.237  25.091  1.00  0.00    +0.000 C 
ATOM     47  C36 UNL A   1       6.045   9.604  24.994  1.00  0.00    +0.000 C 
ATOM     48  C37 UNL A   1       7.028  10.235  25.765  1.00  0.00    +0.000 C 
ATOM     49  C38 UNL A   1       7.799   9.259  26.375  1.00  0.00    +0.000 C 
ATOM     50  N5  UNL A   1       7.301   8.038  25.950  1.00  0.00    +0.000 N 
ATOM     51  C39 UNL A   1       8.909   9.426  27.278  1.00  0.00    +0.000 C 
ATOM     63  C46 UNL A   1       9.609   8.414  27.847  1.00  0.00    +0.000 C 
ATOM     64  N6  UNL A   1       9.431   7.045  27.707  1.00  0.00    +0.000 N 
ATOM     65  C47 UNL A   1      10.359   6.484  28.443  1.00  0.00    +0.000 C 
ATOM     66  C48 UNL A   1      10.625   5.024  28.687  1.00  0.00    +0.000 C 
ATOM     78  C55 UNL A   1       9.824   4.104  28.115  1.00  0.00    +0.000 C 
ATOM     79  C56 UNL A   1       9.956   2.657  28.262  1.00  0.00    +0.000 C 
ATOM     80  C57 UNL A   1       9.018   2.055  27.514  1.00  0.00    +0.000 C 
ATOM     81  C58 UNL A   1       8.198   3.075  26.861  1.00  0.00    +0.000 C 
ATOM     82  N7  UNL A   1       8.742   4.262  27.283  1.00  0.00    +0.000 N 
ATOM     83  C59 UNL A   1      11.251   7.440  29.115  1.00  0.00    +0.000 C 
ATOM     84  C60 UNL A   1      10.727   8.601  28.747  1.00  0.00    +0.000 C 
ATOM     85  C61 UNL A   1       4.942   4.799  24.039  1.00  0.00    +0.000 C 
ATOM     86  C62 UNL A   1       5.304   3.613  24.508  1.00  0.00    +0.000 C 
ATOM    119  H28 UNL A   1       5.309  10.078  24.447  1.00  0.00    +0.000 H 
ATOM    120  H29 UNL A   1       7.157  11.255  25.862  1.00  0.00    +0.000 H 
ATOM    121  H30 UNL A   1       7.655   7.159  26.217  1.00  0.00    +0.000 H 
ATOM    122  H31 UNL A   1      10.657   2.176  28.847  1.00  0.00    +0.000 H 
ATOM    123  H32 UNL A   1       8.896   1.035  27.416  1.00  0.00    +0.000 H 
ATOM    124  H33 UNL A   1       8.392   5.141  27.017  1.00  0.00    +0.000 H 
ATOM    125  H34 UNL A   1      12.071   7.256  29.714  1.00  0.00    +0.000 H 
ATOM    126  H35 UNL A   1      11.072   9.521  29.064  1.00  0.00    +0.000 H 
ATOM    127  H36 UNL A   1       4.211   4.946  23.327  1.00  0.00    +0.000 H 
ATOM    128  H37 UNL A   1       4.904   2.684  24.305  1.00  0.00    +0.000 H 
ENDROOT
BRANCH   30   29
ATOM    129  H38 UNL A   1       5.656   1.134  27.457  1.00  0.00    +0.000 H 
ATOM    130  H39 UNL A   1       5.140  -1.189  26.998  1.00  0.00    +0.000 H 
ATOM    117  H26 UNL A   1       7.195  -0.928  23.336  1.00  0.00    +0.000 H 
ATOM    118  H27 UNL A   1       7.881   1.335  23.886  1.00  0.00    +0.000 H 
ATOM     87  C63 UNL A   1       6.002   0.691  26.592  1.00  0.00    +0.000 C 
ATOM     88  C64 UNL A   1       5.672  -0.633  26.310  1.00  0.00    +0.000 C 
ATOM     26  C21 UNL A   1       6.059  -1.207  25.096  1.00  0.00    +0.000 C 
ATOM     27  C22 UNL A   1       6.875  -0.492  24.215  1.00  0.00    +0.000 C 
ATOM     28  C23 UNL A   1       7.260   0.815  24.526  1.00  0.00    +0.000 C 
ATOM     29  C24 UNL A   1       6.804   1.426  25.704  1.00  0.00    +0.000 C 
BRANCH   26   24
ATOM     25  O2  UNL A   1       4.693  -2.778  24.022  1.00  0.00    +0.000 O 
ATOM     24  C20 UNL A   1       5.666  -2.590  24.741  1.00  0.00    +0.000 C 
BRANCH   24   23
ATOM    116  H25 UNL A   1       6.041  -4.075  26.032  1.00  0.00    +0.000 H 
ATOM     23  N3  UNL A   1       6.388  -3.660  25.210  1.00  0.00    +0.000 N 
BRANCH   23   22
ATOM    114  H23 UNL A   1       7.740  -5.220  25.135  1.00  0.00    +0.000 H 
ATOM    115  H24 UNL A   1       7.461  -4.374  23.610  1.00  0.00    +0.000 H 
ATOM     22  C19 UNL A   1       7.592  -4.270  24.667  1.00  0.00    +0.000 C 
BRANCH   22   21
ATOM    113  H22 UNL A   1       8.617  -2.452  24.471  1.00  0.00    +0.000 H 
ATOM     21  C18 UNL A   1       8.828  -3.406  24.907  1.00  0.00    +0.000 C 
ATOM    112  H21 UNL A   1       9.669  -3.897  24.461  1.00  0.00    +0.000 H 
BRANCH   21   20
ATOM     20  C17 UNL A   1       9.157  -3.143  26.380  1.00  0.00    +0.000 C 
ATOM    110  H19 UNL A   1       8.385  -3.585  26.973  1.00  0.00    +0.000 H 
ATOM    111  H20 UNL A   1      10.126  -3.568  26.542  1.00  0.00    +0.000 H 
BRANCH   20   19
ATOM     19  C16 UNL A   1       9.276  -1.667  26.783  1.00  0.00    +0.000 C 
ATOM    108  H17 UNL A   1       9.203  -1.075  25.895  1.00  0.00    +0.000 H 
ATOM    109  H18 UNL A   1       8.489  -1.488  27.484  1.00  0.00    +0.000 H 
BRANCH   19   18
ATOM     18  C15 UNL A   1      10.576  -1.286  27.500  1.00  0.00    +0.000 C 
ATOM    107  H16 UNL A   1      10.307  -0.984  28.491  1.00  0.00    +0.000 H 
ATOM    106  H15 UNL A   1      11.050  -0.503  26.946  1.00  0.00    +0.000 H 
BRANCH   18   17
ATOM     17  C14 UNL A   1      11.568  -2.442  27.645  1.00  0.00    +0.000 C 
ATOM    105  H14 UNL A   1      11.049  -3.352  27.428  1.00  0.00    +0.000 H 
ATOM    104  H13 UNL A   1      11.953  -2.445  28.644  1.00  0.00    +0.000 H 
BRANCH   17   16
ATOM    103  H12 UNL A   1      13.540  -2.627  27.073  1.00  0.00    +0.000 H 
ATOM     16  N2  UNL A   1      12.674  -2.325  26.717  1.00  0.00    +0.000 N 
BRANCH   16   14
ATOM     14  C13 UNL A   1      12.718  -1.867  25.435  1.00  0.00    +0.000 C 
ATOM     15  O1  UNL A   1      12.156  -2.564  24.581  1.00  0.00    +0.000 O 
BRANCH   14   12
ATOM     99  H8  UNL A   1      14.169  -0.862  24.301  1.00  0.00    +0.000 H 
ATOM     12  C11 UNL A   1      13.430  -0.572  25.019  1.00  0.00    +0.000 C 
BRANCH   12   11
ATOM     97  H6  UNL A   1      12.124   1.821  21.230  1.00  0.00    +0.000 H 
ATOM     98  H7  UNL A   1      13.452   0.150  22.351  1.00  0.00    +0.000 H 
ATOM    131  H40 UNL A   1      11.329   0.851  25.897  1.00  0.00    +0.000 H 
ATOM    132  H41 UNL A   1       9.910   2.421  24.740  1.00  0.00    +0.000 H 
ATOM      8  C7  UNL A   1      10.899   2.291  22.881  1.00  0.00    +0.000 C 
ATOM      9  C8  UNL A   1      11.937   1.612  22.224  1.00  0.00    +0.000 C 
ATOM     10  C9  UNL A   1      12.724   0.658  22.879  1.00  0.00    +0.000 C 
ATOM     11  C10 UNL A   1      12.542   0.382  24.236  1.00  0.00    +0.000 C 
ATOM     89  C65 UNL A   1      11.499   1.046  24.898  1.00  0.00    +0.000 C 
ATOM     90  C66 UNL A   1      10.684   1.969  24.230  1.00  0.00    +0.000 C 
BRANCH    8    7
ATOM      3  C3  UNL A   1       9.678   4.818  20.301  1.00  0.00    +0.000 C 
ATOM      4  C4  UNL A   1       8.479   5.166  20.914  1.00  0.00    +0.000 C 
ATOM      5  N1  UNL A   1       8.044   4.651  22.084  1.00  0.00    +0.000 N 
ATOM    133  H42 UNL A   1      11.384   3.601  20.539  1.00  0.00    +0.000 H 
ATOM      7  C6  UNL A   1      10.084   3.306  22.179  1.00  0.00    +0.000 C 
ATOM      6  C5  UNL A   1       8.857   3.747  22.682  1.00  0.00    +0.000 C 
ATOM     91  C67 UNL A   1      10.482   3.878  20.959  1.00  0.00    +0.000 C 
ATOM     95  H4  UNL A   1       7.882   5.864  20.443  1.00  0.00    +0.000 H 
ATOM     96  H5  UNL A   1       8.544   3.351  23.583  1.00  0.00    +0.000 H 
BRANCH    3    2
ATOM      2  C2  UNL A   1      10.076   5.475  19.051  1.00  0.00    +0.000 C 
ATOM     94  H3  UNL A   1       9.831   5.011  18.164  1.00  0.00    +0.000 H 
BRANCH    2    1
ATOM      1  C1  UNL A   1      10.738   6.637  18.989  1.00  0.00    +0.000 C 
ATOM     92  H1  UNL A   1      11.694   6.666  18.601  1.00  0.00    +0.000 H 
ATOM     93  H2  UNL A   1      10.293   7.504  19.330  1.00  0.00    +0.000 H 
ENDBRANCH    2    1
ENDBRANCH    3    2
ENDBRANCH    8    7
ENDBRANCH   12   11
BRANCH   12   13
ATOM    101  H10 UNL A   1      13.838   0.967  26.449  1.00  0.00    +0.000 H 
ATOM    100  H9  UNL A   1      14.361  -0.625  26.944  1.00  0.00    +0.000 H 
ATOM     13  C12 UNL A   1      14.289   0.054  26.121  1.00  0.00    +0.000 C 
ATOM    102  H11 UNL A   1      15.267   0.256  25.738  1.00  0.00    +0.000 H 
ENDBRANCH   12   13
ENDBRANCH   14   12
ENDBRANCH   16   14
ENDBRANCH   17   16
ENDBRANCH   18   17
ENDBRANCH   19   18
ENDBRANCH   20   19
ENDBRANCH   21   20
ENDBRANCH   22   21
ENDBRANCH   23   22
ENDBRANCH   24   23
ENDBRANCH   26   24
ENDBRANCH   30   29
BRANCH   34   35
ATOM     35  C29 UNL A   1       4.395   7.561  23.495  1.00  0.00    +0.000 C 
ATOM     36  C30 UNL A   1       3.120   7.932  23.948  1.00  0.00    +0.000 C 
ATOM     37  F1  UNL A   1       2.838   7.915  25.259  1.00  0.00    +0.000 F 
ATOM     38  C31 UNL A   1       2.116   8.285  23.051  1.00  0.00    +0.000 C 
ATOM     39  F2  UNL A   1       0.892   8.589  23.503  1.00  0.00    +0.000 F 
ATOM     40  C32 UNL A   1       2.376   8.307  21.688  1.00  0.00    +0.000 C 
ATOM     41  F3  UNL A   1       1.409   8.651  20.826  1.00  0.00    +0.000 F 
ATOM     42  C33 UNL A   1       3.636   7.966  21.220  1.00  0.00    +0.000 C 
ATOM     43  F4  UNL A   1       3.891   7.999  19.905  1.00  0.00    +0.000 F 
ATOM     44  C34 UNL A   1       4.634   7.585  22.113  1.00  0.00    +0.000 C 
ATOM     45  F5  UNL A   1       5.838   7.247  21.628  1.00  0.00    +0.000 F 
ENDBRANCH   34   35
BRANCH   51   52
ATOM     52  C40 UNL A   1       9.311  10.825  27.639  1.00  0.00    +0.000 C 
ATOM     53  C41 UNL A   1      10.383  11.467  27.002  1.00  0.00    +0.000 C 
ATOM     54  F6  UNL A   1      11.110  10.816  26.083  1.00  0.00    +0.000 F 
ATOM     55  C42 UNL A   1      10.734  12.773  27.336  1.00  0.00    +0.000 C 
ATOM     56  F7  UNL A   1      11.787  13.353  26.747  1.00  0.00    +0.000 F 
ATOM     57  C43 UNL A   1      10.003  13.469  28.288  1.00  0.00    +0.000 C 
ATOM     58  F8  UNL A   1      10.339  14.727  28.605  1.00  0.00    +0.000 F 
ATOM     59  C44 UNL A   1       8.929  12.857  28.919  1.00  0.00    +0.000 C 
ATOM     60  F9  UNL A   1       8.217  13.531  29.832  1.00  0.00    +0.000 F 
ATOM     61  C45 UNL A   1       8.593  11.544  28.606  1.00  0.00    +0.000 C 
ATOM     62  F10 UNL A   1       7.556  10.974  29.240  1.00  0.00    +0.000 F 
ENDBRANCH   51   52
BRANCH   66   67
ATOM     67  C49 UNL A   1      11.734   4.590  29.573  1.00  0.00    +0.000 C 
ATOM     68  C50 UNL A   1      12.897   4.021  29.038  1.00  0.00    +0.000 C 
ATOM     69  F11 UNL A   1      13.006   3.842  27.713  1.00  0.00    +0.000 F 
ATOM     70  C51 UNL A   1      13.937   3.598  29.863  1.00  0.00    +0.000 C 
ATOM     71  F12 UNL A   1      15.021   3.021  29.328  1.00  0.00    +0.000 F 
ATOM     72  C52 UNL A   1      13.844   3.761  31.237  1.00  0.00    +0.000 C 
ATOM     73  F13 UNL A   1      14.846   3.360  32.030  1.00  0.00    +0.000 F 
ATOM     74  C53 UNL A   1      12.708   4.335  31.788  1.00  0.00    +0.000 C 
ATOM     75  F14 UNL A   1      12.621   4.506  33.115  1.00  0.00    +0.000 F 
ATOM     76  C54 UNL A   1      11.657   4.736  30.966  1.00  0.00    +0.000 C 
ATOM     77  F15 UNL A   1      10.567   5.280  31.526  1.00  0.00    +0.000 F 
ENDBRANCH   66   67
TORSDOF 20
ENDMDL
