MODEL 1
REMARK VINA RESULT:      -9.5      0.000      0.000
ROOT
ATOM     24  C18 UNL A   1      13.527  53.374   5.974  1.00  0.00    +0.000 C 
ATOM     25  C19 UNL A   1      14.454  53.917   4.923  1.00  0.00    +0.000 C 
ATOM     26  N4  UNL A   1      14.933  53.327   3.858  1.00  0.00    +0.000 N 
ATOM     27  C20 UNL A   1      15.696  54.287   3.205  1.00  0.00    +0.000 C 
ATOM     28  C21 UNL A   1      16.439  54.155   2.080  1.00  0.00    +0.000 C 
ATOM     40  C28 UNL A   1      16.581  52.927   1.342  1.00  0.00    +0.000 C 
ATOM     41  C29 UNL A   1      17.365  52.675   0.230  1.00  0.00    +0.000 C 
ATOM     42  C30 UNL A   1      17.154  51.349  -0.162  1.00  0.00    +0.000 C 
ATOM     43  C31 UNL A   1      16.271  50.764   0.731  1.00  0.00    +0.000 C 
ATOM     44  N5  UNL A   1      15.923  51.744   1.646  1.00  0.00    +0.000 N 
ATOM     45  C32 UNL A   1      15.777  49.412   0.748  1.00  0.00    +0.000 C 
ATOM     57  C39 UNL A   1      14.914  48.909   1.664  1.00  0.00    +0.000 C 
ATOM     58  N6  UNL A   1      14.336  49.542   2.756  1.00  0.00    +0.000 N 
ATOM     59  C40 UNL A   1      13.570  48.645   3.328  1.00  0.00    +0.000 C 
ATOM     60  C41 UNL A   1      12.728  48.767   4.568  1.00  0.00    +0.000 C 
ATOM     72  C48 UNL A   1      12.723  49.928   5.248  1.00  0.00    +0.000 C 
ATOM     73  C49 UNL A   1      11.964  50.194   6.466  1.00  0.00    +0.000 C 
ATOM     74  C50 UNL A   1      12.166  51.468   6.840  1.00  0.00    +0.000 C 
ATOM     75  C51 UNL A   1      13.099  52.098   5.906  1.00  0.00    +0.000 C 
ATOM     76  N7  UNL A   1      13.383  51.107   4.999  1.00  0.00    +0.000 N 
ATOM     77  C52 UNL A   1      13.553  47.345   2.640  1.00  0.00    +0.000 C 
ATOM     78  C53 UNL A   1      14.417  47.549   1.657  1.00  0.00    +0.000 C 
ATOM     79  C54 UNL A   1      15.583  55.509   3.971  1.00  0.00    +0.000 C 
ATOM     80  C55 UNL A   1      14.877  55.318   5.076  1.00  0.00    +0.000 C 
ATOM    105  H22 UNL A   1      17.996  53.349  -0.230  1.00  0.00    +0.000 H 
ATOM    106  H23 UNL A   1      17.584  50.885  -0.978  1.00  0.00    +0.000 H 
ATOM    107  H24 UNL A   1      15.302  51.620   2.399  1.00  0.00    +0.000 H 
ATOM    108  H25 UNL A   1      11.366  49.513   6.961  1.00  0.00    +0.000 H 
ATOM    109  H26 UNL A   1      11.734  51.929   7.656  1.00  0.00    +0.000 H 
ATOM    110  H27 UNL A   1      14.000  51.229   4.242  1.00  0.00    +0.000 H 
ATOM    111  H28 UNL A   1      13.010  46.497   2.865  1.00  0.00    +0.000 H 
ATOM    112  H29 UNL A   1      14.702  46.830   0.973  1.00  0.00    +0.000 H 
ATOM    113  H30 UNL A   1      15.998  56.413   3.694  1.00  0.00    +0.000 H 
ATOM    114  H31 UNL A   1      14.677  55.978   5.843  1.00  0.00    +0.000 H 
ENDROOT
BRANCH   24   23
ATOM    103  H20 UNL A   1      13.695  55.271  10.188  1.00  0.00    +0.000 H 
ATOM    104  H21 UNL A   1      14.603  53.892   8.409  1.00  0.00    +0.000 H 
ATOM     81  C56 UNL A   1      11.837  54.986   6.853  1.00  0.00    +0.000 C 
ATOM     82  C57 UNL A   1      11.357  55.833   7.849  1.00  0.00    +0.000 C 
ATOM    115  H32 UNL A   1      11.320  54.891   5.966  1.00  0.00    +0.000 H 
ATOM     20  C14 UNL A   1      12.004  55.896   9.086  1.00  0.00    +0.000 C 
ATOM     21  C15 UNL A   1      13.197  55.195   9.288  1.00  0.00    +0.000 C 
ATOM    116  H33 UNL A   1      10.523  56.416   7.673  1.00  0.00    +0.000 H 
ATOM     22  C16 UNL A   1      13.712  54.391   8.269  1.00  0.00    +0.000 C 
ATOM     23  C17 UNL A   1      13.022  54.260   7.052  1.00  0.00    +0.000 C 
BRANCH   20   18
ATOM     18  C13 UNL A   1      11.468  56.725  10.189  1.00  0.00    +0.000 C 
ATOM     19  O3  UNL A   1      11.341  57.931  10.038  1.00  0.00    +0.000 O 
BRANCH   18   17
ATOM     17  N3  UNL A   1      11.118  56.137  11.382  1.00  0.00    +0.000 N 
ATOM    102  H19 UNL A   1      11.359  56.643  12.190  1.00  0.00    +0.000 H 
BRANCH   17   16
ATOM    100  H17 UNL A   1       9.606  55.040  12.263  1.00  0.00    +0.000 H 
ATOM    101  H18 UNL A   1      10.123  54.486  10.668  1.00  0.00    +0.000 H 
ATOM     16  C12 UNL A   1      10.441  54.871  11.615  1.00  0.00    +0.000 C 
BRANCH   16   15
ATOM     98  H15 UNL A   1      10.769  53.188  12.861  1.00  0.00    +0.000 H 
ATOM     99  H16 UNL A   1      11.860  53.334  11.456  1.00  0.00    +0.000 H 
ATOM     15  C11 UNL A   1      11.365  53.841  12.258  1.00  0.00    +0.000 C 
BRANCH   15   14
ATOM     97  H14 UNL A   1      12.020  54.607  14.098  1.00  0.00    +0.000 H 
ATOM     14  C10 UNL A   1      12.466  54.437  13.141  1.00  0.00    +0.000 C 
ATOM     96  H13 UNL A   1      12.820  55.331  12.670  1.00  0.00    +0.000 H 
BRANCH   14   13
ATOM     13  C9  UNL A   1      13.672  53.521  13.388  1.00  0.00    +0.000 C 
ATOM     94  H11 UNL A   1      14.205  53.898  14.236  1.00  0.00    +0.000 H 
ATOM     95  H12 UNL A   1      13.274  52.539  13.538  1.00  0.00    +0.000 H 
BRANCH   13   12
ATOM     92  H9  UNL A   1      14.103  53.413  11.301  1.00  0.00    +0.000 H 
ATOM     12  C8  UNL A   1      14.659  53.409  12.215  1.00  0.00    +0.000 C 
ATOM     93  H10 UNL A   1      15.328  54.241  12.285  1.00  0.00    +0.000 H 
BRANCH   12   11
ATOM     90  H7  UNL A   1      16.392  52.322  12.837  1.00  0.00    +0.000 H 
ATOM     11  C7  UNL A   1      15.510  52.138  12.260  1.00  0.00    +0.000 C 
ATOM     91  H8  UNL A   1      14.942  51.350  12.709  1.00  0.00    +0.000 H 
BRANCH   11   10
ATOM     89  H6  UNL A   1      15.521  52.341  10.223  1.00  0.00    +0.000 H 
ATOM     10  N2  UNL A   1      15.888  51.746  10.917  1.00  0.00    +0.000 N 
BRANCH   10    8
ATOM      9  O2  UNL A   1      17.583  50.327  11.103  1.00  0.00    +0.000 O 
ATOM      8  C6  UNL A   1      16.647  50.729  10.404  1.00  0.00    +0.000 C 
BRANCH    8    7
ATOM      2  C1  UNL A   1      16.632  50.176   6.611  1.00  0.00    +0.000 C 
ATOM      3  C2  UNL A   1      16.180  48.857   6.559  1.00  0.00    +0.000 C 
ATOM      4  C3  UNL A   1      15.896  48.162   7.733  1.00  0.00    +0.000 C 
ATOM      5  C4  UNL A   1      16.056  48.792   8.964  1.00  0.00    +0.000 C 
ATOM      7  C5  UNL A   1      16.481  50.131   9.049  1.00  0.00    +0.000 C 
ATOM     83  C58 UNL A   1      16.687  50.828   7.852  1.00  0.00    +0.000 C 
ATOM    117  H34 UNL A   1      16.884  51.841   7.882  1.00  0.00    +0.000 H 
ATOM     86  H3  UNL A   1      16.056  48.393   5.646  1.00  0.00    +0.000 H 
ATOM     87  H4  UNL A   1      15.571  47.184   7.689  1.00  0.00    +0.000 H 
BRANCH    2    1
ATOM      1  N1  UNL A   1      16.808  50.900   5.424  1.00  0.00    +0.000 N 
ATOM     84  H1  UNL A   1      16.364  51.771   5.308  1.00  0.00    +0.000 H 
ATOM     85  H2  UNL A   1      17.376  50.538   4.706  1.00  0.00    +0.000 H 
ENDBRANCH    2    1
BRANCH    5    6
ATOM      6  O1  UNL A   1      15.746  48.025  10.059  1.00  0.00    +0.000 O 
ATOM     88  H5  UNL A   1      14.853  47.914  10.315  1.00  0.00    +0.000 H 
ENDBRANCH    5    6
ENDBRANCH    8    7
ENDBRANCH   10    8
ENDBRANCH   11   10
ENDBRANCH   12   11
ENDBRANCH   13   12
ENDBRANCH   14   13
ENDBRANCH   15   14
ENDBRANCH   16   15
ENDBRANCH   17   16
ENDBRANCH   18   17
ENDBRANCH   20   18
ENDBRANCH   24   23
BRANCH   28   29
ATOM     33  F2  UNL A   1      20.443  56.963   1.774  1.00  0.00    +0.000 F 
ATOM     34  C25 UNL A   1      18.525  57.604   0.555  1.00  0.00    +0.000 C 
ATOM     35  F3  UNL A   1      19.172  58.674   0.073  1.00  0.00    +0.000 F 
ATOM     36  C26 UNL A   1      17.203  57.373   0.202  1.00  0.00    +0.000 C 
ATOM     37  F4  UNL A   1      16.579  58.214  -0.636  1.00  0.00    +0.000 F 
ATOM     38  C27 UNL A   1      16.525  56.273   0.717  1.00  0.00    +0.000 C 
ATOM     39  F5  UNL A   1      15.244  56.083   0.365  1.00  0.00    +0.000 F 
ATOM     29  C22 UNL A   1      17.163  55.368   1.577  1.00  0.00    +0.000 C 
ATOM     30  C23 UNL A   1      18.505  55.612   1.908  1.00  0.00    +0.000 C 
ATOM     31  F1  UNL A   1      19.157  54.783   2.737  1.00  0.00    +0.000 F 
ATOM     32  C24 UNL A   1      19.173  56.728   1.413  1.00  0.00    +0.000 C 
ENDBRANCH   28   29
BRANCH   45   46
ATOM     46  C33 UNL A   1      16.269  48.475  -0.317  1.00  0.00    +0.000 C 
ATOM     47  C34 UNL A   1      15.474  48.133  -1.419  1.00  0.00    +0.000 C 
ATOM     48  F6  UNL A   1      14.220  48.601  -1.517  1.00  0.00    +0.000 F 
ATOM     49  C35 UNL A   1      15.953  47.278  -2.408  1.00  0.00    +0.000 C 
ATOM     50  F7  UNL A   1      15.160  46.930  -3.431  1.00  0.00    +0.000 F 
ATOM     51  C36 UNL A   1      17.243  46.775  -2.327  1.00  0.00    +0.000 C 
ATOM     52  F8  UNL A   1      17.704  45.956  -3.284  1.00  0.00    +0.000 F 
ATOM     53  C37 UNL A   1      18.052  47.113  -1.254  1.00  0.00    +0.000 C 
ATOM     54  F9  UNL A   1      19.302  46.637  -1.181  1.00  0.00    +0.000 F 
ATOM     55  C38 UNL A   1      17.568  47.947  -0.250  1.00  0.00    +0.000 C 
ATOM     56  F10 UNL A   1      18.369  48.250   0.782  1.00  0.00    +0.000 F 
ENDBRANCH   45   46
BRANCH   60   61
ATOM     65  F12 UNL A   1       8.449  46.528   5.223  1.00  0.00    +0.000 F 
ATOM     66  C45 UNL A   1      10.400  45.455   6.009  1.00  0.00    +0.000 C 
ATOM     67  F13 UNL A   1       9.669  44.431   6.473  1.00  0.00    +0.000 F 
ATOM     68  C46 UNL A   1      11.777  45.459   6.178  1.00  0.00    +0.000 C 
ATOM     69  F14 UNL A   1      12.380  44.430   6.788  1.00  0.00    +0.000 F 
ATOM     70  C47 UNL A   1      12.534  46.534   5.718  1.00  0.00    +0.000 C 
ATOM     71  F15 UNL A   1      13.862  46.519   5.907  1.00  0.00    +0.000 F 
ATOM     61  C42 UNL A   1      11.931  47.615   5.059  1.00  0.00    +0.000 C 
ATOM     62  C43 UNL A   1      10.541  47.578   4.882  1.00  0.00    +0.000 C 
ATOM     63  F11 UNL A   1       9.916  48.599   4.276  1.00  0.00    +0.000 F 
ATOM     64  C44 UNL A   1       9.782  46.515   5.366  1.00  0.00    +0.000 C 
ENDBRANCH   60   61
TORSDOF 17
ENDMDL
MODEL 2
REMARK VINA RESULT:      -9.5      3.594      8.370
ROOT
ATOM     24  C18 UNL A   1      13.158  49.901   3.253  1.00  0.00    +0.000 C 
ATOM     25  C19 UNL A   1      14.078  49.457   2.151  1.00  0.00    +0.000 C 
ATOM     26  N4  UNL A   1      14.963  50.150   1.482  1.00  0.00    +0.000 N 
ATOM     27  C20 UNL A   1      15.572  49.251   0.617  1.00  0.00    +0.000 C 
ATOM     28  C21 UNL A   1      16.521  49.490  -0.321  1.00  0.00    +0.000 C 
ATOM     40  C28 UNL A   1      17.074  50.789  -0.601  1.00  0.00    +0.000 C 
ATOM     41  C29 UNL A   1      17.989  51.145  -1.578  1.00  0.00    +0.000 C 
ATOM     42  C30 UNL A   1      18.256  52.512  -1.448  1.00  0.00    +0.000 C 
ATOM     43  C31 UNL A   1      17.477  53.015  -0.418  1.00  0.00    +0.000 C 
ATOM     44  N5  UNL A   1      16.760  51.947   0.096  1.00  0.00    +0.000 N 
ATOM     45  C32 UNL A   1      17.395  54.369   0.064  1.00  0.00    +0.000 C 
ATOM     57  C39 UNL A   1      16.599  54.787   1.079  1.00  0.00    +0.000 C 
ATOM     58  N6  UNL A   1      15.710  54.050   1.850  1.00  0.00    +0.000 N 
ATOM     59  C40 UNL A   1      15.187  54.896   2.704  1.00  0.00    +0.000 C 
ATOM     60  C41 UNL A   1      14.144  54.656   3.760  1.00  0.00    +0.000 C 
ATOM     72  C48 UNL A   1      13.614  53.426   3.895  1.00  0.00    +0.000 C 
ATOM     73  C49 UNL A   1      12.594  53.044   4.866  1.00  0.00    +0.000 C 
ATOM     74  C50 UNL A   1      12.339  51.731   4.741  1.00  0.00    +0.000 C 
ATOM     75  C51 UNL A   1      13.155  51.187   3.656  1.00  0.00    +0.000 C 
ATOM     76  N7  UNL A   1      13.874  52.266   3.206  1.00  0.00    +0.000 N 
ATOM     77  C52 UNL A   1      15.712  56.265   2.590  1.00  0.00    +0.000 C 
ATOM     78  C53 UNL A   1      16.539  56.151   1.560  1.00  0.00    +0.000 C 
ATOM     79  C54 UNL A   1      14.986  47.953   0.873  1.00  0.00    +0.000 C 
ATOM     80  C55 UNL A   1      14.013  48.037   1.769  1.00  0.00    +0.000 C 
ATOM    105  H22 UNL A   1      18.401  50.512  -2.279  1.00  0.00    +0.000 H 
ATOM    106  H23 UNL A   1      18.921  53.054  -2.022  1.00  0.00    +0.000 H 
ATOM    107  H24 UNL A   1      16.123  52.001   0.844  1.00  0.00    +0.000 H 
ATOM    108  H25 UNL A   1      12.141  53.680   5.541  1.00  0.00    +0.000 H 
ATOM    109  H26 UNL A   1      11.674  51.192   5.318  1.00  0.00    +0.000 H 
ATOM    110  H27 UNL A   1      14.515  52.214   2.461  1.00  0.00    +0.000 H 
ATOM    111  H28 UNL A   1      15.494  57.095   3.161  1.00  0.00    +0.000 H 
ATOM    112  H29 UNL A   1      17.072  56.935   1.152  1.00  0.00    +0.000 H 
ATOM    113  H30 UNL A   1      15.286  47.077   0.418  1.00  0.00    +0.000 H 
ATOM    114  H31 UNL A   1      13.377  47.300   2.109  1.00  0.00    +0.000 H 
ENDROOT
BRANCH   24   23
ATOM    103  H20 UNL A   1       9.177  47.660   3.978  1.00  0.00    +0.000 H 
ATOM    104  H21 UNL A   1      10.583  49.212   2.749  1.00  0.00    +0.000 H 
ATOM     81  C56 UNL A   1      12.826  48.171   5.019  1.00  0.00    +0.000 C 
ATOM     82  C57 UNL A   1      12.039  47.228   5.677  1.00  0.00    +0.000 C 
ATOM    115  H32 UNL A   1      13.800  48.324   5.320  1.00  0.00    +0.000 H 
ATOM     20  C14 UNL A   1      10.691  47.081   5.333  1.00  0.00    +0.000 C 
ATOM     21  C15 UNL A   1      10.161  47.797   4.256  1.00  0.00    +0.000 C 
ATOM    116  H33 UNL A   1      12.450  46.637   6.417  1.00  0.00    +0.000 H 
ATOM     22  C16 UNL A   1      10.967  48.700   3.558  1.00  0.00    +0.000 C 
ATOM     23  C17 UNL A   1      12.298  48.912   3.951  1.00  0.00    +0.000 C 
BRANCH   20   18
ATOM     18  C13 UNL A   1       9.812  46.145   6.070  1.00  0.00    +0.000 C 
ATOM     19  O3  UNL A   1       8.681  45.923   5.661  1.00  0.00    +0.000 O 
BRANCH   18   17
ATOM     17  N3  UNL A   1      10.266  45.534   7.215  1.00  0.00    +0.000 N 
ATOM    102  H19 UNL A   1      10.584  44.609   7.103  1.00  0.00    +0.000 H 
BRANCH   17   16
ATOM    100  H17 UNL A   1      10.103  47.106   8.543  1.00  0.00    +0.000 H 
ATOM    101  H18 UNL A   1       9.642  45.522   9.173  1.00  0.00    +0.000 H 
ATOM     16  C12 UNL A   1      10.340  46.062   8.567  1.00  0.00    +0.000 C 
BRANCH   16   15
ATOM     98  H15 UNL A   1      11.620  45.416  10.128  1.00  0.00    +0.000 H 
ATOM     99  H16 UNL A   1      12.291  45.295   8.479  1.00  0.00    +0.000 H 
ATOM     15  C11 UNL A   1      11.729  45.886   9.173  1.00  0.00    +0.000 C 
BRANCH   15   14
ATOM     97  H14 UNL A   1      12.399  47.452  10.395  1.00  0.00    +0.000 H 
ATOM     14  C10 UNL A   1      12.510  47.189   9.365  1.00  0.00    +0.000 C 
ATOM     96  H13 UNL A   1      12.109  47.917   8.691  1.00  0.00    +0.000 H 
BRANCH   14   13
ATOM     13  C9  UNL A   1      14.020  47.089   9.111  1.00  0.00    +0.000 C 
ATOM     94  H11 UNL A   1      14.284  46.052   9.087  1.00  0.00    +0.000 H 
ATOM     95  H12 UNL A   1      14.201  47.596   8.186  1.00  0.00    +0.000 H 
BRANCH   13   12
ATOM     92  H9  UNL A   1      14.438  47.688  11.116  1.00  0.00    +0.000 H 
ATOM     12  C8  UNL A   1      14.906  47.782  10.159  1.00  0.00    +0.000 C 
ATOM     93  H10 UNL A   1      15.863  47.305  10.129  1.00  0.00    +0.000 H 
BRANCH   12   11
ATOM     90  H7  UNL A   1      14.190  49.778   9.886  1.00  0.00    +0.000 H 
ATOM     11  C7  UNL A   1      15.131  49.269   9.873  1.00  0.00    +0.000 C 
ATOM     91  H8  UNL A   1      15.775  49.678  10.623  1.00  0.00    +0.000 H 
BRANCH   11   10
ATOM     89  H6  UNL A   1      16.684  49.128   8.546  1.00  0.00    +0.000 H 
ATOM     10  N2  UNL A   1      15.749  49.436   8.573  1.00  0.00    +0.000 N 
BRANCH   10    8
ATOM      9  O2  UNL A   1      14.195  50.455   7.360  1.00  0.00    +0.000 O 
ATOM      8  C6  UNL A   1      15.313  49.928   7.372  1.00  0.00    +0.000 C 
BRANCH    8    7
ATOM      2  C1  UNL A   1      17.272  50.710   4.171  1.00  0.00    +0.000 C 
ATOM      3  C2  UNL A   1      17.449  49.418   3.673  1.00  0.00    +0.000 C 
ATOM      4  C3  UNL A   1      16.949  48.320   4.368  1.00  0.00    +0.000 C 
ATOM      5  C4  UNL A   1      16.261  48.513   5.563  1.00  0.00    +0.000 C 
ATOM      7  C5  UNL A   1      16.041  49.805   6.077  1.00  0.00    +0.000 C 
ATOM     83  C58 UNL A   1      16.489  50.894   5.320  1.00  0.00    +0.000 C 
ATOM    117  H34 UNL A   1      16.238  51.852   5.613  1.00  0.00    +0.000 H 
ATOM     86  H3  UNL A   1      17.953  49.277   2.784  1.00  0.00    +0.000 H 
ATOM     87  H4  UNL A   1      17.090  47.367   3.999  1.00  0.00    +0.000 H 
BRANCH    2    1
ATOM      1  N1  UNL A   1      17.681  51.813   3.410  1.00  0.00    +0.000 N 
ATOM     84  H1  UNL A   1      18.561  51.809   2.970  1.00  0.00    +0.000 H 
ATOM     85  H2  UNL A   1      17.088  52.593   3.316  1.00  0.00    +0.000 H 
ENDBRANCH    2    1
BRANCH    5    6
ATOM      6  O1  UNL A   1      15.805  47.369   6.168  1.00  0.00    +0.000 O 
ATOM     88  H5  UNL A   1      16.195  46.544   5.962  1.00  0.00    +0.000 H 
ENDBRANCH    5    6
ENDBRANCH    8    7
ENDBRANCH   10    8
ENDBRANCH   11   10
ENDBRANCH   12   11
ENDBRANCH   13   12
ENDBRANCH   14   13
ENDBRANCH   15   14
ENDBRANCH   16   15
ENDBRANCH   17   16
ENDBRANCH   18   17
ENDBRANCH   20   18
ENDBRANCH   24   23
BRANCH   28   29
ATOM     33  F2  UNL A   1      16.245  46.472  -4.171  1.00  0.00    +0.000 F 
ATOM     34  C25 UNL A   1      18.024  46.186  -2.645  1.00  0.00    +0.000 C 
ATOM     35  F3  UNL A   1      18.499  45.164  -3.369  1.00  0.00    +0.000 F 
ATOM     36  C26 UNL A   1      18.669  46.572  -1.478  1.00  0.00    +0.000 C 
ATOM     37  F4  UNL A   1      19.778  45.930  -1.085  1.00  0.00    +0.000 F 
ATOM     38  C27 UNL A   1      18.166  47.623  -0.717  1.00  0.00    +0.000 C 
ATOM     39  F5  UNL A   1      18.806  47.965   0.411  1.00  0.00    +0.000 F 
ATOM     29  C22 UNL A   1      17.020  48.323  -1.120  1.00  0.00    +0.000 C 
ATOM     30  C23 UNL A   1      16.393  47.927  -2.312  1.00  0.00    +0.000 C 
ATOM     31  F1  UNL A   1      15.287  48.558  -2.734  1.00  0.00    +0.000 F 
ATOM     32  C24 UNL A   1      16.883  46.859  -3.057  1.00  0.00    +0.000 C 
ENDBRANCH   28   29
BRANCH   45   46
ATOM     46  C33 UNL A   1      18.236  55.406  -0.619  1.00  0.00    +0.000 C 
ATOM     47  C34 UNL A   1      19.483  55.794  -0.107  1.00  0.00    +0.000 C 
ATOM     48  F6  UNL A   1      19.928  55.277   1.048  1.00  0.00    +0.000 F 
ATOM     49  C35 UNL A   1      20.260  56.744  -0.764  1.00  0.00    +0.000 C 
ATOM     50  F7  UNL A   1      21.429  57.132  -0.235  1.00  0.00    +0.000 F 
ATOM     51  C36 UNL A   1      19.819  57.300  -1.956  1.00  0.00    +0.000 C 
ATOM     52  F8  UNL A   1      20.572  58.211  -2.589  1.00  0.00    +0.000 F 
ATOM     53  C37 UNL A   1      18.597  56.919  -2.488  1.00  0.00    +0.000 C 
ATOM     54  F9  UNL A   1      18.177  57.446  -3.645  1.00  0.00    +0.000 F 
ATOM     55  C38 UNL A   1      17.806  55.988  -1.821  1.00  0.00    +0.000 C 
ATOM     56  F10 UNL A   1      16.624  55.645  -2.353  1.00  0.00    +0.000 F 
ENDBRANCH   45   46
BRANCH   60   61
ATOM     65  F12 UNL A   1      14.385  57.196   7.913  1.00  0.00    +0.000 F 
ATOM     66  C45 UNL A   1      12.784  57.843   6.302  1.00  0.00    +0.000 C 
ATOM     67  F13 UNL A   1      12.350  58.825   7.104  1.00  0.00    +0.000 F 
ATOM     68  C46 UNL A   1      12.188  57.641   5.065  1.00  0.00    +0.000 C 
ATOM     69  F14 UNL A   1      11.191  58.441   4.664  1.00  0.00    +0.000 F 
ATOM     70  C47 UNL A   1      12.623  56.605   4.242  1.00  0.00    +0.000 C 
ATOM     71  F15 UNL A   1      12.019  56.424   3.057  1.00  0.00    +0.000 F 
ATOM     61  C42 UNL A   1      13.677  55.765   4.629  1.00  0.00    +0.000 C 
ATOM     62  C43 UNL A   1      14.276  56.002   5.874  1.00  0.00    +0.000 C 
ATOM     63  F11 UNL A   1      15.274  55.212   6.297  1.00  0.00    +0.000 F 
ATOM     64  C44 UNL A   1      13.823  57.021   6.708  1.00  0.00    +0.000 C 
ENDBRANCH   60   61
TORSDOF 17
ENDMDL
MODEL 3
REMARK VINA RESULT:      -9.5      3.612      8.253
ROOT
ATOM     24  C18 UNL A   1      13.189  49.866   3.164  1.00  0.00    +0.000 C 
ATOM     25  C19 UNL A   1      14.119  49.427   2.069  1.00  0.00    +0.000 C 
ATOM     26  N4  UNL A   1      15.014  50.123   1.414  1.00  0.00    +0.000 N 
ATOM     27  C20 UNL A   1      15.628  49.227   0.548  1.00  0.00    +0.000 C 
ATOM     28  C21 UNL A   1      16.587  49.471  -0.377  1.00  0.00    +0.000 C 
ATOM     40  C28 UNL A   1      17.149  50.770  -0.641  1.00  0.00    +0.000 C 
ATOM     41  C29 UNL A   1      18.075  51.130  -1.605  1.00  0.00    +0.000 C 
ATOM     42  C30 UNL A   1      18.346  52.495  -1.461  1.00  0.00    +0.000 C 
ATOM     43  C31 UNL A   1      17.559  52.992  -0.436  1.00  0.00    +0.000 C 
ATOM     44  N5  UNL A   1      16.832  51.923   0.062  1.00  0.00    +0.000 N 
ATOM     45  C32 UNL A   1      17.476  54.343   0.057  1.00  0.00    +0.000 C 
ATOM     57  C39 UNL A   1      16.672  54.755   1.067  1.00  0.00    +0.000 C 
ATOM     58  N6  UNL A   1      15.772  54.016   1.822  1.00  0.00    +0.000 N 
ATOM     59  C40 UNL A   1      15.244  54.857   2.677  1.00  0.00    +0.000 C 
ATOM     60  C41 UNL A   1      14.188  54.613   3.721  1.00  0.00    +0.000 C 
ATOM     72  C48 UNL A   1      13.653  53.383   3.840  1.00  0.00    +0.000 C 
ATOM     73  C49 UNL A   1      12.620  52.998   4.797  1.00  0.00    +0.000 C 
ATOM     74  C50 UNL A   1      12.362  51.688   4.659  1.00  0.00    +0.000 C 
ATOM     75  C51 UNL A   1      13.187  51.148   3.577  1.00  0.00    +0.000 C 
ATOM     76  N7  UNL A   1      13.915  52.229   3.144  1.00  0.00    +0.000 N 
ATOM     77  C52 UNL A   1      15.775  56.225   2.580  1.00  0.00    +0.000 C 
ATOM     78  C53 UNL A   1      16.612  56.116   1.558  1.00  0.00    +0.000 C 
ATOM     79  C54 UNL A   1      15.035  47.930   0.788  1.00  0.00    +0.000 C 
ATOM     80  C55 UNL A   1      14.052  48.011   1.675  1.00  0.00    +0.000 C 
ATOM    105  H22 UNL A   1      18.492  50.501  -2.307  1.00  0.00    +0.000 H 
ATOM    106  H23 UNL A   1      19.019  53.039  -2.024  1.00  0.00    +0.000 H 
ATOM    107  H24 UNL A   1      16.187  51.973   0.804  1.00  0.00    +0.000 H 
ATOM    108  H25 UNL A   1      12.163  53.630   5.473  1.00  0.00    +0.000 H 
ATOM    109  H26 UNL A   1      11.689  51.147   5.224  1.00  0.00    +0.000 H 
ATOM    110  H27 UNL A   1      14.564  52.180   2.406  1.00  0.00    +0.000 H 
ATOM    111  H28 UNL A   1      15.554  57.051   3.156  1.00  0.00    +0.000 H 
ATOM    112  H29 UNL A   1      17.152  56.902   1.162  1.00  0.00    +0.000 H 
ATOM    113  H30 UNL A   1      15.336  47.056   0.329  1.00  0.00    +0.000 H 
ATOM    114  H31 UNL A   1      13.410  47.274   2.002  1.00  0.00    +0.000 H 
ENDROOT
BRANCH   24   23
ATOM    103  H20 UNL A   1       9.186  47.650   3.844  1.00  0.00    +0.000 H 
ATOM    104  H21 UNL A   1      10.610  49.207   2.642  1.00  0.00    +0.000 H 
ATOM     81  C56 UNL A   1      12.835  48.113   4.905  1.00  0.00    +0.000 C 
ATOM     82  C57 UNL A   1      12.038  47.168   5.546  1.00  0.00    +0.000 C 
ATOM    115  H32 UNL A   1      13.811  48.254   5.211  1.00  0.00    +0.000 H 
ATOM     20  C14 UNL A   1      10.691  47.038   5.196  1.00  0.00    +0.000 C 
ATOM     21  C15 UNL A   1      10.170  47.775   4.127  1.00  0.00    +0.000 C 
ATOM    116  H33 UNL A   1      12.441  46.564   6.279  1.00  0.00    +0.000 H 
ATOM     22  C16 UNL A   1      10.987  48.680   3.445  1.00  0.00    +0.000 C 
ATOM     23  C17 UNL A   1      12.318  48.875   3.845  1.00  0.00    +0.000 C 
BRANCH   20   18
ATOM     18  C13 UNL A   1       9.800  46.100   5.916  1.00  0.00    +0.000 C 
ATOM     19  O3  UNL A   1       8.676  45.880   5.490  1.00  0.00    +0.000 O 
BRANCH   18   17
ATOM     17  N3  UNL A   1      10.237  45.484   7.065  1.00  0.00    +0.000 N 
ATOM    102  H19 UNL A   1      10.562  44.562   6.953  1.00  0.00    +0.000 H 
BRANCH   17   16
ATOM    100  H17 UNL A   1      10.025  47.043   8.402  1.00  0.00    +0.000 H 
ATOM    101  H18 UNL A   1       9.594  45.444   9.016  1.00  0.00    +0.000 H 
ATOM     16  C12 UNL A   1      10.285  46.005   8.422  1.00  0.00    +0.000 C 
BRANCH   16   15
ATOM     98  H15 UNL A   1      11.559  45.409  10.007  1.00  0.00    +0.000 H 
ATOM     99  H16 UNL A   1      12.243  45.252   8.366  1.00  0.00    +0.000 H 
ATOM     15  C11 UNL A   1      11.671  45.855   9.041  1.00  0.00    +0.000 C 
BRANCH   15   14
ATOM     97  H14 UNL A   1      12.254  47.499  10.205  1.00  0.00    +0.000 H 
ATOM     14  C10 UNL A   1      12.440  47.169   9.205  1.00  0.00    +0.000 C 
ATOM     96  H13 UNL A   1      12.092  47.852   8.458  1.00  0.00    +0.000 H 
BRANCH   14   13
ATOM     13  C9  UNL A   1      13.965  47.055   9.070  1.00  0.00    +0.000 C 
ATOM     94  H11 UNL A   1      14.223  46.017   9.098  1.00  0.00    +0.000 H 
ATOM     95  H12 UNL A   1      14.218  47.533   8.147  1.00  0.00    +0.000 H 
BRANCH   13   12
ATOM     92  H9  UNL A   1      14.228  47.723  11.080  1.00  0.00    +0.000 H 
ATOM     12  C8  UNL A   1      14.773  47.777  10.161  1.00  0.00    +0.000 C 
ATOM     93  H10 UNL A   1      15.723  47.289  10.225  1.00  0.00    +0.000 H 
BRANCH   12   11
ATOM     90  H7  UNL A   1      14.115  49.786   9.843  1.00  0.00    +0.000 H 
ATOM     11  C7  UNL A   1      15.040  49.250   9.842  1.00  0.00    +0.000 C 
ATOM     91  H8  UNL A   1      15.695  49.657  10.583  1.00  0.00    +0.000 H 
BRANCH   11   10
ATOM     89  H6  UNL A   1      16.585  49.024   8.517  1.00  0.00    +0.000 H 
ATOM     10  N2  UNL A   1      15.663  49.369   8.538  1.00  0.00    +0.000 N 
BRANCH   10    8
ATOM      9  O2  UNL A   1      14.125  50.378   7.297  1.00  0.00    +0.000 O 
ATOM      8  C6  UNL A   1      15.245  49.857   7.330  1.00  0.00    +0.000 C 
BRANCH    8    7
ATOM      2  C1  UNL A   1      17.261  50.645   4.165  1.00  0.00    +0.000 C 
ATOM      3  C2  UNL A   1      17.449  49.354   3.669  1.00  0.00    +0.000 C 
ATOM      4  C3  UNL A   1      16.938  48.254   4.354  1.00  0.00    +0.000 C 
ATOM      5  C4  UNL A   1      16.228  48.446   5.537  1.00  0.00    +0.000 C 
ATOM      7  C5  UNL A   1      15.996  49.736   6.048  1.00  0.00    +0.000 C 
ATOM     83  C58 UNL A   1      16.456  50.827   5.300  1.00  0.00    +0.000 C 
ATOM    117  H34 UNL A   1      16.199  51.785   5.589  1.00  0.00    +0.000 H 
ATOM     86  H3  UNL A   1      17.969  49.214   2.789  1.00  0.00    +0.000 H 
ATOM     87  H4  UNL A   1      17.087  47.302   3.988  1.00  0.00    +0.000 H 
BRANCH    2    1
ATOM      1  N1  UNL A   1      17.682  51.750   3.413  1.00  0.00    +0.000 N 
ATOM     84  H1  UNL A   1      18.522  52.209   3.640  1.00  0.00    +0.000 H 
ATOM     85  H2  UNL A   1      17.136  52.067   2.657  1.00  0.00    +0.000 H 
ENDBRANCH    2    1
BRANCH    5    6
ATOM      6  O1  UNL A   1      15.764  47.300   6.133  1.00  0.00    +0.000 O 
ATOM     88  H5  UNL A   1      16.279  46.871   6.786  1.00  0.00    +0.000 H 
ENDBRANCH    5    6
ENDBRANCH    8    7
ENDBRANCH   10    8
ENDBRANCH   11   10
ENDBRANCH   12   11
ENDBRANCH   13   12
ENDBRANCH   14   13
ENDBRANCH   15   14
ENDBRANCH   16   15
ENDBRANCH   17   16
ENDBRANCH   18   17
ENDBRANCH   20   18
ENDBRANCH   24   23
BRANCH   28   29
ATOM     33  F2  UNL A   1      16.393  46.538  -4.298  1.00  0.00    +0.000 F 
ATOM     34  C25 UNL A   1      18.104  46.179  -2.710  1.00  0.00    +0.000 C 
ATOM     35  F3  UNL A   1      18.583  45.160  -3.436  1.00  0.00    +0.000 F 
ATOM     36  C26 UNL A   1      18.711  46.526  -1.512  1.00  0.00    +0.000 C 
ATOM     37  F4  UNL A   1      19.789  45.849  -1.089  1.00  0.00    +0.000 F 
ATOM     38  C27 UNL A   1      18.203  47.573  -0.748  1.00  0.00    +0.000 C 
ATOM     39  F5  UNL A   1      18.806  47.877   0.411  1.00  0.00    +0.000 F 
ATOM     29  C22 UNL A   1      17.090  48.309  -1.181  1.00  0.00    +0.000 C 
ATOM     30  C23 UNL A   1      16.502  47.952  -2.404  1.00  0.00    +0.000 C 
ATOM     31  F1  UNL A   1      15.428  48.617  -2.856  1.00  0.00    +0.000 F 
ATOM     32  C24 UNL A   1      16.995  46.887  -3.152  1.00  0.00    +0.000 C 
ENDBRANCH   28   29
BRANCH   45   46
ATOM     46  C33 UNL A   1      18.329  55.382  -0.609  1.00  0.00    +0.000 C 
ATOM     47  C34 UNL A   1      17.947  55.981  -1.817  1.00  0.00    +0.000 C 
ATOM     48  F6  UNL A   1      16.823  55.592  -2.438  1.00  0.00    +0.000 F 
ATOM     49  C35 UNL A   1      18.741  56.958  -2.412  1.00  0.00    +0.000 C 
ATOM     50  F7  UNL A   1      18.379  57.487  -3.589  1.00  0.00    +0.000 F 
ATOM     51  C36 UNL A   1      19.912  57.374  -1.795  1.00  0.00    +0.000 C 
ATOM     52  F8  UNL A   1      20.672  58.320  -2.367  1.00  0.00    +0.000 F 
ATOM     53  C37 UNL A   1      20.299  56.807  -0.591  1.00  0.00    +0.000 C 
ATOM     54  F9  UNL A   1      21.424  57.216   0.011  1.00  0.00    +0.000 F 
ATOM     55  C38 UNL A   1      19.522  55.811  -0.007  1.00  0.00    +0.000 C 
ATOM     56  F10 UNL A   1      19.926  55.272   1.152  1.00  0.00    +0.000 F 
ENDBRANCH   45   46
BRANCH   60   61
ATOM     65  F12 UNL A   1      11.371  58.514   4.497  1.00  0.00    +0.000 F 
ATOM     66  C45 UNL A   1      12.833  57.833   6.222  1.00  0.00    +0.000 C 
ATOM     67  F13 UNL A   1      12.420  58.849   6.994  1.00  0.00    +0.000 F 
ATOM     68  C46 UNL A   1      13.806  56.959   6.685  1.00  0.00    +0.000 C 
ATOM     69  F14 UNL A   1      14.320  57.119   7.911  1.00  0.00    +0.000 F 
ATOM     70  C47 UNL A   1      14.252  55.918   5.874  1.00  0.00    +0.000 C 
ATOM     71  F15 UNL A   1      15.204  55.096   6.341  1.00  0.00    +0.000 F 
ATOM     61  C42 UNL A   1      13.716  55.717   4.594  1.00  0.00    +0.000 C 
ATOM     62  C43 UNL A   1      12.720  56.601   4.157  1.00  0.00    +0.000 C 
ATOM     63  F11 UNL A   1      12.193  56.461   2.931  1.00  0.00    +0.000 F 
ATOM     64  C44 UNL A   1      12.293  57.657   4.958  1.00  0.00    +0.000 C 
ENDBRANCH   60   61
TORSDOF 17
ENDMDL
MODEL 4
REMARK VINA RESULT:      -9.5     38.193     43.173
ROOT
ATOM     24  C18 UNL A   1      38.084  30.084  29.783  1.00  0.00    +0.000 C 
ATOM     25  C19 UNL A   1      39.153  29.184  29.229  1.00  0.00    +0.000 C 
ATOM     26  N4  UNL A   1      40.257  28.767  29.793  1.00  0.00    +0.000 N 
ATOM     27  C20 UNL A   1      40.857  27.922  28.868  1.00  0.00    +0.000 C 
ATOM     28  C21 UNL A   1      42.045  27.278  28.959  1.00  0.00    +0.000 C 
ATOM     40  C28 UNL A   1      42.939  27.379  30.082  1.00  0.00    +0.000 C 
ATOM     41  C29 UNL A   1      44.196  26.821  30.239  1.00  0.00    +0.000 C 
ATOM     42  C30 UNL A   1      44.672  27.164  31.508  1.00  0.00    +0.000 C 
ATOM     43  C31 UNL A   1      43.729  27.970  32.126  1.00  0.00    +0.000 C 
ATOM     44  N5  UNL A   1      42.670  28.091  31.242  1.00  0.00    +0.000 N 
ATOM     45  C32 UNL A   1      43.789  28.583  33.427  1.00  0.00    +0.000 C 
ATOM     57  C39 UNL A   1      42.823  29.369  33.963  1.00  0.00    +0.000 C 
ATOM     58  N6  UNL A   1      41.612  29.760  33.409  1.00  0.00    +0.000 N 
ATOM     59  C40 UNL A   1      41.026  30.506  34.314  1.00  0.00    +0.000 C 
ATOM     60  C41 UNL A   1      39.706  31.222  34.246  1.00  0.00    +0.000 C 
ATOM     72  C48 UNL A   1      38.973  31.145  33.119  1.00  0.00    +0.000 C 
ATOM     73  C49 UNL A   1      37.680  31.788  32.903  1.00  0.00    +0.000 C 
ATOM     74  C50 UNL A   1      37.224  31.456  31.684  1.00  0.00    +0.000 C 
ATOM     75  C51 UNL A   1      38.211  30.604  31.019  1.00  0.00    +0.000 C 
ATOM     76  N7  UNL A   1      39.219  30.480  31.943  1.00  0.00    +0.000 N 
ATOM     77  C52 UNL A   1      41.792  30.646  35.562  1.00  0.00    +0.000 C 
ATOM     78  C53 UNL A   1      42.894  29.967  35.279  1.00  0.00    +0.000 C 
ATOM     79  C54 UNL A   1      39.975  27.852  27.723  1.00  0.00    +0.000 C 
ATOM     80  C55 UNL A   1      38.937  28.664  27.870  1.00  0.00    +0.000 C 
ATOM    105  H22 UNL A   1      44.695  26.250  29.539  1.00  0.00    +0.000 H 
ATOM    106  H23 UNL A   1      45.573  26.867  31.916  1.00  0.00    +0.000 H 
ATOM    107  H24 UNL A   1      41.847  28.604  31.412  1.00  0.00    +0.000 H 
ATOM    108  H25 UNL A   1      37.194  32.398  33.578  1.00  0.00    +0.000 H 
ATOM    109  H26 UNL A   1      36.323  31.754  31.280  1.00  0.00    +0.000 H 
ATOM    110  H27 UNL A   1      40.041  29.963  31.778  1.00  0.00    +0.000 H 
ATOM    111  H28 UNL A   1      41.537  31.143  36.429  1.00  0.00    +0.000 H 
ATOM    112  H29 UNL A   1      43.701  29.876  35.916  1.00  0.00    +0.000 H 
ATOM    113  H30 UNL A   1      40.133  27.251  26.900  1.00  0.00    +0.000 H 
ATOM    114  H31 UNL A   1      38.178  28.875  27.204  1.00  0.00    +0.000 H 
ENDROOT
BRANCH   24   23
ATOM    103  H20 UNL A   1      35.193  32.799  27.404  1.00  0.00    +0.000 H 
ATOM    104  H21 UNL A   1      37.268  32.381  28.593  1.00  0.00    +0.000 H 
ATOM     81  C56 UNL A   1      35.936  29.305  28.780  1.00  0.00    +0.000 C 
ATOM     82  C57 UNL A   1      34.781  29.529  28.034  1.00  0.00    +0.000 C 
ATOM    115  H32 UNL A   1      36.120  28.369  29.171  1.00  0.00    +0.000 H 
ATOM     20  C14 UNL A   1      34.482  30.817  27.580  1.00  0.00    +0.000 C 
ATOM     21  C15 UNL A   1      35.396  31.858  27.774  1.00  0.00    +0.000 C 
ATOM    116  H33 UNL A   1      34.146  28.746  27.818  1.00  0.00    +0.000 H 
ATOM     22  C16 UNL A   1      36.583  31.619  28.469  1.00  0.00    +0.000 C 
ATOM     23  C17 UNL A   1      36.851  30.347  29.000  1.00  0.00    +0.000 C 
BRANCH   20   18
ATOM     18  C13 UNL A   1      33.221  31.100  26.857  1.00  0.00    +0.000 C 
ATOM     19  O3  UNL A   1      32.508  32.025  27.218  1.00  0.00    +0.000 O 
BRANCH   18   17
ATOM     17  N3  UNL A   1      32.854  30.320  25.787  1.00  0.00    +0.000 N 
ATOM    102  H19 UNL A   1      33.400  30.429  24.976  1.00  0.00    +0.000 H 
BRANCH   17   16
ATOM    100  H17 UNL A   1      30.848  29.885  25.557  1.00  0.00    +0.000 H 
ATOM    101  H18 UNL A   1      31.969  28.718  24.850  1.00  0.00    +0.000 H 
ATOM     16  C12 UNL A   1      31.770  29.356  25.686  1.00  0.00    +0.000 C 
BRANCH   16   15
ATOM     98  H15 UNL A   1      32.377  28.838  27.650  1.00  0.00    +0.000 H 
ATOM     99  H16 UNL A   1      30.654  28.559  27.275  1.00  0.00    +0.000 H 
ATOM     15  C11 UNL A   1      31.666  28.483  26.933  1.00  0.00    +0.000 C 
BRANCH   15   14
ATOM     97  H14 UNL A   1      31.218  26.679  25.962  1.00  0.00    +0.000 H 
ATOM     14  C10 UNL A   1      31.932  26.994  26.692  1.00  0.00    +0.000 C 
ATOM     96  H13 UNL A   1      31.838  26.486  27.629  1.00  0.00    +0.000 H 
BRANCH   14   13
ATOM     13  C9  UNL A   1      33.312  26.663  26.109  1.00  0.00    +0.000 C 
ATOM     94  H11 UNL A   1      33.409  27.178  25.175  1.00  0.00    +0.000 H 
ATOM     95  H12 UNL A   1      34.027  26.974  26.842  1.00  0.00    +0.000 H 
BRANCH   13   12
ATOM     92  H9  UNL A   1      34.096  24.770  26.704  1.00  0.00    +0.000 H 
ATOM     12  C8  UNL A   1      33.576  25.169  25.859  1.00  0.00    +0.000 C 
ATOM     93  H10 UNL A   1      32.625  24.701  25.712  1.00  0.00    +0.000 H 
BRANCH   12   11
ATOM     90  H7  UNL A   1      35.416  25.231  24.773  1.00  0.00    +0.000 H 
ATOM     11  C7  UNL A   1      34.412  24.904  24.605  1.00  0.00    +0.000 C 
ATOM     91  H8  UNL A   1      34.404  23.855  24.393  1.00  0.00    +0.000 H 
BRANCH   11   10
ATOM     89  H6  UNL A   1      34.428  26.361  23.167  1.00  0.00    +0.000 H 
ATOM     10  N2  UNL A   1      33.855  25.622  23.476  1.00  0.00    +0.000 N 
BRANCH   10    8
ATOM      9  O2  UNL A   1      32.732  24.701  21.799  1.00  0.00    +0.000 O 
ATOM      8  C6  UNL A   1      32.704  25.494  22.746  1.00  0.00    +0.000 C 
BRANCH    8    7
ATOM      2  C1  UNL A   1      30.032  28.239  22.595  1.00  0.00    +0.000 C 
ATOM      3  C2  UNL A   1      29.038  27.653  23.378  1.00  0.00    +0.000 C 
ATOM      4  C3  UNL A   1      29.230  26.391  23.935  1.00  0.00    +0.000 C 
ATOM      5  C4  UNL A   1      30.427  25.715  23.715  1.00  0.00    +0.000 C 
ATOM      7  C5  UNL A   1      31.461  26.290  22.953  1.00  0.00    +0.000 C 
ATOM     83  C58 UNL A   1      31.270  27.590  22.469  1.00  0.00    +0.000 C 
ATOM    117  H34 UNL A   1      32.054  28.081  22.010  1.00  0.00    +0.000 H 
ATOM     86  H3  UNL A   1      28.154  28.159  23.547  1.00  0.00    +0.000 H 
ATOM     87  H4  UNL A   1      28.489  25.959  24.507  1.00  0.00    +0.000 H 
BRANCH    2    1
ATOM      1  N1  UNL A   1      29.874  29.553  22.132  1.00  0.00    +0.000 N 
ATOM     84  H1  UNL A   1      30.664  30.113  21.961  1.00  0.00    +0.000 H 
ATOM     85  H2  UNL A   1      28.971  29.914  21.979  1.00  0.00    +0.000 H 
ENDBRANCH    2    1
BRANCH    5    6
ATOM      6  O1  UNL A   1      30.521  24.481  24.309  1.00  0.00    +0.000 O 
ATOM     88  H5  UNL A   1      29.933  24.248  24.999  1.00  0.00    +0.000 H 
ENDBRANCH    5    6
ENDBRANCH    8    7
ENDBRANCH   10    8
ENDBRANCH   11   10
ENDBRANCH   12   11
ENDBRANCH   13   12
ENDBRANCH   14   13
ENDBRANCH   15   14
ENDBRANCH   16   15
ENDBRANCH   17   16
ENDBRANCH   18   17
ENDBRANCH   20   18
ENDBRANCH   24   23
BRANCH   28   29
ATOM     33  F2  UNL A   1      44.572  26.497  24.834  1.00  0.00    +0.000 F 
ATOM     34  C25 UNL A   1      43.274  24.729  25.707  1.00  0.00    +0.000 C 
ATOM     35  F3  UNL A   1      43.659  23.931  24.702  1.00  0.00    +0.000 F 
ATOM     36  C26 UNL A   1      42.398  24.257  26.674  1.00  0.00    +0.000 C 
ATOM     37  F4  UNL A   1      41.950  22.994  26.610  1.00  0.00    +0.000 F 
ATOM     38  C27 UNL A   1      41.983  25.091  27.708  1.00  0.00    +0.000 C 
ATOM     39  F5  UNL A   1      41.127  24.608  28.621  1.00  0.00    +0.000 F 
ATOM     29  C22 UNL A   1      42.455  26.407  27.808  1.00  0.00    +0.000 C 
ATOM     30  C23 UNL A   1      43.353  26.859  26.828  1.00  0.00    +0.000 C 
ATOM     31  F1  UNL A   1      43.824  28.114  26.873  1.00  0.00    +0.000 F 
ATOM     32  C24 UNL A   1      43.745  26.032  25.780  1.00  0.00    +0.000 C 
ENDBRANCH   28   29
BRANCH   45   46
ATOM     46  C33 UNL A   1      45.022  28.355  34.251  1.00  0.00    +0.000 C 
ATOM     47  C34 UNL A   1      46.114  29.233  34.196  1.00  0.00    +0.000 C 
ATOM     48  F6  UNL A   1      46.098  30.278  33.354  1.00  0.00    +0.000 F 
ATOM     49  C35 UNL A   1      47.243  29.018  34.982  1.00  0.00    +0.000 C 
ATOM     50  F7  UNL A   1      48.293  29.845  34.882  1.00  0.00    +0.000 F 
ATOM     51  C36 UNL A   1      47.288  27.941  35.855  1.00  0.00    +0.000 C 
ATOM     52  F8  UNL A   1      48.375  27.740  36.615  1.00  0.00    +0.000 F 
ATOM     53  C37 UNL A   1      46.213  27.071  35.937  1.00  0.00    +0.000 C 
ATOM     54  F9  UNL A   1      46.251  26.037  36.789  1.00  0.00    +0.000 F 
ATOM     55  C38 UNL A   1      45.093  27.268  35.134  1.00  0.00    +0.000 C 
ATOM     56  F10 UNL A   1      44.071  26.404  35.226  1.00  0.00    +0.000 F 
ENDBRANCH   45   46
BRANCH   60   61
ATOM     65  F12 UNL A   1      37.167  31.641  38.385  1.00  0.00    +0.000 F 
ATOM     66  C45 UNL A   1      38.271  33.557  37.556  1.00  0.00    +0.000 C 
ATOM     67  F13 UNL A   1      37.808  34.286  38.581  1.00  0.00    +0.000 F 
ATOM     68  C46 UNL A   1      39.064  34.148  36.584  1.00  0.00    +0.000 C 
ATOM     69  F14 UNL A   1      39.383  35.446  36.678  1.00  0.00    +0.000 F 
ATOM     70  C47 UNL A   1      39.525  33.396  35.506  1.00  0.00    +0.000 C 
ATOM     71  F15 UNL A   1      40.278  33.997  34.572  1.00  0.00    +0.000 F 
ATOM     61  C42 UNL A   1      39.222  32.032  35.393  1.00  0.00    +0.000 C 
ATOM     62  C43 UNL A   1      38.437  31.452  36.399  1.00  0.00    +0.000 C 
ATOM     63  F11 UNL A   1      38.103  30.155  36.322  1.00  0.00    +0.000 F 
ATOM     64  C44 UNL A   1      37.954  32.211  37.462  1.00  0.00    +0.000 C 
ENDBRANCH   60   61
TORSDOF 17
ENDMDL
MODEL 5
REMARK VINA RESULT:      -9.4     19.212     23.866
ROOT
ATOM     24  C18 UNL A   1      12.210  29.276  -1.302  1.00  0.00    +0.000 C 
ATOM     25  C19 UNL A   1      11.360  30.200  -2.129  1.00  0.00    +0.000 C 
ATOM     26  N4  UNL A   1      10.074  30.427  -2.058  1.00  0.00    +0.000 N 
ATOM     27  C20 UNL A   1       9.808  31.400  -3.013  1.00  0.00    +0.000 C 
ATOM     28  C21 UNL A   1       8.615  31.937  -3.362  1.00  0.00    +0.000 C 
ATOM     40  C28 UNL A   1       7.353  31.558  -2.782  1.00  0.00    +0.000 C 
ATOM     41  C29 UNL A   1       6.083  31.995  -3.117  1.00  0.00    +0.000 C 
ATOM     42  C30 UNL A   1       5.169  31.376  -2.258  1.00  0.00    +0.000 C 
ATOM     43  C31 UNL A   1       5.865  30.524  -1.416  1.00  0.00    +0.000 C 
ATOM     44  N5  UNL A   1       7.205  30.648  -1.745  1.00  0.00    +0.000 N 
ATOM     45  C32 UNL A   1       5.348  29.661  -0.387  1.00  0.00    +0.000 C 
ATOM     57  C39 UNL A   1       6.097  28.846   0.396  1.00  0.00    +0.000 C 
ATOM     58  N6  UNL A   1       7.471  28.650   0.385  1.00  0.00    +0.000 N 
ATOM     59  C40 UNL A   1       7.717  27.777   1.331  1.00  0.00    +0.000 C 
ATOM     60  C41 UNL A   1       9.030  27.173   1.747  1.00  0.00    +0.000 C 
ATOM     72  C48 UNL A   1      10.152  27.519   1.089  1.00  0.00    +0.000 C 
ATOM     73  C49 UNL A   1      11.492  27.014   1.374  1.00  0.00    +0.000 C 
ATOM     74  C50 UNL A   1      12.369  27.609   0.550  1.00  0.00    +0.000 C 
ATOM     75  C51 UNL A   1      11.647  28.513  -0.346  1.00  0.00    +0.000 C 
ATOM     76  N7  UNL A   1      10.335  28.388   0.042  1.00  0.00    +0.000 N 
ATOM     77  C52 UNL A   1       6.524  27.343   2.072  1.00  0.00    +0.000 C 
ATOM     78  C53 UNL A   1       5.561  27.995   1.437  1.00  0.00    +0.000 C 
ATOM     79  C54 UNL A   1      11.072  31.751  -3.623  1.00  0.00    +0.000 C 
ATOM     80  C55 UNL A   1      12.055  30.993  -3.156  1.00  0.00    +0.000 C 
ATOM    105  H22 UNL A   1       5.852  32.660  -3.869  1.00  0.00    +0.000 H 
ATOM    106  H23 UNL A   1       4.147  31.529  -2.252  1.00  0.00    +0.000 H 
ATOM    107  H24 UNL A   1       7.942  30.163  -1.309  1.00  0.00    +0.000 H 
ATOM    108  H25 UNL A   1      11.728  26.313   2.094  1.00  0.00    +0.000 H 
ATOM    109  H26 UNL A   1      13.390  27.455   0.548  1.00  0.00    +0.000 H 
ATOM    110  H27 UNL A   1       9.597  28.875  -0.390  1.00  0.00    +0.000 H 
ATOM    111  H28 UNL A   1       6.455  26.701   2.876  1.00  0.00    +0.000 H 
ATOM    112  H29 UNL A   1       4.555  27.906   1.655  1.00  0.00    +0.000 H 
ATOM    113  H30 UNL A   1      11.194  32.494  -4.329  1.00  0.00    +0.000 H 
ATOM    114  H31 UNL A   1      13.046  30.967  -3.439  1.00  0.00    +0.000 H 
ENDROOT
BRANCH   24   23
ATOM    103  H20 UNL A   1      16.494  30.877  -0.610  1.00  0.00    +0.000 H 
ATOM    104  H21 UNL A   1      14.100  30.883  -0.205  1.00  0.00    +0.000 H 
ATOM     81  C56 UNL A   1      14.260  28.276  -2.313  1.00  0.00    +0.000 C 
ATOM     82  C57 UNL A   1      15.641  28.229  -2.486  1.00  0.00    +0.000 C 
ATOM    115  H32 UNL A   1      13.659  27.590  -2.795  1.00  0.00    +0.000 H 
ATOM     20  C14 UNL A   1      16.452  29.211  -1.910  1.00  0.00    +0.000 C 
ATOM     21  C15 UNL A   1      15.891  30.175  -1.067  1.00  0.00    +0.000 C 
ATOM    116  H33 UNL A   1      16.067  27.469  -3.040  1.00  0.00    +0.000 H 
ATOM     22  C16 UNL A   1      14.512  30.186  -0.844  1.00  0.00    +0.000 C 
ATOM     23  C17 UNL A   1      13.683  29.253  -1.487  1.00  0.00    +0.000 C 
BRANCH   20   18
ATOM     18  C13 UNL A   1      17.913  29.233  -2.145  1.00  0.00    +0.000 C 
ATOM     19  O3  UNL A   1      18.407  28.481  -2.973  1.00  0.00    +0.000 O 
BRANCH   18   17
ATOM     17  N3  UNL A   1      18.711  30.095  -1.430  1.00  0.00    +0.000 N 
ATOM    102  H19 UNL A   1      18.247  30.858  -1.019  1.00  0.00    +0.000 H 
BRANCH   17   16
ATOM    100  H17 UNL A   1      20.442  29.009  -1.134  1.00  0.00    +0.000 H 
ATOM    101  H18 UNL A   1      20.633  30.526  -2.016  1.00  0.00    +0.000 H 
ATOM     16  C12 UNL A   1      20.145  30.035  -1.200  1.00  0.00    +0.000 C 
BRANCH   16   15
ATOM     98  H15 UNL A   1      20.850  30.008   0.799  1.00  0.00    +0.000 H 
ATOM     99  H16 UNL A   1      21.331  31.427  -0.170  1.00  0.00    +0.000 H 
ATOM     15  C11 UNL A   1      20.545  30.748   0.089  1.00  0.00    +0.000 C 
BRANCH   15   14
ATOM     97  H14 UNL A   1      18.666  31.672  -0.017  1.00  0.00    +0.000 H 
ATOM     14  C10 UNL A   1      19.434  31.590   0.722  1.00  0.00    +0.000 C 
ATOM     96  H13 UNL A   1      19.855  32.532   1.007  1.00  0.00    +0.000 H 
BRANCH   14   13
ATOM     13  C9  UNL A   1      18.771  30.972   1.960  1.00  0.00    +0.000 C 
ATOM     94  H11 UNL A   1      18.423  29.995   1.696  1.00  0.00    +0.000 H 
ATOM     95  H12 UNL A   1      19.519  30.966   2.726  1.00  0.00    +0.000 H 
BRANCH   13   12
ATOM     92  H9  UNL A   1      16.725  31.124   2.548  1.00  0.00    +0.000 H 
ATOM     12  C8  UNL A   1      17.582  31.764   2.529  1.00  0.00    +0.000 C 
ATOM     93  H10 UNL A   1      17.862  32.095   3.507  1.00  0.00    +0.000 H 
BRANCH   12   11
ATOM     90  H7  UNL A   1      17.381  33.882   2.313  1.00  0.00    +0.000 H 
ATOM     11  C7  UNL A   1      17.238  33.010   1.709  1.00  0.00    +0.000 C 
ATOM     91  H8  UNL A   1      17.878  33.055   0.852  1.00  0.00    +0.000 H 
BRANCH   11   10
ATOM     89  H6  UNL A   1      15.747  32.498   0.404  1.00  0.00    +0.000 H 
ATOM     10  N2  UNL A   1      15.858  32.951   1.271  1.00  0.00    +0.000 N 
BRANCH   10    8
ATOM      9  O2  UNL A   1      14.716  34.419   2.481  1.00  0.00    +0.000 O 
ATOM      8  C6  UNL A   1      14.675  33.386   1.805  1.00  0.00    +0.000 C 
BRANCH    8    7
ATOM      2  C1  UNL A   1      11.718  31.029   2.431  1.00  0.00    +0.000 C 
ATOM      3  C2  UNL A   1      10.849  31.456   1.426  1.00  0.00    +0.000 C 
ATOM      4  C3  UNL A   1      11.215  32.493   0.571  1.00  0.00    +0.000 C 
ATOM      5  C4  UNL A   1      12.460  33.100   0.716  1.00  0.00    +0.000 C 
ATOM      7  C5  UNL A   1      13.370  32.672   1.700  1.00  0.00    +0.000 C 
ATOM     83  C58 UNL A   1      13.006  31.579   2.496  1.00  0.00    +0.000 C 
ATOM    117  H34 UNL A   1      13.699  31.171   3.144  1.00  0.00    +0.000 H 
ATOM     86  H3  UNL A   1       9.930  31.001   1.316  1.00  0.00    +0.000 H 
ATOM     87  H4  UNL A   1      10.566  32.811  -0.164  1.00  0.00    +0.000 H 
BRANCH    2    1
ATOM      1  N1  UNL A   1      11.386  29.913   3.212  1.00  0.00    +0.000 N 
ATOM     84  H1  UNL A   1      10.825  30.023   4.013  1.00  0.00    +0.000 H 
ATOM     85  H2  UNL A   1      11.714  29.020   2.959  1.00  0.00    +0.000 H 
ENDBRANCH    2    1
BRANCH    5    6
ATOM      6  O1  UNL A   1      12.727  34.108  -0.176  1.00  0.00    +0.000 O 
ATOM     88  H5  UNL A   1      13.471  34.662  -0.047  1.00  0.00    +0.000 H 
ENDBRANCH    5    6
ENDBRANCH    8    7
ENDBRANCH   10    8
ENDBRANCH   11   10
ENDBRANCH   12   11
ENDBRANCH   13   12
ENDBRANCH   14   13
ENDBRANCH   15   14
ENDBRANCH   16   15
ENDBRANCH   17   16
ENDBRANCH   18   17
ENDBRANCH   20   18
ENDBRANCH   24   23
BRANCH   28   29
ATOM     33  F2  UNL A   1       8.900  33.321  -8.055  1.00  0.00    +0.000 F 
ATOM     34  C25 UNL A   1       8.518  34.978  -6.416  1.00  0.00    +0.000 C 
ATOM     35  F3  UNL A   1       8.480  35.925  -7.363  1.00  0.00    +0.000 F 
ATOM     36  C26 UNL A   1       8.359  35.321  -5.081  1.00  0.00    +0.000 C 
ATOM     37  F4  UNL A   1       8.150  36.601  -4.741  1.00  0.00    +0.000 F 
ATOM     38  C27 UNL A   1       8.417  34.340  -4.096  1.00  0.00    +0.000 C 
ATOM     39  F5  UNL A   1       8.270  34.706  -2.813  1.00  0.00    +0.000 F 
ATOM     29  C22 UNL A   1       8.612  32.992  -4.429  1.00  0.00    +0.000 C 
ATOM     30  C23 UNL A   1       8.754  32.664  -5.786  1.00  0.00    +0.000 C 
ATOM     31  F1  UNL A   1       8.954  31.391  -6.156  1.00  0.00    +0.000 F 
ATOM     32  C24 UNL A   1       8.722  33.651  -6.768  1.00  0.00    +0.000 C 
ENDBRANCH   28   29
BRANCH   45   46
ATOM     46  C33 UNL A   1       3.863  29.642  -0.172  1.00  0.00    +0.000 C 
ATOM     47  C34 UNL A   1       3.224  30.602   0.626  1.00  0.00    +0.000 C 
ATOM     48  F6  UNL A   1       3.945  31.536   1.265  1.00  0.00    +0.000 F 
ATOM     49  C35 UNL A   1       1.843  30.581   0.800  1.00  0.00    +0.000 C 
ATOM     50  F7  UNL A   1       1.257  31.482   1.601  1.00  0.00    +0.000 F 
ATOM     51  C36 UNL A   1       1.075  29.622   0.157  1.00  0.00    +0.000 C 
ATOM     52  F8  UNL A   1      -0.256  29.608   0.321  1.00  0.00    +0.000 F 
ATOM     53  C37 UNL A   1       1.685  28.674  -0.650  1.00  0.00    +0.000 C 
ATOM     54  F9  UNL A   1       0.942  27.754  -1.281  1.00  0.00    +0.000 F 
ATOM     55  C38 UNL A   1       3.068  28.675  -0.805  1.00  0.00    +0.000 C 
ATOM     56  F10 UNL A   1       3.632  27.740  -1.583  1.00  0.00    +0.000 F 
ENDBRANCH   45   46
BRANCH   60   61
ATOM     65  F12 UNL A   1       9.000  22.565   3.337  1.00  0.00    +0.000 F 
ATOM     66  C45 UNL A   1       9.177  24.294   4.935  1.00  0.00    +0.000 C 
ATOM     67  F13 UNL A   1       9.205  23.395   5.929  1.00  0.00    +0.000 F 
ATOM     68  C46 UNL A   1       9.235  25.650   5.223  1.00  0.00    +0.000 C 
ATOM     69  F14 UNL A   1       9.339  26.061   6.494  1.00  0.00    +0.000 F 
ATOM     70  C47 UNL A   1       9.181  26.586   4.192  1.00  0.00    +0.000 C 
ATOM     71  F15 UNL A   1       9.225  27.891   4.500  1.00  0.00    +0.000 F 
ATOM     61  C42 UNL A   1       9.092  26.183   2.852  1.00  0.00    +0.000 C 
ATOM     62  C43 UNL A   1       9.055  24.807   2.586  1.00  0.00    +0.000 C 
ATOM     63  F11 UNL A   1       8.949  24.374   1.321  1.00  0.00    +0.000 F 
ATOM     64  C44 UNL A   1       9.082  23.873   3.618  1.00  0.00    +0.000 C 
ENDBRANCH   60   61
TORSDOF 17
ENDMDL
MODEL 6
REMARK VINA RESULT:      -9.4     19.125     23.857
ROOT
ATOM     24  C18 UNL A   1      12.244  29.237  -1.299  1.00  0.00    +0.000 C 
ATOM     25  C19 UNL A   1      11.405  30.155  -2.143  1.00  0.00    +0.000 C 
ATOM     26  N4  UNL A   1      10.118  30.384  -2.089  1.00  0.00    +0.000 N 
ATOM     27  C20 UNL A   1       9.864  31.349  -3.055  1.00  0.00    +0.000 C 
ATOM     28  C21 UNL A   1       8.676  31.885  -3.422  1.00  0.00    +0.000 C 
ATOM     40  C28 UNL A   1       7.407  31.512  -2.853  1.00  0.00    +0.000 C 
ATOM     41  C29 UNL A   1       6.141  31.947  -3.206  1.00  0.00    +0.000 C 
ATOM     42  C30 UNL A   1       5.216  31.337  -2.352  1.00  0.00    +0.000 C 
ATOM     43  C31 UNL A   1       5.902  30.491  -1.496  1.00  0.00    +0.000 C 
ATOM     44  N5  UNL A   1       7.246  30.611  -1.810  1.00  0.00    +0.000 N 
ATOM     45  C32 UNL A   1       5.372  29.638  -0.464  1.00  0.00    +0.000 C 
ATOM     57  C39 UNL A   1       6.111  28.829   0.333  1.00  0.00    +0.000 C 
ATOM     58  N6  UNL A   1       7.485  28.631   0.340  1.00  0.00    +0.000 N 
ATOM     59  C40 UNL A   1       7.719  27.765   1.296  1.00  0.00    +0.000 C 
ATOM     60  C41 UNL A   1       9.026  27.163   1.732  1.00  0.00    +0.000 C 
ATOM     72  C48 UNL A   1      10.156  27.502   1.084  1.00  0.00    +0.000 C 
ATOM     73  C49 UNL A   1      11.492  26.998   1.389  1.00  0.00    +0.000 C 
ATOM     74  C50 UNL A   1      12.380  27.586   0.570  1.00  0.00    +0.000 C 
ATOM     75  C51 UNL A   1      11.668  28.483  -0.342  1.00  0.00    +0.000 C 
ATOM     76  N7  UNL A   1      10.353  28.362   0.031  1.00  0.00    +0.000 N 
ATOM     77  C52 UNL A   1       6.517  27.340   2.027  1.00  0.00    +0.000 C 
ATOM     78  C53 UNL A   1       5.562  27.987   1.375  1.00  0.00    +0.000 C 
ATOM     79  C54 UNL A   1      11.136  31.693  -3.653  1.00  0.00    +0.000 C 
ATOM     80  C55 UNL A   1      12.112  30.938  -3.168  1.00  0.00    +0.000 C 
ATOM    105  H22 UNL A   1       5.920  32.607  -3.966  1.00  0.00    +0.000 H 
ATOM    106  H23 UNL A   1       4.195  31.491  -2.360  1.00  0.00    +0.000 H 
ATOM    107  H24 UNL A   1       7.977  30.129  -1.362  1.00  0.00    +0.000 H 
ATOM    108  H25 UNL A   1      11.719  26.303   2.117  1.00  0.00    +0.000 H 
ATOM    109  H26 UNL A   1      13.400  27.430   0.580  1.00  0.00    +0.000 H 
ATOM    110  H27 UNL A   1       9.620  28.846  -0.413  1.00  0.00    +0.000 H 
ATOM    111  H28 UNL A   1       6.438  26.704   2.836  1.00  0.00    +0.000 H 
ATOM    112  H29 UNL A   1       4.554  27.902   1.583  1.00  0.00    +0.000 H 
ATOM    113  H30 UNL A   1      11.266  32.430  -4.364  1.00  0.00    +0.000 H 
ATOM    114  H31 UNL A   1      13.107  30.908  -3.440  1.00  0.00    +0.000 H 
ENDROOT
BRANCH   24   23
ATOM    103  H20 UNL A   1      16.517  30.869  -0.615  1.00  0.00    +0.000 H 
ATOM    104  H21 UNL A   1      14.119  30.885  -0.237  1.00  0.00    +0.000 H 
ATOM     81  C56 UNL A   1      14.306  28.206  -2.252  1.00  0.00    +0.000 C 
ATOM     82  C57 UNL A   1      15.690  28.156  -2.408  1.00  0.00    +0.000 C 
ATOM    115  H32 UNL A   1      13.712  27.503  -2.716  1.00  0.00    +0.000 H 
ATOM     20  C14 UNL A   1      16.492  29.159  -1.857  1.00  0.00    +0.000 C 
ATOM     21  C15 UNL A   1      15.920  30.151  -1.054  1.00  0.00    +0.000 C 
ATOM    116  H33 UNL A   1      16.122  27.378  -2.931  1.00  0.00    +0.000 H 
ATOM     22  C16 UNL A   1      14.539  30.167  -0.847  1.00  0.00    +0.000 C 
ATOM     23  C17 UNL A   1      13.718  29.210  -1.466  1.00  0.00    +0.000 C 
BRANCH   20   18
ATOM     18  C13 UNL A   1      17.956  29.176  -2.077  1.00  0.00    +0.000 C 
ATOM     19  O3  UNL A   1      18.404  29.004  -3.202  1.00  0.00    +0.000 O 
BRANCH   18   17
ATOM     17  N3  UNL A   1      18.807  29.380  -1.017  1.00  0.00    +0.000 N 
ATOM    102  H19 UNL A   1      18.453  29.126  -0.135  1.00  0.00    +0.000 H 
BRANCH   17   16
ATOM    100  H17 UNL A   1      20.854  29.107  -0.989  1.00  0.00    +0.000 H 
ATOM    101  H18 UNL A   1      20.281  30.501  -1.909  1.00  0.00    +0.000 H 
ATOM     16  C12 UNL A   1      20.158  29.919  -1.019  1.00  0.00    +0.000 C 
BRANCH   16   15
ATOM     98  H15 UNL A   1      20.749  30.222   0.994  1.00  0.00    +0.000 H 
ATOM     99  H16 UNL A   1      21.134  31.552  -0.134  1.00  0.00    +0.000 H 
ATOM     15  C11 UNL A   1      20.409  30.829   0.180  1.00  0.00    +0.000 C 
BRANCH   15   14
ATOM     97  H14 UNL A   1      18.441  31.493  -0.110  1.00  0.00    +0.000 H 
ATOM     14  C10 UNL A   1      19.183  31.617   0.649  1.00  0.00    +0.000 C 
ATOM     96  H13 UNL A   1      19.481  32.636   0.794  1.00  0.00    +0.000 H 
BRANCH   14   13
ATOM     13  C9  UNL A   1      18.546  31.119   1.953  1.00  0.00    +0.000 C 
ATOM     94  H11 UNL A   1      18.002  30.224   1.735  1.00  0.00    +0.000 H 
ATOM     95  H12 UNL A   1      19.353  30.970   2.641  1.00  0.00    +0.000 H 
BRANCH   13   12
ATOM     92  H9  UNL A   1      16.702  31.579   2.923  1.00  0.00    +0.000 H 
ATOM     12  C8  UNL A   1      17.584  32.109   2.630  1.00  0.00    +0.000 C 
ATOM     93  H10 UNL A   1      18.100  32.528   3.468  1.00  0.00    +0.000 H 
BRANCH   12   11
ATOM     90  H7  UNL A   1      17.281  34.192   2.255  1.00  0.00    +0.000 H 
ATOM     11  C7  UNL A   1      17.173  33.270   1.722  1.00  0.00    +0.000 C 
ATOM     91  H8  UNL A   1      17.801  33.278   0.855  1.00  0.00    +0.000 H 
BRANCH   11   10
ATOM     89  H6  UNL A   1      15.697  32.631   0.456  1.00  0.00    +0.000 H 
ATOM     10  N2  UNL A   1      15.793  33.113   1.309  1.00  0.00    +0.000 N 
BRANCH   10    8
ATOM      9  O2  UNL A   1      14.592  34.509   2.547  1.00  0.00    +0.000 O 
ATOM      8  C6  UNL A   1      14.593  33.489   1.850  1.00  0.00    +0.000 C 
BRANCH    8    7
ATOM      2  C1  UNL A   1      11.724  31.016   2.440  1.00  0.00    +0.000 C 
ATOM      3  C2  UNL A   1      10.850  31.410   1.426  1.00  0.00    +0.000 C 
ATOM      4  C3  UNL A   1      11.185  32.462   0.577  1.00  0.00    +0.000 C 
ATOM      5  C4  UNL A   1      12.403  33.118   0.736  1.00  0.00    +0.000 C 
ATOM      7  C5  UNL A   1      13.319  32.725   1.730  1.00  0.00    +0.000 C 
ATOM     83  C58 UNL A   1      12.989  31.616   2.520  1.00  0.00    +0.000 C 
ATOM    117  H34 UNL A   1      13.690  31.235   3.175  1.00  0.00    +0.000 H 
ATOM     86  H3  UNL A   1       9.951  30.920   1.305  1.00  0.00    +0.000 H 
ATOM     87  H4  UNL A   1      10.532  32.756  -0.166  1.00  0.00    +0.000 H 
BRANCH    2    1
ATOM      1  N1  UNL A   1      11.428  29.887   3.216  1.00  0.00    +0.000 N 
ATOM     84  H1  UNL A   1      11.102  29.065   2.785  1.00  0.00    +0.000 H 
ATOM     85  H2  UNL A   1      11.546  29.917   4.193  1.00  0.00    +0.000 H 
ENDBRANCH    2    1
BRANCH    5    6
ATOM      6  O1  UNL A   1      12.641  34.137  -0.152  1.00  0.00    +0.000 O 
ATOM     88  H5  UNL A   1      12.276  34.985   0.001  1.00  0.00    +0.000 H 
ENDBRANCH    5    6
ENDBRANCH    8    7
ENDBRANCH   10    8
ENDBRANCH   11   10
ENDBRANCH   12   11
ENDBRANCH   13   12
ENDBRANCH   14   13
ENDBRANCH   15   14
ENDBRANCH   16   15
ENDBRANCH   17   16
ENDBRANCH   18   17
ENDBRANCH   20   18
ENDBRANCH   24   23
BRANCH   28   29
ATOM     33  F2  UNL A   1       9.046  33.231  -8.119  1.00  0.00    +0.000 F 
ATOM     34  C25 UNL A   1       8.617  34.898  -6.503  1.00  0.00    +0.000 C 
ATOM     35  F3  UNL A   1       8.591  35.837  -7.459  1.00  0.00    +0.000 F 
ATOM     36  C26 UNL A   1       8.429  35.252  -5.175  1.00  0.00    +0.000 C 
ATOM     37  F4  UNL A   1       8.203  36.533  -4.850  1.00  0.00    +0.000 F 
ATOM     38  C27 UNL A   1       8.474  34.280  -4.180  1.00  0.00    +0.000 C 
ATOM     39  F5  UNL A   1       8.298  34.655  -2.904  1.00  0.00    +0.000 F 
ATOM     29  C22 UNL A   1       8.686  32.931  -4.498  1.00  0.00    +0.000 C 
ATOM     30  C23 UNL A   1       8.858  32.593  -5.849  1.00  0.00    +0.000 C 
ATOM     31  F1  UNL A   1       9.076  31.318  -6.203  1.00  0.00    +0.000 F 
ATOM     32  C24 UNL A   1       8.839  33.571  -6.839  1.00  0.00    +0.000 C 
ENDBRANCH   28   29
BRANCH   45   46
ATOM     46  C33 UNL A   1       3.885  29.623  -0.266  1.00  0.00    +0.000 C 
ATOM     47  C34 UNL A   1       3.075  28.645  -0.860  1.00  0.00    +0.000 C 
ATOM     48  F6  UNL A   1       3.615  27.723  -1.672  1.00  0.00    +0.000 F 
ATOM     49  C35 UNL A   1       1.698  28.634  -0.650  1.00  0.00    +0.000 C 
ATOM     50  F7  UNL A   1       0.937  27.716  -1.261  1.00  0.00    +0.000 F 
ATOM     51  C36 UNL A   1       1.113  29.580   0.178  1.00  0.00    +0.000 C 
ATOM     52  F8  UNL A   1      -0.212  29.563   0.384  1.00  0.00    +0.000 F 
ATOM     53  C37 UNL A   1       1.898  30.546   0.789  1.00  0.00    +0.000 C 
ATOM     54  F9  UNL A   1       1.335  31.453   1.599  1.00  0.00    +0.000 F 
ATOM     55  C38 UNL A   1       3.271  30.576   0.561  1.00  0.00    +0.000 C 
ATOM     56  F10 UNL A   1       4.004  31.528   1.155  1.00  0.00    +0.000 F 
ENDBRANCH   45   46
BRANCH   60   61
ATOM     65  F12 UNL A   1       9.343  26.141   6.488  1.00  0.00    +0.000 F 
ATOM     66  C45 UNL A   1       9.198  24.339   4.967  1.00  0.00    +0.000 C 
ATOM     67  F13 UNL A   1       9.269  23.461   5.977  1.00  0.00    +0.000 F 
ATOM     68  C46 UNL A   1       9.103  23.889   3.659  1.00  0.00    +0.000 C 
ATOM     69  F14 UNL A   1       9.063  22.574   3.405  1.00  0.00    +0.000 F 
ATOM     70  C47 UNL A   1       9.054  24.801   2.607  1.00  0.00    +0.000 C 
ATOM     71  F15 UNL A   1       8.977  24.337   1.351  1.00  0.00    +0.000 F 
ATOM     61  C42 UNL A   1       9.074  26.183   2.846  1.00  0.00    +0.000 C 
ATOM     62  C43 UNL A   1       9.150  26.614   4.178  1.00  0.00    +0.000 C 
ATOM     63  F11 UNL A   1       9.194  27.926   4.455  1.00  0.00    +0.000 F 
ATOM     64  C44 UNL A   1       9.226  25.701   5.227  1.00  0.00    +0.000 C 
ENDBRANCH   60   61
TORSDOF 17
ENDMDL
MODEL 7
REMARK VINA RESULT:      -9.4      1.074      1.653
ROOT
ATOM     24  C18 UNL A   1      14.021  53.772   5.097  1.00  0.00    +0.000 C 
ATOM     25  C19 UNL A   1      14.968  54.210   4.015  1.00  0.00    +0.000 C 
ATOM     26  N4  UNL A   1      15.436  53.530   3.000  1.00  0.00    +0.000 N 
ATOM     27  C20 UNL A   1      16.228  54.418   2.283  1.00  0.00    +0.000 C 
ATOM     28  C21 UNL A   1      16.971  54.182   1.176  1.00  0.00    +0.000 C 
ATOM     40  C28 UNL A   1      17.083  52.899   0.532  1.00  0.00    +0.000 C 
ATOM     41  C29 UNL A   1      17.865  52.544  -0.554  1.00  0.00    +0.000 C 
ATOM     42  C30 UNL A   1      17.620  51.199  -0.847  1.00  0.00    +0.000 C 
ATOM     43  C31 UNL A   1      16.716  50.706   0.081  1.00  0.00    +0.000 C 
ATOM     44  N5  UNL A   1      16.392  51.761   0.918  1.00  0.00    +0.000 N 
ATOM     45  C32 UNL A   1      16.186  49.373   0.195  1.00  0.00    +0.000 C 
ATOM     57  C39 UNL A   1      15.304  48.963   1.140  1.00  0.00    +0.000 C 
ATOM     58  N6  UNL A   1      14.740  49.691   2.178  1.00  0.00    +0.000 N 
ATOM     59  C40 UNL A   1      13.947  48.860   2.810  1.00  0.00    +0.000 C 
ATOM     60  C41 UNL A   1      13.102  49.097   4.032  1.00  0.00    +0.000 C 
ATOM     72  C48 UNL A   1      13.126  50.305   4.624  1.00  0.00    +0.000 C 
ATOM     73  C49 UNL A   1      12.369  50.681   5.814  1.00  0.00    +0.000 C 
ATOM     74  C50 UNL A   1      12.604  51.973   6.094  1.00  0.00    +0.000 C 
ATOM     75  C51 UNL A   1      13.559  52.507   5.121  1.00  0.00    +0.000 C 
ATOM     76  N7  UNL A   1      13.819  51.444   4.292  1.00  0.00    +0.000 N 
ATOM     77  C52 UNL A   1      13.896  47.514   2.221  1.00  0.00    +0.000 C 
ATOM     78  C53 UNL A   1      14.771  47.620   1.231  1.00  0.00    +0.000 C 
ATOM     79  C54 UNL A   1      16.145  55.696   2.955  1.00  0.00    +0.000 C 
ATOM     80  C55 UNL A   1      15.429  55.607   4.067  1.00  0.00    +0.000 C 
ATOM    105  H22 UNL A   1      18.517  53.164  -1.058  1.00  0.00    +0.000 H 
ATOM    106  H23 UNL A   1      18.041  50.664  -1.623  1.00  0.00    +0.000 H 
ATOM    107  H24 UNL A   1      15.764  51.710   1.675  1.00  0.00    +0.000 H 
ATOM    108  H25 UNL A   1      11.750  50.056   6.353  1.00  0.00    +0.000 H 
ATOM    109  H26 UNL A   1      12.181  52.505   6.870  1.00  0.00    +0.000 H 
ATOM    110  H27 UNL A   1      14.443  51.493   3.533  1.00  0.00    +0.000 H 
ATOM    111  H28 UNL A   1      13.329  46.700   2.504  1.00  0.00    +0.000 H 
ATOM    112  H29 UNL A   1      15.038  46.845   0.604  1.00  0.00    +0.000 H 
ATOM    113  H30 UNL A   1      16.586  56.565   2.614  1.00  0.00    +0.000 H 
ATOM    114  H31 UNL A   1      15.244  56.327   4.782  1.00  0.00    +0.000 H 
ENDROOT
BRANCH   24   23
ATOM    103  H20 UNL A   1      14.383  56.199   9.018  1.00  0.00    +0.000 H 
ATOM    104  H21 UNL A   1      15.251  54.674   7.341  1.00  0.00    +0.000 H 
ATOM     81  C56 UNL A   1      12.282  55.355   5.931  1.00  0.00    +0.000 C 
ATOM     82  C57 UNL A   1      11.817  56.286   6.857  1.00  0.00    +0.000 C 
ATOM    115  H32 UNL A   1      11.702  55.111   5.114  1.00  0.00    +0.000 H 
ATOM     20  C14 UNL A   1      12.558  56.552   8.012  1.00  0.00    +0.000 C 
ATOM     21  C15 UNL A   1      13.819  55.972   8.184  1.00  0.00    +0.000 C 
ATOM    116  H33 UNL A   1      10.925  56.778   6.692  1.00  0.00    +0.000 H 
ATOM     22  C16 UNL A   1      14.312  55.084   7.225  1.00  0.00    +0.000 C 
ATOM     23  C17 UNL A   1      13.536  54.749   6.104  1.00  0.00    +0.000 C 
BRANCH   20   18
ATOM     18  C13 UNL A   1      12.049  57.474   9.053  1.00  0.00    +0.000 C 
ATOM     19  O3  UNL A   1      12.223  58.679   8.936  1.00  0.00    +0.000 O 
BRANCH   18   17
ATOM     17  N3  UNL A   1      11.386  56.973  10.148  1.00  0.00    +0.000 N 
ATOM    102  H19 UNL A   1      11.881  57.015  10.998  1.00  0.00    +0.000 H 
BRANCH   17   16
ATOM    100  H17 UNL A   1       9.560  56.775  11.092  1.00  0.00    +0.000 H 
ATOM    101  H18 UNL A   1       9.529  56.648   9.332  1.00  0.00    +0.000 H 
ATOM     16  C12 UNL A   1      10.057  56.390  10.226  1.00  0.00    +0.000 C 
BRANCH   16   15
ATOM     98  H15 UNL A   1       9.468  54.563  11.125  1.00  0.00    +0.000 H 
ATOM     99  H16 UNL A   1       9.792  54.492   9.372  1.00  0.00    +0.000 H 
ATOM     15  C11 UNL A   1      10.107  54.868  10.323  1.00  0.00    +0.000 C 
BRANCH   15   14
ATOM     97  H14 UNL A   1      11.506  53.957  11.592  1.00  0.00    +0.000 H 
ATOM     14  C10 UNL A   1      11.503  54.292  10.577  1.00  0.00    +0.000 C 
ATOM     96  H13 UNL A   1      12.220  55.062  10.379  1.00  0.00    +0.000 H 
BRANCH   14   13
ATOM     13  C9  UNL A   1      11.871  53.071   9.724  1.00  0.00    +0.000 C 
ATOM     94  H11 UNL A   1      11.326  52.229  10.098  1.00  0.00    +0.000 H 
ATOM     95  H12 UNL A   1      11.621  53.326   8.715  1.00  0.00    +0.000 H 
BRANCH   13   12
ATOM     92  H9  UNL A   1      13.560  52.094   8.860  1.00  0.00    +0.000 H 
ATOM     12  C8  UNL A   1      13.365  52.706   9.715  1.00  0.00    +0.000 C 
ATOM     93  H10 UNL A   1      13.914  53.623   9.690  1.00  0.00    +0.000 H 
BRANCH   12   11
ATOM     90  H7  UNL A   1      13.345  52.379  11.828  1.00  0.00    +0.000 H 
ATOM     11  C7  UNL A   1      13.809  51.945  10.967  1.00  0.00    +0.000 C 
ATOM     91  H8  UNL A   1      13.517  50.919  10.878  1.00  0.00    +0.000 H 
BRANCH   11   10
ATOM     89  H6  UNL A   1      15.546  52.799  11.634  1.00  0.00    +0.000 H 
ATOM     10  N2  UNL A   1      15.249  52.021  11.109  1.00  0.00    +0.000 N 
BRANCH   10    8
ATOM      9  O2  UNL A   1      17.289  51.195  11.391  1.00  0.00    +0.000 O 
ATOM      8  C6  UNL A   1      16.286  51.242  10.671  1.00  0.00    +0.000 C 
BRANCH    8    7
ATOM      2  C1  UNL A   1      16.671  50.395   6.952  1.00  0.00    +0.000 C 
ATOM      3  C2  UNL A   1      16.438  49.020   6.991  1.00  0.00    +0.000 C 
ATOM      4  C3  UNL A   1      16.171  48.383   8.201  1.00  0.00    +0.000 C 
ATOM      5  C4  UNL A   1      16.127  49.127   9.377  1.00  0.00    +0.000 C 
ATOM      7  C5  UNL A   1      16.328  50.520   9.368  1.00  0.00    +0.000 C 
ATOM     83  C58 UNL A   1      16.520  51.143   8.129  1.00  0.00    +0.000 C 
ATOM    117  H34 UNL A   1      16.553  52.174   8.080  1.00  0.00    +0.000 H 
ATOM     86  H3  UNL A   1      16.464  48.471   6.118  1.00  0.00    +0.000 H 
ATOM     87  H4  UNL A   1      16.008  47.365   8.225  1.00  0.00    +0.000 H 
BRANCH    2    1
ATOM      1  N1  UNL A   1      16.828  51.042   5.719  1.00  0.00    +0.000 N 
ATOM     84  H1  UNL A   1      17.428  51.818   5.643  1.00  0.00    +0.000 H 
ATOM     85  H2  UNL A   1      16.338  50.719   4.928  1.00  0.00    +0.000 H 
ENDBRANCH    2    1
BRANCH    5    6
ATOM      6  O1  UNL A   1      15.854  48.409  10.514  1.00  0.00    +0.000 O 
ATOM     88  H5  UNL A   1      15.764  48.849  11.335  1.00  0.00    +0.000 H 
ENDBRANCH    5    6
ENDBRANCH    8    7
ENDBRANCH   10    8
ENDBRANCH   11   10
ENDBRANCH   12   11
ENDBRANCH   13   12
ENDBRANCH   14   13
ENDBRANCH   15   14
ENDBRANCH   16   15
ENDBRANCH   17   16
ENDBRANCH   18   17
ENDBRANCH   20   18
ENDBRANCH   24   23
BRANCH   28   29
ATOM     33  F2  UNL A   1      20.852  57.173   1.063  1.00  0.00    +0.000 F 
ATOM     34  C25 UNL A   1      19.177  57.443  -0.580  1.00  0.00    +0.000 C 
ATOM     35  F3  UNL A   1      19.863  58.452  -1.133  1.00  0.00    +0.000 F 
ATOM     36  C26 UNL A   1      17.955  57.057  -1.113  1.00  0.00    +0.000 C 
ATOM     37  F4  UNL A   1      17.470  57.685  -2.194  1.00  0.00    +0.000 F 
ATOM     38  C27 UNL A   1      17.234  56.020  -0.528  1.00  0.00    +0.000 C 
ATOM     39  F5  UNL A   1      16.051  55.678  -1.060  1.00  0.00    +0.000 F 
ATOM     29  C22 UNL A   1      17.732  55.334   0.589  1.00  0.00    +0.000 C 
ATOM     30  C23 UNL A   1      18.976  55.730   1.103  1.00  0.00    +0.000 C 
ATOM     31  F1  UNL A   1      19.490  55.114   2.177  1.00  0.00    +0.000 F 
ATOM     32  C24 UNL A   1      19.683  56.785   0.532  1.00  0.00    +0.000 C 
ENDBRANCH   28   29
BRANCH   45   46
ATOM     46  C33 UNL A   1      16.657  48.347  -0.794  1.00  0.00    +0.000 C 
ATOM     47  C34 UNL A   1      15.883  47.991  -1.908  1.00  0.00    +0.000 C 
ATOM     48  F6  UNL A   1      14.666  48.529  -2.084  1.00  0.00    +0.000 F 
ATOM     49  C35 UNL A   1      16.344  47.051  -2.826  1.00  0.00    +0.000 C 
ATOM     50  F7  UNL A   1      15.570  46.693  -3.860  1.00  0.00    +0.000 F 
ATOM     51  C36 UNL A   1      17.594  46.474  -2.663  1.00  0.00    +0.000 C 
ATOM     52  F8  UNL A   1      18.038  45.574  -3.552  1.00  0.00    +0.000 F 
ATOM     53  C37 UNL A   1      18.382  46.824  -1.578  1.00  0.00    +0.000 C 
ATOM     54  F9  UNL A   1      19.596  46.276  -1.427  1.00  0.00    +0.000 F 
ATOM     55  C38 UNL A   1      17.915  47.744  -0.644  1.00  0.00    +0.000 C 
ATOM     56  F10 UNL A   1      18.694  48.056   0.402  1.00  0.00    +0.000 F 
ENDBRANCH   45   46
BRANCH   60   61
ATOM     65  F12 UNL A   1      12.550  45.291   7.027  1.00  0.00    +0.000 F 
ATOM     66  C45 UNL A   1      10.721  45.916   5.669  1.00  0.00    +0.000 C 
ATOM     67  F13 UNL A   1       9.987  44.912   6.169  1.00  0.00    +0.000 F 
ATOM     68  C46 UNL A   1      10.186  46.755   4.702  1.00  0.00    +0.000 C 
ATOM     69  F14 UNL A   1       8.928  46.573   4.281  1.00  0.00    +0.000 F 
ATOM     70  C47 UNL A   1      10.958  47.783   4.165  1.00  0.00    +0.000 C 
ATOM     71  F15 UNL A   1      10.420  48.569   3.221  1.00  0.00    +0.000 F 
ATOM     61  C42 UNL A   1      12.271  48.006   4.601  1.00  0.00    +0.000 C 
ATOM     62  C43 UNL A   1      12.782  47.159   5.594  1.00  0.00    +0.000 C 
ATOM     63  F11 UNL A   1      14.041  47.321   6.028  1.00  0.00    +0.000 F 
ATOM     64  C44 UNL A   1      12.020  46.115   6.111  1.00  0.00    +0.000 C 
ENDBRANCH   60   61
TORSDOF 17
ENDMDL
MODEL 8
REMARK VINA RESULT:      -9.3     46.567     51.172
ROOT
ATOM     24  C18 UNL A   1      52.802  20.322  11.397  1.00  0.00    +0.000 C 
ATOM     25  C19 UNL A   1      54.117  19.645  11.126  1.00  0.00    +0.000 C 
ATOM     26  N4  UNL A   1      55.146  19.490  11.919  1.00  0.00    +0.000 N 
ATOM     27  C20 UNL A   1      56.074  18.754  11.193  1.00  0.00    +0.000 C 
ATOM     28  C21 UNL A   1      57.324  18.377  11.557  1.00  0.00    +0.000 C 
ATOM     40  C28 UNL A   1      57.937  18.708  12.817  1.00  0.00    +0.000 C 
ATOM     41  C29 UNL A   1      59.222  18.431  13.250  1.00  0.00    +0.000 C 
ATOM     42  C30 UNL A   1      59.356  18.915  14.555  1.00  0.00    +0.000 C 
ATOM     43  C31 UNL A   1      58.168  19.529  14.919  1.00  0.00    +0.000 C 
ATOM     44  N5  UNL A   1      57.305  19.391  13.845  1.00  0.00    +0.000 N 
ATOM     45  C32 UNL A   1      57.844  20.192  16.155  1.00  0.00    +0.000 C 
ATOM     57  C39 UNL A   1      56.654  20.778  16.436  1.00  0.00    +0.000 C 
ATOM     58  N6  UNL A   1      55.525  20.885  15.635  1.00  0.00    +0.000 N 
ATOM     59  C40 UNL A   1      54.635  21.526  16.352  1.00  0.00    +0.000 C 
ATOM     60  C41 UNL A   1      53.240  21.947  15.980  1.00  0.00    +0.000 C 
ATOM     72  C48 UNL A   1      52.778  21.674  14.745  1.00  0.00    +0.000 C 
ATOM     73  C49 UNL A   1      51.453  22.023  14.240  1.00  0.00    +0.000 C 
ATOM     74  C50 UNL A   1      51.325  21.557  12.987  1.00  0.00    +0.000 C 
ATOM     75  C51 UNL A   1      52.574  20.905  12.589  1.00  0.00    +0.000 C 
ATOM     76  N7  UNL A   1      53.381  21.030  13.693  1.00  0.00    +0.000 N 
ATOM     77  C52 UNL A   1      55.092  21.872  17.706  1.00  0.00    +0.000 C 
ATOM     78  C53 UNL A   1      56.340  21.428  17.691  1.00  0.00    +0.000 C 
ATOM     79  C54 UNL A   1      55.471  18.458   9.912  1.00  0.00    +0.000 C 
ATOM     80  C55 UNL A   1      54.285  19.039   9.796  1.00  0.00    +0.000 C 
ATOM    105  H22 UNL A   1      59.953  17.951  12.704  1.00  0.00    +0.000 H 
ATOM    106  H23 UNL A   1      60.197  18.830  15.147  1.00  0.00    +0.000 H 
ATOM    107  H24 UNL A   1      56.380  19.728  13.815  1.00  0.00    +0.000 H 
ATOM    108  H25 UNL A   1      50.731  22.544  14.761  1.00  0.00    +0.000 H 
ATOM    109  H26 UNL A   1      50.482  21.643  12.399  1.00  0.00    +0.000 H 
ATOM    110  H27 UNL A   1      54.304  20.691  13.727  1.00  0.00    +0.000 H 
ATOM    111  H28 UNL A   1      54.576  22.338  18.468  1.00  0.00    +0.000 H 
ATOM    112  H29 UNL A   1      57.006  21.533  18.473  1.00  0.00    +0.000 H 
ATOM    113  H30 UNL A   1      55.907  17.871   9.183  1.00  0.00    +0.000 H 
ATOM    114  H31 UNL A   1      53.648  19.060   8.985  1.00  0.00    +0.000 H 
ENDROOT
BRANCH   24   23
ATOM    103  H20 UNL A   1      49.443  18.245   8.989  1.00  0.00    +0.000 H 
ATOM    104  H21 UNL A   1      51.131  18.291  10.734  1.00  0.00    +0.000 H 
ATOM     81  C56 UNL A   1      51.452  21.442   9.622  1.00  0.00    +0.000 C 
ATOM     82  C57 UNL A   1      50.434  21.435   8.672  1.00  0.00    +0.000 C 
ATOM    115  H32 UNL A   1      52.009  22.297   9.772  1.00  0.00    +0.000 H 
ATOM     20  C14 UNL A   1      49.738  20.253   8.402  1.00  0.00    +0.000 C 
ATOM     21  C15 UNL A   1      49.984  19.106   9.163  1.00  0.00    +0.000 C 
ATOM    116  H33 UNL A   1      50.193  22.302   8.167  1.00  0.00    +0.000 H 
ATOM     22  C16 UNL A   1      50.964  19.130  10.157  1.00  0.00    +0.000 C 
ATOM     23  C17 UNL A   1      51.724  20.290  10.377  1.00  0.00    +0.000 C 
BRANCH   20   18
ATOM     18  C13 UNL A   1      48.708  20.197   7.339  1.00  0.00    +0.000 C 
ATOM     19  O3  UNL A   1      48.218  21.232   6.912  1.00  0.00    +0.000 O 
BRANCH   18   17
ATOM     17  N3  UNL A   1      48.302  18.982   6.841  1.00  0.00    +0.000 N 
ATOM    102  H19 UNL A   1      48.888  18.221   7.051  1.00  0.00    +0.000 H 
BRANCH   17   16
ATOM    100  H17 UNL A   1      46.688  17.765   6.418  1.00  0.00    +0.000 H 
ATOM    101  H18 UNL A   1      46.445  19.488   6.119  1.00  0.00    +0.000 H 
ATOM     16  C12 UNL A   1      47.127  18.666   6.044  1.00  0.00    +0.000 C 
BRANCH   16   15
ATOM     98  H15 UNL A   1      48.356  19.038   4.357  1.00  0.00    +0.000 H 
ATOM     99  H16 UNL A   1      47.606  17.419   4.426  1.00  0.00    +0.000 H 
ATOM     15  C11 UNL A   1      47.473  18.472   4.571  1.00  0.00    +0.000 C 
BRANCH   15   14
ATOM     97  H14 UNL A   1      45.807  18.031   3.375  1.00  0.00    +0.000 H 
ATOM     14  C10 UNL A   1      46.376  18.909   3.596  1.00  0.00    +0.000 C 
ATOM     96  H13 UNL A   1      46.849  19.340   2.738  1.00  0.00    +0.000 H 
BRANCH   14   13
ATOM     13  C9  UNL A   1      45.378  19.934   4.152  1.00  0.00    +0.000 C 
ATOM     94  H11 UNL A   1      44.574  19.397   4.612  1.00  0.00    +0.000 H 
ATOM     95  H12 UNL A   1      45.930  20.544   4.837  1.00  0.00    +0.000 H 
BRANCH   13   12
ATOM     92  H9  UNL A   1      43.780  21.137   3.410  1.00  0.00    +0.000 H 
ATOM     12  C8  UNL A   1      44.778  20.893   3.112  1.00  0.00    +0.000 C 
ATOM     93  H10 UNL A   1      45.410  21.755   3.074  1.00  0.00    +0.000 H 
BRANCH   12   11
ATOM     90  H7  UNL A   1      45.567  20.662   1.138  1.00  0.00    +0.000 H 
ATOM     11  C7  UNL A   1      44.731  20.302   1.701  1.00  0.00    +0.000 C 
ATOM     91  H8  UNL A   1      44.771  19.234   1.765  1.00  0.00    +0.000 H 
BRANCH   11   10
ATOM     89  H6  UNL A   1      43.492  21.642   0.772  1.00  0.00    +0.000 H 
ATOM     10  N2  UNL A   1      43.502  20.694   1.039  1.00  0.00    +0.000 N 
BRANCH   10    8
ATOM      9  O2  UNL A   1      42.298  19.555  -0.436  1.00  0.00    +0.000 O 
ATOM      8  C6  UNL A   1      42.354  20.030   0.703  1.00  0.00    +0.000 C 
BRANCH    8    7
ATOM      2  C1  UNL A   1      38.841  20.432   2.186  1.00  0.00    +0.000 C 
ATOM      3  C2  UNL A   1      38.922  19.533   3.250  1.00  0.00    +0.000 C 
ATOM      4  C3  UNL A   1      40.089  18.807   3.472  1.00  0.00    +0.000 C 
ATOM      5  C4  UNL A   1      41.185  18.987   2.633  1.00  0.00    +0.000 C 
ATOM      7  C5  UNL A   1      41.147  19.908   1.570  1.00  0.00    +0.000 C 
ATOM     83  C58 UNL A   1      39.987  20.679   1.416  1.00  0.00    +0.000 C 
ATOM    117  H34 UNL A   1      39.974  21.442   0.720  1.00  0.00    +0.000 H 
ATOM     86  H3  UNL A   1      38.112  19.405   3.875  1.00  0.00    +0.000 H 
ATOM     87  H4  UNL A   1      40.141  18.136   4.255  1.00  0.00    +0.000 H 
BRANCH    2    1
ATOM      1  N1  UNL A   1      37.704  21.238   2.038  1.00  0.00    +0.000 N 
ATOM     84  H1  UNL A   1      37.761  22.205   2.206  1.00  0.00    +0.000 H 
ATOM     85  H2  UNL A   1      36.848  20.835   1.765  1.00  0.00    +0.000 H 
ENDBRANCH    2    1
BRANCH    5    6
ATOM      6  O1  UNL A   1      42.288  18.229   2.938  1.00  0.00    +0.000 O 
ATOM     88  H5  UNL A   1      42.241  17.588   3.618  1.00  0.00    +0.000 H 
ENDBRANCH    5    6
ENDBRANCH    8    7
ENDBRANCH   10    8
ENDBRANCH   11   10
ENDBRANCH   12   11
ENDBRANCH   13   12
ENDBRANCH   14   13
ENDBRANCH   15   14
ENDBRANCH   16   15
ENDBRANCH   17   16
ENDBRANCH   18   17
ENDBRANCH   20   18
ENDBRANCH   24   23
BRANCH   28   29
ATOM     33  F2  UNL A   1      58.855  14.088   9.748  1.00  0.00    +0.000 F 
ATOM     34  C25 UNL A   1      59.552  16.073   8.675  1.00  0.00    +0.000 C 
ATOM     35  F3  UNL A   1      60.240  15.360   7.773  1.00  0.00    +0.000 F 
ATOM     36  C26 UNL A   1      59.555  17.459   8.616  1.00  0.00    +0.000 C 
ATOM     37  F4  UNL A   1      60.234  18.084   7.643  1.00  0.00    +0.000 F 
ATOM     38  C27 UNL A   1      58.855  18.201   9.563  1.00  0.00    +0.000 C 
ATOM     39  F5  UNL A   1      58.887  19.539   9.485  1.00  0.00    +0.000 F 
ATOM     29  C22 UNL A   1      58.120  17.568  10.576  1.00  0.00    +0.000 C 
ATOM     30  C23 UNL A   1      58.117  16.165  10.608  1.00  0.00    +0.000 C 
ATOM     31  F1  UNL A   1      57.439  15.513  11.563  1.00  0.00    +0.000 F 
ATOM     32  C24 UNL A   1      58.839  15.427   9.675  1.00  0.00    +0.000 C 
ENDBRANCH   28   29
BRANCH   45   46
ATOM     46  C33 UNL A   1      58.907  20.260  17.212  1.00  0.00    +0.000 C 
ATOM     47  C34 UNL A   1      59.675  21.416  17.407  1.00  0.00    +0.000 C 
ATOM     48  F6  UNL A   1      59.508  22.480  16.606  1.00  0.00    +0.000 F 
ATOM     49  C35 UNL A   1      60.645  21.469  18.405  1.00  0.00    +0.000 C 
ATOM     50  F7  UNL A   1      61.398  22.569  18.547  1.00  0.00    +0.000 F 
ATOM     51  C36 UNL A   1      60.843  20.380  19.241  1.00  0.00    +0.000 C 
ATOM     52  F8  UNL A   1      61.773  20.436  20.205  1.00  0.00    +0.000 F 
ATOM     53  C37 UNL A   1      60.083  19.233  19.076  1.00  0.00    +0.000 C 
ATOM     54  F9  UNL A   1      60.265  18.186  19.891  1.00  0.00    +0.000 F 
ATOM     55  C38 UNL A   1      59.130  19.167  18.063  1.00  0.00    +0.000 C 
ATOM     56  F10 UNL A   1      58.417  18.041  17.919  1.00  0.00    +0.000 F 
ENDBRANCH   45   46
BRANCH   60   61
ATOM     65  F12 UNL A   1      50.091  21.982  19.700  1.00  0.00    +0.000 F 
ATOM     66  C45 UNL A   1      50.739  24.053  18.769  1.00  0.00    +0.000 C 
ATOM     67  F13 UNL A   1      49.945  24.706  19.629  1.00  0.00    +0.000 F 
ATOM     68  C46 UNL A   1      51.477  24.759  17.830  1.00  0.00    +0.000 C 
ATOM     69  F14 UNL A   1      51.410  26.096  17.794  1.00  0.00    +0.000 F 
ATOM     70  C47 UNL A   1      52.283  24.079  16.920  1.00  0.00    +0.000 C 
ATOM     71  F15 UNL A   1      52.974  24.786  16.013  1.00  0.00    +0.000 F 
ATOM     61  C42 UNL A   1      52.386  22.681  16.948  1.00  0.00    +0.000 C 
ATOM     62  C43 UNL A   1      51.648  21.991  17.919  1.00  0.00    +0.000 C 
ATOM     63  F11 UNL A   1      51.698  20.652  17.971  1.00  0.00    +0.000 F 
ATOM     64  C44 UNL A   1      50.821  22.670  18.811  1.00  0.00    +0.000 C 
ENDBRANCH   60   61
TORSDOF 17
ENDMDL
MODEL 9
REMARK VINA RESULT:      -9.3     48.790     55.056
ROOT
ATOM     24  C18 UNL A   1       2.372  11.070  37.981  1.00  0.00    +0.000 C 
ATOM     25  C19 UNL A   1       1.052  10.664  37.386  1.00  0.00    +0.000 C 
ATOM     26  N4  UNL A   1       0.663   9.490  36.961  1.00  0.00    +0.000 N 
ATOM     27  C20 UNL A   1      -0.656   9.654  36.557  1.00  0.00    +0.000 C 
ATOM     28  C21 UNL A   1      -1.486   8.742  35.994  1.00  0.00    +0.000 C 
ATOM     40  C28 UNL A   1      -1.115   7.385  35.693  1.00  0.00    +0.000 C 
ATOM     41  C29 UNL A   1      -1.863   6.406  35.060  1.00  0.00    +0.000 C 
ATOM     42  C30 UNL A   1      -1.101   5.234  35.019  1.00  0.00    +0.000 C 
ATOM     43  C31 UNL A   1       0.135   5.494  35.588  1.00  0.00    +0.000 C 
ATOM     44  N5  UNL A   1       0.111   6.816  36.001  1.00  0.00    +0.000 N 
ATOM     45  C32 UNL A   1       1.254   4.602  35.746  1.00  0.00    +0.000 C 
ATOM     57  C39 UNL A   1       2.441   4.935  36.311  1.00  0.00    +0.000 C 
ATOM     58  N6  UNL A   1       2.844   6.155  36.835  1.00  0.00    +0.000 N 
ATOM     59  C40 UNL A   1       4.067   5.972  37.271  1.00  0.00    +0.000 C 
ATOM     60  C41 UNL A   1       5.006   6.960  37.908  1.00  0.00    +0.000 C 
ATOM     72  C48 UNL A   1       4.607   8.235  38.072  1.00  0.00    +0.000 C 
ATOM     73  C49 UNL A   1       5.406   9.303  38.666  1.00  0.00    +0.000 C 
ATOM     74  C50 UNL A   1       4.673  10.428  38.707  1.00  0.00    +0.000 C 
ATOM     75  C51 UNL A   1       3.364  10.167  38.108  1.00  0.00    +0.000 C 
ATOM     76  N7  UNL A   1       3.418   8.842  37.752  1.00  0.00    +0.000 N 
ATOM     77  C52 UNL A   1       4.567   4.600  37.098  1.00  0.00    +0.000 C 
ATOM     78  C53 UNL A   1       3.551   4.021  36.473  1.00  0.00    +0.000 C 
ATOM     79  C54 UNL A   1      -1.014  11.029  36.824  1.00  0.00    +0.000 C 
ATOM     80  C55 UNL A   1       0.026  11.714  37.280  1.00  0.00    +0.000 C 
ATOM    105  H22 UNL A   1      -2.816   6.522  34.685  1.00  0.00    +0.000 H 
ATOM    106  H23 UNL A   1      -1.409   4.328  34.630  1.00  0.00    +0.000 H 
ATOM    107  H24 UNL A   1       0.855   7.282  36.447  1.00  0.00    +0.000 H 
ATOM    108  H25 UNL A   1       6.377   9.209  39.002  1.00  0.00    +0.000 H 
ATOM    109  H26 UNL A   1       4.983  11.331  39.097  1.00  0.00    +0.000 H 
ATOM    110  H27 UNL A   1       2.675   8.372  37.310  1.00  0.00    +0.000 H 
ATOM    111  H28 UNL A   1       5.470   4.195  37.386  1.00  0.00    +0.000 H 
ATOM    112  H29 UNL A   1       3.552   3.042  36.144  1.00  0.00    +0.000 H 
ATOM    113  H30 UNL A   1      -1.955  11.427  36.680  1.00  0.00    +0.000 H 
ATOM    114  H31 UNL A   1       0.097  12.719  37.501  1.00  0.00    +0.000 H 
ENDROOT
BRANCH   24   23
ATOM    103  H20 UNL A   1       2.272  14.304  41.287  1.00  0.00    +0.000 H 
ATOM    104  H21 UNL A   1       2.043  12.018  40.502  1.00  0.00    +0.000 H 
ATOM     81  C56 UNL A   1       3.000  13.458  37.625  1.00  0.00    +0.000 C 
ATOM     82  C57 UNL A   1       3.202  14.754  38.094  1.00  0.00    +0.000 C 
ATOM    115  H32 UNL A   1       3.173  13.240  36.631  1.00  0.00    +0.000 H 
ATOM     20  C14 UNL A   1       2.883  15.075  39.417  1.00  0.00    +0.000 C 
ATOM     21  C15 UNL A   1       2.469  14.074  40.301  1.00  0.00    +0.000 C 
ATOM    116  H33 UNL A   1       3.586  15.477  37.466  1.00  0.00    +0.000 H 
ATOM     22  C16 UNL A   1       2.325  12.761  39.845  1.00  0.00    +0.000 C 
ATOM     23  C17 UNL A   1       2.565  12.448  38.497  1.00  0.00    +0.000 C 
BRANCH   20   18
ATOM     18  C13 UNL A   1       3.008  16.463  39.919  1.00  0.00    +0.000 C 
ATOM     19  O3  UNL A   1       2.008  17.151  40.062  1.00  0.00    +0.000 O 
BRANCH   18   17
ATOM     17  N3  UNL A   1       4.248  16.974  40.219  1.00  0.00    +0.000 N 
ATOM    102  H19 UNL A   1       4.262  17.920  40.489  1.00  0.00    +0.000 H 
BRANCH   17   16
ATOM    100  H17 UNL A   1       5.568  15.637  39.362  1.00  0.00    +0.000 H 
ATOM    101  H18 UNL A   1       6.298  17.064  40.101  1.00  0.00    +0.000 H 
ATOM     16  C12 UNL A   1       5.543  16.312  40.192  1.00  0.00    +0.000 C 
BRANCH   16   15
ATOM     98  H15 UNL A   1       6.377  16.148  42.134  1.00  0.00    +0.000 H 
ATOM     99  H16 UNL A   1       4.850  15.261  41.871  1.00  0.00    +0.000 H 
ATOM     15  C11 UNL A   1       5.808  15.527  41.474  1.00  0.00    +0.000 C 
BRANCH   15   14
ATOM     97  H14 UNL A   1       5.865  13.431  41.432  1.00  0.00    +0.000 H 
ATOM     14  C10 UNL A   1       6.573  14.216  41.271  1.00  0.00    +0.000 C 
ATOM     96  H13 UNL A   1       7.393  14.202  41.959  1.00  0.00    +0.000 H 
BRANCH   14   13
ATOM     13  C9  UNL A   1       7.135  14.000  39.859  1.00  0.00    +0.000 C 
ATOM     94  H11 UNL A   1       6.342  13.633  39.240  1.00  0.00    +0.000 H 
ATOM     95  H12 UNL A   1       7.518  14.948  39.543  1.00  0.00    +0.000 H 
BRANCH   13   12
ATOM     92  H9  UNL A   1       9.195  13.557  39.524  1.00  0.00    +0.000 H 
ATOM     12  C8  UNL A   1       8.308  13.011  39.767  1.00  0.00    +0.000 C 
ATOM     93  H10 UNL A   1       8.383  12.520  40.715  1.00  0.00    +0.000 H 
BRANCH   12   11
ATOM     90  H7  UNL A   1       9.055  11.581  38.364  1.00  0.00    +0.000 H 
ATOM     11  C7  UNL A   1       8.102  11.924  38.709  1.00  0.00    +0.000 C 
ATOM     91  H8  UNL A   1       7.559  11.110  39.142  1.00  0.00    +0.000 H 
BRANCH   11   10
ATOM     89  H6  UNL A   1       6.425  12.699  37.827  1.00  0.00    +0.000 H 
ATOM     10  N2  UNL A   1       7.350  12.457  37.591  1.00  0.00    +0.000 N 
BRANCH   10    8
ATOM      9  O2  UNL A   1       7.576  11.738  35.504  1.00  0.00    +0.000 O 
ATOM      8  C6  UNL A   1       7.649  12.699  36.277  1.00  0.00    +0.000 C 
BRANCH    8    7
ATOM      2  C1  UNL A   1       9.675  15.889  35.631  1.00  0.00    +0.000 C 
ATOM      3  C2  UNL A   1       8.958  16.419  34.558  1.00  0.00    +0.000 C 
ATOM      4  C3  UNL A   1       7.847  15.749  34.052  1.00  0.00    +0.000 C 
ATOM      5  C4  UNL A   1       7.445  14.547  34.628  1.00  0.00    +0.000 C 
ATOM      7  C5  UNL A   1       8.128  14.000  35.730  1.00  0.00    +0.000 C 
ATOM     83  C58 UNL A   1       9.196  14.733  36.265  1.00  0.00    +0.000 C 
ATOM    117  H34 UNL A   1       9.639  14.416  37.142  1.00  0.00    +0.000 H 
ATOM     86  H3  UNL A   1       9.253  17.313  34.137  1.00  0.00    +0.000 H 
ATOM     87  H4  UNL A   1       7.326  16.141  33.253  1.00  0.00    +0.000 H 
BRANCH    2    1
ATOM      1  N1  UNL A   1      10.722  16.625  36.203  1.00  0.00    +0.000 N 
ATOM     84  H1  UNL A   1      10.775  16.727  37.180  1.00  0.00    +0.000 H 
ATOM     85  H2  UNL A   1      11.405  17.038  35.626  1.00  0.00    +0.000 H 
ENDBRANCH    2    1
BRANCH    5    6
ATOM      6  O1  UNL A   1       6.338  13.967  34.061  1.00  0.00    +0.000 O 
ATOM     88  H5  UNL A   1       5.542  13.900  34.550  1.00  0.00    +0.000 H 
ENDBRANCH    5    6
ENDBRANCH    8    7
ENDBRANCH   10    8
ENDBRANCH   11   10
ENDBRANCH   12   11
ENDBRANCH   13   12
ENDBRANCH   14   13
ENDBRANCH   15   14
ENDBRANCH   16   15
ENDBRANCH   17   16
ENDBRANCH   18   17
ENDBRANCH   20   18
ENDBRANCH   24   23
BRANCH   28   29
ATOM     33  F2  UNL A   1      -4.780  10.644  32.904  1.00  0.00    +0.000 F 
ATOM     34  C25 UNL A   1      -5.517   9.925  35.029  1.00  0.00    +0.000 C 
ATOM     35  F3  UNL A   1      -6.773  10.284  34.731  1.00  0.00    +0.000 F 
ATOM     36  C26 UNL A   1      -5.225   9.384  36.273  1.00  0.00    +0.000 C 
ATOM     37  F4  UNL A   1      -6.206   9.205  37.170  1.00  0.00    +0.000 F 
ATOM     38  C27 UNL A   1      -3.918   9.027  36.591  1.00  0.00    +0.000 C 
ATOM     39  F5  UNL A   1      -3.666   8.516  37.805  1.00  0.00    +0.000 F 
ATOM     29  C22 UNL A   1      -2.880   9.184  35.661  1.00  0.00    +0.000 C 
ATOM     30  C23 UNL A   1      -3.200   9.718  34.403  1.00  0.00    +0.000 C 
ATOM     31  F1  UNL A   1      -2.241   9.899  33.483  1.00  0.00    +0.000 F 
ATOM     32  C24 UNL A   1      -4.504  10.099  34.098  1.00  0.00    +0.000 C 
ENDBRANCH   28   29
BRANCH   45   46
ATOM     46  C33 UNL A   1       1.110   3.201  35.228  1.00  0.00    +0.000 C 
ATOM     47  C34 UNL A   1       1.485   2.859  33.921  1.00  0.00    +0.000 C 
ATOM     48  F6  UNL A   1       1.935   3.803  33.080  1.00  0.00    +0.000 F 
ATOM     49  C35 UNL A   1       1.362   1.550  33.463  1.00  0.00    +0.000 C 
ATOM     50  F7  UNL A   1       1.686   1.253  32.197  1.00  0.00    +0.000 F 
ATOM     51  C36 UNL A   1       0.893   0.558  34.310  1.00  0.00    +0.000 C 
ATOM     52  F8  UNL A   1       0.782  -0.704  33.868  1.00  0.00    +0.000 F 
ATOM     53  C37 UNL A   1       0.532   0.871  35.612  1.00  0.00    +0.000 C 
ATOM     54  F9  UNL A   1       0.090  -0.090  36.434  1.00  0.00    +0.000 F 
ATOM     55  C38 UNL A   1       0.629   2.183  36.065  1.00  0.00    +0.000 C 
ATOM     56  F10 UNL A   1       0.263   2.460  37.325  1.00  0.00    +0.000 F 
ENDBRANCH   45   46
BRANCH   60   61
ATOM     65  F12 UNL A   1       8.007   4.798  41.082  1.00  0.00    +0.000 F 
ATOM     66  C45 UNL A   1       8.947   5.785  39.154  1.00  0.00    +0.000 C 
ATOM     67  F13 UNL A   1      10.177   5.432  39.554  1.00  0.00    +0.000 F 
ATOM     68  C46 UNL A   1       8.776   6.488  37.970  1.00  0.00    +0.000 C 
ATOM     69  F14 UNL A   1       9.838   6.798  37.216  1.00  0.00    +0.000 F 
ATOM     70  C47 UNL A   1       7.500   6.876  37.567  1.00  0.00    +0.000 C 
ATOM     71  F15 UNL A   1       7.365   7.567  36.425  1.00  0.00    +0.000 F 
ATOM     61  C42 UNL A   1       6.369   6.547  38.327  1.00  0.00    +0.000 C 
ATOM     62  C43 UNL A   1       6.566   5.819  39.509  1.00  0.00    +0.000 C 
ATOM     63  F11 UNL A   1       5.516   5.500  40.280  1.00  0.00    +0.000 F 
ATOM     64  C44 UNL A   1       7.844   5.455  39.925  1.00  0.00    +0.000 C 
ENDBRANCH   60   61
TORSDOF 17
ENDMDL
MODEL 10
REMARK VINA RESULT:      -9.3      1.644      7.760
ROOT
ATOM     24  C18 UNL A   1      14.438  54.581   4.581  1.00  0.00    +0.000 C 
ATOM     25  C19 UNL A   1      13.994  53.163   4.809  1.00  0.00    +0.000 C 
ATOM     26  N4  UNL A   1      14.303  52.082   4.140  1.00  0.00    +0.000 N 
ATOM     27  C20 UNL A   1      13.665  51.037   4.796  1.00  0.00    +0.000 C 
ATOM     28  C21 UNL A   1      13.634  49.724   4.463  1.00  0.00    +0.000 C 
ATOM     40  C28 UNL A   1      14.278  49.166   3.303  1.00  0.00    +0.000 C 
ATOM     41  C29 UNL A   1      14.247  47.861   2.843  1.00  0.00    +0.000 C 
ATOM     42  C30 UNL A   1      15.049  47.782   1.700  1.00  0.00    +0.000 C 
ATOM     43  C31 UNL A   1      15.546  49.046   1.425  1.00  0.00    +0.000 C 
ATOM     44  N5  UNL A   1      15.069  49.885   2.419  1.00  0.00    +0.000 N 
ATOM     45  C32 UNL A   1      16.395  49.458   0.338  1.00  0.00    +0.000 C 
ATOM     57  C39 UNL A   1      16.837  50.723   0.132  1.00  0.00    +0.000 C 
ATOM     58  N6  UNL A   1      16.581  51.867   0.875  1.00  0.00    +0.000 N 
ATOM     59  C40 UNL A   1      17.238  52.835   0.283  1.00  0.00    +0.000 C 
ATOM     60  C41 UNL A   1      17.300  54.296   0.636  1.00  0.00    +0.000 C 
ATOM     72  C48 UNL A   1      16.593  54.749   1.688  1.00  0.00    +0.000 C 
ATOM     73  C49 UNL A   1      16.550  56.134   2.147  1.00  0.00    +0.000 C 
ATOM     74  C50 UNL A   1      15.780  56.208   3.245  1.00  0.00    +0.000 C 
ATOM     75  C51 UNL A   1      15.248  54.879   3.547  1.00  0.00    +0.000 C 
ATOM     76  N7  UNL A   1      15.777  54.078   2.565  1.00  0.00    +0.000 N 
ATOM     77  C52 UNL A   1      18.013  52.404  -0.890  1.00  0.00    +0.000 C 
ATOM     78  C53 UNL A   1      17.703  51.117  -0.960  1.00  0.00    +0.000 C 
ATOM     79  C54 UNL A   1      12.986  51.607   5.939  1.00  0.00    +0.000 C 
ATOM     80  C55 UNL A   1      13.106  52.927   5.958  1.00  0.00    +0.000 C 
ATOM    105  H22 UNL A   1      13.723  47.082   3.270  1.00  0.00    +0.000 H 
ATOM    106  H23 UNL A   1      15.239  46.927   1.153  1.00  0.00    +0.000 H 
ATOM    107  H24 UNL A   1      15.262  50.847   2.488  1.00  0.00    +0.000 H 
ATOM    108  H25 UNL A   1      17.033  56.929   1.700  1.00  0.00    +0.000 H 
ATOM    109  H26 UNL A   1      15.594  57.065   3.789  1.00  0.00    +0.000 H 
ATOM    110  H27 UNL A   1      15.589  53.114   2.496  1.00  0.00    +0.000 H 
ATOM    111  H28 UNL A   1      18.636  52.957  -1.498  1.00  0.00    +0.000 H 
ATOM    112  H29 UNL A   1      18.034  50.477  -1.699  1.00  0.00    +0.000 H 
ATOM    113  H30 UNL A   1      12.474  51.058   6.648  1.00  0.00    +0.000 H 
ATOM    114  H31 UNL A   1      12.685  53.609   6.607  1.00  0.00    +0.000 H 
ENDROOT
BRANCH   24   23
ATOM    103  H20 UNL A   1      15.115  57.299   8.262  1.00  0.00    +0.000 H 
ATOM    104  H21 UNL A   1      15.835  55.622   6.661  1.00  0.00    +0.000 H 
ATOM     81  C56 UNL A   1      12.795  56.274   5.394  1.00  0.00    +0.000 C 
ATOM     82  C57 UNL A   1      12.414  57.288   6.270  1.00  0.00    +0.000 C 
ATOM    115  H32 UNL A   1      12.156  55.983   4.638  1.00  0.00    +0.000 H 
ATOM     20  C14 UNL A   1      13.237  57.624   7.350  1.00  0.00    +0.000 C 
ATOM     21  C15 UNL A   1      14.492  57.023   7.487  1.00  0.00    +0.000 C 
ATOM    116  H33 UNL A   1      11.525  57.791   6.123  1.00  0.00    +0.000 H 
ATOM     22  C16 UNL A   1      14.900  56.049   6.573  1.00  0.00    +0.000 C 
ATOM     23  C17 UNL A   1      14.043  55.648   5.535  1.00  0.00    +0.000 C 
BRANCH   20   18
ATOM     18  C13 UNL A   1      12.819  58.639   8.343  1.00  0.00    +0.000 C 
ATOM     19  O3  UNL A   1      13.177  59.801   8.213  1.00  0.00    +0.000 O 
BRANCH   18   17
ATOM     17  N3  UNL A   1      12.035  58.272   9.411  1.00  0.00    +0.000 N 
ATOM    102  H19 UNL A   1      12.460  58.348  10.295  1.00  0.00    +0.000 H 
BRANCH   17   16
ATOM    100  H17 UNL A   1      10.181  58.124  10.309  1.00  0.00    +0.000 H 
ATOM    101  H18 UNL A   1      10.174  58.169   8.545  1.00  0.00    +0.000 H 
ATOM     16  C12 UNL A   1      10.664  57.787   9.416  1.00  0.00    +0.000 C 
BRANCH   16   15
ATOM     98  H15 UNL A   1       9.648  55.957   9.750  1.00  0.00    +0.000 H 
ATOM     99  H16 UNL A   1      10.744  55.986   8.342  1.00  0.00    +0.000 H 
ATOM     15  C11 UNL A   1      10.599  56.263   9.366  1.00  0.00    +0.000 C 
BRANCH   15   14
ATOM     97  H14 UNL A   1      11.188  55.001  10.933  1.00  0.00    +0.000 H 
ATOM     14  C10 UNL A   1      11.692  55.552  10.168  1.00  0.00    +0.000 C 
ATOM     96  H13 UNL A   1      12.361  56.297  10.547  1.00  0.00    +0.000 H 
BRANCH   14   13
ATOM     13  C9  UNL A   1      12.520  54.529   9.380  1.00  0.00    +0.000 C 
ATOM     94  H11 UNL A   1      12.048  53.573   9.481  1.00  0.00    +0.000 H 
ATOM     95  H12 UNL A   1      12.550  54.884   8.370  1.00  0.00    +0.000 H 
BRANCH   13   12
ATOM     92  H9  UNL A   1      14.519  53.849   9.074  1.00  0.00    +0.000 H 
ATOM     12  C8  UNL A   1      13.984  54.388   9.827  1.00  0.00    +0.000 C 
ATOM     93  H10 UNL A   1      14.368  55.376   9.967  1.00  0.00    +0.000 H 
BRANCH   12   11
ATOM     90  H7  UNL A   1      15.179  53.578  11.404  1.00  0.00    +0.000 H 
ATOM     11  C7  UNL A   1      14.141  53.647  11.158  1.00  0.00    +0.000 C 
ATOM     91  H8  UNL A   1      13.622  54.186  11.923  1.00  0.00    +0.000 H 
BRANCH   11   10
ATOM     89  H6  UNL A   1      12.639  52.266  11.328  1.00  0.00    +0.000 H 
ATOM     10  N2  UNL A   1      13.583  52.314  11.052  1.00  0.00    +0.000 N 
BRANCH   10    8
ATOM      9  O2  UNL A   1      13.451  50.100  10.986  1.00  0.00    +0.000 O 
ATOM      8  C6  UNL A   1      14.085  51.106  10.649  1.00  0.00    +0.000 C 
BRANCH    8    7
ATOM      2  C1  UNL A   1      16.728  50.822   7.887  1.00  0.00    +0.000 C 
ATOM      3  C2  UNL A   1      17.863  50.581   8.661  1.00  0.00    +0.000 C 
ATOM      4  C3  UNL A   1      17.771  50.521  10.049  1.00  0.00    +0.000 C 
ATOM      5  C4  UNL A   1      16.535  50.694  10.667  1.00  0.00    +0.000 C 
ATOM      7  C5  UNL A   1      15.366  50.909   9.913  1.00  0.00    +0.000 C 
ATOM     83  C58 UNL A   1      15.477  50.890   8.517  1.00  0.00    +0.000 C 
ATOM    117  H34 UNL A   1      14.621  50.927   7.940  1.00  0.00    +0.000 H 
ATOM     86  H3  UNL A   1      18.777  50.446   8.201  1.00  0.00    +0.000 H 
ATOM     87  H4  UNL A   1      18.615  50.351  10.617  1.00  0.00    +0.000 H 
BRANCH    2    1
ATOM      1  N1  UNL A   1      16.812  50.770   6.489  1.00  0.00    +0.000 N 
ATOM     84  H1  UNL A   1      17.556  51.216   6.024  1.00  0.00    +0.000 H 
ATOM     85  H2  UNL A   1      16.127  50.287   5.972  1.00  0.00    +0.000 H 
ENDBRANCH    2    1
BRANCH    5    6
ATOM      6  O1  UNL A   1      16.548  50.614  12.037  1.00  0.00    +0.000 O 
ATOM     88  H5  UNL A   1      16.607  51.394  12.551  1.00  0.00    +0.000 H 
ENDBRANCH    5    6
ENDBRANCH    8    7
ENDBRANCH   10    8
ENDBRANCH   11   10
ENDBRANCH   12   11
ENDBRANCH   13   12
ENDBRANCH   14   13
ENDBRANCH   15   14
ENDBRANCH   16   15
ENDBRANCH   17   16
ENDBRANCH   18   17
ENDBRANCH   20   18
ENDBRANCH   24   23
BRANCH   28   29
ATOM     33  F2  UNL A   1       9.481  47.539   5.875  1.00  0.00    +0.000 F 
ATOM     34  C25 UNL A   1      11.481  46.988   7.004  1.00  0.00    +0.000 C 
ATOM     35  F3  UNL A   1      10.817  46.131   7.791  1.00  0.00    +0.000 F 
ATOM     36  C26 UNL A   1      12.846  47.173   7.172  1.00  0.00    +0.000 C 
ATOM     37  F4  UNL A   1      13.503  46.478   8.113  1.00  0.00    +0.000 F 
ATOM     38  C27 UNL A   1      13.533  48.076   6.367  1.00  0.00    +0.000 C 
ATOM     39  F5  UNL A   1      14.850  48.240   6.561  1.00  0.00    +0.000 F 
ATOM     29  C22 UNL A   1      12.871  48.796   5.362  1.00  0.00    +0.000 C 
ATOM     30  C23 UNL A   1      11.494  48.582   5.198  1.00  0.00    +0.000 C 
ATOM     31  F1  UNL A   1      10.813  49.256   4.259  1.00  0.00    +0.000 F 
ATOM     32  C24 UNL A   1      10.804  47.698   6.023  1.00  0.00    +0.000 C 
ENDBRANCH   28   29
BRANCH   45   46
ATOM     46  C33 UNL A   1      16.810  48.416  -0.658  1.00  0.00    +0.000 C 
ATOM     47  C34 UNL A   1      16.011  48.101  -1.766  1.00  0.00    +0.000 C 
ATOM     48  F6  UNL A   1      14.819  48.695  -1.930  1.00  0.00    +0.000 F 
ATOM     49  C35 UNL A   1      16.420  47.145  -2.692  1.00  0.00    +0.000 C 
ATOM     50  F7  UNL A   1      15.622  46.828  -3.721  1.00  0.00    +0.000 F 
ATOM     51  C36 UNL A   1      17.644  46.511  -2.543  1.00  0.00    +0.000 C 
ATOM     52  F8  UNL A   1      18.039  45.595  -3.440  1.00  0.00    +0.000 F 
ATOM     53  C37 UNL A   1      18.457  46.820  -1.464  1.00  0.00    +0.000 C 
ATOM     54  F9  UNL A   1      19.646  46.216  -1.326  1.00  0.00    +0.000 F 
ATOM     55  C38 UNL A   1      18.041  47.756  -0.522  1.00  0.00    +0.000 C 
ATOM     56  F10 UNL A   1      18.842  48.027   0.518  1.00  0.00    +0.000 F 
ENDBRANCH   45   46
BRANCH   60   61
ATOM     65  F12 UNL A   1      17.945  56.954  -3.399  1.00  0.00    +0.000 F 
ATOM     66  C45 UNL A   1      19.636  57.001  -1.751  1.00  0.00    +0.000 C 
ATOM     67  F13 UNL A   1      20.370  57.830  -2.505  1.00  0.00    +0.000 F 
ATOM     68  C46 UNL A   1      20.114  56.572  -0.521  1.00  0.00    +0.000 C 
ATOM     69  F14 UNL A   1      21.303  57.003  -0.078  1.00  0.00    +0.000 F 
ATOM     70  C47 UNL A   1      19.362  55.690   0.252  1.00  0.00    +0.000 C 
ATOM     71  F15 UNL A   1      19.856  55.281   1.430  1.00  0.00    +0.000 F 
ATOM     61  C42 UNL A   1      18.107  55.239  -0.179  1.00  0.00    +0.000 C 
ATOM     62  C43 UNL A   1      17.636  55.702  -1.415  1.00  0.00    +0.000 C 
ATOM     63  F11 UNL A   1      16.450  55.281  -1.879  1.00  0.00    +0.000 F 
ATOM     64  C44 UNL A   1      18.400  56.562  -2.200  1.00  0.00    +0.000 C 
ENDBRANCH   60   61
TORSDOF 17
ENDMDL
