MODEL 1
REMARK VINA RESULT:      -8.8      0.000      0.000
ROOT
ATOM    129  H31 UNL A   1      13.549  46.905   1.827  1.00  0.00    +0.000 H 
ATOM    130  H32 UNL A   1      15.302  47.050  -0.035  1.00  0.00    +0.000 H 
ATOM    131  H33 UNL A   1      17.134  56.643   2.333  1.00  0.00    +0.000 H 
ATOM    132  H34 UNL A   1      15.737  56.383   4.464  1.00  0.00    +0.000 H 
ATOM     28  C21 UNL A   1      14.443  53.855   4.680  1.00  0.00    +0.000 C 
ATOM     29  C22 UNL A   1      15.430  54.295   3.637  1.00  0.00    +0.000 C 
ATOM     30  N5  UNL A   1      15.906  53.628   2.616  1.00  0.00    +0.000 N 
ATOM     31  C23 UNL A   1      16.736  54.513   1.940  1.00  0.00    +0.000 C 
ATOM     32  C24 UNL A   1      17.499  54.285   0.844  1.00  0.00    +0.000 C 
ATOM     44  C31 UNL A   1      17.595  53.015   0.172  1.00  0.00    +0.000 C 
ATOM     45  C32 UNL A   1      18.417  52.657  -0.883  1.00  0.00    +0.000 C 
ATOM     46  C33 UNL A   1      18.125  51.336  -1.236  1.00  0.00    +0.000 C 
ATOM     47  C34 UNL A   1      17.152  50.856  -0.373  1.00  0.00    +0.000 C 
ATOM     48  N6  UNL A   1      16.839  51.895   0.487  1.00  0.00    +0.000 N 
ATOM     49  C35 UNL A   1      16.552  49.546  -0.336  1.00  0.00    +0.000 C 
ATOM     61  C42 UNL A   1      15.630  49.141   0.573  1.00  0.00    +0.000 C 
ATOM     62  N7  UNL A   1      15.063  49.856   1.618  1.00  0.00    +0.000 N 
ATOM     63  C43 UNL A   1      14.219  49.038   2.198  1.00  0.00    +0.000 C 
ATOM     64  C44 UNL A   1      13.337  49.279   3.390  1.00  0.00    +0.000 C 
ATOM     76  C51 UNL A   1      13.411  50.456   4.039  1.00  0.00    +0.000 C 
ATOM     77  C52 UNL A   1      12.628  50.822   5.216  1.00  0.00    +0.000 C 
ATOM     78  C53 UNL A   1      12.919  52.086   5.559  1.00  0.00    +0.000 C 
ATOM     79  C54 UNL A   1      13.932  52.610   4.642  1.00  0.00    +0.000 C 
ATOM     80  N8  UNL A   1      14.178  51.566   3.785  1.00  0.00    +0.000 N 
ATOM     81  C55 UNL A   1      14.146  47.709   1.575  1.00  0.00    +0.000 C 
ATOM     82  C56 UNL A   1      15.048  47.815   0.609  1.00  0.00    +0.000 C 
ATOM     83  C57 UNL A   1      16.665  55.776   2.643  1.00  0.00    +0.000 C 
ATOM     84  C58 UNL A   1      15.922  55.677   3.736  1.00  0.00    +0.000 C 
ATOM    123  H25 UNL A   1      19.123  53.262  -1.331  1.00  0.00    +0.000 H 
ATOM    124  H26 UNL A   1      18.559  50.808  -2.008  1.00  0.00    +0.000 H 
ATOM    125  H27 UNL A   1      16.178  51.847   1.216  1.00  0.00    +0.000 H 
ATOM    126  H28 UNL A   1      11.958  50.208   5.705  1.00  0.00    +0.000 H 
ATOM    127  H29 UNL A   1      12.495  52.606   6.345  1.00  0.00    +0.000 H 
ATOM    128  H30 UNL A   1      14.841  51.610   3.059  1.00  0.00    +0.000 H 
ENDROOT
BRANCH   28   27
ATOM    122  H24 UNL A   1      15.625  54.646   6.989  1.00  0.00    +0.000 H 
ATOM    133  H35 UNL A   1      12.168  55.271   4.663  1.00  0.00    +0.000 H 
ATOM    134  H36 UNL A   1      11.349  56.846   6.314  1.00  0.00    +0.000 H 
ATOM     85  C59 UNL A   1      12.716  55.452   5.518  1.00  0.00    +0.000 C 
ATOM     86  C60 UNL A   1      12.226  56.328   6.483  1.00  0.00    +0.000 C 
ATOM     24  C17 UNL A   1      12.924  56.505   7.682  1.00  0.00    +0.000 C 
ATOM     25  C18 UNL A   1      14.173  55.904   7.861  1.00  0.00    +0.000 C 
ATOM     26  C19 UNL A   1      14.693  55.072   6.867  1.00  0.00    +0.000 C 
ATOM     27  C20 UNL A   1      13.952  54.812   5.703  1.00  0.00    +0.000 C 
ATOM    121  H23 UNL A   1      14.710  56.073   8.726  1.00  0.00    +0.000 H 
BRANCH   24   22
ATOM     22  C16 UNL A   1      12.375  57.344   8.769  1.00  0.00    +0.000 C 
ATOM     23  O3  UNL A   1      12.548  58.559   8.745  1.00  0.00    +0.000 O 
BRANCH   22   21
ATOM     21  N4  UNL A   1      11.687  56.768   9.807  1.00  0.00    +0.000 N 
ATOM    120  H22 UNL A   1      11.372  57.392  10.501  1.00  0.00    +0.000 H 
BRANCH   21   20
ATOM     20  C15 UNL A   1      11.353  55.370  10.034  1.00  0.00    +0.000 C 
ATOM    118  H20 UNL A   1      10.314  55.299  10.277  1.00  0.00    +0.000 H 
ATOM    119  H21 UNL A   1      11.582  54.829   9.141  1.00  0.00    +0.000 H 
BRANCH   20   19
ATOM     19  C14 UNL A   1      12.168  54.761  11.173  1.00  0.00    +0.000 C 
ATOM    116  H18 UNL A   1      12.546  55.561  11.775  1.00  0.00    +0.000 H 
ATOM    117  H19 UNL A   1      11.506  54.112  11.704  1.00  0.00    +0.000 H 
BRANCH   19   18
ATOM     18  C13 UNL A   1      13.352  53.901  10.726  1.00  0.00    +0.000 C 
ATOM    115  H17 UNL A   1      13.662  53.351  11.591  1.00  0.00    +0.000 H 
ATOM    114  H16 UNL A   1      14.108  54.553  10.340  1.00  0.00    +0.000 H 
BRANCH   18   17
ATOM     17  C12 UNL A   1      13.035  52.855   9.649  1.00  0.00    +0.000 C 
ATOM    113  H15 UNL A   1      13.337  53.287   8.718  1.00  0.00    +0.000 H 
ATOM    112  H14 UNL A   1      11.988  52.637   9.697  1.00  0.00    +0.000 H 
BRANCH   17   16
ATOM    110  H12 UNL A   1      13.095  50.730   9.792  1.00  0.00    +0.000 H 
ATOM    111  H13 UNL A   1      14.468  51.474   8.941  1.00  0.00    +0.000 H 
ATOM     16  C11 UNL A   1      13.804  51.533   9.777  1.00  0.00    +0.000 C 
BRANCH   16   15
ATOM    108  H10 UNL A   1      14.398  52.251  11.695  1.00  0.00    +0.000 H 
ATOM    109  H11 UNL A   1      14.475  50.502  11.509  1.00  0.00    +0.000 H 
ATOM     15  C10 UNL A   1      14.661  51.446  11.041  1.00  0.00    +0.000 C 
BRANCH   15   14
ATOM    107  H9  UNL A   1      16.425  52.440  10.578  1.00  0.00    +0.000 H 
ATOM     14  N3  UNL A   1      16.074  51.533  10.728  1.00  0.00    +0.000 N 
BRANCH   14   12
ATOM     12  C9  UNL A   1      16.981  50.515  10.615  1.00  0.00    +0.000 C 
ATOM     13  O2  UNL A   1      17.657  50.221  11.603  1.00  0.00    +0.000 O 
BRANCH   12   11
ATOM    105  H7  UNL A   1      16.633  50.342   8.514  1.00  0.00    +0.000 H 
ATOM    106  H8  UNL A   1      18.222  49.790   9.049  1.00  0.00    +0.000 H 
ATOM     11  C8  UNL A   1      17.175  49.808   9.268  1.00  0.00    +0.000 C 
BRANCH   11   10
ATOM     10  N2  UNL A   1      16.697  48.437   9.307  1.00  0.00    +0.000 N 
ATOM    104  H6  UNL A   1      17.371  47.723   9.227  1.00  0.00    +0.000 H 
BRANCH   10    9
ATOM      7  C6  UNL A   1      13.539  47.554  10.522  1.00  0.00    +0.000 C 
ATOM      8  N1  UNL A   1      14.885  47.854  10.631  1.00  0.00    +0.000 N 
ATOM      9  C7  UNL A   1      15.410  48.055   9.443  1.00  0.00    +0.000 C 
ATOM     87  S1  UNL A   1      14.304  47.836   8.135  1.00  0.00    +0.000 S 
ATOM     88  C61 UNL A   1      13.014  47.618   9.239  1.00  0.00    +0.000 C 
BRANCH    7    6
ATOM     97  C69 UNL A   1      12.430  45.926  12.026  1.00  0.00    +0.000 C 
ATOM     98  C70 UNL A   1      11.741  45.635  13.210  1.00  0.00    +0.000 C 
ATOM      3  C2  UNL A   1      11.344  46.671  14.060  1.00  0.00    +0.000 C 
ATOM      4  C3  UNL A   1      11.594  47.994  13.703  1.00  0.00    +0.000 C 
ATOM      5  C4  UNL A   1      12.291  48.286  12.531  1.00  0.00    +0.000 C 
ATOM    102  H4  UNL A   1      11.261  48.762  14.308  1.00  0.00    +0.000 H 
ATOM      6  C5  UNL A   1      12.734  47.251  11.696  1.00  0.00    +0.000 C 
ATOM    103  H5  UNL A   1      12.481  49.268  12.277  1.00  0.00    +0.000 H 
ATOM    142  H44 UNL A   1      12.714  45.161  11.395  1.00  0.00    +0.000 H 
ATOM    143  H45 UNL A   1      11.525  44.656  13.455  1.00  0.00    +0.000 H 
BRANCH    3    2
ATOM      2  O1  UNL A   1      10.664  46.496  15.233  1.00  0.00    +0.000 O 
BRANCH    2    1
ATOM      1  C1  UNL A   1      10.289  45.149  15.505  1.00  0.00    +0.000 C 
ATOM     99  H1  UNL A   1       9.249  45.018  15.289  1.00  0.00    +0.000 H 
ATOM    100  H2  UNL A   1      10.468  44.930  16.538  1.00  0.00    +0.000 H 
ATOM    101  H3  UNL A   1      10.868  44.487  14.895  1.00  0.00    +0.000 H 
ENDBRANCH    2    1
ENDBRANCH    3    2
ENDBRANCH    7    6
BRANCH   88   89
ATOM    135  H37 UNL A   1      11.540  49.546   8.033  1.00  0.00    +0.000 H 
ATOM    136  H38 UNL A   1       9.268  49.374   7.211  1.00  0.00    +0.000 H 
ATOM    140  H42 UNL A   1       9.052  45.406   8.559  1.00  0.00    +0.000 H 
ATOM    141  H43 UNL A   1      11.316  45.579   9.402  1.00  0.00    +0.000 H 
ATOM     89  C62 UNL A   1      11.629  47.569   8.768  1.00  0.00    +0.000 C 
ATOM     90  C63 UNL A   1      11.020  48.662   8.143  1.00  0.00    +0.000 C 
ATOM     91  C64 UNL A   1       9.708  48.560   7.666  1.00  0.00    +0.000 C 
ATOM     92  C65 UNL A   1       8.989  47.370   7.797  1.00  0.00    +0.000 C 
ATOM     95  C67 UNL A   1       9.579  46.286   8.440  1.00  0.00    +0.000 C 
ATOM     96  C68 UNL A   1      10.887  46.386   8.923  1.00  0.00    +0.000 C 
BRANCH   92   93
ATOM     93  O4  UNL A   1       7.729  47.394   7.266  1.00  0.00    +0.000 O 
BRANCH   93   94
ATOM    137  H39 UNL A   1       5.992  46.354   6.966  1.00  0.00    +0.000 H 
ATOM    138  H40 UNL A   1       6.833  45.989   8.453  1.00  0.00    +0.000 H 
ATOM    139  H41 UNL A   1       7.452  45.395   6.932  1.00  0.00    +0.000 H 
ATOM     94  C66 UNL A   1       6.953  46.210   7.414  1.00  0.00    +0.000 C 
ENDBRANCH   93   94
ENDBRANCH   92   93
ENDBRANCH   88   89
ENDBRANCH   10    9
ENDBRANCH   11   10
ENDBRANCH   12   11
ENDBRANCH   14   12
ENDBRANCH   15   14
ENDBRANCH   16   15
ENDBRANCH   17   16
ENDBRANCH   18   17
ENDBRANCH   19   18
ENDBRANCH   20   19
ENDBRANCH   21   20
ENDBRANCH   22   21
ENDBRANCH   24   22
ENDBRANCH   28   27
BRANCH   32   33
ATOM     33  C25 UNL A   1      18.291  55.438   0.300  1.00  0.00    +0.000 C 
ATOM     34  C26 UNL A   1      17.887  56.134  -0.848  1.00  0.00    +0.000 C 
ATOM     35  F1  UNL A   1      16.787  55.756  -1.516  1.00  0.00    +0.000 F 
ATOM     36  C27 UNL A   1      18.637  57.200  -1.340  1.00  0.00    +0.000 C 
ATOM     37  F2  UNL A   1      18.260  57.818  -2.468  1.00  0.00    +0.000 F 
ATOM     38  C28 UNL A   1      19.783  57.610  -0.676  1.00  0.00    +0.000 C 
ATOM     39  F3  UNL A   1      20.502  58.637  -1.149  1.00  0.00    +0.000 F 
ATOM     40  C29 UNL A   1      20.188  56.952   0.475  1.00  0.00    +0.000 C 
ATOM     41  F4  UNL A   1      21.289  57.354   1.125  1.00  0.00    +0.000 F 
ATOM     42  C30 UNL A   1      19.455  55.869   0.954  1.00  0.00    +0.000 C 
ATOM     43  F5  UNL A   1      19.883  55.239   2.059  1.00  0.00    +0.000 F 
ENDBRANCH   32   33
BRANCH   49   50
ATOM     50  C36 UNL A   1      16.985  48.546  -1.365  1.00  0.00    +0.000 C 
ATOM     51  C37 UNL A   1      18.083  47.701  -1.146  1.00  0.00    +0.000 C 
ATOM     52  F6  UNL A   1      18.805  47.811  -0.019  1.00  0.00    +0.000 F 
ATOM     53  C38 UNL A   1      18.465  46.762  -2.100  1.00  0.00    +0.000 C 
ATOM     54  F7  UNL A   1      19.541  45.993  -1.886  1.00  0.00    +0.000 F 
ATOM     55  C39 UNL A   1      17.741  46.630  -3.275  1.00  0.00    +0.000 C 
ATOM     56  F8  UNL A   1      18.106  45.721  -4.190  1.00  0.00    +0.000 F 
ATOM     57  C40 UNL A   1      16.644  47.446  -3.507  1.00  0.00    +0.000 C 
ATOM     58  F9  UNL A   1      15.938  47.312  -4.638  1.00  0.00    +0.000 F 
ATOM     59  C41 UNL A   1      16.275  48.403  -2.566  1.00  0.00    +0.000 C 
ATOM     60  F10 UNL A   1      15.215  49.185  -2.821  1.00  0.00    +0.000 F 
ENDBRANCH   49   50
BRANCH   64   65
ATOM     65  C45 UNL A   1      12.403  48.235   3.877  1.00  0.00    +0.000 C 
ATOM     66  C46 UNL A   1      12.845  47.216   4.731  1.00  0.00    +0.000 C 
ATOM     67  F11 UNL A   1      14.139  47.149   5.078  1.00  0.00    +0.000 F 
ATOM     68  C47 UNL A   1      11.965  46.247   5.209  1.00  0.00    +0.000 C 
ATOM     69  F12 UNL A   1      12.419  45.266   6.000  1.00  0.00    +0.000 F 
ATOM     70  C48 UNL A   1      10.624  46.293   4.861  1.00  0.00    +0.000 C 
ATOM     71  F13 UNL A   1       9.776  45.368   5.330  1.00  0.00    +0.000 F 
ATOM     72  C49 UNL A   1      10.163  47.298   4.022  1.00  0.00    +0.000 C 
ATOM     73  F14 UNL A   1       8.865  47.354   3.693  1.00  0.00    +0.000 F 
ATOM     74  C50 UNL A   1      11.046  48.253   3.525  1.00  0.00    +0.000 C 
ATOM     75  F15 UNL A   1      10.574  49.212   2.713  1.00  0.00    +0.000 F 
ENDBRANCH   64   65
TORSDOF 23
ENDMDL
MODEL 2
REMARK VINA RESULT:      -8.8     40.558     45.674
ROOT
ATOM    129  H31 UNL A   1      33.195  37.576  43.675  1.00  0.00    +0.000 H 
ATOM    130  H32 UNL A   1      33.731  39.545  45.222  1.00  0.00    +0.000 H 
ATOM    131  H33 UNL A   1      24.235  39.643  48.511  1.00  0.00    +0.000 H 
ATOM    132  H34 UNL A   1      23.803  37.412  47.328  1.00  0.00    +0.000 H 
ATOM     28  C21 UNL A   1      25.998  36.512  45.751  1.00  0.00    +0.000 C 
ATOM     29  C22 UNL A   1      25.953  37.700  46.669  1.00  0.00    +0.000 C 
ATOM     30  N5  UNL A   1      26.894  38.568  46.944  1.00  0.00    +0.000 N 
ATOM     31  C23 UNL A   1      26.316  39.493  47.803  1.00  0.00    +0.000 C 
ATOM     32  C24 UNL A   1      26.893  40.558  48.410  1.00  0.00    +0.000 C 
ATOM     44  C31 UNL A   1      28.280  40.918  48.270  1.00  0.00    +0.000 C 
ATOM     45  C32 UNL A   1      28.982  41.917  48.922  1.00  0.00    +0.000 C 
ATOM     46  C33 UNL A   1      30.290  41.927  48.426  1.00  0.00    +0.000 C 
ATOM     47  C34 UNL A   1      30.416  40.906  47.498  1.00  0.00    +0.000 C 
ATOM     48  N6  UNL A   1      29.176  40.293  47.415  1.00  0.00    +0.000 N 
ATOM     49  C35 UNL A   1      31.579  40.517  46.742  1.00  0.00    +0.000 C 
ATOM     61  C42 UNL A   1      31.630  39.472  45.879  1.00  0.00    +0.000 C 
ATOM     62  N7  UNL A   1      30.625  38.585  45.523  1.00  0.00    +0.000 N 
ATOM     63  C43 UNL A   1      31.157  37.768  44.648  1.00  0.00    +0.000 C 
ATOM     64  C44 UNL A   1      30.528  36.604  43.937  1.00  0.00    +0.000 C 
ATOM     76  C51 UNL A   1      29.261  36.257  44.229  1.00  0.00    +0.000 C 
ATOM     77  C52 UNL A   1      28.530  35.144  43.630  1.00  0.00    +0.000 C 
ATOM     78  C53 UNL A   1      27.279  35.130  44.116  1.00  0.00    +0.000 C 
ATOM     79  C54 UNL A   1      27.129  36.218  45.084  1.00  0.00    +0.000 C 
ATOM     80  N8  UNL A   1      28.362  36.821  45.101  1.00  0.00    +0.000 N 
ATOM     81  C55 UNL A   1      32.565  38.053  44.339  1.00  0.00    +0.000 C 
ATOM     82  C56 UNL A   1      32.812  39.082  45.139  1.00  0.00    +0.000 C 
ATOM     83  C57 UNL A   1      24.931  39.103  47.971  1.00  0.00    +0.000 C 
ATOM     84  C58 UNL A   1      24.673  37.966  47.342  1.00  0.00    +0.000 C 
ATOM    123  H25 UNL A   1      28.604  42.547  49.647  1.00  0.00    +0.000 H 
ATOM    124  H26 UNL A   1      31.035  42.584  48.705  1.00  0.00    +0.000 H 
ATOM    125  H27 UNL A   1      28.962  39.526  46.835  1.00  0.00    +0.000 H 
ATOM    126  H28 UNL A   1      28.913  34.476  42.943  1.00  0.00    +0.000 H 
ATOM    127  H29 UNL A   1      26.540  34.460  43.849  1.00  0.00    +0.000 H 
ATOM    128  H30 UNL A   1      28.581  37.585  45.683  1.00  0.00    +0.000 H 
ENDROOT
BRANCH   28   27
ATOM    122  H24 UNL A   1      25.097  34.312  47.056  1.00  0.00    +0.000 H 
ATOM    133  H35 UNL A   1      24.101  36.924  43.905  1.00  0.00    +0.000 H 
ATOM    134  H36 UNL A   1      22.092  35.636  43.479  1.00  0.00    +0.000 H 
ATOM     85  C59 UNL A   1      23.901  36.082  44.466  1.00  0.00    +0.000 C 
ATOM     86  C60 UNL A   1      22.766  35.322  44.196  1.00  0.00    +0.000 C 
ATOM     24  C17 UNL A   1      22.541  34.132  44.896  1.00  0.00    +0.000 C 
ATOM     25  C18 UNL A   1      23.383  33.771  45.951  1.00  0.00    +0.000 C 
ATOM     26  C19 UNL A   1      24.488  34.566  46.263  1.00  0.00    +0.000 C 
ATOM     27  C20 UNL A   1      24.775  35.709  45.499  1.00  0.00    +0.000 C 
ATOM    121  H23 UNL A   1      23.190  32.918  46.499  1.00  0.00    +0.000 H 
BRANCH   24   22
ATOM     22  C16 UNL A   1      21.405  33.250  44.557  1.00  0.00    +0.000 C 
ATOM     23  O3  UNL A   1      21.592  32.261  43.853  1.00  0.00    +0.000 O 
BRANCH   22   21
ATOM     21  N4  UNL A   1      20.144  33.540  45.014  1.00  0.00    +0.000 N 
ATOM    120  H22 UNL A   1      19.710  32.823  45.532  1.00  0.00    +0.000 H 
BRANCH   21   20
ATOM     20  C15 UNL A   1      19.352  34.749  44.844  1.00  0.00    +0.000 C 
ATOM    118  H20 UNL A   1      19.451  35.350  45.723  1.00  0.00    +0.000 H 
ATOM    119  H21 UNL A   1      19.718  35.261  43.979  1.00  0.00    +0.000 H 
BRANCH   20   19
ATOM     19  C14 UNL A   1      17.874  34.443  44.619  1.00  0.00    +0.000 C 
ATOM    116  H18 UNL A   1      17.313  34.935  45.386  1.00  0.00    +0.000 H 
ATOM    117  H19 UNL A   1      17.640  34.792  43.636  1.00  0.00    +0.000 H 
BRANCH   19   18
ATOM     18  C13 UNL A   1      17.516  32.955  44.647  1.00  0.00    +0.000 C 
ATOM    115  H17 UNL A   1      16.686  32.863  45.317  1.00  0.00    +0.000 H 
ATOM    114  H16 UNL A   1      18.382  32.412  44.961  1.00  0.00    +0.000 H 
BRANCH   18   17
ATOM     17  C12 UNL A   1      17.048  32.367  43.309  1.00  0.00    +0.000 C 
ATOM    113  H15 UNL A   1      17.926  31.989  42.827  1.00  0.00    +0.000 H 
ATOM    112  H14 UNL A   1      16.560  33.144  42.758  1.00  0.00    +0.000 H 
BRANCH   17   16
ATOM    110  H12 UNL A   1      15.079  31.565  43.458  1.00  0.00    +0.000 H 
ATOM    111  H13 UNL A   1      16.244  30.560  42.567  1.00  0.00    +0.000 H 
ATOM     16  C11 UNL A   1      16.079  31.183  43.421  1.00  0.00    +0.000 C 
BRANCH   16   15
ATOM    108  H10 UNL A   1      17.331  29.990  44.668  1.00  0.00    +0.000 H 
ATOM    109  H11 UNL A   1      16.097  30.908  45.527  1.00  0.00    +0.000 H 
ATOM     15  C10 UNL A   1      16.312  30.318  44.660  1.00  0.00    +0.000 C 
BRANCH   15   14
ATOM    107  H9  UNL A   1      14.512  29.322  44.944  1.00  0.00    +0.000 H 
ATOM     14  N3  UNL A   1      15.442  29.159  44.668  1.00  0.00    +0.000 N 
BRANCH   14   12
ATOM     12  C9  UNL A   1      15.749  27.866  44.339  1.00  0.00    +0.000 C 
ATOM     13  O2  UNL A   1      15.687  27.008  45.221  1.00  0.00    +0.000 O 
BRANCH   12   11
ATOM    105  H7  UNL A   1      16.867  28.298  42.571  1.00  0.00    +0.000 H 
ATOM    106  H8  UNL A   1      16.711  26.581  42.946  1.00  0.00    +0.000 H 
ATOM     11  C8  UNL A   1      16.211  27.526  42.917  1.00  0.00    +0.000 C 
BRANCH   11   10
ATOM     10  N2  UNL A   1      15.090  27.417  41.999  1.00  0.00    +0.000 N 
ATOM    104  H6  UNL A   1      14.528  28.217  41.879  1.00  0.00    +0.000 H 
BRANCH   10    9
ATOM      7  C6  UNL A   1      14.795  24.892  39.597  1.00  0.00    +0.000 C 
ATOM      8  N1  UNL A   1      15.207  26.122  40.080  1.00  0.00    +0.000 N 
ATOM      9  C7  UNL A   1      14.751  26.316  41.296  1.00  0.00    +0.000 C 
ATOM     87  S1  UNL A   1      13.755  25.037  41.891  1.00  0.00    +0.000 S 
ATOM     88  C61 UNL A   1      14.091  24.104  40.496  1.00  0.00    +0.000 C 
BRANCH    7    6
ATOM     97  C69 UNL A   1      16.037  23.400  38.058  1.00  0.00    +0.000 C 
ATOM     98  C70 UNL A   1      16.287  22.917  36.768  1.00  0.00    +0.000 C 
ATOM      3  C2  UNL A   1      15.645  23.494  35.669  1.00  0.00    +0.000 C 
ATOM      4  C3  UNL A   1      14.796  24.583  35.856  1.00  0.00    +0.000 C 
ATOM      5  C4  UNL A   1      14.536  25.058  37.141  1.00  0.00    +0.000 C 
ATOM    102  H4  UNL A   1      14.357  25.040  35.040  1.00  0.00    +0.000 H 
ATOM      6  C5  UNL A   1      15.138  24.454  38.253  1.00  0.00    +0.000 C 
ATOM    103  H5  UNL A   1      13.898  25.858  37.274  1.00  0.00    +0.000 H 
ATOM    142  H44 UNL A   1      16.518  22.978  38.867  1.00  0.00    +0.000 H 
ATOM    143  H45 UNL A   1      16.945  22.134  36.627  1.00  0.00    +0.000 H 
BRANCH    3    2
ATOM      2  O1  UNL A   1      15.823  23.102  34.371  1.00  0.00    +0.000 O 
BRANCH    2    1
ATOM      1  C1  UNL A   1      15.402  24.056  33.401  1.00  0.00    +0.000 C 
ATOM     99  H1  UNL A   1      14.618  23.637  32.806  1.00  0.00    +0.000 H 
ATOM    100  H2  UNL A   1      16.228  24.314  32.771  1.00  0.00    +0.000 H 
ATOM    101  H3  UNL A   1      15.044  24.934  33.896  1.00  0.00    +0.000 H 
ENDBRANCH    2    1
ENDBRANCH    3    2
ENDBRANCH    7    6
BRANCH   88   89
ATOM    135  H37 UNL A   1      12.986  22.746  38.427  1.00  0.00    +0.000 H 
ATOM    136  H38 UNL A   1      12.395  20.398  38.345  1.00  0.00    +0.000 H 
ATOM    140  H42 UNL A   1      13.658  19.914  42.318  1.00  0.00    +0.000 H 
ATOM    141  H43 UNL A   1      14.232  22.266  42.412  1.00  0.00    +0.000 H 
ATOM     89  C62 UNL A   1      13.680  22.700  40.421  1.00  0.00    +0.000 C 
ATOM     90  C63 UNL A   1      13.137  22.149  39.255  1.00  0.00    +0.000 C 
ATOM     91  C64 UNL A   1      12.799  20.792  39.209  1.00  0.00    +0.000 C 
ATOM     92  C65 UNL A   1      13.002  19.965  40.315  1.00  0.00    +0.000 C 
ATOM     95  C67 UNL A   1      13.520  20.511  41.487  1.00  0.00    +0.000 C 
ATOM     96  C68 UNL A   1      13.853  21.868  41.538  1.00  0.00    +0.000 C 
BRANCH   92   93
ATOM     93  O4  UNL A   1      12.655  18.655  40.131  1.00  0.00    +0.000 O 
BRANCH   93   94
ATOM    137  H39 UNL A   1      10.676  18.133  40.166  1.00  0.00    +0.000 H 
ATOM    138  H40 UNL A   1      11.558  17.621  38.748  1.00  0.00    +0.000 H 
ATOM    139  H41 UNL A   1      11.119  19.300  38.943  1.00  0.00    +0.000 H 
ATOM     94  C66 UNL A   1      11.426  18.412  39.455  1.00  0.00    +0.000 C 
ENDBRANCH   93   94
ENDBRANCH   92   93
ENDBRANCH   88   89
ENDBRANCH   10    9
ENDBRANCH   11   10
ENDBRANCH   12   11
ENDBRANCH   14   12
ENDBRANCH   15   14
ENDBRANCH   16   15
ENDBRANCH   17   16
ENDBRANCH   18   17
ENDBRANCH   19   18
ENDBRANCH   20   19
ENDBRANCH   21   20
ENDBRANCH   22   21
ENDBRANCH   24   22
ENDBRANCH   28   27
BRANCH   32   33
ATOM     33  C25 UNL A   1      26.021  41.415  49.281  1.00  0.00    +0.000 C 
ATOM     34  C26 UNL A   1      25.305  42.505  48.763  1.00  0.00    +0.000 C 
ATOM     35  F1  UNL A   1      25.416  42.831  47.467  1.00  0.00    +0.000 F 
ATOM     36  C27 UNL A   1      24.504  43.291  49.587  1.00  0.00    +0.000 C 
ATOM     37  F2  UNL A   1      23.869  44.358  49.082  1.00  0.00    +0.000 F 
ATOM     38  C28 UNL A   1      24.376  42.983  50.933  1.00  0.00    +0.000 C 
ATOM     39  F3  UNL A   1      23.602  43.739  51.725  1.00  0.00    +0.000 F 
ATOM     40  C29 UNL A   1      25.055  41.896  51.461  1.00  0.00    +0.000 C 
ATOM     41  F4  UNL A   1      24.924  41.590  52.759  1.00  0.00    +0.000 F 
ATOM     42  C30 UNL A   1      25.879  41.124  50.645  1.00  0.00    +0.000 C 
ATOM     43  F5  UNL A   1      26.538  40.090  51.189  1.00  0.00    +0.000 F 
ENDBRANCH   32   33
BRANCH   49   50
ATOM     50  C36 UNL A   1      32.836  41.311  46.932  1.00  0.00    +0.000 C 
ATOM     51  C37 UNL A   1      33.896  40.827  47.713  1.00  0.00    +0.000 C 
ATOM     52  F6  UNL A   1      33.780  39.653  48.354  1.00  0.00    +0.000 F 
ATOM     53  C38 UNL A   1      35.067  41.564  47.865  1.00  0.00    +0.000 C 
ATOM     54  F7  UNL A   1      36.050  41.100  48.648  1.00  0.00    +0.000 F 
ATOM     55  C39 UNL A   1      35.213  42.782  47.219  1.00  0.00    +0.000 C 
ATOM     56  F8  UNL A   1      36.343  43.488  47.362  1.00  0.00    +0.000 F 
ATOM     57  C40 UNL A   1      34.182  43.274  46.431  1.00  0.00    +0.000 C 
ATOM     58  F9  UNL A   1      34.325  44.446  45.798  1.00  0.00    +0.000 F 
ATOM     59  C41 UNL A   1      33.000  42.551  46.296  1.00  0.00    +0.000 C 
ATOM     60  F10 UNL A   1      32.017  43.056  45.536  1.00  0.00    +0.000 F 
ENDBRANCH   49   50
BRANCH   64   65
ATOM     65  C45 UNL A   1      31.286  35.817  42.934  1.00  0.00    +0.000 C 
ATOM     66  C46 UNL A   1      31.915  34.615  43.288  1.00  0.00    +0.000 C 
ATOM     67  F11 UNL A   1      31.876  34.190  44.559  1.00  0.00    +0.000 F 
ATOM     68  C47 UNL A   1      32.609  33.862  42.343  1.00  0.00    +0.000 C 
ATOM     69  F12 UNL A   1      33.226  32.732  42.713  1.00  0.00    +0.000 F 
ATOM     70  C48 UNL A   1      32.666  34.283  41.023  1.00  0.00    +0.000 C 
ATOM     71  F13 UNL A   1      33.323  33.553  40.113  1.00  0.00    +0.000 F 
ATOM     72  C49 UNL A   1      32.044  35.466  40.649  1.00  0.00    +0.000 C 
ATOM     73  F14 UNL A   1      32.087  35.871  39.372  1.00  0.00    +0.000 F 
ATOM     74  C50 UNL A   1      31.371  36.233  41.597  1.00  0.00    +0.000 C 
ATOM     75  F15 UNL A   1      30.781  37.373  41.209  1.00  0.00    +0.000 F 
ENDBRANCH   64   65
TORSDOF 23
ENDMDL
MODEL 3
REMARK VINA RESULT:      -8.7     37.116     43.033
ROOT
ATOM    129  H31 UNL A   1      36.729  34.839  33.842  1.00  0.00    +0.000 H 
ATOM    130  H32 UNL A   1      38.182  35.220  35.915  1.00  0.00    +0.000 H 
ATOM    131  H33 UNL A   1      43.536  26.990  33.770  1.00  0.00    +0.000 H 
ATOM    132  H34 UNL A   1      42.405  26.853  31.476  1.00  0.00    +0.000 H 
ATOM     28  C21 UNL A   1      40.342  28.781  31.103  1.00  0.00    +0.000 C 
ATOM     29  C22 UNL A   1      41.287  28.661  32.264  1.00  0.00    +0.000 C 
ATOM     30  N5  UNL A   1      41.371  29.401  33.341  1.00  0.00    +0.000 N 
ATOM     31  C23 UNL A   1      42.371  28.827  34.115  1.00  0.00    +0.000 C 
ATOM     32  C24 UNL A   1      42.868  29.252  35.302  1.00  0.00    +0.000 C 
ATOM     44  C31 UNL A   1      42.430  30.441  35.986  1.00  0.00    +0.000 C 
ATOM     45  C32 UNL A   1      42.940  31.010  37.141  1.00  0.00    +0.000 C 
ATOM     46  C33 UNL A   1      42.162  32.129  37.458  1.00  0.00    +0.000 C 
ATOM     47  C34 UNL A   1      41.195  32.282  36.478  1.00  0.00    +0.000 C 
ATOM     48  N6  UNL A   1      41.373  31.243  35.579  1.00  0.00    +0.000 N 
ATOM     49  C35 UNL A   1      40.183  33.302  36.367  1.00  0.00    +0.000 C 
ATOM     61  C42 UNL A   1      39.294  33.406  35.348  1.00  0.00    +0.000 C 
ATOM     62  N7  UNL A   1      39.144  32.591  34.235  1.00  0.00    +0.000 N 
ATOM     63  C43 UNL A   1      38.144  33.092  33.553  1.00  0.00    +0.000 C 
ATOM     64  C44 UNL A   1      37.554  32.618  32.255  1.00  0.00    +0.000 C 
ATOM     76  C51 UNL A   1      38.113  31.574  31.616  1.00  0.00    +0.000 C 
ATOM     77  C52 UNL A   1      37.657  31.017  30.347  1.00  0.00    +0.000 C 
ATOM     78  C53 UNL A   1      38.412  29.952  30.039  1.00  0.00    +0.000 C 
ATOM     79  C54 UNL A   1      39.426  29.768  31.078  1.00  0.00    +0.000 C 
ATOM     80  N8  UNL A   1      39.185  30.789  31.964  1.00  0.00    +0.000 N 
ATOM     81  C55 UNL A   1      37.535  34.280  34.166  1.00  0.00    +0.000 C 
ATOM     82  C56 UNL A   1      38.293  34.447  35.241  1.00  0.00    +0.000 C 
ATOM     83  C57 UNL A   1      42.834  27.654  33.404  1.00  0.00    +0.000 C 
ATOM     84  C58 UNL A   1      42.241  27.543  32.225  1.00  0.00    +0.000 C 
ATOM    123  H25 UNL A   1      43.754  30.667  37.675  1.00  0.00    +0.000 H 
ATOM    124  H26 UNL A   1      42.288  32.736  38.282  1.00  0.00    +0.000 H 
ATOM    125  H27 UNL A   1      40.831  31.094  34.772  1.00  0.00    +0.000 H 
ATOM    126  H28 UNL A   1      36.878  31.384  29.777  1.00  0.00    +0.000 H 
ATOM    127  H29 UNL A   1      38.296  29.356  29.203  1.00  0.00    +0.000 H 
ATOM    128  H30 UNL A   1      39.728  30.942  32.771  1.00  0.00    +0.000 H 
ENDROOT
BRANCH   28   27
ATOM    122  H24 UNL A   1      42.097  28.464  29.060  1.00  0.00    +0.000 H 
ATOM    133  H35 UNL A   1      38.620  26.764  30.724  1.00  0.00    +0.000 H 
ATOM    134  H36 UNL A   1      38.610  25.087  28.974  1.00  0.00    +0.000 H 
ATOM     85  C59 UNL A   1      39.341  26.786  29.986  1.00  0.00    +0.000 C 
ATOM     86  C60 UNL A   1      39.311  25.845  28.961  1.00  0.00    +0.000 C 
ATOM     24  C17 UNL A   1      40.232  25.928  27.911  1.00  0.00    +0.000 C 
ATOM     25  C18 UNL A   1      41.260  26.874  27.955  1.00  0.00    +0.000 C 
ATOM     26  C19 UNL A   1      41.326  27.780  29.015  1.00  0.00    +0.000 C 
ATOM     27  C20 UNL A   1      40.345  27.765  30.021  1.00  0.00    +0.000 C 
ATOM    121  H23 UNL A   1      41.968  26.904  27.205  1.00  0.00    +0.000 H 
BRANCH   24   22
ATOM     22  C16 UNL A   1      40.158  25.010  26.755  1.00  0.00    +0.000 C 
ATOM     23  O3  UNL A   1      39.097  24.878  26.151  1.00  0.00    +0.000 O 
BRANCH   22   21
ATOM     21  N4  UNL A   1      41.264  24.297  26.365  1.00  0.00    +0.000 N 
ATOM    120  H22 UNL A   1      41.972  24.825  25.929  1.00  0.00    +0.000 H 
BRANCH   21   20
ATOM     20  C15 UNL A   1      41.545  22.876  26.501  1.00  0.00    +0.000 C 
ATOM    118  H20 UNL A   1      41.793  22.481  25.538  1.00  0.00    +0.000 H 
ATOM    119  H21 UNL A   1      42.358  22.767  27.187  1.00  0.00    +0.000 H 
BRANCH   20   19
ATOM     19  C14 UNL A   1      40.353  22.103  27.059  1.00  0.00    +0.000 C 
ATOM    116  H18 UNL A   1      40.691  21.533  27.898  1.00  0.00    +0.000 H 
ATOM    117  H19 UNL A   1      39.614  22.832  27.315  1.00  0.00    +0.000 H 
BRANCH   19   18
ATOM     18  C13 UNL A   1      39.690  21.144  26.067  1.00  0.00    +0.000 C 
ATOM    115  H17 UNL A   1      39.536  20.228  26.599  1.00  0.00    +0.000 H 
ATOM    114  H16 UNL A   1      40.336  21.044  25.220  1.00  0.00    +0.000 H 
BRANCH   18   17
ATOM     17  C12 UNL A   1      38.308  21.577  25.559  1.00  0.00    +0.000 C 
ATOM    113  H15 UNL A   1      38.484  22.148  24.671  1.00  0.00    +0.000 H 
ATOM    112  H14 UNL A   1      37.828  22.134  26.336  1.00  0.00    +0.000 H 
BRANCH   17   16
ATOM    110  H12 UNL A   1      37.819  19.908  24.327  1.00  0.00    +0.000 H 
ATOM    111  H13 UNL A   1      37.252  19.803  26.009  1.00  0.00    +0.000 H 
ATOM     16  C11 UNL A   1      37.375  20.429  25.151  1.00  0.00    +0.000 C 
BRANCH   16   15
ATOM    108  H10 UNL A   1      36.064  21.471  23.831  1.00  0.00    +0.000 H 
ATOM    109  H11 UNL A   1      35.369  20.034  24.574  1.00  0.00    +0.000 H 
ATOM     15  C10 UNL A   1      35.981  20.898  24.730  1.00  0.00    +0.000 C 
BRANCH   15   14
ATOM    107  H9  UNL A   1      35.872  22.514  26.030  1.00  0.00    +0.000 H 
ATOM     14  N3  UNL A   1      35.366  21.715  25.758  1.00  0.00    +0.000 N 
BRANCH   14   12
ATOM     12  C9  UNL A   1      34.173  21.517  26.398  1.00  0.00    +0.000 C 
ATOM     13  O2  UNL A   1      34.178  21.414  27.626  1.00  0.00    +0.000 O 
BRANCH   12   11
ATOM    105  H7  UNL A   1      32.838  20.386  25.173  1.00  0.00    +0.000 H 
ATOM    106  H8  UNL A   1      32.054  21.554  26.237  1.00  0.00    +0.000 H 
ATOM     11  C8  UNL A   1      32.881  21.373  25.584  1.00  0.00    +0.000 C 
BRANCH   11   10
ATOM     10  N2  UNL A   1      32.820  22.337  24.499  1.00  0.00    +0.000 N 
ATOM    104  H6  UNL A   1      33.229  22.075  23.642  1.00  0.00    +0.000 H 
BRANCH   10    9
ATOM      7  C6  UNL A   1      32.089  25.704  25.097  1.00  0.00    +0.000 C 
ATOM      8  N1  UNL A   1      32.805  24.530  25.249  1.00  0.00    +0.000 N 
ATOM      9  C7  UNL A   1      32.250  23.559  24.561  1.00  0.00    +0.000 C 
ATOM     87  S1  UNL A   1      30.801  24.012  23.739  1.00  0.00    +0.000 S 
ATOM     88  C61 UNL A   1      31.027  25.644  24.206  1.00  0.00    +0.000 C 
BRANCH    7    6
ATOM     97  C69 UNL A   1      31.607  27.532  26.698  1.00  0.00    +0.000 C 
ATOM     98  C70 UNL A   1      32.023  28.648  27.435  1.00  0.00    +0.000 C 
ATOM      3  C2  UNL A   1      33.310  29.163  27.256  1.00  0.00    +0.000 C 
ATOM      4  C3  UNL A   1      34.158  28.594  26.308  1.00  0.00    +0.000 C 
ATOM      5  C4  UNL A   1      33.749  27.475  25.581  1.00  0.00    +0.000 C 
ATOM    102  H4  UNL A   1      35.092  29.001  26.141  1.00  0.00    +0.000 H 
ATOM      6  C5  UNL A   1      32.478  26.923  25.789  1.00  0.00    +0.000 C 
ATOM    103  H5  UNL A   1      34.386  27.052  24.888  1.00  0.00    +0.000 H 
ATOM    142  H44 UNL A   1      30.653  27.159  26.825  1.00  0.00    +0.000 H 
ATOM    143  H45 UNL A   1      31.381  29.091  28.110  1.00  0.00    +0.000 H 
BRANCH    3    2
ATOM      2  O1  UNL A   1      33.812  30.247  27.919  1.00  0.00    +0.000 O 
BRANCH    2    1
ATOM      1  C1  UNL A   1      33.354  31.505  27.430  1.00  0.00    +0.000 C 
ATOM     99  H1  UNL A   1      33.122  32.145  28.256  1.00  0.00    +0.000 H 
ATOM    100  H2  UNL A   1      32.474  31.358  26.837  1.00  0.00    +0.000 H 
ATOM    101  H3  UNL A   1      34.117  31.954  26.831  1.00  0.00    +0.000 H 
ENDBRANCH    2    1
ENDBRANCH    3    2
ENDBRANCH    7    6
BRANCH   88   89
ATOM    135  H37 UNL A   1      28.349  26.010  24.417  1.00  0.00    +0.000 H 
ATOM    136  H38 UNL A   1      27.030  27.833  23.518  1.00  0.00    +0.000 H 
ATOM    140  H42 UNL A   1      30.471  29.513  21.802  1.00  0.00    +0.000 H 
ATOM    141  H43 UNL A   1      31.792  27.682  22.681  1.00  0.00    +0.000 H 
ATOM     89  C62 UNL A   1      30.187  26.704  23.644  1.00  0.00    +0.000 C 
ATOM     90  C63 UNL A   1      28.808  26.754  23.868  1.00  0.00    +0.000 C 
ATOM     91  C64 UNL A   1      28.047  27.809  23.351  1.00  0.00    +0.000 C 
ATOM     92  C65 UNL A   1      28.649  28.829  22.611  1.00  0.00    +0.000 C 
ATOM     95  C67 UNL A   1      30.018  28.774  22.363  1.00  0.00    +0.000 C 
ATOM     96  C68 UNL A   1      30.778  27.718  22.873  1.00  0.00    +0.000 C 
BRANCH   92   93
ATOM     93  O4  UNL A   1      27.800  29.813  22.185  1.00  0.00    +0.000 O 
BRANCH   93   94
ATOM    137  H39 UNL A   1      28.616  31.685  22.050  1.00  0.00    +0.000 H 
ATOM    138  H40 UNL A   1      27.679  31.178  20.665  1.00  0.00    +0.000 H 
ATOM    139  H41 UNL A   1      29.268  30.505  20.939  1.00  0.00    +0.000 H 
ATOM     94  C66 UNL A   1      28.376  30.860  21.412  1.00  0.00    +0.000 C 
ENDBRANCH   93   94
ENDBRANCH   92   93
ENDBRANCH   88   89
ENDBRANCH   10    9
ENDBRANCH   11   10
ENDBRANCH   12   11
ENDBRANCH   14   12
ENDBRANCH   15   14
ENDBRANCH   16   15
ENDBRANCH   17   16
ENDBRANCH   18   17
ENDBRANCH   19   18
ENDBRANCH   20   19
ENDBRANCH   21   20
ENDBRANCH   22   21
ENDBRANCH   24   22
ENDBRANCH   28   27
BRANCH   32   33
ATOM     33  C25 UNL A   1      43.942  28.421  35.941  1.00  0.00    +0.000 C 
ATOM     34  C26 UNL A   1      43.639  27.360  36.806  1.00  0.00    +0.000 C 
ATOM     35  F1  UNL A   1      42.363  27.085  37.115  1.00  0.00    +0.000 F 
ATOM     36  C27 UNL A   1      44.649  26.601  37.391  1.00  0.00    +0.000 C 
ATOM     37  F2  UNL A   1      44.337  25.625  38.256  1.00  0.00    +0.000 F 
ATOM     38  C28 UNL A   1      45.978  26.866  37.097  1.00  0.00    +0.000 C 
ATOM     39  F3  UNL A   1      46.950  26.134  37.659  1.00  0.00    +0.000 F 
ATOM     40  C29 UNL A   1      46.301  27.895  36.225  1.00  0.00    +0.000 C 
ATOM     41  F4  UNL A   1      47.584  28.146  35.930  1.00  0.00    +0.000 F 
ATOM     42  C30 UNL A   1      45.293  28.673  35.660  1.00  0.00    +0.000 C 
ATOM     43  F5  UNL A   1      45.638  29.673  34.835  1.00  0.00    +0.000 F 
ENDBRANCH   32   33
BRANCH   49   50
ATOM     50  C36 UNL A   1      40.110  34.338  37.448  1.00  0.00    +0.000 C 
ATOM     51  C37 UNL A   1      40.898  35.498  37.402  1.00  0.00    +0.000 C 
ATOM     52  F6  UNL A   1      41.779  35.676  36.405  1.00  0.00    +0.000 F 
ATOM     53  C38 UNL A   1      40.808  36.463  38.401  1.00  0.00    +0.000 C 
ATOM     54  F7  UNL A   1      41.599  37.544  38.357  1.00  0.00    +0.000 F 
ATOM     55  C39 UNL A   1      39.910  36.303  39.446  1.00  0.00    +0.000 C 
ATOM     56  F8  UNL A   1      39.820  37.236  40.403  1.00  0.00    +0.000 F 
ATOM     57  C40 UNL A   1      39.112  35.170  39.503  1.00  0.00    +0.000 C 
ATOM     58  F9  UNL A   1      38.237  35.019  40.507  1.00  0.00    +0.000 F 
ATOM     59  C41 UNL A   1      39.217  34.191  38.520  1.00  0.00    +0.000 C 
ATOM     60  F10 UNL A   1      38.439  33.102  38.607  1.00  0.00    +0.000 F 
ENDBRANCH   49   50
BRANCH   64   65
ATOM     65  C45 UNL A   1      36.379  33.296  31.654  1.00  0.00    +0.000 C 
ATOM     66  C46 UNL A   1      36.456  33.877  30.382  1.00  0.00    +0.000 C 
ATOM     67  F11 UNL A   1      37.618  33.868  29.713  1.00  0.00    +0.000 F 
ATOM     68  C47 UNL A   1      35.348  34.494  29.805  1.00  0.00    +0.000 C 
ATOM     69  F12 UNL A   1      35.456  35.069  28.600  1.00  0.00    +0.000 F 
ATOM     70  C48 UNL A   1      34.136  34.519  30.480  1.00  0.00    +0.000 C 
ATOM     71  F13 UNL A   1      33.068  35.102  29.920  1.00  0.00    +0.000 F 
ATOM     72  C49 UNL A   1      34.035  33.943  31.738  1.00  0.00    +0.000 C 
ATOM     73  F14 UNL A   1      32.863  33.954  32.388  1.00  0.00    +0.000 F 
ATOM     74  C50 UNL A   1      35.148  33.347  32.326  1.00  0.00    +0.000 C 
ATOM     75  F15 UNL A   1      35.024  32.800  33.544  1.00  0.00    +0.000 F 
ENDBRANCH   64   65
TORSDOF 23
ENDMDL
MODEL 4
REMARK VINA RESULT:      -8.7      1.827      3.880
ROOT
ATOM    129  H31 UNL A   1      13.572  46.653   2.487  1.00  0.00    +0.000 H 
ATOM    130  H32 UNL A   1      15.284  46.893   0.598  1.00  0.00    +0.000 H 
ATOM    131  H33 UNL A   1      16.433  56.637   2.770  1.00  0.00    +0.000 H 
ATOM    132  H34 UNL A   1      15.087  56.315   4.926  1.00  0.00    +0.000 H 
ATOM     28  C21 UNL A   1      13.986  53.703   5.205  1.00  0.00    +0.000 C 
ATOM     29  C22 UNL A   1      14.924  54.194   4.139  1.00  0.00    +0.000 C 
ATOM     30  N5  UNL A   1      15.435  53.545   3.124  1.00  0.00    +0.000 N 
ATOM     31  C23 UNL A   1      16.188  54.476   2.421  1.00  0.00    +0.000 C 
ATOM     32  C24 UNL A   1      16.952  54.285   1.318  1.00  0.00    +0.000 C 
ATOM     44  C31 UNL A   1      17.132  53.014   0.668  1.00  0.00    +0.000 C 
ATOM     45  C32 UNL A   1      17.965  52.697  -0.393  1.00  0.00    +0.000 C 
ATOM     46  C33 UNL A   1      17.767  51.352  -0.719  1.00  0.00    +0.000 C 
ATOM     47  C34 UNL A   1      16.843  50.817   0.166  1.00  0.00    +0.000 C 
ATOM     48  N6  UNL A   1      16.466  51.847   1.013  1.00  0.00    +0.000 N 
ATOM     49  C35 UNL A   1      16.342  49.468   0.236  1.00  0.00    +0.000 C 
ATOM     61  C42 UNL A   1      15.465  49.013   1.164  1.00  0.00    +0.000 C 
ATOM     62  N7  UNL A   1      14.860  49.703   2.204  1.00  0.00    +0.000 N 
ATOM     63  C43 UNL A   1      14.087  48.837   2.811  1.00  0.00    +0.000 C 
ATOM     64  C44 UNL A   1      13.205  49.035   4.011  1.00  0.00    +0.000 C 
ATOM     76  C51 UNL A   1      13.200  50.226   4.639  1.00  0.00    +0.000 C 
ATOM     77  C52 UNL A   1      12.408  50.554   5.820  1.00  0.00    +0.000 C 
ATOM     78  C53 UNL A   1      12.609  51.843   6.137  1.00  0.00    +0.000 C 
ATOM     79  C54 UNL A   1      13.568  52.423   5.196  1.00  0.00    +0.000 C 
ATOM     80  N8  UNL A   1      13.880  51.384   4.354  1.00  0.00    +0.000 N 
ATOM     81  C55 UNL A   1      14.104  47.495   2.213  1.00  0.00    +0.000 C 
ATOM     82  C56 UNL A   1      14.983  47.649   1.232  1.00  0.00    +0.000 C 
ATOM     83  C57 UNL A   1      16.034  55.744   3.103  1.00  0.00    +0.000 C 
ATOM     84  C58 UNL A   1      15.314  55.611   4.207  1.00  0.00    +0.000 C 
ATOM    123  H25 UNL A   1      18.618  53.344  -0.862  1.00  0.00    +0.000 H 
ATOM    124  H26 UNL A   1      18.229  50.843  -1.488  1.00  0.00    +0.000 H 
ATOM    125  H27 UNL A   1      15.820  51.764   1.751  1.00  0.00    +0.000 H 
ATOM    126  H28 UNL A   1      11.791  49.902   6.329  1.00  0.00    +0.000 H 
ATOM    127  H29 UNL A   1      12.158  52.345   6.919  1.00  0.00    +0.000 H 
ATOM    128  H30 UNL A   1      14.528  51.463   3.617  1.00  0.00    +0.000 H 
ENDROOT
BRANCH   28   27
ATOM    122  H24 UNL A   1      11.766  55.253   5.076  1.00  0.00    +0.000 H 
ATOM    133  H35 UNL A   1      14.942  54.238   7.650  1.00  0.00    +0.000 H 
ATOM    134  H36 UNL A   1      14.062  55.754   9.324  1.00  0.00    +0.000 H 
ATOM     85  C59 UNL A   1      14.096  54.794   7.447  1.00  0.00    +0.000 C 
ATOM     86  C60 UNL A   1      13.614  55.691   8.396  1.00  0.00    +0.000 C 
ATOM     24  C17 UNL A   1      12.522  56.510   8.088  1.00  0.00    +0.000 C 
ATOM     25  C18 UNL A   1      11.837  56.340   6.883  1.00  0.00    +0.000 C 
ATOM     26  C19 UNL A   1      12.284  55.396   5.956  1.00  0.00    +0.000 C 
ATOM     27  C20 UNL A   1      13.439  54.640   6.217  1.00  0.00    +0.000 C 
ATOM    121  H23 UNL A   1      11.002  56.910   6.677  1.00  0.00    +0.000 H 
BRANCH   24   22
ATOM     22  C16 UNL A   1      12.056  57.548   9.033  1.00  0.00    +0.000 C 
ATOM     23  O3  UNL A   1      12.517  58.683   8.964  1.00  0.00    +0.000 O 
BRANCH   22   21
ATOM     21  N4  UNL A   1      11.122  57.241   9.991  1.00  0.00    +0.000 N 
ATOM    120  H22 UNL A   1      10.462  57.949  10.176  1.00  0.00    +0.000 H 
BRANCH   21   20
ATOM     20  C15 UNL A   1      10.965  56.026  10.775  1.00  0.00    +0.000 C 
ATOM    118  H20 UNL A   1      11.900  55.507  10.798  1.00  0.00    +0.000 H 
ATOM    119  H21 UNL A   1      10.652  56.309  11.759  1.00  0.00    +0.000 H 
BRANCH   20   19
ATOM     19  C14 UNL A   1       9.901  55.099  10.193  1.00  0.00    +0.000 C 
ATOM    116  H18 UNL A   1       9.267  54.777  10.993  1.00  0.00    +0.000 H 
ATOM    117  H19 UNL A   1       9.384  55.663   9.447  1.00  0.00    +0.000 H 
BRANCH   19   18
ATOM     18  C13 UNL A   1      10.450  53.854   9.491  1.00  0.00    +0.000 C 
ATOM    115  H17 UNL A   1      10.198  53.025  10.120  1.00  0.00    +0.000 H 
ATOM    114  H16 UNL A   1      11.503  53.986   9.359  1.00  0.00    +0.000 H 
BRANCH   18   17
ATOM     17  C12 UNL A   1       9.835  53.549   8.119  1.00  0.00    +0.000 C 
ATOM    113  H15 UNL A   1      10.608  53.729   7.401  1.00  0.00    +0.000 H 
ATOM    112  H14 UNL A   1       8.979  54.179   7.992  1.00  0.00    +0.000 H 
BRANCH   17   16
ATOM    110  H12 UNL A   1       9.306  51.913   6.861  1.00  0.00    +0.000 H 
ATOM    111  H13 UNL A   1      10.126  51.472   8.375  1.00  0.00    +0.000 H 
ATOM     16  C11 UNL A   1       9.390  52.095   7.913  1.00  0.00    +0.000 C 
BRANCH   16   15
ATOM    108  H10 UNL A   1       8.183  50.959   9.254  1.00  0.00    +0.000 H 
ATOM    109  H11 UNL A   1       7.701  52.643   9.078  1.00  0.00    +0.000 H 
ATOM     15  C10 UNL A   1       8.047  51.769   8.568  1.00  0.00    +0.000 C 
BRANCH   15   14
ATOM    107  H9  UNL A   1       6.256  51.963   7.535  1.00  0.00    +0.000 H 
ATOM     14  N3  UNL A   1       7.055  51.391   7.581  1.00  0.00    +0.000 N 
BRANCH   14   12
ATOM     12  C9  UNL A   1       7.088  50.340   6.706  1.00  0.00    +0.000 C 
ATOM     13  O2  UNL A   1       7.205  50.584   5.503  1.00  0.00    +0.000 O 
BRANCH   12   11
ATOM    105  H7  UNL A   1       6.733  48.936   8.276  1.00  0.00    +0.000 H 
ATOM    106  H8  UNL A   1       6.114  48.451   6.697  1.00  0.00    +0.000 H 
ATOM     11  C8  UNL A   1       6.926  48.906   7.223  1.00  0.00    +0.000 C 
BRANCH   11   10
ATOM     10  N2  UNL A   1       8.120  48.111   6.989  1.00  0.00    +0.000 N 
ATOM    104  H6  UNL A   1       8.199  47.666   6.114  1.00  0.00    +0.000 H 
BRANCH   10    9
ATOM      7  C6  UNL A   1      11.010  48.419   8.935  1.00  0.00    +0.000 C 
ATOM      8  N1  UNL A   1      10.148  48.758   7.906  1.00  0.00    +0.000 N 
ATOM      9  C7  UNL A   1       9.130  47.930   7.865  1.00  0.00    +0.000 C 
ATOM     87  S1  UNL A   1       9.198  46.666   9.040  1.00  0.00    +0.000 S 
ATOM     88  C61 UNL A   1      10.591  47.372   9.743  1.00  0.00    +0.000 C 
BRANCH    7    6
ATOM     97  C69 UNL A   1      13.480  48.592   8.873  1.00  0.00    +0.000 C 
ATOM     98  C70 UNL A   1      14.652  49.347   9.007  1.00  0.00    +0.000 C 
ATOM      3  C2  UNL A   1      14.584  50.671   9.448  1.00  0.00    +0.000 C 
ATOM      4  C3  UNL A   1      13.354  51.221   9.800  1.00  0.00    +0.000 C 
ATOM      5  C4  UNL A   1      12.184  50.475   9.656  1.00  0.00    +0.000 C 
ATOM    102  H4  UNL A   1      13.307  52.184  10.170  1.00  0.00    +0.000 H 
ATOM      6  C5  UNL A   1      12.238  49.162   9.169  1.00  0.00    +0.000 C 
ATOM    103  H5  UNL A   1      11.274  50.892   9.910  1.00  0.00    +0.000 H 
ATOM    142  H44 UNL A   1      13.534  47.611   8.556  1.00  0.00    +0.000 H 
ATOM    143  H45 UNL A   1      15.567  48.925   8.780  1.00  0.00    +0.000 H 
BRANCH    3    2
ATOM      2  O1  UNL A   1      15.665  51.490   9.617  1.00  0.00    +0.000 O 
BRANCH    2    1
ATOM      1  C1  UNL A   1      16.490  51.159  10.731  1.00  0.00    +0.000 C 
ATOM     99  H1  UNL A   1      17.328  50.584  10.396  1.00  0.00    +0.000 H 
ATOM    100  H2  UNL A   1      15.924  50.586  11.436  1.00  0.00    +0.000 H 
ATOM    101  H3  UNL A   1      16.836  52.058  11.197  1.00  0.00    +0.000 H 
ENDBRANCH    2    1
ENDBRANCH    3    2
ENDBRANCH    7    6
BRANCH   88   89
ATOM    135  H37 UNL A   1      10.201  48.320  12.252  1.00  0.00    +0.000 H 
ATOM    136  H38 UNL A   1      11.048  47.403  14.328  1.00  0.00    +0.000 H 
ATOM    140  H42 UNL A   1      13.041  44.377  12.211  1.00  0.00    +0.000 H 
ATOM    141  H43 UNL A   1      12.214  45.302  10.130  1.00  0.00    +0.000 H 
ATOM     89  C62 UNL A   1      11.118  46.874  11.016  1.00  0.00    +0.000 C 
ATOM     90  C63 UNL A   1      10.798  47.479  12.236  1.00  0.00    +0.000 C 
ATOM     91  C64 UNL A   1      11.286  46.946  13.435  1.00  0.00    +0.000 C 
ATOM     92  C65 UNL A   1      12.090  45.804  13.437  1.00  0.00    +0.000 C 
ATOM     95  C67 UNL A   1      12.432  45.211  12.224  1.00  0.00    +0.000 C 
ATOM     96  C68 UNL A   1      11.952  45.745  11.025  1.00  0.00    +0.000 C 
BRANCH   92   93
ATOM     93  O4  UNL A   1      12.478  45.372  14.674  1.00  0.00    +0.000 O 
BRANCH   93   94
ATOM    137  H39 UNL A   1      11.929  47.206  15.396  1.00  0.00    +0.000 H 
ATOM    138  H40 UNL A   1      13.467  46.609  15.969  1.00  0.00    +0.000 H 
ATOM    139  H41 UNL A   1      11.982  45.923  16.581  1.00  0.00    +0.000 H 
ATOM     94  C66 UNL A   1      12.464  46.337  15.720  1.00  0.00    +0.000 C 
ENDBRANCH   93   94
ENDBRANCH   92   93
ENDBRANCH   88   89
ENDBRANCH   10    9
ENDBRANCH   11   10
ENDBRANCH   12   11
ENDBRANCH   14   12
ENDBRANCH   15   14
ENDBRANCH   16   15
ENDBRANCH   17   16
ENDBRANCH   18   17
ENDBRANCH   19   18
ENDBRANCH   20   19
ENDBRANCH   21   20
ENDBRANCH   22   21
ENDBRANCH   24   22
ENDBRANCH   28   27
BRANCH   32   33
ATOM     33  C25 UNL A   1      17.650  55.483   0.743  1.00  0.00    +0.000 C 
ATOM     34  C26 UNL A   1      17.044  56.294  -0.229  1.00  0.00    +0.000 C 
ATOM     35  F1  UNL A   1      15.825  55.989  -0.697  1.00  0.00    +0.000 F 
ATOM     36  C27 UNL A   1      17.708  57.400  -0.753  1.00  0.00    +0.000 C 
ATOM     37  F2  UNL A   1      17.131  58.130  -1.718  1.00  0.00    +0.000 F 
ATOM     38  C28 UNL A   1      18.973  57.735  -0.294  1.00  0.00    +0.000 C 
ATOM     39  F3  UNL A   1      19.610  58.801  -0.798  1.00  0.00    +0.000 F 
ATOM     40  C29 UNL A   1      19.581  56.962   0.684  1.00  0.00    +0.000 C 
ATOM     41  F4  UNL A   1      20.798  57.291   1.137  1.00  0.00    +0.000 F 
ATOM     42  C30 UNL A   1      18.930  55.839   1.190  1.00  0.00    +0.000 C 
ATOM     43  F5  UNL A   1      19.552  55.100   2.121  1.00  0.00    +0.000 F 
ENDBRANCH   32   33
BRANCH   49   50
ATOM     50  C36 UNL A   1      16.835  48.484  -0.782  1.00  0.00    +0.000 C 
ATOM     51  C37 UNL A   1      18.039  47.787  -0.601  1.00  0.00    +0.000 C 
ATOM     52  F6  UNL A   1      18.805  48.031   0.473  1.00  0.00    +0.000 F 
ATOM     53  C38 UNL A   1      18.477  46.860  -1.543  1.00  0.00    +0.000 C 
ATOM     54  F7  UNL A   1      19.650  46.236  -1.369  1.00  0.00    +0.000 F 
ATOM     55  C39 UNL A   1      17.708  46.591  -2.666  1.00  0.00    +0.000 C 
ATOM     56  F8  UNL A   1      18.129  45.694  -3.568  1.00  0.00    +0.000 F 
ATOM     57  C40 UNL A   1      16.508  47.259  -2.858  1.00  0.00    +0.000 C 
ATOM     58  F9  UNL A   1      15.760  46.993  -3.937  1.00  0.00    +0.000 F 
ATOM     59  C41 UNL A   1      16.079  48.205  -1.931  1.00  0.00    +0.000 C 
ATOM     60  F10 UNL A   1      14.919  48.842  -2.147  1.00  0.00    +0.000 F 
ENDBRANCH   49   50
BRANCH   64   65
ATOM     65  C45 UNL A   1      12.357  47.934   4.530  1.00  0.00    +0.000 C 
ATOM     66  C46 UNL A   1      12.788  47.136   5.599  1.00  0.00    +0.000 C 
ATOM     67  F11 UNL A   1      14.002  47.333   6.133  1.00  0.00    +0.000 F 
ATOM     68  C47 UNL A   1      11.984  46.116   6.103  1.00  0.00    +0.000 C 
ATOM     69  F12 UNL A   1      12.430  45.349   7.106  1.00  0.00    +0.000 F 
ATOM     70  C48 UNL A   1      10.726  45.891   5.565  1.00  0.00    +0.000 C 
ATOM     71  F13 UNL A   1       9.949  44.918   6.058  1.00  0.00    +0.000 F 
ATOM     72  C49 UNL A   1      10.276  46.673   4.511  1.00  0.00    +0.000 C 
ATOM     73  F14 UNL A   1       9.057  46.467   3.995  1.00  0.00    +0.000 F 
ATOM     74  C50 UNL A   1      11.088  47.678   3.990  1.00  0.00    +0.000 C 
ATOM     75  F15 UNL A   1      10.631  48.418   2.969  1.00  0.00    +0.000 F 
ENDBRANCH   64   65
TORSDOF 23
ENDMDL
MODEL 5
REMARK VINA RESULT:      -8.4      2.586      7.793
ROOT
ATOM    129  H31 UNL A   1      18.172  50.615  -1.989  1.00  0.00    +0.000 H 
ATOM    130  H32 UNL A   1      18.637  53.107  -1.634  1.00  0.00    +0.000 H 
ATOM    131  H33 UNL A   1      12.118  53.314   6.011  1.00  0.00    +0.000 H 
ATOM    132  H34 UNL A   1      11.986  50.756   5.967  1.00  0.00    +0.000 H 
ATOM     28  C21 UNL A   1      13.429  49.576   3.814  1.00  0.00    +0.000 C 
ATOM     29  C22 UNL A   1      13.396  51.024   4.212  1.00  0.00    +0.000 C 
ATOM     30  N5  UNL A   1      14.011  52.044   3.670  1.00  0.00    +0.000 N 
ATOM     31  C23 UNL A   1      13.595  53.159   4.385  1.00  0.00    +0.000 C 
ATOM     32  C24 UNL A   1      13.986  54.448   4.241  1.00  0.00    +0.000 C 
ATOM     44  C31 UNL A   1      14.961  54.898   3.283  1.00  0.00    +0.000 C 
ATOM     45  C32 UNL A   1      15.498  56.165   3.127  1.00  0.00    +0.000 C 
ATOM     46  C33 UNL A   1      16.370  56.139   2.034  1.00  0.00    +0.000 C 
ATOM     47  C34 UNL A   1      16.410  54.847   1.535  1.00  0.00    +0.000 C 
ATOM     48  N6  UNL A   1      15.544  54.096   2.313  1.00  0.00    +0.000 N 
ATOM     49  C35 UNL A   1      17.181  54.334   0.430  1.00  0.00    +0.000 C 
ATOM     61  C42 UNL A   1      17.196  53.039   0.030  1.00  0.00    +0.000 C 
ATOM     62  N7  UNL A   1      16.497  51.958   0.548  1.00  0.00    +0.000 N 
ATOM     63  C43 UNL A   1      16.833  50.926  -0.187  1.00  0.00    +0.000 C 
ATOM     64  C44 UNL A   1      16.385  49.496  -0.069  1.00  0.00    +0.000 C 
ATOM     76  C51 UNL A   1      15.572  49.139   0.943  1.00  0.00    +0.000 C 
ATOM     77  C52 UNL A   1      15.072  47.790   1.188  1.00  0.00    +0.000 C 
ATOM     78  C53 UNL A   1      14.245  47.816   2.245  1.00  0.00    +0.000 C 
ATOM     79  C54 UNL A   1      14.180  49.181   2.769  1.00  0.00    +0.000 C 
ATOM     80  N8  UNL A   1      15.015  49.894   1.945  1.00  0.00    +0.000 N 
ATOM     81  C55 UNL A   1      17.777  51.239  -1.268  1.00  0.00    +0.000 C 
ATOM     82  C56 UNL A   1      17.989  52.533  -1.072  1.00  0.00    +0.000 C 
ATOM     83  C57 UNL A   1      12.643  52.695   5.373  1.00  0.00    +0.000 C 
ATOM     84  C58 UNL A   1      12.533  51.375   5.350  1.00  0.00    +0.000 C 
ATOM    123  H25 UNL A   1      15.290  56.986   3.716  1.00  0.00    +0.000 H 
ATOM    124  H26 UNL A   1      16.894  56.946   1.661  1.00  0.00    +0.000 H 
ATOM    125  H27 UNL A   1      15.368  53.134   2.195  1.00  0.00    +0.000 H 
ATOM    126  H28 UNL A   1      15.314  46.951   0.638  1.00  0.00    +0.000 H 
ATOM    127  H29 UNL A   1      13.736  47.003   2.627  1.00  0.00    +0.000 H 
ATOM    128  H30 UNL A   1      15.196  50.855   2.063  1.00  0.00    +0.000 H 
ENDROOT
BRANCH   28   27
ATOM    122  H24 UNL A   1      10.810  49.007   3.402  1.00  0.00    +0.000 H 
ATOM    133  H35 UNL A   1      14.108  47.864   5.761  1.00  0.00    +0.000 H 
ATOM    134  H36 UNL A   1      12.722  46.231   6.897  1.00  0.00    +0.000 H 
ATOM     85  C59 UNL A   1      13.108  47.780   5.518  1.00  0.00    +0.000 C 
ATOM     86  C60 UNL A   1      12.306  46.868   6.198  1.00  0.00    +0.000 C 
ATOM     24  C17 UNL A   1      10.934  46.815   5.934  1.00  0.00    +0.000 C 
ATOM     25  C18 UNL A   1      10.389  47.584   4.902  1.00  0.00    +0.000 C 
ATOM     26  C19 UNL A   1      11.206  48.455   4.179  1.00  0.00    +0.000 C 
ATOM     27  C20 UNL A   1      12.566  48.585   4.506  1.00  0.00    +0.000 C 
ATOM    121  H23 UNL A   1       9.385  47.509   4.675  1.00  0.00    +0.000 H 
BRANCH   24   22
ATOM     22  C16 UNL A   1      10.038  45.935   6.715  1.00  0.00    +0.000 C 
ATOM     23  O3  UNL A   1       9.095  45.380   6.159  1.00  0.00    +0.000 O 
BRANCH   22   21
ATOM     21  N4  UNL A   1      10.251  45.748   8.058  1.00  0.00    +0.000 N 
ATOM    120  H22 UNL A   1      10.355  44.810   8.340  1.00  0.00    +0.000 H 
BRANCH   21   20
ATOM     20  C15 UNL A   1      10.345  46.731   9.126  1.00  0.00    +0.000 C 
ATOM    118  H20 UNL A   1      10.713  47.649   8.718  1.00  0.00    +0.000 H 
ATOM    119  H21 UNL A   1       9.368  46.855   9.544  1.00  0.00    +0.000 H 
BRANCH   20   19
ATOM     19  C14 UNL A   1      11.280  46.279  10.245  1.00  0.00    +0.000 C 
ATOM    116  H18 UNL A   1      11.167  46.956  11.066  1.00  0.00    +0.000 H 
ATOM    117  H19 UNL A   1      11.001  45.275  10.484  1.00  0.00    +0.000 H 
BRANCH   19   18
ATOM     18  C13 UNL A   1      12.762  46.237   9.864  1.00  0.00    +0.000 C 
ATOM    115  H17 UNL A   1      12.820  45.663   8.962  1.00  0.00    +0.000 H 
ATOM    114  H16 UNL A   1      13.302  45.806  10.681  1.00  0.00    +0.000 H 
BRANCH   18   17
ATOM     17  C12 UNL A   1      13.396  47.597   9.542  1.00  0.00    +0.000 C 
ATOM    113  H15 UNL A   1      13.064  48.268  10.307  1.00  0.00    +0.000 H 
ATOM    112  H14 UNL A   1      13.085  47.884   8.559  1.00  0.00    +0.000 H 
BRANCH   17   16
ATOM    110  H12 UNL A   1      15.237  48.541  10.051  1.00  0.00    +0.000 H 
ATOM    111  H13 UNL A   1      15.247  46.765  10.131  1.00  0.00    +0.000 H 
ATOM     16  C11 UNL A   1      14.930  47.628   9.584  1.00  0.00    +0.000 C 
BRANCH   16   15
ATOM    108  H10 UNL A   1      16.229  46.699   8.171  1.00  0.00    +0.000 H 
ATOM    109  H11 UNL A   1      14.804  47.460   7.470  1.00  0.00    +0.000 H 
ATOM     15  C10 UNL A   1      15.580  47.549   8.202  1.00  0.00    +0.000 C 
BRANCH   15   14
ATOM    107  H9  UNL A   1      17.063  48.960   8.554  1.00  0.00    +0.000 H 
ATOM     14  N3  UNL A   1      16.350  48.742   7.911  1.00  0.00    +0.000 N 
BRANCH   14   12
ATOM     12  C9  UNL A   1      16.211  49.605   6.858  1.00  0.00    +0.000 C 
ATOM     13  O2  UNL A   1      16.423  49.179   5.721  1.00  0.00    +0.000 O 
BRANCH   12   11
ATOM    105  H7  UNL A   1      16.479  51.694   6.501  1.00  0.00    +0.000 H 
ATOM    106  H8  UNL A   1      14.823  51.214   6.875  1.00  0.00    +0.000 H 
ATOM     11  C8  UNL A   1      15.856  51.075   7.113  1.00  0.00    +0.000 C 
BRANCH   11   10
ATOM     10  N2  UNL A   1      16.053  51.442   8.505  1.00  0.00    +0.000 N 
ATOM    104  H6  UNL A   1      16.980  51.461   8.838  1.00  0.00    +0.000 H 
BRANCH   10    9
ATOM      7  C6  UNL A   1      13.697  51.455  11.090  1.00  0.00    +0.000 C 
ATOM      8  N1  UNL A   1      14.629  50.878  10.245  1.00  0.00    +0.000 N 
ATOM      9  C7  UNL A   1      15.077  51.760   9.382  1.00  0.00    +0.000 C 
ATOM     87  S1  UNL A   1      14.349  53.319   9.520  1.00  0.00    +0.000 S 
ATOM     88  C61 UNL A   1      13.503  52.819  10.922  1.00  0.00    +0.000 C 
BRANCH    7    6
ATOM     97  C69 UNL A   1      11.855  49.964  11.813  1.00  0.00    +0.000 C 
ATOM     98  C70 UNL A   1      11.265  49.137  12.777  1.00  0.00    +0.000 C 
ATOM      3  C2  UNL A   1      11.833  49.030  14.049  1.00  0.00    +0.000 C 
ATOM      4  C3  UNL A   1      12.959  49.785  14.370  1.00  0.00    +0.000 C 
ATOM      5  C4  UNL A   1      13.556  50.599  13.408  1.00  0.00    +0.000 C 
ATOM    102  H4  UNL A   1      13.354  49.742  15.323  1.00  0.00    +0.000 H 
ATOM      6  C5  UNL A   1      13.021  50.676  12.116  1.00  0.00    +0.000 C 
ATOM    103  H5  UNL A   1      14.396  51.148  13.649  1.00  0.00    +0.000 H 
ATOM    142  H44 UNL A   1      11.428  50.049  10.878  1.00  0.00    +0.000 H 
ATOM    143  H45 UNL A   1      10.409  48.607  12.549  1.00  0.00    +0.000 H 
BRANCH    3    2
ATOM      2  O1  UNL A   1      11.334  48.258  15.060  1.00  0.00    +0.000 O 
BRANCH    2    1
ATOM      1  C1  UNL A   1      12.055  47.052  15.296  1.00  0.00    +0.000 C 
ATOM     99  H1  UNL A   1      12.938  47.269  15.861  1.00  0.00    +0.000 H 
ATOM    100  H2  UNL A   1      12.330  46.612  14.360  1.00  0.00    +0.000 H 
ATOM    101  H3  UNL A   1      11.439  46.370  15.843  1.00  0.00    +0.000 H 
ENDBRANCH    2    1
ENDBRANCH    3    2
ENDBRANCH    7    6
BRANCH   88   89
ATOM    135  H37 UNL A   1      11.149  54.063  10.417  1.00  0.00    +0.000 H 
ATOM    136  H38 UNL A   1       9.956  55.609  11.850  1.00  0.00    +0.000 H 
ATOM    140  H42 UNL A   1      13.005  55.344  14.721  1.00  0.00    +0.000 H 
ATOM    141  H43 UNL A   1      14.212  53.813  13.283  1.00  0.00    +0.000 H 
ATOM     89  C62 UNL A   1      12.772  53.790  11.739  1.00  0.00    +0.000 C 
ATOM     90  C63 UNL A   1      11.546  54.326  11.332  1.00  0.00    +0.000 C 
ATOM     91  C64 UNL A   1      10.857  55.217  12.163  1.00  0.00    +0.000 C 
ATOM     92  C65 UNL A   1      11.373  55.580  13.409  1.00  0.00    +0.000 C 
ATOM     95  C67 UNL A   1      12.604  55.069  13.810  1.00  0.00    +0.000 C 
ATOM     96  C68 UNL A   1      13.298  54.184  12.980  1.00  0.00    +0.000 C 
BRANCH   92   93
ATOM     93  O4  UNL A   1      10.590  56.436  14.132  1.00  0.00    +0.000 O 
BRANCH   93   94
ATOM    137  H39 UNL A   1      12.323  57.330  14.752  1.00  0.00    +0.000 H 
ATOM    138  H40 UNL A   1      11.056  57.246  15.952  1.00  0.00    +0.000 H 
ATOM    139  H41 UNL A   1      10.938  58.388  14.636  1.00  0.00    +0.000 H 
ATOM     94  C66 UNL A   1      11.269  57.410  14.917  1.00  0.00    +0.000 C 
ENDBRANCH   93   94
ENDBRANCH   92   93
ENDBRANCH   88   89
ENDBRANCH   10    9
ENDBRANCH   11   10
ENDBRANCH   12   11
ENDBRANCH   14   12
ENDBRANCH   15   14
ENDBRANCH   16   15
ENDBRANCH   17   16
ENDBRANCH   18   17
ENDBRANCH   19   18
ENDBRANCH   20   19
ENDBRANCH   21   20
ENDBRANCH   22   21
ENDBRANCH   24   22
ENDBRANCH   28   27
BRANCH   32   33
ATOM     33  C25 UNL A   1      13.352  55.469   5.141  1.00  0.00    +0.000 C 
ATOM     34  C26 UNL A   1      13.895  55.785   6.396  1.00  0.00    +0.000 C 
ATOM     35  F1  UNL A   1      14.988  55.146   6.839  1.00  0.00    +0.000 F 
ATOM     36  C27 UNL A   1      13.292  56.732   7.219  1.00  0.00    +0.000 C 
ATOM     37  F2  UNL A   1      13.798  56.981   8.434  1.00  0.00    +0.000 F 
ATOM     38  C28 UNL A   1      12.157  57.404   6.791  1.00  0.00    +0.000 C 
ATOM     39  F3  UNL A   1      11.578  58.317   7.583  1.00  0.00    +0.000 F 
ATOM     40  C29 UNL A   1      11.617  57.125   5.545  1.00  0.00    +0.000 C 
ATOM     41  F4  UNL A   1      10.526  57.782   5.125  1.00  0.00    +0.000 F 
ATOM     42  C30 UNL A   1      12.202  56.159   4.731  1.00  0.00    +0.000 C 
ATOM     43  F5  UNL A   1      11.646  55.897   3.539  1.00  0.00    +0.000 F 
ENDBRANCH   32   33
BRANCH   49   50
ATOM     50  C36 UNL A   1      18.047  55.295  -0.327  1.00  0.00    +0.000 C 
ATOM     51  C37 UNL A   1      17.623  55.866  -1.535  1.00  0.00    +0.000 C 
ATOM     52  F6  UNL A   1      16.441  55.516  -2.068  1.00  0.00    +0.000 F 
ATOM     53  C38 UNL A   1      18.426  56.772  -2.220  1.00  0.00    +0.000 C 
ATOM     54  F7  UNL A   1      18.017  57.274  -3.393  1.00  0.00    +0.000 F 
ATOM     55  C39 UNL A   1      19.654  57.148  -1.696  1.00  0.00    +0.000 C 
ATOM     56  F8  UNL A   1      20.425  58.026  -2.353  1.00  0.00    +0.000 F 
ATOM     57  C40 UNL A   1      20.089  56.606  -0.496  1.00  0.00    +0.000 C 
ATOM     58  F9  UNL A   1      21.271  56.976   0.016  1.00  0.00    +0.000 F 
ATOM     59  C41 UNL A   1      19.299  55.680   0.179  1.00  0.00    +0.000 C 
ATOM     60  F10 UNL A   1      19.748  55.165   1.333  1.00  0.00    +0.000 F 
ENDBRANCH   49   50
BRANCH   64   65
ATOM     65  C45 UNL A   1      16.843  48.467  -1.034  1.00  0.00    +0.000 C 
ATOM     66  C46 UNL A   1      16.093  48.170  -2.180  1.00  0.00    +0.000 C 
ATOM     67  F11 UNL A   1      14.920  48.787  -2.388  1.00  0.00    +0.000 F 
ATOM     68  C47 UNL A   1      16.531  47.221  -3.100  1.00  0.00    +0.000 C 
ATOM     69  F12 UNL A   1      15.781  46.935  -4.172  1.00  0.00    +0.000 F 
ATOM     70  C48 UNL A   1      17.739  46.568  -2.904  1.00  0.00    +0.000 C 
ATOM     71  F13 UNL A   1      18.166  45.664  -3.795  1.00  0.00    +0.000 F 
ATOM     72  C49 UNL A   1      18.502  46.851  -1.780  1.00  0.00    +0.000 C 
ATOM     73  F14 UNL A   1      19.675  46.232  -1.593  1.00  0.00    +0.000 F 
ATOM     74  C50 UNL A   1      18.053  47.783  -0.847  1.00  0.00    +0.000 C 
ATOM     75  F15 UNL A   1      18.809  48.036   0.232  1.00  0.00    +0.000 F 
ENDBRANCH   64   65
TORSDOF 23
ENDMDL
MODEL 6
REMARK VINA RESULT:      -8.4     33.641     38.520
ROOT
ATOM    129  H31 UNL A   1      49.850  57.509  16.366  1.00  0.00    +0.000 H 
ATOM    130  H32 UNL A   1      51.879  57.322  17.916  1.00  0.00    +0.000 H 
ATOM    131  H33 UNL A   1      48.439  48.583  21.491  1.00  0.00    +0.000 H 
ATOM    132  H34 UNL A   1      46.665  48.526  19.644  1.00  0.00    +0.000 H 
ATOM     28  C21 UNL A   1      46.610  50.879  18.041  1.00  0.00    +0.000 C 
ATOM     29  C22 UNL A   1      47.596  50.525  19.117  1.00  0.00    +0.000 C 
ATOM     30  N5  UNL A   1      48.629  51.204  19.549  1.00  0.00    +0.000 N 
ATOM     31  C23 UNL A   1      49.165  50.455  20.588  1.00  0.00    +0.000 C 
ATOM     32  C24 UNL A   1      50.272  50.709  21.327  1.00  0.00    +0.000 C 
ATOM     44  C31 UNL A   1      51.131  51.848  21.136  1.00  0.00    +0.000 C 
ATOM     45  C32 UNL A   1      52.330  52.140  21.765  1.00  0.00    +0.000 C 
ATOM     46  C33 UNL A   1      52.780  53.379  21.296  1.00  0.00    +0.000 C 
ATOM     47  C34 UNL A   1      51.885  53.839  20.343  1.00  0.00    +0.000 C 
ATOM     48  N6  UNL A   1      50.881  52.888  20.253  1.00  0.00    +0.000 N 
ATOM     49  C35 UNL A   1      51.940  55.054  19.571  1.00  0.00    +0.000 C 
ATOM     61  C42 UNL A   1      51.040  55.413  18.623  1.00  0.00    +0.000 C 
ATOM     62  N7  UNL A   1      49.902  54.740  18.202  1.00  0.00    +0.000 N 
ATOM     63  C43 UNL A   1      49.357  55.494  17.279  1.00  0.00    +0.000 C 
ATOM     64  C44 UNL A   1      48.112  55.251  16.474  1.00  0.00    +0.000 C 
ATOM     76  C51 UNL A   1      47.442  54.093  16.624  1.00  0.00    +0.000 C 
ATOM     77  C52 UNL A   1      46.232  53.718  15.900  1.00  0.00    +0.000 C 
ATOM     78  C53 UNL A   1      45.809  52.524  16.344  1.00  0.00    +0.000 C 
ATOM     79  C54 UNL A   1      46.737  52.037  17.365  1.00  0.00    +0.000 C 
ATOM     80  N8  UNL A   1      47.687  53.025  17.452  1.00  0.00    +0.000 N 
ATOM     81  C55 UNL A   1      50.084  56.744  17.019  1.00  0.00    +0.000 C 
ATOM     82  C56 UNL A   1      51.117  56.630  17.842  1.00  0.00    +0.000 C 
ATOM     83  C57 UNL A   1      48.320  49.291  20.749  1.00  0.00    +0.000 C 
ATOM     84  C58 UNL A   1      47.373  49.254  19.823  1.00  0.00    +0.000 C 
ATOM    123  H25 UNL A   1      52.808  51.546  22.460  1.00  0.00    +0.000 H 
ATOM    124  H26 UNL A   1      53.634  53.868  21.607  1.00  0.00    +0.000 H 
ATOM    125  H27 UNL A   1      50.104  52.942  19.651  1.00  0.00    +0.000 H 
ATOM    126  H28 UNL A   1      45.774  54.280  15.165  1.00  0.00    +0.000 H 
ATOM    127  H29 UNL A   1      44.964  52.028  16.018  1.00  0.00    +0.000 H 
ATOM    128  H30 UNL A   1      48.467  52.973  18.050  1.00  0.00    +0.000 H 
ENDROOT
BRANCH   28   27
ATOM    122  H24 UNL A   1      46.406  48.749  16.377  1.00  0.00    +0.000 H 
ATOM    133  H35 UNL A   1      44.172  51.006  19.145  1.00  0.00    +0.000 H 
ATOM    134  H36 UNL A   1      42.247  49.590  18.737  1.00  0.00    +0.000 H 
ATOM     85  C59 UNL A   1      44.231  50.244  18.451  1.00  0.00    +0.000 C 
ATOM     86  C60 UNL A   1      43.114  49.456  18.192  1.00  0.00    +0.000 C 
ATOM     24  C17 UNL A   1      43.166  48.482  17.189  1.00  0.00    +0.000 C 
ATOM     25  C18 UNL A   1      44.372  48.212  16.537  1.00  0.00    +0.000 C 
ATOM     26  C19 UNL A   1      45.510  48.962  16.841  1.00  0.00    +0.000 C 
ATOM     27  C20 UNL A   1      45.438  50.008  17.776  1.00  0.00    +0.000 C 
ATOM    121  H23 UNL A   1      44.422  47.460  15.831  1.00  0.00    +0.000 H 
BRANCH   24   22
ATOM     22  C16 UNL A   1      41.965  47.704  16.816  1.00  0.00    +0.000 C 
ATOM     23  O3  UNL A   1      41.341  47.999  15.801  1.00  0.00    +0.000 O 
BRANCH   22   21
ATOM     21  N4  UNL A   1      41.539  46.667  17.608  1.00  0.00    +0.000 N 
ATOM    120  H22 UNL A   1      41.056  46.932  18.424  1.00  0.00    +0.000 H 
BRANCH   21   20
ATOM     20  C15 UNL A   1      41.699  45.233  17.420  1.00  0.00    +0.000 C 
ATOM    118  H20 UNL A   1      40.786  44.747  17.693  1.00  0.00    +0.000 H 
ATOM    119  H21 UNL A   1      41.939  45.062  16.392  1.00  0.00    +0.000 H 
BRANCH   20   19
ATOM     19  C14 UNL A   1      42.833  44.663  18.268  1.00  0.00    +0.000 C 
ATOM    116  H18 UNL A   1      42.874  45.217  19.182  1.00  0.00    +0.000 H 
ATOM    117  H19 UNL A   1      42.611  43.628  18.412  1.00  0.00    +0.000 H 
BRANCH   19   18
ATOM     18  C13 UNL A   1      44.215  44.723  17.613  1.00  0.00    +0.000 C 
ATOM    115  H17 UNL A   1      44.136  45.437  16.819  1.00  0.00    +0.000 H 
ATOM    114  H16 UNL A   1      44.466  43.737  17.279  1.00  0.00    +0.000 H 
BRANCH   18   17
ATOM     17  C12 UNL A   1      45.350  45.219  18.519  1.00  0.00    +0.000 C 
ATOM    113  H15 UNL A   1      46.000  45.793  17.892  1.00  0.00    +0.000 H 
ATOM    112  H14 UNL A   1      45.824  44.364  18.955  1.00  0.00    +0.000 H 
BRANCH   17   16
ATOM    110  H12 UNL A   1      45.343  47.120  19.481  1.00  0.00    +0.000 H 
ATOM    111  H13 UNL A   1      43.847  46.176  19.653  1.00  0.00    +0.000 H 
ATOM     16  C11 UNL A   1      44.916  46.154  19.656  1.00  0.00    +0.000 C 
BRANCH   16   15
ATOM    108  H10 UNL A   1      46.393  45.897  21.172  1.00  0.00    +0.000 H 
ATOM    109  H11 UNL A   1      44.763  46.180  21.774  1.00  0.00    +0.000 H 
ATOM     15  C10 UNL A   1      45.354  45.674  21.040  1.00  0.00    +0.000 C 
BRANCH   15   14
ATOM    107  H9  UNL A   1      45.887  43.674  20.873  1.00  0.00    +0.000 H 
ATOM     14  N3  UNL A   1      45.154  44.247  21.193  1.00  0.00    +0.000 N 
BRANCH   14   12
ATOM     12  C9  UNL A   1      44.074  43.595  21.725  1.00  0.00    +0.000 C 
ATOM     13  O2  UNL A   1      43.498  42.754  21.031  1.00  0.00    +0.000 O 
BRANCH   12   11
ATOM    105  H7  UNL A   1      43.895  44.950  23.366  1.00  0.00    +0.000 H 
ATOM    106  H8  UNL A   1      42.509  43.883  23.133  1.00  0.00    +0.000 H 
ATOM     11  C8  UNL A   1      43.576  43.956  23.129  1.00  0.00    +0.000 C 
BRANCH   11   10
ATOM     10  N2  UNL A   1      44.096  43.045  24.135  1.00  0.00    +0.000 N 
ATOM    104  H6  UNL A   1      44.065  42.082  23.928  1.00  0.00    +0.000 H 
BRANCH   10    9
ATOM      7  C6  UNL A   1      45.592  44.736  26.805  1.00  0.00    +0.000 C 
ATOM      8  N1  UNL A   1      45.219  44.558  25.484  1.00  0.00    +0.000 N 
ATOM      9  C7  UNL A   1      44.616  43.402  25.328  1.00  0.00    +0.000 C 
ATOM     87  S1  UNL A   1      44.522  42.452  26.766  1.00  0.00    +0.000 S 
ATOM     88  C61 UNL A   1      45.185  43.739  27.680  1.00  0.00    +0.000 C 
BRANCH    7    6
ATOM     97  C69 UNL A   1      45.618  47.050  27.691  1.00  0.00    +0.000 C 
ATOM     98  C70 UNL A   1      46.317  48.153  28.196  1.00  0.00    +0.000 C 
ATOM      3  C2  UNL A   1      47.714  48.137  28.235  1.00  0.00    +0.000 C 
ATOM      4  C3  UNL A   1      48.408  47.042  27.725  1.00  0.00    +0.000 C 
ATOM      5  C4  UNL A   1      47.714  45.937  27.233  1.00  0.00    +0.000 C 
ATOM    102  H4  UNL A   1      49.441  47.049  27.711  1.00  0.00    +0.000 H 
ATOM      6  C5  UNL A   1      46.313  45.925  27.235  1.00  0.00    +0.000 C 
ATOM    103  H5  UNL A   1      48.234  45.125  26.866  1.00  0.00    +0.000 H 
ATOM    142  H44 UNL A   1      44.587  47.067  27.655  1.00  0.00    +0.000 H 
ATOM    143  H45 UNL A   1      45.801  48.978  28.540  1.00  0.00    +0.000 H 
BRANCH    3    2
ATOM      2  O1  UNL A   1      48.489  49.161  28.702  1.00  0.00    +0.000 O 
BRANCH    2    1
ATOM      1  C1  UNL A   1      49.689  48.748  29.348  1.00  0.00    +0.000 C 
ATOM     99  H1  UNL A   1      50.325  48.257  28.641  1.00  0.00    +0.000 H 
ATOM    100  H2  UNL A   1      49.451  48.071  30.144  1.00  0.00    +0.000 H 
ATOM    101  H3  UNL A   1      50.192  49.603  29.747  1.00  0.00    +0.000 H 
ENDBRANCH    2    1
ENDBRANCH    3    2
ENDBRANCH    7    6
BRANCH   88   89
ATOM    135  H37 UNL A   1      46.825  42.325  29.311  1.00  0.00    +0.000 H 
ATOM    136  H38 UNL A   1      46.864  42.328  31.733  1.00  0.00    +0.000 H 
ATOM    140  H42 UNL A   1      43.637  45.010  31.809  1.00  0.00    +0.000 H 
ATOM    141  H43 UNL A   1      43.581  44.996  29.387  1.00  0.00    +0.000 H 
ATOM     89  C62 UNL A   1      45.213  43.679  29.143  1.00  0.00    +0.000 C 
ATOM     90  C63 UNL A   1      46.149  42.903  29.834  1.00  0.00    +0.000 C 
ATOM     91  C64 UNL A   1      46.172  42.907  31.234  1.00  0.00    +0.000 C 
ATOM     92  C65 UNL A   1      45.271  43.687  31.962  1.00  0.00    +0.000 C 
ATOM     95  C67 UNL A   1      44.320  44.444  31.282  1.00  0.00    +0.000 C 
ATOM     96  C68 UNL A   1      44.291  44.436  29.884  1.00  0.00    +0.000 C 
BRANCH   92   93
ATOM     93  O4  UNL A   1      45.416  43.623  33.320  1.00  0.00    +0.000 O 
BRANCH   93   94
ATOM    137  H39 UNL A   1      44.801  44.678  34.963  1.00  0.00    +0.000 H 
ATOM    138  H40 UNL A   1      44.739  45.549  33.450  1.00  0.00    +0.000 H 
ATOM    139  H41 UNL A   1      46.277  45.245  34.220  1.00  0.00    +0.000 H 
ATOM     94  C66 UNL A   1      45.301  44.850  34.032  1.00  0.00    +0.000 C 
ENDBRANCH   93   94
ENDBRANCH   92   93
ENDBRANCH   88   89
ENDBRANCH   10    9
ENDBRANCH   11   10
ENDBRANCH   12   11
ENDBRANCH   14   12
ENDBRANCH   15   14
ENDBRANCH   16   15
ENDBRANCH   17   16
ENDBRANCH   18   17
ENDBRANCH   19   18
ENDBRANCH   20   19
ENDBRANCH   21   20
ENDBRANCH   22   21
ENDBRANCH   24   22
ENDBRANCH   28   27
BRANCH   32   33
ATOM     33  C25 UNL A   1      50.617  49.734  22.415  1.00  0.00    +0.000 C 
ATOM     34  C26 UNL A   1      50.194  49.926  23.739  1.00  0.00    +0.000 C 
ATOM     35  F1  UNL A   1      49.494  51.021  24.072  1.00  0.00    +0.000 F 
ATOM     36  C27 UNL A   1      50.526  49.012  24.736  1.00  0.00    +0.000 C 
ATOM     37  F2  UNL A   1      50.155  49.242  26.004  1.00  0.00    +0.000 F 
ATOM     38  C28 UNL A   1      51.255  47.875  24.424  1.00  0.00    +0.000 C 
ATOM     39  F3  UNL A   1      51.572  46.995  25.384  1.00  0.00    +0.000 F 
ATOM     40  C29 UNL A   1      51.662  47.653  23.117  1.00  0.00    +0.000 C 
ATOM     41  F4  UNL A   1      52.358  46.548  22.811  1.00  0.00    +0.000 F 
ATOM     42  C30 UNL A   1      51.356  48.578  22.123  1.00  0.00    +0.000 C 
ATOM     43  F5  UNL A   1      51.780  48.345  20.872  1.00  0.00    +0.000 F 
ENDBRANCH   32   33
BRANCH   49   50
ATOM     50  C36 UNL A   1      53.085  55.990  19.818  1.00  0.00    +0.000 C 
ATOM     51  C37 UNL A   1      52.994  57.022  20.764  1.00  0.00    +0.000 C 
ATOM     52  F6  UNL A   1      51.849  57.223  21.435  1.00  0.00    +0.000 F 
ATOM     53  C38 UNL A   1      54.070  57.873  20.999  1.00  0.00    +0.000 C 
ATOM     54  F7  UNL A   1      53.947  58.876  21.879  1.00  0.00    +0.000 F 
ATOM     55  C39 UNL A   1      55.264  57.691  20.317  1.00  0.00    +0.000 C 
ATOM     56  F8  UNL A   1      56.301  58.507  20.550  1.00  0.00    +0.000 F 
ATOM     57  C40 UNL A   1      55.380  56.669  19.387  1.00  0.00    +0.000 C 
ATOM     58  F9  UNL A   1      56.536  56.487  18.734  1.00  0.00    +0.000 F 
ATOM     59  C41 UNL A   1      54.298  55.832  19.130  1.00  0.00    +0.000 C 
ATOM     60  F10 UNL A   1      54.436  54.859  18.218  1.00  0.00    +0.000 F 
ENDBRANCH   49   50
BRANCH   64   65
ATOM     65  C45 UNL A   1      47.621  56.256  15.499  1.00  0.00    +0.000 C 
ATOM     66  C46 UNL A   1      47.780  56.059  14.120  1.00  0.00    +0.000 C 
ATOM     67  F11 UNL A   1      48.426  54.973  13.671  1.00  0.00    +0.000 F 
ATOM     68  C47 UNL A   1      47.300  56.989  13.201  1.00  0.00    +0.000 C 
ATOM     69  F12 UNL A   1      47.490  56.792  11.890  1.00  0.00    +0.000 F 
ATOM     70  C48 UNL A   1      46.631  58.122  13.643  1.00  0.00    +0.000 C 
ATOM     71  F13 UNL A   1      46.160  59.010  12.758  1.00  0.00    +0.000 F 
ATOM     72  C49 UNL A   1      46.456  58.333  15.003  1.00  0.00    +0.000 C 
ATOM     73  F14 UNL A   1      45.801  59.420  15.433  1.00  0.00    +0.000 F 
ATOM     74  C50 UNL A   1      46.957  57.416  15.923  1.00  0.00    +0.000 C 
ATOM     75  F15 UNL A   1      46.777  57.647  17.232  1.00  0.00    +0.000 F 
ENDBRANCH   64   65
TORSDOF 23
ENDMDL
MODEL 7
REMARK VINA RESULT:      -8.4     40.161     45.521
ROOT
ATOM    129  H31 UNL A   1      37.180  32.936  33.922  1.00  0.00    +0.000 H 
ATOM    130  H32 UNL A   1      36.264  32.599  31.555  1.00  0.00    +0.000 H 
ATOM    131  H33 UNL A   1      43.779  26.262  29.466  1.00  0.00    +0.000 H 
ATOM    132  H34 UNL A   1      44.440  26.232  31.940  1.00  0.00    +0.000 H 
ATOM     28  C21 UNL A   1      42.940  28.044  33.546  1.00  0.00    +0.000 C 
ATOM     29  C22 UNL A   1      42.731  27.714  32.095  1.00  0.00    +0.000 C 
ATOM     30  N5  UNL A   1      41.832  28.176  31.263  1.00  0.00    +0.000 N 
ATOM     31  C23 UNL A   1      42.116  27.590  30.037  1.00  0.00    +0.000 C 
ATOM     32  C24 UNL A   1      41.443  27.711  28.867  1.00  0.00    +0.000 C 
ATOM     44  C31 UNL A   1      40.248  28.494  28.697  1.00  0.00    +0.000 C 
ATOM     45  C32 UNL A   1      39.436  28.599  27.580  1.00  0.00    +0.000 C 
ATOM     46  C33 UNL A   1      38.419  29.517  27.863  1.00  0.00    +0.000 C 
ATOM     47  C34 UNL A   1      38.570  29.951  29.170  1.00  0.00    +0.000 C 
ATOM     48  N6  UNL A   1      39.694  29.313  29.671  1.00  0.00    +0.000 N 
ATOM     49  C35 UNL A   1      37.751  30.878  29.909  1.00  0.00    +0.000 C 
ATOM     61  C42 UNL A   1      37.945  31.220  31.207  1.00  0.00    +0.000 C 
ATOM     62  N7  UNL A   1      38.933  30.795  32.083  1.00  0.00    +0.000 N 
ATOM     63  C43 UNL A   1      38.706  31.417  33.213  1.00  0.00    +0.000 C 
ATOM     64  C44 UNL A   1      39.459  31.327  34.510  1.00  0.00    +0.000 C 
ATOM     76  C51 UNL A   1      40.487  30.465  34.619  1.00  0.00    +0.000 C 
ATOM     77  C52 UNL A   1      41.295  30.262  35.817  1.00  0.00    +0.000 C 
ATOM     78  C53 UNL A   1      42.263  29.372  35.546  1.00  0.00    +0.000 C 
ATOM     79  C54 UNL A   1      42.125  28.922  34.161  1.00  0.00    +0.000 C 
ATOM     80  N8  UNL A   1      41.032  29.608  33.694  1.00  0.00    +0.000 N 
ATOM     81  C55 UNL A   1      37.549  32.322  33.178  1.00  0.00    +0.000 C 
ATOM     82  C56 UNL A   1      37.103  32.141  31.943  1.00  0.00    +0.000 C 
ATOM     83  C57 UNL A   1      43.297  26.772  30.224  1.00  0.00    +0.000 C 
ATOM     84  C58 UNL A   1      43.679  26.764  31.493  1.00  0.00    +0.000 C 
ATOM    123  H25 UNL A   1      39.562  28.089  26.692  1.00  0.00    +0.000 H 
ATOM    124  H26 UNL A   1      37.681  29.819  27.208  1.00  0.00    +0.000 H 
ATOM    125  H27 UNL A   1      40.047  29.423  30.583  1.00  0.00    +0.000 H 
ATOM    126  H28 UNL A   1      41.147  30.727  36.726  1.00  0.00    +0.000 H 
ATOM    127  H29 UNL A   1      42.990  29.057  36.209  1.00  0.00    +0.000 H 
ATOM    128  H30 UNL A   1      40.674  29.497  32.784  1.00  0.00    +0.000 H 
ENDROOT
BRANCH   28   27
ATOM    122  H24 UNL A   1      45.296  29.222  34.188  1.00  0.00    +0.000 H 
ATOM    133  H35 UNL A   1      43.183  25.605  34.628  1.00  0.00    +0.000 H 
ATOM    134  H36 UNL A   1      45.053  24.668  35.851  1.00  0.00    +0.000 H 
ATOM     85  C59 UNL A   1      44.037  26.166  34.770  1.00  0.00    +0.000 C 
ATOM     86  C60 UNL A   1      45.124  25.612  35.441  1.00  0.00    +0.000 C 
ATOM     24  C17 UNL A   1      46.314  26.338  35.556  1.00  0.00    +0.000 C 
ATOM     25  C18 UNL A   1      46.373  27.662  35.113  1.00  0.00    +0.000 C 
ATOM     26  C19 UNL A   1      45.261  28.238  34.494  1.00  0.00    +0.000 C 
ATOM     27  C20 UNL A   1      44.096  27.481  34.287  1.00  0.00    +0.000 C 
ATOM    121  H23 UNL A   1      47.236  28.213  35.242  1.00  0.00    +0.000 H 
BRANCH   24   22
ATOM     22  C16 UNL A   1      47.520  25.737  36.166  1.00  0.00    +0.000 C 
ATOM     23  O3  UNL A   1      47.417  25.090  37.204  1.00  0.00    +0.000 O 
BRANCH   22   21
ATOM     21  N4  UNL A   1      48.750  25.912  35.583  1.00  0.00    +0.000 N 
ATOM    120  H22 UNL A   1      49.357  26.524  36.060  1.00  0.00    +0.000 H 
BRANCH   21   20
ATOM     20  C15 UNL A   1      49.290  25.327  34.365  1.00  0.00    +0.000 C 
ATOM    118  H20 UNL A   1      50.350  25.231  34.470  1.00  0.00    +0.000 H 
ATOM    119  H21 UNL A   1      48.824  24.374  34.225  1.00  0.00    +0.000 H 
BRANCH   20   19
ATOM     19  C14 UNL A   1      48.992  26.181  33.135  1.00  0.00    +0.000 C 
ATOM    116  H18 UNL A   1      48.743  27.167  33.468  1.00  0.00    +0.000 H 
ATOM    117  H19 UNL A   1      49.870  26.150  32.526  1.00  0.00    +0.000 H 
BRANCH   19   18
ATOM     18  C13 UNL A   1      47.842  25.670  32.263  1.00  0.00    +0.000 C 
ATOM    115  H17 UNL A   1      47.014  25.516  32.925  1.00  0.00    +0.000 H 
ATOM    114  H16 UNL A   1      48.170  24.777  31.773  1.00  0.00    +0.000 H 
BRANCH   18   17
ATOM     17  C12 UNL A   1      47.350  26.646  31.187  1.00  0.00    +0.000 C 
ATOM    113  H15 UNL A   1      46.301  26.464  31.078  1.00  0.00    +0.000 H 
ATOM    112  H14 UNL A   1      47.909  26.464  30.293  1.00  0.00    +0.000 H 
BRANCH   17   16
ATOM    110  H12 UNL A   1      47.629  28.216  32.601  1.00  0.00    +0.000 H 
ATOM    111  H13 UNL A   1      48.325  28.510  30.992  1.00  0.00    +0.000 H 
ATOM     16  C11 UNL A   1      47.490  28.133  31.542  1.00  0.00    +0.000 C 
BRANCH   16   15
ATOM    108  H10 UNL A   1      46.030  28.770  30.124  1.00  0.00    +0.000 H 
ATOM    109  H11 UNL A   1      45.459  28.707  31.789  1.00  0.00    +0.000 H 
ATOM     15  C10 UNL A   1      46.273  28.971  31.147  1.00  0.00    +0.000 C 
BRANCH   15   14
ATOM    107  H9  UNL A   1      46.709  30.696  32.219  1.00  0.00    +0.000 H 
ATOM     14  N3  UNL A   1      46.536  30.389  31.300  1.00  0.00    +0.000 N 
BRANCH   14   12
ATOM     12  C9  UNL A   1      46.574  31.353  30.330  1.00  0.00    +0.000 C 
ATOM     13  O2  UNL A   1      47.401  32.261  30.440  1.00  0.00    +0.000 O 
BRANCH   12   11
ATOM    105  H7  UNL A   1      44.756  30.672  29.440  1.00  0.00    +0.000 H 
ATOM    106  H8  UNL A   1      45.224  32.316  29.001  1.00  0.00    +0.000 H 
ATOM     11  C8  UNL A   1      45.568  31.318  29.174  1.00  0.00    +0.000 C 
BRANCH   11   10
ATOM     10  N2  UNL A   1      46.174  30.829  27.948  1.00  0.00    +0.000 N 
ATOM    104  H6  UNL A   1      46.099  31.401  27.150  1.00  0.00    +0.000 H 
BRANCH   10    9
ATOM      7  C6  UNL A   1      47.084  27.512  27.316  1.00  0.00    +0.000 C 
ATOM      8  N1  UNL A   1      46.193  28.557  27.486  1.00  0.00    +0.000 N 
ATOM      9  C7  UNL A   1      46.832  29.659  27.807  1.00  0.00    +0.000 C 
ATOM     87  S1  UNL A   1      48.540  29.465  27.970  1.00  0.00    +0.000 S 
ATOM     88  C61 UNL A   1      48.426  27.848  27.421  1.00  0.00    +0.000 C 
BRANCH    7    6
ATOM     97  C69 UNL A   1      46.878  25.616  25.734  1.00  0.00    +0.000 C 
ATOM     98  C70 UNL A   1      46.520  24.289  25.463  1.00  0.00    +0.000 C 
ATOM      3  C2  UNL A   1      45.895  23.519  26.447  1.00  0.00    +0.000 C 
ATOM      4  C3  UNL A   1      45.586  24.088  27.680  1.00  0.00    +0.000 C 
ATOM      5  C4  UNL A   1      45.952  25.405  27.957  1.00  0.00    +0.000 C 
ATOM    102  H4  UNL A   1      45.083  23.534  28.392  1.00  0.00    +0.000 H 
ATOM      6  C5  UNL A   1      46.623  26.170  26.993  1.00  0.00    +0.000 C 
ATOM    103  H5  UNL A   1      45.729  25.818  28.876  1.00  0.00    +0.000 H 
ATOM    142  H44 UNL A   1      47.331  26.186  25.003  1.00  0.00    +0.000 H 
ATOM    143  H45 UNL A   1      46.717  23.880  24.536  1.00  0.00    +0.000 H 
BRANCH    3    2
ATOM      2  O1  UNL A   1      45.501  22.220  26.283  1.00  0.00    +0.000 O 
BRANCH    2    1
ATOM      1  C1  UNL A   1      44.808  21.961  25.066  1.00  0.00    +0.000 C 
ATOM     99  H1  UNL A   1      44.012  21.270  25.249  1.00  0.00    +0.000 H 
ATOM    100  H2  UNL A   1      45.486  21.541  24.351  1.00  0.00    +0.000 H 
ATOM    101  H3  UNL A   1      44.407  22.875  24.682  1.00  0.00    +0.000 H 
ENDBRANCH    2    1
ENDBRANCH    3    2
ENDBRANCH    7    6
BRANCH   88   89
ATOM    135  H37 UNL A   1      49.574  25.820  28.804  1.00  0.00    +0.000 H 
ATOM    136  H38 UNL A   1      51.537  24.537  28.193  1.00  0.00    +0.000 H 
ATOM    140  H42 UNL A   1      51.999  26.848  24.721  1.00  0.00    +0.000 H 
ATOM    141  H43 UNL A   1      50.049  28.146  25.337  1.00  0.00    +0.000 H 
ATOM     89  C62 UNL A   1      49.632  27.078  27.109  1.00  0.00    +0.000 C 
ATOM     90  C63 UNL A   1      50.081  26.040  27.932  1.00  0.00    +0.000 C 
ATOM     91  C64 UNL A   1      51.213  25.298  27.576  1.00  0.00    +0.000 C 
ATOM     92  C65 UNL A   1      51.909  25.574  26.397  1.00  0.00    +0.000 C 
ATOM     95  C67 UNL A   1      51.483  26.622  25.586  1.00  0.00    +0.000 C 
ATOM     96  C68 UNL A   1      50.356  27.368  25.942  1.00  0.00    +0.000 C 
BRANCH   92   93
ATOM     93  O4  UNL A   1      52.980  24.760  26.153  1.00  0.00    +0.000 O 
BRANCH   93   94
ATOM    137  H39 UNL A   1      54.284  24.916  24.583  1.00  0.00    +0.000 H 
ATOM    138  H40 UNL A   1      52.592  25.021  24.161  1.00  0.00    +0.000 H 
ATOM    139  H41 UNL A   1      53.291  23.479  24.589  1.00  0.00    +0.000 H 
ATOM     94  C66 UNL A   1      53.307  24.530  24.787  1.00  0.00    +0.000 C 
ENDBRANCH   93   94
ENDBRANCH   92   93
ENDBRANCH   88   89
ENDBRANCH   10    9
ENDBRANCH   11   10
ENDBRANCH   12   11
ENDBRANCH   14   12
ENDBRANCH   15   14
ENDBRANCH   16   15
ENDBRANCH   17   16
ENDBRANCH   18   17
ENDBRANCH   19   18
ENDBRANCH   20   19
ENDBRANCH   21   20
ENDBRANCH   22   21
ENDBRANCH   24   22
ENDBRANCH   28   27
BRANCH   32   33
ATOM     33  C25 UNL A   1      41.988  26.978  27.676  1.00  0.00    +0.000 C 
ATOM     34  C26 UNL A   1      42.844  27.600  26.755  1.00  0.00    +0.000 C 
ATOM     35  F1  UNL A   1      43.170  28.893  26.902  1.00  0.00    +0.000 F 
ATOM     36  C27 UNL A   1      43.338  26.905  25.654  1.00  0.00    +0.000 C 
ATOM     37  F2  UNL A   1      44.113  27.534  24.759  1.00  0.00    +0.000 F 
ATOM     38  C28 UNL A   1      43.013  25.570  25.471  1.00  0.00    +0.000 C 
ATOM     39  F3  UNL A   1      43.490  24.901  24.411  1.00  0.00    +0.000 F 
ATOM     40  C29 UNL A   1      42.188  24.928  26.381  1.00  0.00    +0.000 C 
ATOM     41  F4  UNL A   1      41.881  23.634  26.212  1.00  0.00    +0.000 F 
ATOM     42  C30 UNL A   1      41.671  25.628  27.469  1.00  0.00    +0.000 C 
ATOM     43  F5  UNL A   1      40.859  24.985  28.322  1.00  0.00    +0.000 F 
ENDBRANCH   32   33
BRANCH   49   50
ATOM     50  C36 UNL A   1      36.587  31.503  29.202  1.00  0.00    +0.000 C 
ATOM     51  C37 UNL A   1      35.473  30.744  28.816  1.00  0.00    +0.000 C 
ATOM     52  F6  UNL A   1      35.453  29.419  29.030  1.00  0.00    +0.000 F 
ATOM     53  C38 UNL A   1      34.388  31.338  28.178  1.00  0.00    +0.000 C 
ATOM     54  F7  UNL A   1      33.352  30.586  27.783  1.00  0.00    +0.000 F 
ATOM     55  C39 UNL A   1      34.383  32.704  27.940  1.00  0.00    +0.000 C 
ATOM     56  F8  UNL A   1      33.335  33.276  27.331  1.00  0.00    +0.000 F 
ATOM     57  C40 UNL A   1      35.469  33.477  28.325  1.00  0.00    +0.000 C 
ATOM     58  F9  UNL A   1      35.461  34.798  28.104  1.00  0.00    +0.000 F 
ATOM     59  C41 UNL A   1      36.566  32.882  28.940  1.00  0.00    +0.000 C 
ATOM     60  F10 UNL A   1      37.606  33.652  29.293  1.00  0.00    +0.000 F 
ENDBRANCH   49   50
BRANCH   64   65
ATOM     65  C45 UNL A   1      39.074  32.154  35.680  1.00  0.00    +0.000 C 
ATOM     66  C46 UNL A   1      38.272  31.628  36.701  1.00  0.00    +0.000 C 
ATOM     67  F11 UNL A   1      37.802  30.376  36.604  1.00  0.00    +0.000 F 
ATOM     68  C47 UNL A   1      37.928  32.395  37.812  1.00  0.00    +0.000 C 
ATOM     69  F12 UNL A   1      37.137  31.878  38.761  1.00  0.00    +0.000 F 
ATOM     70  C48 UNL A   1      38.400  33.694  37.934  1.00  0.00    +0.000 C 
ATOM     71  F13 UNL A   1      38.078  34.427  39.007  1.00  0.00    +0.000 F 
ATOM     72  C49 UNL A   1      39.201  34.233  36.938  1.00  0.00    +0.000 C 
ATOM     73  F14 UNL A   1      39.668  35.483  37.056  1.00  0.00    +0.000 F 
ATOM     74  C50 UNL A   1      39.526  33.475  35.815  1.00  0.00    +0.000 C 
ATOM     75  F15 UNL A   1      40.300  34.022  34.865  1.00  0.00    +0.000 F 
ENDBRANCH   64   65
TORSDOF 23
ENDMDL
MODEL 8
REMARK VINA RESULT:      -8.3      1.687      2.772
ROOT
ATOM    129  H31 UNL A   1      13.542  46.474   2.721  1.00  0.00    +0.000 H 
ATOM    130  H32 UNL A   1      15.235  46.727   0.816  1.00  0.00    +0.000 H 
ATOM    131  H33 UNL A   1      16.339  56.476   2.991  1.00  0.00    +0.000 H 
ATOM    132  H34 UNL A   1      15.017  56.142   5.159  1.00  0.00    +0.000 H 
ATOM     28  C21 UNL A   1      13.936  53.522   5.445  1.00  0.00    +0.000 C 
ATOM     29  C22 UNL A   1      14.860  54.021   4.371  1.00  0.00    +0.000 C 
ATOM     30  N5  UNL A   1      15.366  53.377   3.350  1.00  0.00    +0.000 N 
ATOM     31  C23 UNL A   1      16.106  54.314   2.641  1.00  0.00    +0.000 C 
ATOM     32  C24 UNL A   1      16.860  54.129   1.531  1.00  0.00    +0.000 C 
ATOM     44  C31 UNL A   1      17.043  52.860   0.877  1.00  0.00    +0.000 C 
ATOM     45  C32 UNL A   1      17.867  52.551  -0.192  1.00  0.00    +0.000 C 
ATOM     46  C33 UNL A   1      17.675  51.204  -0.518  1.00  0.00    +0.000 C 
ATOM     47  C34 UNL A   1      16.764  50.663   0.375  1.00  0.00    +0.000 C 
ATOM     48  N6  UNL A   1      16.388  51.689   1.227  1.00  0.00    +0.000 N 
ATOM     49  C35 UNL A   1      16.272  49.310   0.447  1.00  0.00    +0.000 C 
ATOM     61  C42 UNL A   1      15.407  48.848   1.383  1.00  0.00    +0.000 C 
ATOM     62  N7  UNL A   1      14.808  49.533   2.430  1.00  0.00    +0.000 N 
ATOM     63  C43 UNL A   1      14.046  48.660   3.043  1.00  0.00    +0.000 C 
ATOM     64  C44 UNL A   1      13.174  48.851   4.252  1.00  0.00    +0.000 C 
ATOM     76  C51 UNL A   1      13.167  50.041   4.881  1.00  0.00    +0.000 C 
ATOM     77  C52 UNL A   1      12.384  50.363   6.070  1.00  0.00    +0.000 C 
ATOM     78  C53 UNL A   1      12.580  51.652   6.387  1.00  0.00    +0.000 C 
ATOM     79  C54 UNL A   1      13.526  52.240   5.438  1.00  0.00    +0.000 C 
ATOM     80  N8  UNL A   1      13.837  51.204   4.592  1.00  0.00    +0.000 N 
ATOM     81  C55 UNL A   1      14.066  47.319   2.443  1.00  0.00    +0.000 C 
ATOM     82  C56 UNL A   1      14.935  47.481   1.454  1.00  0.00    +0.000 C 
ATOM     83  C57 UNL A   1      15.950  55.580   3.326  1.00  0.00    +0.000 C 
ATOM     84  C58 UNL A   1      15.242  55.440   4.437  1.00  0.00    +0.000 C 
ATOM    123  H25 UNL A   1      18.512  53.203  -0.667  1.00  0.00    +0.000 H 
ATOM    124  H26 UNL A   1      18.133  50.700  -1.292  1.00  0.00    +0.000 H 
ATOM    125  H27 UNL A   1      15.749  51.600   1.971  1.00  0.00    +0.000 H 
ATOM    126  H28 UNL A   1      11.777  49.705   6.584  1.00  0.00    +0.000 H 
ATOM    127  H29 UNL A   1      12.134  52.150   7.174  1.00  0.00    +0.000 H 
ATOM    128  H30 UNL A   1      14.477  51.289   3.849  1.00  0.00    +0.000 H 
ENDROOT
BRANCH   28   27
ATOM    122  H24 UNL A   1      11.599  54.898   5.430  1.00  0.00    +0.000 H 
ATOM    133  H35 UNL A   1      15.020  54.220   7.793  1.00  0.00    +0.000 H 
ATOM    134  H36 UNL A   1      14.148  55.730   9.478  1.00  0.00    +0.000 H 
ATOM     85  C59 UNL A   1      14.122  54.703   7.636  1.00  0.00    +0.000 C 
ATOM     86  C60 UNL A   1      13.641  55.598   8.588  1.00  0.00    +0.000 C 
ATOM     24  C17 UNL A   1      12.471  56.322   8.335  1.00  0.00    +0.000 C 
ATOM     25  C18 UNL A   1      11.716  56.055   7.190  1.00  0.00    +0.000 C 
ATOM     26  C19 UNL A   1      12.167  55.112   6.264  1.00  0.00    +0.000 C 
ATOM     27  C20 UNL A   1      13.392  54.454   6.464  1.00  0.00    +0.000 C 
ATOM    121  H23 UNL A   1      10.827  56.554   7.028  1.00  0.00    +0.000 H 
BRANCH   24   22
ATOM     22  C16 UNL A   1      11.995  57.357   9.277  1.00  0.00    +0.000 C 
ATOM     23  O3  UNL A   1      12.293  58.533   9.089  1.00  0.00    +0.000 O 
BRANCH   22   21
ATOM     21  N4  UNL A   1      11.234  57.006  10.364  1.00  0.00    +0.000 N 
ATOM    120  H22 UNL A   1      10.779  57.753  10.817  1.00  0.00    +0.000 H 
BRANCH   21   20
ATOM     20  C15 UNL A   1      11.001  55.693  10.947  1.00  0.00    +0.000 C 
ATOM    118  H20 UNL A   1       9.982  55.418  10.778  1.00  0.00    +0.000 H 
ATOM    119  H21 UNL A   1      11.673  55.004  10.481  1.00  0.00    +0.000 H 
BRANCH   20   19
ATOM     19  C14 UNL A   1      11.275  55.673  12.449  1.00  0.00    +0.000 C 
ATOM    116  H18 UNL A   1      11.660  56.631  12.729  1.00  0.00    +0.000 H 
ATOM    117  H19 UNL A   1      10.345  55.437  12.921  1.00  0.00    +0.000 H 
BRANCH   19   18
ATOM     18  C13 UNL A   1      12.275  54.607  12.904  1.00  0.00    +0.000 C 
ATOM    115  H17 UNL A   1      11.715  53.907  13.489  1.00  0.00    +0.000 H 
ATOM    114  H16 UNL A   1      13.053  55.096  13.451  1.00  0.00    +0.000 H 
BRANCH   18   17
ATOM     17  C12 UNL A   1      12.926  53.794  11.778  1.00  0.00    +0.000 C 
ATOM    113  H15 UNL A   1      12.635  54.267  10.863  1.00  0.00    +0.000 H 
ATOM    112  H14 UNL A   1      12.588  52.782  11.860  1.00  0.00    +0.000 H 
BRANCH   17   16
ATOM    110  H12 UNL A   1      14.804  54.110  10.823  1.00  0.00    +0.000 H 
ATOM    111  H13 UNL A   1      14.776  54.437  12.570  1.00  0.00    +0.000 H 
ATOM     16  C11 UNL A   1      14.461  53.785  11.783  1.00  0.00    +0.000 C 
BRANCH   16   15
ATOM    108  H10 UNL A   1      15.725  52.487  12.907  1.00  0.00    +0.000 H 
ATOM    109  H11 UNL A   1      14.261  51.730  12.285  1.00  0.00    +0.000 H 
ATOM     15  C10 UNL A   1      15.061  52.408  12.071  1.00  0.00    +0.000 C 
BRANCH   15   14
ATOM    107  H9  UNL A   1      15.758  52.455  10.115  1.00  0.00    +0.000 H 
ATOM     14  N3  UNL A   1      15.796  51.903  10.928  1.00  0.00    +0.000 N 
BRANCH   14   12
ATOM     12  C9  UNL A   1      16.536  50.755  10.836  1.00  0.00    +0.000 C 
ATOM     13  O2  UNL A   1      17.670  50.749  11.321  1.00  0.00    +0.000 O 
BRANCH   12   11
ATOM    105  H7  UNL A   1      15.490  49.868   9.199  1.00  0.00    +0.000 H 
ATOM    106  H8  UNL A   1      16.783  48.876   9.875  1.00  0.00    +0.000 H 
ATOM     11  C8  UNL A   1      15.972  49.537  10.096  1.00  0.00    +0.000 C 
BRANCH   11   10
ATOM     10  N2  UNL A   1      15.007  48.814  10.907  1.00  0.00    +0.000 N 
ATOM    104  H6  UNL A   1      15.349  48.345  11.702  1.00  0.00    +0.000 H 
BRANCH   10    9
ATOM      7  C6  UNL A   1      11.569  49.404  10.647  1.00  0.00    +0.000 C 
ATOM      8  N1  UNL A   1      12.857  49.664  11.083  1.00  0.00    +0.000 N 
ATOM      9  C7  UNL A   1      13.681  48.730  10.666  1.00  0.00    +0.000 C 
ATOM     87  S1  UNL A   1      12.923  47.464   9.770  1.00  0.00    +0.000 S 
ATOM     88  C61 UNL A   1      11.433  48.305   9.810  1.00  0.00    +0.000 C 
BRANCH    7    6
ATOM     97  C69 UNL A   1      10.454  51.616  10.619  1.00  0.00    +0.000 C 
ATOM     98  C70 UNL A   1       9.339  52.422  10.882  1.00  0.00    +0.000 C 
ATOM      3  C2  UNL A   1       8.230  51.886  11.543  1.00  0.00    +0.000 C 
ATOM      4  C3  UNL A   1       8.258  50.564  11.982  1.00  0.00    +0.000 C 
ATOM      5  C4  UNL A   1       9.362  49.757  11.711  1.00  0.00    +0.000 C 
ATOM    102  H4  UNL A   1       7.458  50.180  12.511  1.00  0.00    +0.000 H 
ATOM      6  C5  UNL A   1      10.459  50.273  11.007  1.00  0.00    +0.000 C 
ATOM    103  H5  UNL A   1       9.373  48.776  12.030  1.00  0.00    +0.000 H 
ATOM    142  H44 UNL A   1      11.276  52.016  10.140  1.00  0.00    +0.000 H 
ATOM    143  H45 UNL A   1       9.335  53.411  10.588  1.00  0.00    +0.000 H 
BRANCH    3    2
ATOM      2  O1  UNL A   1       7.097  52.586  11.852  1.00  0.00    +0.000 O 
BRANCH    2    1
ATOM      1  C1  UNL A   1       6.413  53.131  10.728  1.00  0.00    +0.000 C 
ATOM     99  H1  UNL A   1       6.711  54.149  10.589  1.00  0.00    +0.000 H 
ATOM    100  H2  UNL A   1       5.357  53.090  10.899  1.00  0.00    +0.000 H 
ATOM    101  H3  UNL A   1       6.655  52.565   9.853  1.00  0.00    +0.000 H 
ENDBRANCH    2    1
ENDBRANCH    3    2
ENDBRANCH    7    6
BRANCH   88   89
ATOM    135  H37 UNL A   1       9.930  46.065  10.077  1.00  0.00    +0.000 H 
ATOM    136  H38 UNL A   1       8.011  45.405   8.753  1.00  0.00    +0.000 H 
ATOM    140  H42 UNL A   1       8.432  48.840   6.380  1.00  0.00    +0.000 H 
ATOM    141  H43 UNL A   1      10.363  49.495   7.687  1.00  0.00    +0.000 H 
ATOM     89  C62 UNL A   1      10.296  47.849   9.007  1.00  0.00    +0.000 C 
ATOM     90  C63 UNL A   1       9.613  46.663   9.297  1.00  0.00    +0.000 C 
ATOM     91  C64 UNL A   1       8.504  46.284   8.533  1.00  0.00    +0.000 C 
ATOM     92  C65 UNL A   1       8.054  47.081   7.479  1.00  0.00    +0.000 C 
ATOM     95  C67 UNL A   1       8.743  48.251   7.169  1.00  0.00    +0.000 C 
ATOM     96  C68 UNL A   1       9.855  48.629   7.926  1.00  0.00    +0.000 C 
BRANCH   92   93
ATOM     93  O4  UNL A   1       6.946  46.612   6.830  1.00  0.00    +0.000 O 
BRANCH   93   94
ATOM    137  H39 UNL A   1       5.101  46.014   7.483  1.00  0.00    +0.000 H 
ATOM    138  H40 UNL A   1       6.422  45.687   8.578  1.00  0.00    +0.000 H 
ATOM    139  H41 UNL A   1       6.225  44.722   7.135  1.00  0.00    +0.000 H 
ATOM     94  C66 UNL A   1       6.122  45.703   7.552  1.00  0.00    +0.000 C 
ENDBRANCH   93   94
ENDBRANCH   92   93
ENDBRANCH   88   89
ENDBRANCH   10    9
ENDBRANCH   11   10
ENDBRANCH   12   11
ENDBRANCH   14   12
ENDBRANCH   15   14
ENDBRANCH   16   15
ENDBRANCH   17   16
ENDBRANCH   18   17
ENDBRANCH   19   18
ENDBRANCH   20   19
ENDBRANCH   21   20
ENDBRANCH   22   21
ENDBRANCH   24   22
ENDBRANCH   28   27
BRANCH   32   33
ATOM     33  C25 UNL A   1      17.545  55.333   0.950  1.00  0.00    +0.000 C 
ATOM     34  C26 UNL A   1      18.853  55.685   1.314  1.00  0.00    +0.000 C 
ATOM     35  F1  UNL A   1      19.516  54.964   2.230  1.00  0.00    +0.000 F 
ATOM     36  C27 UNL A   1      19.470  56.807   0.767  1.00  0.00    +0.000 C 
ATOM     37  F2  UNL A   1      20.701  57.155   1.167  1.00  0.00    +0.000 F 
ATOM     38  C28 UNL A   1      18.806  57.576  -0.177  1.00  0.00    +0.000 C 
ATOM     39  F3  UNL A   1      19.402  58.655  -0.704  1.00  0.00    +0.000 F 
ATOM     40  C29 UNL A   1      17.522  57.233  -0.569  1.00  0.00    +0.000 C 
ATOM     41  F4  UNL A   1      16.883  57.969  -1.489  1.00  0.00    +0.000 F 
ATOM     42  C30 UNL A   1      16.892  56.127  -0.003  1.00  0.00    +0.000 C 
ATOM     43  F5  UNL A   1      15.641  55.831  -0.389  1.00  0.00    +0.000 F 
ENDBRANCH   32   33
BRANCH   49   50
ATOM     50  C36 UNL A   1      16.762  48.331  -0.576  1.00  0.00    +0.000 C 
ATOM     51  C37 UNL A   1      18.024  47.729  -0.467  1.00  0.00    +0.000 C 
ATOM     52  F6  UNL A   1      18.846  48.063   0.540  1.00  0.00    +0.000 F 
ATOM     53  C38 UNL A   1      18.460  46.805  -1.412  1.00  0.00    +0.000 C 
ATOM     54  F7  UNL A   1      19.686  46.273  -1.309  1.00  0.00    +0.000 F 
ATOM     55  C39 UNL A   1      17.635  46.444  -2.466  1.00  0.00    +0.000 C 
ATOM     56  F8  UNL A   1      18.054  45.550  -3.372  1.00  0.00    +0.000 F 
ATOM     57  C40 UNL A   1      16.377  47.017  -2.587  1.00  0.00    +0.000 C 
ATOM     58  F9  UNL A   1      15.575  46.662  -3.599  1.00  0.00    +0.000 F 
ATOM     59  C41 UNL A   1      15.948  47.960  -1.657  1.00  0.00    +0.000 C 
ATOM     60  F10 UNL A   1      14.731  48.504  -1.804  1.00  0.00    +0.000 F 
ENDBRANCH   49   50
BRANCH   64   65
ATOM     65  C45 UNL A   1      12.339  47.743   4.777  1.00  0.00    +0.000 C 
ATOM     66  C46 UNL A   1      11.111  47.424   4.183  1.00  0.00    +0.000 C 
ATOM     67  F11 UNL A   1      10.656  48.156   3.156  1.00  0.00    +0.000 F 
ATOM     68  C47 UNL A   1      10.334  46.370   4.660  1.00  0.00    +0.000 C 
ATOM     69  F12 UNL A   1       9.151  46.103   4.093  1.00  0.00    +0.000 F 
ATOM     70  C48 UNL A   1      10.783  45.601   5.724  1.00  0.00    +0.000 C 
ATOM     71  F13 UNL A   1      10.042  44.581   6.174  1.00  0.00    +0.000 F 
ATOM     72  C49 UNL A   1      11.999  45.895   6.323  1.00  0.00    +0.000 C 
ATOM     73  F14 UNL A   1      12.442  45.148   7.343  1.00  0.00    +0.000 F 
ATOM     74  C50 UNL A   1      12.765  46.964   5.863  1.00  0.00    +0.000 C 
ATOM     75  F15 UNL A   1      13.936  47.228   6.462  1.00  0.00    +0.000 F 
ENDBRANCH   64   65
TORSDOF 23
ENDMDL
MODEL 9
REMARK VINA RESULT:      -8.3      1.686      3.508
ROOT
ATOM    129  H31 UNL A   1      13.532  46.579   2.639  1.00  0.00    +0.000 H 
ATOM    130  H32 UNL A   1      15.235  46.790   0.739  1.00  0.00    +0.000 H 
ATOM    131  H33 UNL A   1      16.409  56.561   2.774  1.00  0.00    +0.000 H 
ATOM    132  H34 UNL A   1      15.074  56.269   4.941  1.00  0.00    +0.000 H 
ATOM     28  C21 UNL A   1      13.971  53.663   5.260  1.00  0.00    +0.000 C 
ATOM     29  C22 UNL A   1      14.904  54.139   4.184  1.00  0.00    +0.000 C 
ATOM     30  N5  UNL A   1      15.408  53.475   3.174  1.00  0.00    +0.000 N 
ATOM     31  C23 UNL A   1      16.159  54.396   2.455  1.00  0.00    +0.000 C 
ATOM     32  C24 UNL A   1      16.917  54.189   1.352  1.00  0.00    +0.000 C 
ATOM     44  C31 UNL A   1      17.092  52.909   0.717  1.00  0.00    +0.000 C 
ATOM     45  C32 UNL A   1      17.919  52.577  -0.344  1.00  0.00    +0.000 C 
ATOM     46  C33 UNL A   1      17.717  51.227  -0.650  1.00  0.00    +0.000 C 
ATOM     47  C34 UNL A   1      16.797  50.707   0.246  1.00  0.00    +0.000 C 
ATOM     48  N6  UNL A   1      16.426  51.748   1.081  1.00  0.00    +0.000 N 
ATOM     49  C35 UNL A   1      16.295  49.359   0.336  1.00  0.00    +0.000 C 
ATOM     61  C42 UNL A   1      15.422  48.918   1.275  1.00  0.00    +0.000 C 
ATOM     62  N7  UNL A   1      14.823  49.623   2.309  1.00  0.00    +0.000 N 
ATOM     63  C43 UNL A   1      14.052  48.765   2.932  1.00  0.00    +0.000 C 
ATOM     64  C44 UNL A   1      13.176  48.981   4.134  1.00  0.00    +0.000 C 
ATOM     76  C51 UNL A   1      13.176  50.180   4.745  1.00  0.00    +0.000 C 
ATOM     77  C52 UNL A   1      12.391  50.525   5.926  1.00  0.00    +0.000 C 
ATOM     78  C53 UNL A   1      12.595  51.818   6.225  1.00  0.00    +0.000 C 
ATOM     79  C54 UNL A   1      13.551  52.384   5.271  1.00  0.00    +0.000 C 
ATOM     80  N8  UNL A   1      13.856  51.333   4.442  1.00  0.00    +0.000 N 
ATOM     81  C55 UNL A   1      14.064  47.415   2.351  1.00  0.00    +0.000 C 
ATOM     82  C56 UNL A   1      14.938  47.555   1.364  1.00  0.00    +0.000 C 
ATOM     83  C57 UNL A   1      16.010  55.673   3.121  1.00  0.00    +0.000 C 
ATOM     84  C58 UNL A   1      15.296  55.556   4.231  1.00  0.00    +0.000 C 
ATOM    123  H25 UNL A   1      18.570  53.217  -0.825  1.00  0.00    +0.000 H 
ATOM    124  H26 UNL A   1      18.174  50.708  -1.415  1.00  0.00    +0.000 H 
ATOM    125  H27 UNL A   1      15.784  51.675   1.824  1.00  0.00    +0.000 H 
ATOM    126  H28 UNL A   1      11.776  49.880   6.447  1.00  0.00    +0.000 H 
ATOM    127  H29 UNL A   1      12.150  52.331   7.002  1.00  0.00    +0.000 H 
ATOM    128  H30 UNL A   1      14.501  51.402   3.701  1.00  0.00    +0.000 H 
ENDROOT
BRANCH   28   27
ATOM    122  H24 UNL A   1      11.716  55.165   5.151  1.00  0.00    +0.000 H 
ATOM    133  H35 UNL A   1      14.976  54.279   7.666  1.00  0.00    +0.000 H 
ATOM    134  H36 UNL A   1      14.108  55.819   9.324  1.00  0.00    +0.000 H 
ATOM     85  C59 UNL A   1      14.115  54.812   7.472  1.00  0.00    +0.000 C 
ATOM     86  C60 UNL A   1      13.638  55.724   8.410  1.00  0.00    +0.000 C 
ATOM     24  C17 UNL A   1      12.522  56.512   8.111  1.00  0.00    +0.000 C 
ATOM     25  C18 UNL A   1      11.810  56.298   6.928  1.00  0.00    +0.000 C 
ATOM     26  C19 UNL A   1      12.253  55.340   6.013  1.00  0.00    +0.000 C 
ATOM     27  C20 UNL A   1      13.430  54.614   6.263  1.00  0.00    +0.000 C 
ATOM    121  H23 UNL A   1      10.959  56.846   6.729  1.00  0.00    +0.000 H 
BRANCH   24   22
ATOM     22  C16 UNL A   1      12.059  57.564   9.041  1.00  0.00    +0.000 C 
ATOM     23  O3  UNL A   1      12.455  58.717   8.900  1.00  0.00    +0.000 O 
BRANCH   22   21
ATOM     21  N4  UNL A   1      11.200  57.252  10.065  1.00  0.00    +0.000 N 
ATOM    120  H22 UNL A   1      10.837  58.023  10.558  1.00  0.00    +0.000 H 
BRANCH   21   20
ATOM     20  C15 UNL A   1      10.748  55.950  10.530  1.00  0.00    +0.000 C 
ATOM    118  H20 UNL A   1      11.547  55.248  10.417  1.00  0.00    +0.000 H 
ATOM    119  H21 UNL A   1      10.460  56.050  11.556  1.00  0.00    +0.000 H 
BRANCH   20   19
ATOM     19  C14 UNL A   1       9.537  55.447   9.749  1.00  0.00    +0.000 C 
ATOM    116  H18 UNL A   1       8.709  55.387  10.424  1.00  0.00    +0.000 H 
ATOM    117  H19 UNL A   1       9.382  56.143   8.952  1.00  0.00    +0.000 H 
BRANCH   19   18
ATOM     18  C13 UNL A   1       9.719  54.075   9.096  1.00  0.00    +0.000 C 
ATOM    115  H17 UNL A   1       9.259  53.369   9.757  1.00  0.00    +0.000 H 
ATOM    114  H16 UNL A   1      10.767  53.911   8.957  1.00  0.00    +0.000 H 
BRANCH   18   17
ATOM     17  C12 UNL A   1       9.028  53.897   7.738  1.00  0.00    +0.000 C 
ATOM    113  H15 UNL A   1       9.579  54.497   7.044  1.00  0.00    +0.000 H 
ATOM    112  H14 UNL A   1       8.006  54.199   7.843  1.00  0.00    +0.000 H 
BRANCH   17   16
ATOM    110  H12 UNL A   1       8.309  52.398   6.406  1.00  0.00    +0.000 H 
ATOM    111  H13 UNL A   1      10.036  52.288   6.812  1.00  0.00    +0.000 H 
ATOM     16  C11 UNL A   1       9.048  52.469   7.178  1.00  0.00    +0.000 C 
BRANCH   16   15
ATOM    108  H10 UNL A   1       9.642  50.828   8.403  1.00  0.00    +0.000 H 
ATOM    109  H11 UNL A   1       8.434  51.885   9.126  1.00  0.00    +0.000 H 
ATOM     15  C10 UNL A   1       8.753  51.397   8.229  1.00  0.00    +0.000 C 
BRANCH   15   14
ATOM    107  H9  UNL A   1       6.786  50.874   7.817  1.00  0.00    +0.000 H 
ATOM     14  N3  UNL A   1       7.698  50.504   7.793  1.00  0.00    +0.000 N 
BRANCH   14   12
ATOM     12  C9  UNL A   1       7.808  49.214   7.351  1.00  0.00    +0.000 C 
ATOM     13  O2  UNL A   1       8.100  49.023   6.169  1.00  0.00    +0.000 O 
BRANCH   12   11
ATOM    105  H7  UNL A   1       7.207  48.445   9.252  1.00  0.00    +0.000 H 
ATOM    106  H8  UNL A   1       6.748  47.446   7.872  1.00  0.00    +0.000 H 
ATOM     11  C8  UNL A   1       7.517  48.050   8.306  1.00  0.00    +0.000 C 
BRANCH   11   10
ATOM     10  N2  UNL A   1       8.689  47.215   8.508  1.00  0.00    +0.000 N 
ATOM    104  H6  UNL A   1       8.693  46.333   8.070  1.00  0.00    +0.000 H 
BRANCH   10    9
ATOM      7  C6  UNL A   1      11.149  47.473  10.980  1.00  0.00    +0.000 C 
ATOM      8  N1  UNL A   1       9.932  47.070  10.460  1.00  0.00    +0.000 N 
ATOM      9  C7  UNL A   1       9.772  47.541   9.244  1.00  0.00    +0.000 C 
ATOM     87  S1  UNL A   1      11.068  48.541   8.696  1.00  0.00    +0.000 S 
ATOM     88  C61 UNL A   1      11.964  48.185  10.111  1.00  0.00    +0.000 C 
BRANCH    7    6
ATOM     97  C69 UNL A   1      11.203  47.923  13.416  1.00  0.00    +0.000 C 
ATOM     98  C70 UNL A   1      11.506  47.521  14.723  1.00  0.00    +0.000 C 
ATOM      3  C2  UNL A   1      12.168  46.311  14.946  1.00  0.00    +0.000 C 
ATOM      4  C3  UNL A   1      12.569  45.531  13.863  1.00  0.00    +0.000 C 
ATOM      5  C4  UNL A   1      12.258  45.923  12.561  1.00  0.00    +0.000 C 
ATOM    102  H4  UNL A   1      13.098  44.659  14.024  1.00  0.00    +0.000 H 
ATOM      6  C5  UNL A   1      11.551  47.112  12.331  1.00  0.00    +0.000 C 
ATOM    103  H5  UNL A   1      12.548  45.336  11.764  1.00  0.00    +0.000 H 
ATOM    142  H44 UNL A   1      10.722  48.821  13.253  1.00  0.00    +0.000 H 
ATOM    143  H45 UNL A   1      11.240  48.118  15.522  1.00  0.00    +0.000 H 
BRANCH    3    2
ATOM      2  O1  UNL A   1      12.514  45.830  16.177  1.00  0.00    +0.000 O 
BRANCH    2    1
ATOM      1  C1  UNL A   1      11.411  45.516  17.022  1.00  0.00    +0.000 C 
ATOM     99  H1  UNL A   1      10.497  45.757  16.521  1.00  0.00    +0.000 H 
ATOM    100  H2  UNL A   1      11.481  46.085  17.927  1.00  0.00    +0.000 H 
ATOM    101  H3  UNL A   1      11.426  44.472  17.256  1.00  0.00    +0.000 H 
ENDBRANCH    2    1
ENDBRANCH    3    2
ENDBRANCH    7    6
BRANCH   88   89
ATOM    135  H37 UNL A   1      13.026  50.360  11.331  1.00  0.00    +0.000 H 
ATOM    136  H38 UNL A   1      15.369  50.935  11.552  1.00  0.00    +0.000 H 
ATOM    140  H42 UNL A   1      16.442  47.515   9.370  1.00  0.00    +0.000 H 
ATOM    141  H43 UNL A   1      14.100  46.946   9.128  1.00  0.00    +0.000 H 
ATOM     89  C62 UNL A   1      13.366  48.591  10.229  1.00  0.00    +0.000 C 
ATOM     90  C63 UNL A   1      13.746  49.747  10.917  1.00  0.00    +0.000 C 
ATOM     91  C64 UNL A   1      15.100  50.077  11.046  1.00  0.00    +0.000 C 
ATOM     92  C65 UNL A   1      16.092  49.259  10.501  1.00  0.00    +0.000 C 
ATOM     95  C67 UNL A   1      15.720  48.118   9.794  1.00  0.00    +0.000 C 
ATOM     96  C68 UNL A   1      14.368  47.790   9.658  1.00  0.00    +0.000 C 
BRANCH   92   93
ATOM     93  O4  UNL A   1      17.374  49.679  10.720  1.00  0.00    +0.000 O 
BRANCH   93   94
ATOM    137  H39 UNL A   1      17.363  50.826   9.025  1.00  0.00    +0.000 H 
ATOM    138  H40 UNL A   1      18.475  49.479   9.007  1.00  0.00    +0.000 H 
ATOM    139  H41 UNL A   1      18.835  50.895   9.963  1.00  0.00    +0.000 H 
ATOM     94  C66 UNL A   1      18.054  50.255   9.610  1.00  0.00    +0.000 C 
ENDBRANCH   93   94
ENDBRANCH   92   93
ENDBRANCH   88   89
ENDBRANCH   10    9
ENDBRANCH   11   10
ENDBRANCH   12   11
ENDBRANCH   14   12
ENDBRANCH   15   14
ENDBRANCH   16   15
ENDBRANCH   17   16
ENDBRANCH   18   17
ENDBRANCH   19   18
ENDBRANCH   20   19
ENDBRANCH   21   20
ENDBRANCH   22   21
ENDBRANCH   24   22
ENDBRANCH   28   27
BRANCH   32   33
ATOM     33  C25 UNL A   1      17.613  55.378   0.757  1.00  0.00    +0.000 C 
ATOM     34  C26 UNL A   1      17.016  56.159  -0.244  1.00  0.00    +0.000 C 
ATOM     35  F1  UNL A   1      15.806  55.833  -0.723  1.00  0.00    +0.000 F 
ATOM     36  C27 UNL A   1      17.679  57.257  -0.786  1.00  0.00    +0.000 C 
ATOM     37  F2  UNL A   1      17.110  57.959  -1.777  1.00  0.00    +0.000 F 
ATOM     38  C28 UNL A   1      18.933  57.615  -0.316  1.00  0.00    +0.000 C 
ATOM     39  F3  UNL A   1      19.569  58.673  -0.838  1.00  0.00    +0.000 F 
ATOM     40  C29 UNL A   1      19.533  56.872   0.689  1.00  0.00    +0.000 C 
ATOM     41  F4  UNL A   1      20.741  57.222   1.152  1.00  0.00    +0.000 F 
ATOM     42  C30 UNL A   1      18.884  55.757   1.214  1.00  0.00    +0.000 C 
ATOM     43  F5  UNL A   1      19.498  55.046   2.172  1.00  0.00    +0.000 F 
ENDBRANCH   32   33
BRANCH   49   50
ATOM     50  C36 UNL A   1      16.781  48.361  -0.671  1.00  0.00    +0.000 C 
ATOM     51  C37 UNL A   1      18.012  47.707  -0.516  1.00  0.00    +0.000 C 
ATOM     52  F6  UNL A   1      18.809  48.006   0.522  1.00  0.00    +0.000 F 
ATOM     53  C38 UNL A   1      18.444  46.766  -1.446  1.00  0.00    +0.000 C 
ATOM     54  F7  UNL A   1      19.642  46.183  -1.299  1.00  0.00    +0.000 F 
ATOM     55  C39 UNL A   1      17.644  46.440  -2.531  1.00  0.00    +0.000 C 
ATOM     56  F8  UNL A   1      18.059  45.531  -3.423  1.00  0.00    +0.000 F 
ATOM     57  C40 UNL A   1      16.417  47.065  -2.697  1.00  0.00    +0.000 C 
ATOM     58  F9  UNL A   1      15.638  46.745  -3.739  1.00  0.00    +0.000 F 
ATOM     59  C41 UNL A   1      15.993  48.025  -1.782  1.00  0.00    +0.000 C 
ATOM     60  F10 UNL A   1      14.806  48.619  -1.973  1.00  0.00    +0.000 F 
ENDBRANCH   49   50
BRANCH   64   65
ATOM     65  C45 UNL A   1      12.330  47.888   4.671  1.00  0.00    +0.000 C 
ATOM     66  C46 UNL A   1      12.786  47.071   5.715  1.00  0.00    +0.000 C 
ATOM     67  F11 UNL A   1      14.022  47.242   6.206  1.00  0.00    +0.000 F 
ATOM     68  C47 UNL A   1      11.984  46.059   6.238  1.00  0.00    +0.000 C 
ATOM     69  F12 UNL A   1      12.454  45.273   7.215  1.00  0.00    +0.000 F 
ATOM     70  C48 UNL A   1      10.703  45.860   5.743  1.00  0.00    +0.000 C 
ATOM     71  F13 UNL A   1       9.929  44.894   6.254  1.00  0.00    +0.000 F 
ATOM     72  C49 UNL A   1      10.229  46.662   4.715  1.00  0.00    +0.000 C 
ATOM     73  F14 UNL A   1       8.988  46.482   4.243  1.00  0.00    +0.000 F 
ATOM     74  C50 UNL A   1      11.038  47.659   4.175  1.00  0.00    +0.000 C 
ATOM     75  F15 UNL A   1      10.556  48.418   3.180  1.00  0.00    +0.000 F 
ENDBRANCH   64   65
TORSDOF 23
ENDMDL
MODEL 10
REMARK VINA RESULT:      -8.3     65.422     71.027
ROOT
ATOM    129  H31 UNL A   1      22.838 -10.040  29.650  1.00  0.00    +0.000 H 
ATOM    130  H32 UNL A   1      22.040  -9.642  32.050  1.00  0.00    +0.000 H 
ATOM    131  H33 UNL A   1      29.508 -15.373  35.567  1.00  0.00    +0.000 H 
ATOM    132  H34 UNL A   1      30.577 -15.407  33.240  1.00  0.00    +0.000 H 
ATOM     28  C21 UNL A   1      28.997 -14.139  31.239  1.00  0.00    +0.000 C 
ATOM     29  C22 UNL A   1      28.737 -14.190  32.717  1.00  0.00    +0.000 C 
ATOM     30  N5  UNL A   1      27.748 -13.672  33.401  1.00  0.00    +0.000 N 
ATOM     31  C23 UNL A   1      27.957 -14.060  34.718  1.00  0.00    +0.000 C 
ATOM     32  C24 UNL A   1      27.234 -13.737  35.818  1.00  0.00    +0.000 C 
ATOM     44  C31 UNL A   1      26.078 -12.880  35.805  1.00  0.00    +0.000 C 
ATOM     45  C32 UNL A   1      25.338 -12.412  36.879  1.00  0.00    +0.000 C 
ATOM     46  C33 UNL A   1      24.275 -11.652  36.379  1.00  0.00    +0.000 C 
ATOM     47  C34 UNL A   1      24.376 -11.611  34.998  1.00  0.00    +0.000 C 
ATOM     48  N6  UNL A   1      25.488 -12.365  34.660  1.00  0.00    +0.000 N 
ATOM     49  C35 UNL A   1      23.523 -10.933  34.055  1.00  0.00    +0.000 C 
ATOM     61  C42 UNL A   1      23.716 -10.907  32.713  1.00  0.00    +0.000 C 
ATOM     62  N7  UNL A   1      24.718 -11.507  31.964  1.00  0.00    +0.000 N 
ATOM     63  C43 UNL A   1      24.465 -11.205  30.715  1.00  0.00    +0.000 C 
ATOM     64  C44 UNL A   1      25.231 -11.581  29.478  1.00  0.00    +0.000 C 
ATOM     76  C51 UNL A   1      26.378 -12.275  29.596  1.00  0.00    +0.000 C 
ATOM     77  C52 UNL A   1      27.230 -12.694  28.487  1.00  0.00    +0.000 C 
ATOM     78  C53 UNL A   1      28.255 -13.413  28.970  1.00  0.00    +0.000 C 
ATOM     79  C54 UNL A   1      28.148 -13.480  30.428  1.00  0.00    +0.000 C 
ATOM     80  N8  UNL A   1      27.014 -12.760  30.712  1.00  0.00    +0.000 N 
ATOM     81  C55 UNL A   1      23.260 -10.386  30.527  1.00  0.00    +0.000 C 
ATOM     82  C56 UNL A   1      22.859 -10.207  31.778  1.00  0.00    +0.000 C 
ATOM     83  C57 UNL A   1      29.143 -14.890  34.731  1.00  0.00    +0.000 C 
ATOM     84  C58 UNL A   1      29.700 -14.949  33.530  1.00  0.00    +0.000 C 
ATOM    123  H25 UNL A   1      25.538 -12.593  37.875  1.00  0.00    +0.000 H 
ATOM    124  H26 UNL A   1      23.539 -11.200  36.944  1.00  0.00    +0.000 H 
ATOM    125  H27 UNL A   1      25.813 -12.513  33.742  1.00  0.00    +0.000 H 
ATOM    126  H28 UNL A   1      27.069 -12.474  27.491  1.00  0.00    +0.000 H 
ATOM    127  H29 UNL A   1      29.001 -13.849  28.403  1.00  0.00    +0.000 H 
ATOM    128  H30 UNL A   1      26.689 -12.607  31.629  1.00  0.00    +0.000 H 
ENDROOT
BRANCH   28   27
ATOM    122  H24 UNL A   1      31.539 -13.312  30.785  1.00  0.00    +0.000 H 
ATOM    133  H35 UNL A   1      29.042 -16.682  30.398  1.00  0.00    +0.000 H 
ATOM    134  H36 UNL A   1      30.886 -17.930  29.439  1.00  0.00    +0.000 H 
ATOM     85  C59 UNL A   1      29.955 -16.223  30.253  1.00  0.00    +0.000 C 
ATOM     86  C60 UNL A   1      31.001 -16.930  29.668  1.00  0.00    +0.000 C 
ATOM     24  C17 UNL A   1      32.209 -16.283  29.389  1.00  0.00    +0.000 C 
ATOM     25  C18 UNL A   1      32.412 -14.966  29.811  1.00  0.00    +0.000 C 
ATOM     26  C19 UNL A   1      31.383 -14.275  30.453  1.00  0.00    +0.000 C 
ATOM     27  C20 UNL A   1      30.134 -14.888  30.647  1.00  0.00    +0.000 C 
ATOM    121  H23 UNL A   1      33.321 -14.505  29.648  1.00  0.00    +0.000 H 
BRANCH   24   22
ATOM     22  C16 UNL A   1      33.299 -16.977  28.670  1.00  0.00    +0.000 C 
ATOM     23  O3  UNL A   1      34.290 -16.346  28.313  1.00  0.00    +0.000 O 
BRANCH   22   21
ATOM     21  N4  UNL A   1      33.200 -18.317  28.390  1.00  0.00    +0.000 N 
ATOM    120  H22 UNL A   1      33.120 -18.905  29.176  1.00  0.00    +0.000 H 
BRANCH   21   20
ATOM     20  C15 UNL A   1      33.196 -18.997  27.104  1.00  0.00    +0.000 C 
ATOM    118  H20 UNL A   1      34.206 -19.113  26.773  1.00  0.00    +0.000 H 
ATOM    119  H21 UNL A   1      32.718 -19.945  27.236  1.00  0.00    +0.000 H 
BRANCH   20   19
ATOM     19  C14 UNL A   1      32.416 -18.222  26.045  1.00  0.00    +0.000 C 
ATOM    116  H18 UNL A   1      31.839 -18.923  25.479  1.00  0.00    +0.000 H 
ATOM    117  H19 UNL A   1      31.817 -17.511  26.572  1.00  0.00    +0.000 H 
BRANCH   19   18
ATOM     18  C13 UNL A   1      33.282 -17.420  25.070  1.00  0.00    +0.000 C 
ATOM    115  H17 UNL A   1      33.214 -16.399  25.385  1.00  0.00    +0.000 H 
ATOM    114  H16 UNL A   1      32.909 -17.589  24.081  1.00  0.00    +0.000 H 
BRANCH   18   17
ATOM     17  C12 UNL A   1      34.775 -17.769  25.079  1.00  0.00    +0.000 C 
ATOM    113  H15 UNL A   1      34.926 -18.452  24.268  1.00  0.00    +0.000 H 
ATOM    112  H14 UNL A   1      35.013 -18.186  26.036  1.00  0.00    +0.000 H 
BRANCH   17   16
ATOM    110  H12 UNL A   1      36.465 -16.578  25.597  1.00  0.00    +0.000 H 
ATOM    111  H13 UNL A   1      36.149 -16.731  23.854  1.00  0.00    +0.000 H 
ATOM     16  C11 UNL A   1      35.723 -16.589  24.825  1.00  0.00    +0.000 C 
BRANCH   16   15
ATOM    108  H10 UNL A   1      34.017 -15.364  24.456  1.00  0.00    +0.000 H 
ATOM    109  H11 UNL A   1      35.015 -14.845  25.811  1.00  0.00    +0.000 H 
ATOM     15  C10 UNL A   1      35.017 -15.232  24.813  1.00  0.00    +0.000 C 
BRANCH   15   14
ATOM    107  H9  UNL A   1      35.456 -14.311  23.004  1.00  0.00    +0.000 H 
ATOM     14  N3  UNL A   1      35.704 -14.286  23.956  1.00  0.00    +0.000 N 
BRANCH   14   12
ATOM     12  C9  UNL A   1      36.655 -13.364  24.302  1.00  0.00    +0.000 C 
ATOM     13  O2  UNL A   1      37.705 -13.337  23.658  1.00  0.00    +0.000 O 
BRANCH   12   11
ATOM    105  H7  UNL A   1      36.074 -13.018  26.328  1.00  0.00    +0.000 H 
ATOM    106  H8  UNL A   1      37.346 -11.951  25.731  1.00  0.00    +0.000 H 
ATOM     11  C8  UNL A   1      36.421 -12.435  25.500  1.00  0.00    +0.000 C 
BRANCH   11   10
ATOM     10  N2  UNL A   1      35.436 -11.410  25.201  1.00  0.00    +0.000 N 
ATOM    104  H6  UNL A   1      35.719 -10.672  24.614  1.00  0.00    +0.000 H 
BRANCH   10    9
ATOM      7  C6  UNL A   1      32.122 -12.151  26.038  1.00  0.00    +0.000 C 
ATOM      8  N1  UNL A   1      33.331 -12.361  25.398  1.00  0.00    +0.000 N 
ATOM      9  C7  UNL A   1      34.166 -11.381  25.657  1.00  0.00    +0.000 C 
ATOM     87  S1  UNL A   1      33.505 -10.130  26.646  1.00  0.00    +0.000 S 
ATOM     88  C61 UNL A   1      32.071 -11.040  26.868  1.00  0.00    +0.000 C 
BRANCH    7    6
ATOM     97  C69 UNL A   1      31.029 -14.321  26.520  1.00  0.00    +0.000 C 
ATOM     98  C70 UNL A   1      29.915 -15.167  26.447  1.00  0.00    +0.000 C 
ATOM      3  C2  UNL A   1      28.786 -14.774  25.725  1.00  0.00    +0.000 C 
ATOM      4  C3  UNL A   1      28.790 -13.562  25.038  1.00  0.00    +0.000 C 
ATOM      5  C4  UNL A   1      29.893 -12.712  25.119  1.00  0.00    +0.000 C 
ATOM    102  H4  UNL A   1      27.974 -13.291  24.466  1.00  0.00    +0.000 H 
ATOM      6  C5  UNL A   1      31.011 -13.077  25.881  1.00  0.00    +0.000 C 
ATOM    103  H5  UNL A   1      29.886 -11.811  24.617  1.00  0.00    +0.000 H 
ATOM    142  H44 UNL A   1      31.866 -14.617  27.047  1.00  0.00    +0.000 H 
ATOM    143  H45 UNL A   1      29.928 -16.081  26.926  1.00  0.00    +0.000 H 
BRANCH    3    2
ATOM      2  O1  UNL A   1      27.652 -15.525  25.586  1.00  0.00    +0.000 O 
BRANCH    2    1
ATOM      1  C1  UNL A   1      27.331 -16.327  26.719  1.00  0.00    +0.000 C 
ATOM     99  H1  UNL A   1      26.356 -16.750  26.591  1.00  0.00    +0.000 H 
ATOM    100  H2  UNL A   1      27.342 -15.720  27.600  1.00  0.00    +0.000 H 
ATOM    101  H3  UNL A   1      28.052 -17.111  26.817  1.00  0.00    +0.000 H 
ENDBRANCH    2    1
ENDBRANCH    3    2
ENDBRANCH    7    6
BRANCH   88   89
ATOM    135  H37 UNL A   1      31.980 -11.464  29.543  1.00  0.00    +0.000 H 
ATOM    136  H38 UNL A   1      30.312 -10.672  31.111  1.00  0.00    +0.000 H 
ATOM    140  H42 UNL A   1      28.184  -8.868  27.976  1.00  0.00    +0.000 H 
ATOM    141  H43 UNL A   1      29.838  -9.675  26.402  1.00  0.00    +0.000 H 
ATOM     89  C62 UNL A   1      31.062 -10.617  27.841  1.00  0.00    +0.000 C 
ATOM     90  C63 UNL A   1      31.180 -10.908  29.204  1.00  0.00    +0.000 C 
ATOM     91  C64 UNL A   1      30.217 -10.447  30.109  1.00  0.00    +0.000 C 
ATOM     92  C65 UNL A   1      29.130  -9.687  29.673  1.00  0.00    +0.000 C 
ATOM     95  C67 UNL A   1      28.992  -9.413  28.314  1.00  0.00    +0.000 C 
ATOM     96  C68 UNL A   1      29.950  -9.878  27.408  1.00  0.00    +0.000 C 
BRANCH   92   93
ATOM     93  O4  UNL A   1      28.277  -9.277  30.659  1.00  0.00    +0.000 O 
BRANCH   93   94
ATOM    137  H39 UNL A   1      29.187  -9.608  32.462  1.00  0.00    +0.000 H 
ATOM    138  H40 UNL A   1      28.481 -11.019  31.713  1.00  0.00    +0.000 H 
ATOM    139  H41 UNL A   1      27.452  -9.817  32.452  1.00  0.00    +0.000 H 
ATOM     94  C66 UNL A   1      28.354  -9.974  31.898  1.00  0.00    +0.000 C 
ENDBRANCH   93   94
ENDBRANCH   92   93
ENDBRANCH   88   89
ENDBRANCH   10    9
ENDBRANCH   11   10
ENDBRANCH   12   11
ENDBRANCH   14   12
ENDBRANCH   15   14
ENDBRANCH   16   15
ENDBRANCH   17   16
ENDBRANCH   18   17
ENDBRANCH   19   18
ENDBRANCH   20   19
ENDBRANCH   21   20
ENDBRANCH   22   21
ENDBRANCH   24   22
ENDBRANCH   28   27
BRANCH   32   33
ATOM     33  C25 UNL A   1      27.673 -14.318  37.130  1.00  0.00    +0.000 C 
ATOM     34  C26 UNL A   1      28.687 -13.726  37.898  1.00  0.00    +0.000 C 
ATOM     35  F1  UNL A   1      29.320 -12.632  37.450  1.00  0.00    +0.000 F 
ATOM     36  C27 UNL A   1      29.082 -14.282  39.112  1.00  0.00    +0.000 C 
ATOM     37  F2  UNL A   1      30.088 -13.728  39.804  1.00  0.00    +0.000 F 
ATOM     38  C28 UNL A   1      28.451 -15.417  39.597  1.00  0.00    +0.000 C 
ATOM     39  F3  UNL A   1      28.832 -15.949  40.767  1.00  0.00    +0.000 F 
ATOM     40  C29 UNL A   1      27.430 -16.005  38.867  1.00  0.00    +0.000 C 
ATOM     41  F4  UNL A   1      26.811 -17.096  39.339  1.00  0.00    +0.000 F 
ATOM     42  C30 UNL A   1      27.051 -15.468  37.639  1.00  0.00    +0.000 C 
ATOM     43  F5  UNL A   1      26.073 -16.071  36.947  1.00  0.00    +0.000 F 
ENDBRANCH   32   33
BRANCH   49   50
ATOM     50  C36 UNL A   1      22.340 -10.185  34.591  1.00  0.00    +0.000 C 
ATOM     51  C37 UNL A   1      21.044 -10.717  34.517  1.00  0.00    +0.000 C 
ATOM     52  F6  UNL A   1      20.832 -11.896  33.910  1.00  0.00    +0.000 F 
ATOM     53  C38 UNL A   1      19.955 -10.023  35.036  1.00  0.00    +0.000 C 
ATOM     54  F7  UNL A   1      18.721 -10.533  34.918  1.00  0.00    +0.000 F 
ATOM     55  C39 UNL A   1      20.143  -8.801  35.664  1.00  0.00    +0.000 C 
ATOM     56  F8  UNL A   1      19.094  -8.138  36.169  1.00  0.00    +0.000 F 
ATOM     57  C40 UNL A   1      21.417  -8.263  35.761  1.00  0.00    +0.000 C 
ATOM     58  F9  UNL A   1      21.601  -7.087  36.376  1.00  0.00    +0.000 F 
ATOM     59  C41 UNL A   1      22.505  -8.942  35.220  1.00  0.00    +0.000 C 
ATOM     60  F10 UNL A   1      23.724  -8.393  35.320  1.00  0.00    +0.000 F 
ENDBRANCH   49   50
BRANCH   64   65
ATOM     65  C45 UNL A   1      24.757 -11.181  28.131  1.00  0.00    +0.000 C 
ATOM     66  C46 UNL A   1      25.106  -9.939  27.584  1.00  0.00    +0.000 C 
ATOM     67  F11 UNL A   1      25.838  -9.075  28.303  1.00  0.00    +0.000 F 
ATOM     68  C47 UNL A   1      24.681  -9.569  26.310  1.00  0.00    +0.000 C 
ATOM     69  F12 UNL A   1      25.004  -8.364  25.822  1.00  0.00    +0.000 F 
ATOM     70  C48 UNL A   1      23.920 -10.444  25.549  1.00  0.00    +0.000 C 
ATOM     71  F13 UNL A   1      23.521 -10.093  24.320  1.00  0.00    +0.000 F 
ATOM     72  C49 UNL A   1      23.568 -11.682  26.068  1.00  0.00    +0.000 C 
ATOM     73  F14 UNL A   1      22.843 -12.535  25.332  1.00  0.00    +0.000 F 
ATOM     74  C50 UNL A   1      23.972 -12.043  27.351  1.00  0.00    +0.000 C 
ATOM     75  F15 UNL A   1      23.616 -13.245  27.829  1.00  0.00    +0.000 F 
ENDBRANCH   64   65
TORSDOF 23
ENDMDL
