MODEL 1
REMARK VINA RESULT:     -11.6      0.000      0.000
ROOT
ATOM     34  C25 UNL A   1      38.001  29.997  29.715  1.00  0.00    +0.000 C 
ATOM     35  C26 UNL A   1      38.227  30.536  31.102  1.00  0.00    +0.000 C 
ATOM     36  N4  UNL A   1      39.247  30.356  31.903  1.00  0.00    +0.000 N 
ATOM     37  C27 UNL A   1      38.964  31.092  33.046  1.00  0.00    +0.000 C 
ATOM     38  C28 UNL A   1      39.672  31.170  34.197  1.00  0.00    +0.000 C 
ATOM     50  C35 UNL A   1      40.901  30.464  34.439  1.00  0.00    +0.000 C 
ATOM     51  C36 UNL A   1      41.668  30.444  35.591  1.00  0.00    +0.000 C 
ATOM     52  C37 UNL A   1      42.788  29.643  35.355  1.00  0.00    +0.000 C 
ATOM     53  C38 UNL A   1      42.695  29.128  34.072  1.00  0.00    +0.000 C 
ATOM     54  N5  UNL A   1      41.536  29.646  33.518  1.00  0.00    +0.000 N 
ATOM     55  C39 UNL A   1      43.601  28.232  33.402  1.00  0.00    +0.000 C 
ATOM     67  C46 UNL A   1      43.448  27.774  32.136  1.00  0.00    +0.000 C 
ATOM     68  N6  UNL A   1      42.422  28.027  31.237  1.00  0.00    +0.000 N 
ATOM     69  C47 UNL A   1      42.729  27.371  30.145  1.00  0.00    +0.000 C 
ATOM     70  C48 UNL A   1      41.957  27.260  28.858  1.00  0.00    +0.000 C 
ATOM     82  C55 UNL A   1      40.790  27.922  28.728  1.00  0.00    +0.000 C 
ATOM     83  C56 UNL A   1      39.920  27.888  27.556  1.00  0.00    +0.000 C 
ATOM     84  C57 UNL A   1      38.844  28.659  27.784  1.00  0.00    +0.000 C 
ATOM     85  C58 UNL A   1      38.934  29.217  29.134  1.00  0.00    +0.000 C 
ATOM     86  N7  UNL A   1      40.136  28.751  29.607  1.00  0.00    +0.000 N 
ATOM     87  C59 UNL A   1      44.006  26.646  30.221  1.00  0.00    +0.000 C 
ATOM     88  C60 UNL A   1      44.384  26.893  31.469  1.00  0.00    +0.000 C 
ATOM     89  C61 UNL A   1      37.708  31.768  32.819  1.00  0.00    +0.000 C 
ATOM     90  C62 UNL A   1      37.178  31.407  31.659  1.00  0.00    +0.000 C 
ATOM    117  H25 UNL A   1      41.451  30.935  36.472  1.00  0.00    +0.000 H 
ATOM    118  H26 UNL A   1      43.555  29.465  36.023  1.00  0.00    +0.000 H 
ATOM    119  H27 UNL A   1      41.213  29.461  32.607  1.00  0.00    +0.000 H 
ATOM    120  H28 UNL A   1      40.102  27.356  26.691  1.00  0.00    +0.000 H 
ATOM    121  H29 UNL A   1      38.077  28.829  27.116  1.00  0.00    +0.000 H 
ATOM    122  H30 UNL A   1      40.493  28.987  30.493  1.00  0.00    +0.000 H 
ATOM    123  H31 UNL A   1      44.484  26.091  29.495  1.00  0.00    +0.000 H 
ATOM    124  H32 UNL A   1      45.235  26.509  31.907  1.00  0.00    +0.000 H 
ATOM    125  H33 UNL A   1      37.279  32.443  33.472  1.00  0.00    +0.000 H 
ATOM    126  H34 UNL A   1      36.267  31.669  31.252  1.00  0.00    +0.000 H 
ENDROOT
BRANCH   34   33
ATOM     33  C24 UNL A   1      36.751  30.329  28.983  1.00  0.00    +0.000 C 
ATOM    127  H35 UNL A   1      37.292  32.332  28.573  1.00  0.00    +0.000 H 
ATOM    115  H23 UNL A   1      33.826  28.973  28.025  1.00  0.00    +0.000 H 
ATOM    116  H24 UNL A   1      35.877  28.414  29.192  1.00  0.00    +0.000 H 
ATOM     91  C63 UNL A   1      36.542  31.627  28.496  1.00  0.00    +0.000 C 
ATOM     92  C64 UNL A   1      35.326  31.971  27.905  1.00  0.00    +0.000 C 
ATOM     32  C23 UNL A   1      35.741  29.367  28.822  1.00  0.00    +0.000 C 
ATOM     30  C21 UNL A   1      34.348  30.994  27.694  1.00  0.00    +0.000 C 
ATOM     31  C22 UNL A   1      34.553  29.693  28.164  1.00  0.00    +0.000 C 
ATOM    128  H36 UNL A   1      35.148  32.947  27.624  1.00  0.00    +0.000 H 
BRANCH   30    2
ATOM      1  O1  UNL A   1      32.588  32.442  27.143  1.00  0.00    +0.000 O 
ATOM      2  C1  UNL A   1      33.056  31.311  27.041  1.00  0.00    +0.000 C 
BRANCH    2    3
ATOM      3  N1  UNL A   1      32.374  30.355  26.335  1.00  0.00    +0.000 N 
ATOM     93  H1  UNL A   1      31.452  30.191  26.638  1.00  0.00    +0.000 H 
BRANCH    3    4
ATOM      4  C2  UNL A   1      32.805  29.547  25.209  1.00  0.00    +0.000 C 
ATOM     94  H2  UNL A   1      33.843  29.733  25.031  1.00  0.00    +0.000 H 
ATOM     95  H3  UNL A   1      32.206  29.820  24.365  1.00  0.00    +0.000 H 
BRANCH    4    5
ATOM     97  H5  UNL A   1      32.392  27.951  26.495  1.00  0.00    +0.000 H 
ATOM      5  C3  UNL A   1      32.610  28.054  25.452  1.00  0.00    +0.000 C 
ATOM     96  H4  UNL A   1      31.820  27.716  24.813  1.00  0.00    +0.000 H 
BRANCH    5    6
ATOM     98  H6  UNL A   1      34.699  27.706  25.543  1.00  0.00    +0.000 H 
ATOM     99  H7  UNL A   1      33.845  26.997  24.134  1.00  0.00    +0.000 H 
ATOM      6  C4  UNL A   1      33.838  27.180  25.188  1.00  0.00    +0.000 C 
BRANCH    6    7
ATOM    100  H8  UNL A   1      32.849  25.379  25.714  1.00  0.00    +0.000 H 
ATOM    101  H9  UNL A   1      34.084  25.964  26.875  1.00  0.00    +0.000 H 
ATOM      7  C5  UNL A   1      33.824  25.800  25.851  1.00  0.00    +0.000 C 
BRANCH    7    8
ATOM    102  H10 UNL A   1      35.692  24.800  25.972  1.00  0.00    +0.000 H 
ATOM    103  H11 UNL A   1      35.082  25.117  24.318  1.00  0.00    +0.000 H 
ATOM      8  C6  UNL A   1      34.848  24.797  25.313  1.00  0.00    +0.000 C 
BRANCH    8    9
ATOM      9  C7  UNL A   1      34.349  23.361  25.190  1.00  0.00    +0.000 C 
ATOM    105  H13 UNL A   1      35.069  22.722  25.660  1.00  0.00    +0.000 H 
ATOM    104  H12 UNL A   1      33.394  23.286  25.666  1.00  0.00    +0.000 H 
BRANCH    9   10
ATOM     10  N2  UNL A   1      34.219  22.942  23.808  1.00  0.00    +0.000 N 
ATOM    106  H14 UNL A   1      35.027  22.558  23.397  1.00  0.00    +0.000 H 
BRANCH   10   11
ATOM     11  C8  UNL A   1      33.112  23.016  22.999  1.00  0.00    +0.000 C 
ATOM     12  O2  UNL A   1      32.751  22.040  22.346  1.00  0.00    +0.000 O 
BRANCH   11   13
ATOM    107  H15 UNL A   1      33.568  25.176  21.572  1.00  0.00    +0.000 H 
ATOM    108  H16 UNL A   1      32.255  27.213  21.415  1.00  0.00    +0.000 H 
ATOM     13  C9  UNL A   1      32.297  24.246  22.981  1.00  0.00    +0.000 C 
ATOM     14  C10 UNL A   1      32.707  25.281  22.133  1.00  0.00    +0.000 C 
ATOM     15  C11 UNL A   1      31.954  26.453  22.045  1.00  0.00    +0.000 C 
ATOM     16  C12 UNL A   1      30.790  26.601  22.812  1.00  0.00    +0.000 C 
ATOM    113  H21 UNL A   1      29.556  25.682  24.266  1.00  0.00    +0.000 H 
ATOM     27  C19 UNL A   1      30.404  25.573  23.687  1.00  0.00    +0.000 C 
ATOM     28  C20 UNL A   1      31.161  24.405  23.779  1.00  0.00    +0.000 C 
BRANCH   16   17
ATOM    109  H17 UNL A   1      31.473  29.173  22.025  1.00  0.00    +0.000 H 
ATOM    110  H18 UNL A   1      30.130  31.110  22.107  1.00  0.00    +0.000 H 
ATOM    112  H20 UNL A   1      28.264  26.809  23.338  1.00  0.00    +0.000 H 
ATOM     17  C13 UNL A   1      29.953  27.811  22.721  1.00  0.00    +0.000 C 
ATOM     18  C14 UNL A   1      30.490  29.102  22.333  1.00  0.00    +0.000 C 
ATOM     19  C15 UNL A   1      29.725  30.198  22.371  1.00  0.00    +0.000 C 
ATOM     20  N3  UNL A   1      28.401  30.127  22.760  1.00  0.00    +0.000 N 
ATOM     24  C17 UNL A   1      27.789  28.934  23.110  1.00  0.00    +0.000 C 
ATOM     25  O3  UNL A   1      26.619  28.803  23.453  1.00  0.00    +0.000 O 
ATOM     26  C18 UNL A   1      28.659  27.726  23.080  1.00  0.00    +0.000 C 
BRANCH   20   21
ATOM     21  C16 UNL A   1      27.600  31.321  22.841  1.00  0.00    +0.000 C 
ATOM     22  F1  UNL A   1      27.254  31.596  24.122  1.00  0.00    +0.000 F 
ATOM    111  H19 UNL A   1      26.718  31.144  22.261  1.00  0.00    +0.000 H 
ATOM     23  F2  UNL A   1      28.275  32.389  22.348  1.00  0.00    +0.000 F 
ENDBRANCH   20   21
ENDBRANCH   16   17
BRANCH   28   29
ATOM    114  H22 UNL A   1      31.151  22.565  24.579  1.00  0.00    +0.000 H 
ATOM     29  O4  UNL A   1      30.774  23.419  24.644  1.00  0.00    +0.000 O 
ENDBRANCH   28   29
ENDBRANCH   11   13
ENDBRANCH   10   11
ENDBRANCH    9   10
ENDBRANCH    8    9
ENDBRANCH    7    8
ENDBRANCH    6    7
ENDBRANCH    5    6
ENDBRANCH    4    5
ENDBRANCH    3    4
ENDBRANCH    2    3
ENDBRANCH   30    2
ENDBRANCH   34   33
BRANCH   38   39
ATOM     39  C29 UNL A   1      39.130  32.024  35.304  1.00  0.00    +0.000 C 
ATOM     40  C30 UNL A   1      38.357  31.472  36.336  1.00  0.00    +0.000 C 
ATOM     41  F3  UNL A   1      38.006  30.178  36.300  1.00  0.00    +0.000 F 
ATOM     42  C31 UNL A   1      37.930  32.254  37.406  1.00  0.00    +0.000 C 
ATOM     43  F4  UNL A   1      37.171  31.712  38.369  1.00  0.00    +0.000 F 
ATOM     44  C32 UNL A   1      38.288  33.592  37.478  1.00  0.00    +0.000 C 
ATOM     45  F5  UNL A   1      37.895  34.337  38.520  1.00  0.00    +0.000 F 
ATOM     46  C33 UNL A   1      39.054  34.157  36.469  1.00  0.00    +0.000 C 
ATOM     47  F6  UNL A   1      39.415  35.446  36.544  1.00  0.00    +0.000 F 
ATOM     48  C34 UNL A   1      39.461  33.384  35.384  1.00  0.00    +0.000 C 
ATOM     49  F7  UNL A   1      40.203  33.958  34.425  1.00  0.00    +0.000 F 
ENDBRANCH   38   39
BRANCH   55   56
ATOM     65  C45 UNL A   1      46.012  28.480  34.085  1.00  0.00    +0.000 C 
ATOM     66  F12 UNL A   1      46.080  29.618  33.379  1.00  0.00    +0.000 F 
ATOM     56  C40 UNL A   1      44.802  27.775  34.176  1.00  0.00    +0.000 C 
ATOM     57  C41 UNL A   1      44.785  26.585  34.916  1.00  0.00    +0.000 C 
ATOM     58  F8  UNL A   1      43.648  25.884  35.039  1.00  0.00    +0.000 F 
ATOM     59  C42 UNL A   1      45.938  26.117  35.540  1.00  0.00    +0.000 C 
ATOM     60  F9  UNL A   1      45.895  24.987  36.258  1.00  0.00    +0.000 F 
ATOM     61  C43 UNL A   1      47.130  26.815  35.416  1.00  0.00    +0.000 C 
ATOM     62  F10 UNL A   1      48.244  26.348  35.995  1.00  0.00    +0.000 F 
ATOM     63  C44 UNL A   1      47.169  27.995  34.688  1.00  0.00    +0.000 C 
ATOM     64  F11 UNL A   1      48.323  28.661  34.552  1.00  0.00    +0.000 F 
ENDBRANCH   55   56
BRANCH   70   71
ATOM     71  C49 UNL A   1      42.447  26.401  27.748  1.00  0.00    +0.000 C 
ATOM     72  C50 UNL A   1      42.017  25.072  27.623  1.00  0.00    +0.000 C 
ATOM     73  F13 UNL A   1      41.171  24.556  28.527  1.00  0.00    +0.000 F 
ATOM     74  C51 UNL A   1      42.479  24.258  26.591  1.00  0.00    +0.000 C 
ATOM     75  F14 UNL A   1      42.082  22.981  26.519  1.00  0.00    +0.000 F 
ATOM     76  C52 UNL A   1      43.360  24.764  25.647  1.00  0.00    +0.000 C 
ATOM     77  F15 UNL A   1      43.798  23.984  24.650  1.00  0.00    +0.000 F 
ATOM     78  C53 UNL A   1      43.790  26.079  25.742  1.00  0.00    +0.000 C 
ATOM     79  F16 UNL A   1      44.629  26.576  24.823  1.00  0.00    +0.000 F 
ATOM     80  C54 UNL A   1      43.348  26.886  26.789  1.00  0.00    +0.000 C 
ATOM     81  F17 UNL A   1      43.789  28.150  26.860  1.00  0.00    +0.000 F 
ENDBRANCH   70   71
TORSDOF 18
ENDMDL
MODEL 2
REMARK VINA RESULT:     -11.2     17.927     22.818
ROOT
ATOM     34  C25 UNL A   1      25.675  35.520  45.448  1.00  0.00    +0.000 C 
ATOM     35  C26 UNL A   1      25.457  36.671  46.392  1.00  0.00    +0.000 C 
ATOM     36  N4  UNL A   1      26.266  37.653  46.701  1.00  0.00    +0.000 N 
ATOM     37  C27 UNL A   1      25.568  38.453  47.595  1.00  0.00    +0.000 C 
ATOM     38  C28 UNL A   1      25.998  39.549  48.262  1.00  0.00    +0.000 C 
ATOM     50  C35 UNL A   1      27.323  40.095  48.150  1.00  0.00    +0.000 C 
ATOM     51  C36 UNL A   1      27.867  41.176  48.821  1.00  0.00    +0.000 C 
ATOM     52  C37 UNL A   1      29.177  41.355  48.370  1.00  0.00    +0.000 C 
ATOM     53  C38 UNL A   1      29.464  40.358  47.452  1.00  0.00    +0.000 C 
ATOM     54  N5  UNL A   1      28.315  39.596  47.320  1.00  0.00    +0.000 N 
ATOM     55  C39 UNL A   1      30.695  40.122  46.746  1.00  0.00    +0.000 C 
ATOM     67  C46 UNL A   1      30.902  39.125  45.852  1.00  0.00    +0.000 C 
ATOM     68  N6  UNL A   1      30.026  38.130  45.441  1.00  0.00    +0.000 N 
ATOM     69  C47 UNL A   1      30.680  37.416  44.558  1.00  0.00    +0.000 C 
ATOM     70  C48 UNL A   1      30.230  36.190  43.809  1.00  0.00    +0.000 C 
ATOM     82  C55 UNL A   1      28.983  35.718  44.005  1.00  0.00    +0.000 C 
ATOM     83  C56 UNL A   1      28.416  34.528  43.375  1.00  0.00    +0.000 C 
ATOM     84  C57 UNL A   1      27.156  34.358  43.810  1.00  0.00    +0.000 C 
ATOM     85  C58 UNL A   1      26.837  35.411  44.774  1.00  0.00    +0.000 C 
ATOM     86  N7  UNL A   1      27.969  36.189  44.804  1.00  0.00    +0.000 N 
ATOM     87  C59 UNL A   1      32.042  37.899  44.288  1.00  0.00    +0.000 C 
ATOM     88  C60 UNL A   1      32.140  38.919  45.131  1.00  0.00    +0.000 C 
ATOM     89  C61 UNL A   1      24.249  37.880  47.740  1.00  0.00    +0.000 C 
ATOM     90  C62 UNL A   1      24.151  36.741  47.069  1.00  0.00    +0.000 C 
ATOM    117  H25 UNL A   1      27.388  41.751  49.531  1.00  0.00    +0.000 H 
ATOM    118  H26 UNL A   1      29.822  42.104  48.670  1.00  0.00    +0.000 H 
ATOM    119  H27 UNL A   1      28.217  38.817  46.726  1.00  0.00    +0.000 H 
ATOM    120  H28 UNL A   1      28.906  33.916  42.705  1.00  0.00    +0.000 H 
ATOM    121  H29 UNL A   1      26.517  33.606  43.511  1.00  0.00    +0.000 H 
ATOM    122  H30 UNL A   1      28.045  37.006  45.347  1.00  0.00    +0.000 H 
ATOM    123  H31 UNL A   1      32.739  37.540  43.619  1.00  0.00    +0.000 H 
ATOM    124  H32 UNL A   1      32.988  39.492  45.256  1.00  0.00    +0.000 H 
ATOM    125  H33 UNL A   1      23.485  38.301  48.292  1.00  0.00    +0.000 H 
ATOM    126  H34 UNL A   1      23.363  36.076  47.031  1.00  0.00    +0.000 H 
ENDROOT
BRANCH   34   33
ATOM     33  C24 UNL A   1      24.607  34.504  45.255  1.00  0.00    +0.000 C 
ATOM    127  H35 UNL A   1      25.175  33.309  46.904  1.00  0.00    +0.000 H 
ATOM    115  H23 UNL A   1      22.031  33.751  43.229  1.00  0.00    +0.000 H 
ATOM    116  H24 UNL A   1      23.750  35.430  43.557  1.00  0.00    +0.000 H 
ATOM     91  C63 UNL A   1      24.536  33.386  46.098  1.00  0.00    +0.000 C 
ATOM     92  C64 UNL A   1      23.604  32.377  45.853  1.00  0.00    +0.000 C 
ATOM     32  C23 UNL A   1      23.695  34.620  44.194  1.00  0.00    +0.000 C 
ATOM     30  C21 UNL A   1      22.661  32.527  44.832  1.00  0.00    +0.000 C 
ATOM     31  C22 UNL A   1      22.715  33.646  43.995  1.00  0.00    +0.000 C 
ATOM    128  H36 UNL A   1      23.612  31.520  46.426  1.00  0.00    +0.000 H 
BRANCH   30    2
ATOM      1  O1  UNL A   1      21.871  30.319  44.830  1.00  0.00    +0.000 O 
ATOM      2  C1  UNL A   1      21.634  31.494  44.560  1.00  0.00    +0.000 C 
BRANCH    2    3
ATOM      3  N1  UNL A   1      20.429  31.832  44.002  1.00  0.00    +0.000 N 
ATOM     93  H1  UNL A   1      20.360  31.678  43.032  1.00  0.00    +0.000 H 
BRANCH    3    4
ATOM      4  C2  UNL A   1      19.239  32.384  44.624  1.00  0.00    +0.000 C 
ATOM     94  H2  UNL A   1      19.450  32.580  45.654  1.00  0.00    +0.000 H 
ATOM     95  H3  UNL A   1      18.452  31.668  44.512  1.00  0.00    +0.000 H 
BRANCH    4    5
ATOM     97  H5  UNL A   1      19.594  34.370  44.073  1.00  0.00    +0.000 H 
ATOM      5  C3  UNL A   1      18.783  33.681  43.963  1.00  0.00    +0.000 C 
ATOM     96  H4  UNL A   1      18.540  33.464  42.943  1.00  0.00    +0.000 H 
BRANCH    5    6
ATOM     98  H6  UNL A   1      17.780  35.397  44.699  1.00  0.00    +0.000 H 
ATOM     99  H7  UNL A   1      17.420  33.855  45.542  1.00  0.00    +0.000 H 
ATOM      6  C4  UNL A   1      17.568  34.353  44.606  1.00  0.00    +0.000 C 
BRANCH    6    7
ATOM    100  H8  UNL A   1      16.444  34.395  42.809  1.00  0.00    +0.000 H 
ATOM    101  H9  UNL A   1      15.573  34.905  44.291  1.00  0.00    +0.000 H 
ATOM      7  C5  UNL A   1      16.248  34.206  43.843  1.00  0.00    +0.000 C 
BRANCH    7    8
ATOM    102  H10 UNL A   1      14.521  33.000  44.095  1.00  0.00    +0.000 H 
ATOM    103  H11 UNL A   1      16.040  32.338  44.773  1.00  0.00    +0.000 H 
ATOM      8  C6  UNL A   1      15.569  32.839  43.953  1.00  0.00    +0.000 C 
BRANCH    8    9
ATOM      9  C7  UNL A   1      15.746  31.927  42.743  1.00  0.00    +0.000 C 
ATOM    105  H13 UNL A   1      15.084  32.269  41.974  1.00  0.00    +0.000 H 
ATOM    104  H12 UNL A   1      16.767  31.971  42.425  1.00  0.00    +0.000 H 
BRANCH    9   10
ATOM     10  N2  UNL A   1      15.407  30.548  43.040  1.00  0.00    +0.000 N 
ATOM    106  H14 UNL A   1      14.471  30.382  43.298  1.00  0.00    +0.000 H 
BRANCH   10   11
ATOM     11  C8  UNL A   1      16.226  29.447  43.010  1.00  0.00    +0.000 C 
ATOM     12  O2  UNL A   1      17.415  29.546  43.303  1.00  0.00    +0.000 O 
BRANCH   11   13
ATOM    107  H15 UNL A   1      15.589  28.514  40.636  1.00  0.00    +0.000 H 
ATOM    108  H16 UNL A   1      14.722  26.328  40.031  1.00  0.00    +0.000 H 
ATOM     13  C9  UNL A   1      15.658  28.118  42.710  1.00  0.00    +0.000 C 
ATOM     14  C10 UNL A   1      15.405  27.811  41.369  1.00  0.00    +0.000 C 
ATOM     15  C11 UNL A   1      14.904  26.555  41.021  1.00  0.00    +0.000 C 
ATOM     16  C12 UNL A   1      14.645  25.602  42.016  1.00  0.00    +0.000 C 
ATOM    113  H21 UNL A   1      14.664  25.237  44.100  1.00  0.00    +0.000 H 
ATOM     27  C19 UNL A   1      14.868  25.930  43.362  1.00  0.00    +0.000 C 
ATOM     28  C20 UNL A   1      15.361  27.187  43.709  1.00  0.00    +0.000 C 
BRANCH   16   17
ATOM    109  H17 UNL A   1      13.875  23.532  43.697  1.00  0.00    +0.000 H 
ATOM    110  H18 UNL A   1      13.286  21.329  43.094  1.00  0.00    +0.000 H 
ATOM    112  H20 UNL A   1      14.246  24.610  39.658  1.00  0.00    +0.000 H 
ATOM     17  C13 UNL A   1      14.145  24.254  41.683  1.00  0.00    +0.000 C 
ATOM     18  C14 UNL A   1      13.832  23.268  42.700  1.00  0.00    +0.000 C 
ATOM     19  C15 UNL A   1      13.489  22.022  42.357  1.00  0.00    +0.000 C 
ATOM     20  N3  UNL A   1      13.404  21.648  41.030  1.00  0.00    +0.000 N 
ATOM     24  C17 UNL A   1      13.646  22.530  39.989  1.00  0.00    +0.000 C 
ATOM     25  O3  UNL A   1      13.578  22.265  38.794  1.00  0.00    +0.000 O 
ATOM     26  C18 UNL A   1      14.045  23.909  40.387  1.00  0.00    +0.000 C 
BRANCH   20   21
ATOM     21  C16 UNL A   1      13.079  20.291  40.673  1.00  0.00    +0.000 C 
ATOM     22  F1  UNL A   1      13.596  19.411  41.564  1.00  0.00    +0.000 F 
ATOM    111  H19 UNL A   1      13.501  20.114  39.706  1.00  0.00    +0.000 H 
ATOM     23  F2  UNL A   1      11.735  20.111  40.634  1.00  0.00    +0.000 F 
ENDBRANCH   20   21
ENDBRANCH   16   17
BRANCH   28   29
ATOM    114  H22 UNL A   1      16.147  26.971  45.543  1.00  0.00    +0.000 H 
ATOM     29  O4  UNL A   1      15.563  27.491  45.027  1.00  0.00    +0.000 O 
ENDBRANCH   28   29
ENDBRANCH   11   13
ENDBRANCH   10   11
ENDBRANCH    9   10
ENDBRANCH    8    9
ENDBRANCH    7    8
ENDBRANCH    6    7
ENDBRANCH    5    6
ENDBRANCH    4    5
ENDBRANCH    3    4
ENDBRANCH    2    3
ENDBRANCH   30    2
ENDBRANCH   34   33
BRANCH   38   39
ATOM     39  C29 UNL A   1      25.044  40.224  49.202  1.00  0.00    +0.000 C 
ATOM     40  C30 UNL A   1      24.989  39.873  50.558  1.00  0.00    +0.000 C 
ATOM     41  F3  UNL A   1      25.726  38.853  51.023  1.00  0.00    +0.000 F 
ATOM     42  C31 UNL A   1      24.164  40.563  51.443  1.00  0.00    +0.000 C 
ATOM     43  F4  UNL A   1      24.108  40.194  52.730  1.00  0.00    +0.000 F 
ATOM     44  C32 UNL A   1      23.399  41.630  50.995  1.00  0.00    +0.000 C 
ATOM     45  F5  UNL A   1      22.623  42.307  51.852  1.00  0.00    +0.000 F 
ATOM     46  C33 UNL A   1      23.441  41.995  49.657  1.00  0.00    +0.000 C 
ATOM     47  F6  UNL A   1      22.715  43.036  49.225  1.00  0.00    +0.000 F 
ATOM     48  C34 UNL A   1      24.245  41.291  48.765  1.00  0.00    +0.000 C 
ATOM     49  F7  UNL A   1      24.266  41.669  47.478  1.00  0.00    +0.000 F 
ENDBRANCH   38   39
BRANCH   55   56
ATOM     65  C45 UNL A   1      31.894  42.310  46.402  1.00  0.00    +0.000 C 
ATOM     66  F12 UNL A   1      30.891  42.719  45.611  1.00  0.00    +0.000 F 
ATOM     56  C40 UNL A   1      31.833  41.057  47.032  1.00  0.00    +0.000 C 
ATOM     57  C41 UNL A   1      32.911  40.671  47.839  1.00  0.00    +0.000 C 
ATOM     58  F8  UNL A   1      32.891  39.487  48.470  1.00  0.00    +0.000 F 
ATOM     59  C42 UNL A   1      34.011  41.507  48.008  1.00  0.00    +0.000 C 
ATOM     60  F9  UNL A   1      35.022  41.127  48.800  1.00  0.00    +0.000 F 
ATOM     61  C43 UNL A   1      34.064  42.730  47.356  1.00  0.00    +0.000 C 
ATOM     62  F10 UNL A   1      35.135  43.522  47.499  1.00  0.00    +0.000 F 
ATOM     63  C44 UNL A   1      33.007  43.132  46.552  1.00  0.00    +0.000 C 
ATOM     64  F11 UNL A   1      33.064  44.305  45.908  1.00  0.00    +0.000 F 
ENDBRANCH   55   56
BRANCH   70   71
ATOM     71  C49 UNL A   1      31.155  35.476  42.891  1.00  0.00    +0.000 C 
ATOM     72  C50 UNL A   1      31.892  34.367  43.331  1.00  0.00    +0.000 C 
ATOM     73  F13 UNL A   1      31.783  33.954  44.603  1.00  0.00    +0.000 F 
ATOM     74  C51 UNL A   1      32.769  33.699  42.478  1.00  0.00    +0.000 C 
ATOM     75  F14 UNL A   1      33.489  32.667  42.937  1.00  0.00    +0.000 F 
ATOM     76  C52 UNL A   1      32.906  34.109  41.161  1.00  0.00    +0.000 C 
ATOM     77  F15 UNL A   1      33.742  33.462  40.339  1.00  0.00    +0.000 F 
ATOM     78  C53 UNL A   1      32.177  35.196  40.699  1.00  0.00    +0.000 C 
ATOM     79  F16 UNL A   1      32.296  35.586  39.423  1.00  0.00    +0.000 F 
ATOM     80  C54 UNL A   1      31.321  35.881  41.558  1.00  0.00    +0.000 C 
ATOM     81  F17 UNL A   1      30.638  36.934  41.086  1.00  0.00    +0.000 F 
ENDBRANCH   70   71
TORSDOF 18
ENDMDL
MODEL 3
REMARK VINA RESULT:     -11.1      4.472     10.127
ROOT
ATOM     34  C25 UNL A   1      41.206  26.107  27.512  1.00  0.00    +0.000 C 
ATOM     35  C26 UNL A   1      42.631  26.339  27.085  1.00  0.00    +0.000 C 
ATOM     36  N4  UNL A   1      43.428  27.338  27.371  1.00  0.00    +0.000 N 
ATOM     37  C27 UNL A   1      44.635  27.050  26.748  1.00  0.00    +0.000 C 
ATOM     38  C28 UNL A   1      45.753  27.809  26.681  1.00  0.00    +0.000 C 
ATOM     50  C35 UNL A   1      45.882  29.112  27.274  1.00  0.00    +0.000 C 
ATOM     51  C36 UNL A   1      46.960  29.978  27.221  1.00  0.00    +0.000 C 
ATOM     52  C37 UNL A   1      46.643  31.116  27.966  1.00  0.00    +0.000 C 
ATOM     53  C38 UNL A   1      45.350  30.979  28.445  1.00  0.00    +0.000 C 
ATOM     54  N5  UNL A   1      44.898  29.741  28.020  1.00  0.00    +0.000 N 
ATOM     55  C39 UNL A   1      44.588  31.909  29.236  1.00  0.00    +0.000 C 
ATOM     67  C46 UNL A   1      43.324  31.702  29.677  1.00  0.00    +0.000 C 
ATOM     68  N6  UNL A   1      42.496  30.609  29.464  1.00  0.00    +0.000 N 
ATOM     69  C47 UNL A   1      41.382  30.871  30.102  1.00  0.00    +0.000 C 
ATOM     70  C48 UNL A   1      40.122  30.051  30.186  1.00  0.00    +0.000 C 
ATOM     82  C55 UNL A   1      40.070  28.856  29.564  1.00  0.00    +0.000 C 
ATOM     83  C56 UNL A   1      38.913  27.965  29.532  1.00  0.00    +0.000 C 
ATOM     84  C57 UNL A   1      39.220  26.871  28.816  1.00  0.00    +0.000 C 
ATOM     85  C58 UNL A   1      40.588  26.999  28.311  1.00  0.00    +0.000 C 
ATOM     86  N7  UNL A   1      41.024  28.193  28.830  1.00  0.00    +0.000 N 
ATOM     87  C59 UNL A   1      41.389  32.155  30.818  1.00  0.00    +0.000 C 
ATOM     88  C60 UNL A   1      42.582  32.639  30.495  1.00  0.00    +0.000 C 
ATOM     89  C61 UNL A   1      44.491  25.758  26.116  1.00  0.00    +0.000 C 
ATOM     90  C62 UNL A   1      43.251  25.306  26.239  1.00  0.00    +0.000 C 
ATOM    117  H25 UNL A   1      47.846  29.812  26.718  1.00  0.00    +0.000 H 
ATOM    118  H26 UNL A   1      47.266  31.923  28.131  1.00  0.00    +0.000 H 
ATOM    119  H27 UNL A   1      44.010  29.364  28.218  1.00  0.00    +0.000 H 
ATOM    120  H28 UNL A   1      38.005  28.147  29.987  1.00  0.00    +0.000 H 
ATOM    121  H29 UNL A   1      38.593  26.070  28.649  1.00  0.00    +0.000 H 
ATOM    122  H30 UNL A   1      41.933  28.541  28.688  1.00  0.00    +0.000 H 
ATOM    123  H31 UNL A   1      40.660  32.571  31.417  1.00  0.00    +0.000 H 
ATOM    124  H32 UNL A   1      42.936  33.562  30.788  1.00  0.00    +0.000 H 
ATOM    125  H33 UNL A   1      45.252  25.254  25.634  1.00  0.00    +0.000 H 
ATOM    126  H34 UNL A   1      42.830  24.451  25.843  1.00  0.00    +0.000 H 
ENDROOT
BRANCH   34   33
ATOM     33  C24 UNL A   1      40.483  24.891  27.057  1.00  0.00    +0.000 C 
ATOM    127  H35 UNL A   1      39.047  25.938  25.910  1.00  0.00    +0.000 H 
ATOM    115  H23 UNL A   1      40.522  21.542  27.356  1.00  0.00    +0.000 H 
ATOM    116  H24 UNL A   1      41.728  23.518  28.077  1.00  0.00    +0.000 H 
ATOM     91  C63 UNL A   1      39.340  25.010  26.254  1.00  0.00    +0.000 C 
ATOM     92  C64 UNL A   1      38.596  23.879  25.915  1.00  0.00    +0.000 C 
ATOM     32  C23 UNL A   1      40.898  23.616  27.472  1.00  0.00    +0.000 C 
ATOM     30  C21 UNL A   1      39.048  22.608  26.281  1.00  0.00    +0.000 C 
ATOM     31  C22 UNL A   1      40.195  22.478  27.070  1.00  0.00    +0.000 C 
ATOM    128  H36 UNL A   1      37.712  23.982  25.394  1.00  0.00    +0.000 H 
BRANCH   30    2
ATOM      1  O1  UNL A   1      38.925  20.388  25.535  1.00  0.00    +0.000 O 
ATOM      2  C1  UNL A   1      38.305  21.379  25.913  1.00  0.00    +0.000 C 
BRANCH    2    3
ATOM      3  N1  UNL A   1      36.937  21.340  25.977  1.00  0.00    +0.000 N 
ATOM     93  H1  UNL A   1      36.561  21.367  26.886  1.00  0.00    +0.000 H 
BRANCH    3    4
ATOM      4  C2  UNL A   1      35.959  21.265  24.908  1.00  0.00    +0.000 C 
ATOM     94  H2  UNL A   1      34.987  21.436  25.319  1.00  0.00    +0.000 H 
ATOM     95  H3  UNL A   1      36.034  20.292  24.467  1.00  0.00    +0.000 H 
BRANCH    4    5
ATOM     97  H5  UNL A   1      37.235  22.593  23.919  1.00  0.00    +0.000 H 
ATOM      5  C3  UNL A   1      36.214  22.291  23.809  1.00  0.00    +0.000 C 
ATOM     96  H4  UNL A   1      36.002  21.827  22.868  1.00  0.00    +0.000 H 
BRANCH    5    6
ATOM     98  H6  UNL A   1      34.407  23.360  23.515  1.00  0.00    +0.000 H 
ATOM     99  H7  UNL A   1      35.919  24.310  23.342  1.00  0.00    +0.000 H 
ATOM      6  C4  UNL A   1      35.382  23.572  23.902  1.00  0.00    +0.000 C 
BRANCH    6    7
ATOM    100  H8  UNL A   1      36.162  24.541  25.618  1.00  0.00    +0.000 H 
ATOM    101  H9  UNL A   1      34.854  23.351  25.916  1.00  0.00    +0.000 H 
ATOM      7  C5  UNL A   1      35.214  24.154  25.308  1.00  0.00    +0.000 C 
BRANCH    7    8
ATOM    102  H10 UNL A   1      34.646  26.095  25.951  1.00  0.00    +0.000 H 
ATOM    103  H11 UNL A   1      33.353  24.856  25.972  1.00  0.00    +0.000 H 
ATOM      8  C6  UNL A   1      34.182  25.277  25.441  1.00  0.00    +0.000 C 
BRANCH    8    9
ATOM      9  C7  UNL A   1      33.618  25.800  24.124  1.00  0.00    +0.000 C 
ATOM    105  H13 UNL A   1      34.017  26.780  23.962  1.00  0.00    +0.000 H 
ATOM    104  H12 UNL A   1      33.900  25.130  23.338  1.00  0.00    +0.000 H 
BRANCH    9   10
ATOM     10  N2  UNL A   1      32.172  25.907  24.150  1.00  0.00    +0.000 N 
ATOM    106  H14 UNL A   1      31.811  26.784  24.420  1.00  0.00    +0.000 H 
BRANCH   10   11
ATOM     11  C8  UNL A   1      31.243  24.942  23.851  1.00  0.00    +0.000 C 
ATOM     12  O2  UNL A   1      30.162  25.250  23.355  1.00  0.00    +0.000 O 
BRANCH   11   13
ATOM    107  H15 UNL A   1      31.944  23.232  21.981  1.00  0.00    +0.000 H 
ATOM    108  H16 UNL A   1      32.580  20.899  22.201  1.00  0.00    +0.000 H 
ATOM     13  C9  UNL A   1      31.576  23.518  24.042  1.00  0.00    +0.000 C 
ATOM     14  C10 UNL A   1      31.943  22.782  22.910  1.00  0.00    +0.000 C 
ATOM     15  C11 UNL A   1      32.305  21.439  23.036  1.00  0.00    +0.000 C 
ATOM     16  C12 UNL A   1      32.295  20.823  24.295  1.00  0.00    +0.000 C 
ATOM    113  H21 UNL A   1      31.868  21.106  26.348  1.00  0.00    +0.000 H 
ATOM     27  C19 UNL A   1      31.892  21.558  25.421  1.00  0.00    +0.000 C 
ATOM     28  C20 UNL A   1      31.523  22.897  25.293  1.00  0.00    +0.000 C 
BRANCH   16   17
ATOM    109  H17 UNL A   1      32.291  19.248  26.580  1.00  0.00    +0.000 H 
ATOM    110  H18 UNL A   1      33.156  17.068  26.830  1.00  0.00    +0.000 H 
ATOM    112  H20 UNL A   1      33.175  19.202  22.478  1.00  0.00    +0.000 H 
ATOM     17  C13 UNL A   1      32.703  19.416  24.470  1.00  0.00    +0.000 C 
ATOM     18  C14 UNL A   1      32.681  18.755  25.761  1.00  0.00    +0.000 C 
ATOM     19  C15 UNL A   1      33.164  17.516  25.900  1.00  0.00    +0.000 C 
ATOM     20  N3  UNL A   1      33.674  16.826  24.817  1.00  0.00    +0.000 N 
ATOM     24  C17 UNL A   1      33.699  17.359  23.538  1.00  0.00    +0.000 C 
ATOM     25  O3  UNL A   1      34.128  16.798  22.536  1.00  0.00    +0.000 O 
ATOM     26  C18 UNL A   1      33.176  18.747  23.403  1.00  0.00    +0.000 C 
BRANCH   20   21
ATOM     21  C16 UNL A   1      34.232  15.510  24.987  1.00  0.00    +0.000 C 
ATOM     22  F1  UNL A   1      35.466  15.567  25.543  1.00  0.00    +0.000 F 
ATOM    111  H19 UNL A   1      34.297  15.071  24.013  1.00  0.00    +0.000 H 
ATOM     23  F2  UNL A   1      33.443  14.751  25.787  1.00  0.00    +0.000 F 
ENDBRANCH   20   21
ENDBRANCH   16   17
BRANCH   28   29
ATOM    114  H22 UNL A   1      31.606  24.347  26.677  1.00  0.00    +0.000 H 
ATOM     29  O4  UNL A   1      31.124  23.593  26.400  1.00  0.00    +0.000 O 
ENDBRANCH   28   29
ENDBRANCH   11   13
ENDBRANCH   10   11
ENDBRANCH    9   10
ENDBRANCH    8    9
ENDBRANCH    7    8
ENDBRANCH    6    7
ENDBRANCH    5    6
ENDBRANCH    4    5
ENDBRANCH    3    4
ENDBRANCH    2    3
ENDBRANCH   30    2
ENDBRANCH   34   33
BRANCH   38   39
ATOM     39  C29 UNL A   1      46.925  27.273  25.914  1.00  0.00    +0.000 C 
ATOM     40  C30 UNL A   1      47.109  27.579  24.558  1.00  0.00    +0.000 C 
ATOM     41  F3  UNL A   1      46.180  28.281  23.892  1.00  0.00    +0.000 F 
ATOM     42  C31 UNL A   1      48.244  27.150  23.876  1.00  0.00    +0.000 C 
ATOM     43  F4  UNL A   1      48.387  27.432  22.573  1.00  0.00    +0.000 F 
ATOM     44  C32 UNL A   1      49.227  26.433  24.540  1.00  0.00    +0.000 C 
ATOM     45  F5  UNL A   1      50.330  26.041  23.887  1.00  0.00    +0.000 F 
ATOM     46  C33 UNL A   1      49.068  26.123  25.883  1.00  0.00    +0.000 C 
ATOM     47  F6  UNL A   1      50.024  25.443  26.531  1.00  0.00    +0.000 F 
ATOM     48  C34 UNL A   1      47.921  26.527  26.562  1.00  0.00    +0.000 C 
ATOM     49  F7  UNL A   1      47.796  26.214  27.860  1.00  0.00    +0.000 F 
ENDBRANCH   38   39
BRANCH   55   56
ATOM     65  C45 UNL A   1      45.958  33.332  30.799  1.00  0.00    +0.000 C 
ATOM     66  F12 UNL A   1      46.119  32.269  31.601  1.00  0.00    +0.000 F 
ATOM     56  C40 UNL A   1      45.254  33.206  29.591  1.00  0.00    +0.000 C 
ATOM     57  C41 UNL A   1      45.103  34.347  28.792  1.00  0.00    +0.000 C 
ATOM     58  F8  UNL A   1      44.448  34.271  27.624  1.00  0.00    +0.000 F 
ATOM     59  C42 UNL A   1      45.636  35.570  29.188  1.00  0.00    +0.000 C 
ATOM     60  F9  UNL A   1      45.497  36.645  28.401  1.00  0.00    +0.000 F 
ATOM     61  C43 UNL A   1      46.306  35.680  30.398  1.00  0.00    +0.000 C 
ATOM     62  F10 UNL A   1      46.794  36.864  30.790  1.00  0.00    +0.000 F 
ATOM     63  C44 UNL A   1      46.466  34.562  31.204  1.00  0.00    +0.000 C 
ATOM     64  F11 UNL A   1      47.097  34.670  32.381  1.00  0.00    +0.000 F 
ENDBRANCH   55   56
BRANCH   70   71
ATOM     71  C49 UNL A   1      38.929  30.560  30.912  1.00  0.00    +0.000 C 
ATOM     72  C50 UNL A   1      37.889  31.203  30.225  1.00  0.00    +0.000 C 
ATOM     73  F13 UNL A   1      37.977  31.385  28.899  1.00  0.00    +0.000 F 
ATOM     74  C51 UNL A   1      36.772  31.691  30.899  1.00  0.00    +0.000 C 
ATOM     75  F14 UNL A   1      35.812  32.335  30.223  1.00  0.00    +0.000 F 
ATOM     76  C52 UNL A   1      36.659  31.522  32.271  1.00  0.00    +0.000 C 
ATOM     77  F15 UNL A   1      35.581  31.984  32.919  1.00  0.00    +0.000 F 
ATOM     78  C53 UNL A   1      37.668  30.877  32.971  1.00  0.00    +0.000 C 
ATOM     79  F16 UNL A   1      37.556  30.699  34.294  1.00  0.00    +0.000 F 
ATOM     80  C54 UNL A   1      38.798  30.412  32.301  1.00  0.00    +0.000 C 
ATOM     81  F17 UNL A   1      39.763  29.803  33.005  1.00  0.00    +0.000 F 
ENDBRANCH   70   71
TORSDOF 18
ENDMDL
MODEL 4
REMARK VINA RESULT:     -11.1      0.778      2.188
ROOT
ATOM     34  C25 UNL A   1      38.410  29.802  29.780  1.00  0.00    +0.000 C 
ATOM     35  C26 UNL A   1      38.676  30.367  31.149  1.00  0.00    +0.000 C 
ATOM     36  N4  UNL A   1      39.704  30.176  31.938  1.00  0.00    +0.000 N 
ATOM     37  C27 UNL A   1      39.464  30.948  33.067  1.00  0.00    +0.000 C 
ATOM     38  C28 UNL A   1      40.195  31.032  34.203  1.00  0.00    +0.000 C 
ATOM     50  C35 UNL A   1      41.406  30.296  34.441  1.00  0.00    +0.000 C 
ATOM     51  C36 UNL A   1      42.193  30.281  35.580  1.00  0.00    +0.000 C 
ATOM     52  C37 UNL A   1      43.284  29.441  35.345  1.00  0.00    +0.000 C 
ATOM     53  C38 UNL A   1      43.153  28.898  34.077  1.00  0.00    +0.000 C 
ATOM     54  N5  UNL A   1      42.001  29.437  33.530  1.00  0.00    +0.000 N 
ATOM     55  C39 UNL A   1      44.020  27.960  33.414  1.00  0.00    +0.000 C 
ATOM     67  C46 UNL A   1      43.831  27.476  32.163  1.00  0.00    +0.000 C 
ATOM     68  N6  UNL A   1      42.798  27.738  31.275  1.00  0.00    +0.000 N 
ATOM     69  C47 UNL A   1      43.065  27.047  30.195  1.00  0.00    +0.000 C 
ATOM     70  C48 UNL A   1      42.268  26.928  28.924  1.00  0.00    +0.000 C 
ATOM     82  C55 UNL A   1      41.119  27.621  28.798  1.00  0.00    +0.000 C 
ATOM     83  C56 UNL A   1      40.227  27.585  27.641  1.00  0.00    +0.000 C 
ATOM     84  C57 UNL A   1      39.178  28.393  27.869  1.00  0.00    +0.000 C 
ATOM     85  C58 UNL A   1      39.309  28.981  29.203  1.00  0.00    +0.000 C 
ATOM     86  N7  UNL A   1      40.505  28.490  29.667  1.00  0.00    +0.000 N 
ATOM     87  C59 UNL A   1      44.321  26.286  30.267  1.00  0.00    +0.000 C 
ATOM     88  C60 UNL A   1      44.728  26.552  31.501  1.00  0.00    +0.000 C 
ATOM     89  C61 UNL A   1      38.224  31.656  32.844  1.00  0.00    +0.000 C 
ATOM     90  C62 UNL A   1      37.664  31.282  31.702  1.00  0.00    +0.000 C 
ATOM    117  H25 UNL A   1      42.006  30.799  36.452  1.00  0.00    +0.000 H 
ATOM    118  H26 UNL A   1      44.057  29.257  36.004  1.00  0.00    +0.000 H 
ATOM    119  H27 UNL A   1      41.655  29.241  32.629  1.00  0.00    +0.000 H 
ATOM    120  H28 UNL A   1      40.378  27.027  26.787  1.00  0.00    +0.000 H 
ATOM    121  H29 UNL A   1      38.406  28.570  27.210  1.00  0.00    +0.000 H 
ATOM    122  H30 UNL A   1      40.885  28.737  30.540  1.00  0.00    +0.000 H 
ATOM    123  H31 UNL A   1      44.769  25.699  29.547  1.00  0.00    +0.000 H 
ATOM    124  H32 UNL A   1      45.575  26.153  31.935  1.00  0.00    +0.000 H 
ATOM    125  H33 UNL A   1      37.828  32.359  33.487  1.00  0.00    +0.000 H 
ATOM    126  H34 UNL A   1      36.754  31.562  31.304  1.00  0.00    +0.000 H 
ENDROOT
BRANCH   34   33
ATOM     33  C24 UNL A   1      37.157  30.154  29.062  1.00  0.00    +0.000 C 
ATOM    127  H35 UNL A   1      37.801  32.083  28.483  1.00  0.00    +0.000 H 
ATOM    115  H23 UNL A   1      34.128  28.911  28.298  1.00  0.00    +0.000 H 
ATOM    116  H24 UNL A   1      36.180  28.316  29.444  1.00  0.00    +0.000 H 
ATOM     91  C63 UNL A   1      37.008  31.422  28.482  1.00  0.00    +0.000 C 
ATOM     92  C64 UNL A   1      35.795  31.793  27.902  1.00  0.00    +0.000 C 
ATOM     32  C23 UNL A   1      36.088  29.246  29.005  1.00  0.00    +0.000 C 
ATOM     30  C21 UNL A   1      34.755  30.865  27.796  1.00  0.00    +0.000 C 
ATOM     31  C22 UNL A   1      34.900  29.593  28.359  1.00  0.00    +0.000 C 
ATOM    128  H36 UNL A   1      35.666  32.755  27.552  1.00  0.00    +0.000 H 
BRANCH   30    2
ATOM      1  O1  UNL A   1      32.936  32.291  27.406  1.00  0.00    +0.000 O 
ATOM      2  C1  UNL A   1      33.463  31.210  27.159  1.00  0.00    +0.000 C 
BRANCH    2    3
ATOM      3  N1  UNL A   1      32.845  30.333  26.306  1.00  0.00    +0.000 N 
ATOM     93  H1  UNL A   1      31.870  30.441  26.230  1.00  0.00    +0.000 H 
BRANCH    3    4
ATOM      4  C2  UNL A   1      33.411  29.268  25.499  1.00  0.00    +0.000 C 
ATOM     94  H2  UNL A   1      34.458  29.199  25.706  1.00  0.00    +0.000 H 
ATOM     95  H3  UNL A   1      33.227  29.507  24.472  1.00  0.00    +0.000 H 
BRANCH    4    5
ATOM     97  H5  UNL A   1      32.127  28.063  26.627  1.00  0.00    +0.000 H 
ATOM      5  C3  UNL A   1      32.766  27.915  25.781  1.00  0.00    +0.000 C 
ATOM     96  H4  UNL A   1      32.245  27.606  24.898  1.00  0.00    +0.000 H 
BRANCH    5    6
ATOM     98  H6  UNL A   1      33.217  26.131  26.834  1.00  0.00    +0.000 H 
ATOM     99  H7  UNL A   1      34.576  27.282  26.622  1.00  0.00    +0.000 H 
ATOM      6  C4  UNL A   1      33.733  26.796  26.175  1.00  0.00    +0.000 C 
BRANCH    6    7
ATOM    100  H8  UNL A   1      35.093  26.525  24.571  1.00  0.00    +0.000 H 
ATOM    101  H9  UNL A   1      33.472  25.788  24.358  1.00  0.00    +0.000 H 
ATOM      7  C5  UNL A   1      34.296  25.968  25.017  1.00  0.00    +0.000 C 
BRANCH    7    8
ATOM    102  H10 UNL A   1      35.830  24.715  25.778  1.00  0.00    +0.000 H 
ATOM    103  H11 UNL A   1      34.801  23.999  24.499  1.00  0.00    +0.000 H 
ATOM      8  C6  UNL A   1      34.840  24.587  25.393  1.00  0.00    +0.000 C 
BRANCH    8    9
ATOM      9  C7  UNL A   1      34.023  23.829  26.434  1.00  0.00    +0.000 C 
ATOM    105  H13 UNL A   1      34.699  23.459  27.177  1.00  0.00    +0.000 H 
ATOM    104  H12 UNL A   1      33.304  24.497  26.861  1.00  0.00    +0.000 H 
BRANCH    9   10
ATOM     10  N2  UNL A   1      33.325  22.693  25.863  1.00  0.00    +0.000 N 
ATOM    106  H14 UNL A   1      33.823  21.844  25.852  1.00  0.00    +0.000 H 
BRANCH   10   11
ATOM     11  C8  UNL A   1      32.059  22.653  25.333  1.00  0.00    +0.000 C 
ATOM     12  O2  UNL A   1      31.376  21.636  25.426  1.00  0.00    +0.000 O 
BRANCH   11   13
ATOM    107  H15 UNL A   1      30.399  24.341  26.477  1.00  0.00    +0.000 H 
ATOM    108  H16 UNL A   1      29.450  26.393  25.592  1.00  0.00    +0.000 H 
ATOM     13  C9  UNL A   1      31.479  23.866  24.724  1.00  0.00    +0.000 C 
ATOM     14  C10 UNL A   1      30.625  24.641  25.516  1.00  0.00    +0.000 C 
ATOM     15  C11 UNL A   1      30.077  25.820  25.006  1.00  0.00    +0.000 C 
ATOM     16  C12 UNL A   1      30.374  26.226  23.697  1.00  0.00    +0.000 C 
ATOM    113  H21 UNL A   1      31.415  25.710  21.928  1.00  0.00    +0.000 H 
ATOM     27  C19 UNL A   1      31.204  25.424  22.897  1.00  0.00    +0.000 C 
ATOM     28  C20 UNL A   1      31.745  24.243  23.405  1.00  0.00    +0.000 C 
BRANCH   16   17
ATOM    109  H17 UNL A   1      31.680  28.250  22.318  1.00  0.00    +0.000 H 
ATOM    110  H18 UNL A   1      30.800  30.328  21.635  1.00  0.00    +0.000 H 
ATOM    112  H20 UNL A   1      27.921  27.052  23.751  1.00  0.00    +0.000 H 
ATOM     17  C13 UNL A   1      29.839  27.480  23.136  1.00  0.00    +0.000 C 
ATOM     18  C14 UNL A   1      30.682  28.461  22.480  1.00  0.00    +0.000 C 
ATOM     19  C15 UNL A   1      30.180  29.636  22.085  1.00  0.00    +0.000 C 
ATOM     20  N3  UNL A   1      28.845  29.937  22.271  1.00  0.00    +0.000 N 
ATOM     24  C17 UNL A   1      27.954  29.048  22.852  1.00  0.00    +0.000 C 
ATOM     25  O3  UNL A   1      26.759  29.250  23.037  1.00  0.00    +0.000 O 
ATOM     26  C18 UNL A   1      28.533  27.752  23.303  1.00  0.00    +0.000 C 
BRANCH   20   21
ATOM     21  C16 UNL A   1      28.325  31.223  21.883  1.00  0.00    +0.000 C 
ATOM     22  F1  UNL A   1      27.502  31.118  20.813  1.00  0.00    +0.000 F 
ATOM    111  H19 UNL A   1      29.167  31.835  21.632  1.00  0.00    +0.000 H 
ATOM     23  F2  UNL A   1      27.627  31.787  22.899  1.00  0.00    +0.000 F 
ENDBRANCH   20   21
ENDBRANCH   16   17
BRANCH   28   29
ATOM    114  H22 UNL A   1      32.239  22.640  22.304  1.00  0.00    +0.000 H 
ATOM     29  O4  UNL A   1      32.544  23.472  22.607  1.00  0.00    +0.000 O 
ENDBRANCH   28   29
ENDBRANCH   11   13
ENDBRANCH   10   11
ENDBRANCH    9   10
ENDBRANCH    8    9
ENDBRANCH    7    8
ENDBRANCH    6    7
ENDBRANCH    5    6
ENDBRANCH    4    5
ENDBRANCH    3    4
ENDBRANCH    2    3
ENDBRANCH   30    2
ENDBRANCH   34   33
BRANCH   38   39
ATOM     39  C29 UNL A   1      39.697  31.929  35.297  1.00  0.00    +0.000 C 
ATOM     40  C30 UNL A   1      40.084  33.275  35.367  1.00  0.00    +0.000 C 
ATOM     41  F3  UNL A   1      40.990  33.763  34.506  1.00  0.00    +0.000 F 
ATOM     42  C31 UNL A   1      39.551  34.123  36.333  1.00  0.00    +0.000 C 
ATOM     43  F4  UNL A   1      39.954  35.400  36.398  1.00  0.00    +0.000 F 
ATOM     44  C32 UNL A   1      38.604  33.651  37.230  1.00  0.00    +0.000 C 
ATOM     45  F5  UNL A   1      38.075  34.475  38.144  1.00  0.00    +0.000 F 
ATOM     46  C33 UNL A   1      38.205  32.324  37.176  1.00  0.00    +0.000 C 
ATOM     47  F6  UNL A   1      37.278  31.869  38.031  1.00  0.00    +0.000 F 
ATOM     48  C34 UNL A   1      38.755  31.466  36.228  1.00  0.00    +0.000 C 
ATOM     49  F7  UNL A   1      38.348  30.188  36.199  1.00  0.00    +0.000 F 
ENDBRANCH   38   39
BRANCH   55   56
ATOM     65  C45 UNL A   1      45.124  26.370  35.025  1.00  0.00    +0.000 C 
ATOM     66  F12 UNL A   1      43.985  25.664  35.087  1.00  0.00    +0.000 F 
ATOM     56  C40 UNL A   1      45.221  27.485  34.178  1.00  0.00    +0.000 C 
ATOM     57  C41 UNL A   1      46.428  28.197  34.157  1.00  0.00    +0.000 C 
ATOM     58  F8  UNL A   1      46.569  29.262  33.355  1.00  0.00    +0.000 F 
ATOM     59  C42 UNL A   1      47.499  27.806  34.956  1.00  0.00    +0.000 C 
ATOM     60  F9  UNL A   1      48.651  28.489  34.906  1.00  0.00    +0.000 F 
ATOM     61  C43 UNL A   1      47.375  26.717  35.805  1.00  0.00    +0.000 C 
ATOM     62  F10 UNL A   1      48.398  26.360  36.593  1.00  0.00    +0.000 F 
ATOM     63  C44 UNL A   1      46.188  25.999  35.842  1.00  0.00    +0.000 C 
ATOM     64  F11 UNL A   1      46.061  24.957  36.674  1.00  0.00    +0.000 F 
ENDBRANCH   55   56
BRANCH   70   71
ATOM     71  C49 UNL A   1      42.712  26.028  27.827  1.00  0.00    +0.000 C 
ATOM     72  C50 UNL A   1      43.584  26.486  26.829  1.00  0.00    +0.000 C 
ATOM     73  F13 UNL A   1      44.008  27.759  26.844  1.00  0.00    +0.000 F 
ATOM     74  C51 UNL A   1      43.997  25.651  25.793  1.00  0.00    +0.000 C 
ATOM     75  F14 UNL A   1      44.799  26.127  24.831  1.00  0.00    +0.000 F 
ATOM     76  C52 UNL A   1      43.569  24.334  25.748  1.00  0.00    +0.000 C 
ATOM     77  F15 UNL A   1      43.973  23.528  24.757  1.00  0.00    +0.000 F 
ATOM     78  C53 UNL A   1      42.717  23.853  26.732  1.00  0.00    +0.000 C 
ATOM     79  F16 UNL A   1      42.313  22.576  26.701  1.00  0.00    +0.000 F 
ATOM     80  C54 UNL A   1      42.282  24.695  27.754  1.00  0.00    +0.000 C 
ATOM     81  F17 UNL A   1      41.450  24.205  28.685  1.00  0.00    +0.000 F 
ENDBRANCH   70   71
TORSDOF 18
ENDMDL
MODEL 5
REMARK VINA RESULT:     -11.0     20.951     25.810
ROOT
ATOM     34  C25 UNL A   1      21.234  38.296  49.115  1.00  0.00    +0.000 C 
ATOM     35  C26 UNL A   1      22.090  39.526  49.254  1.00  0.00    +0.000 C 
ATOM     36  N4  UNL A   1      23.275  39.770  48.755  1.00  0.00    +0.000 N 
ATOM     37  C27 UNL A   1      23.601  41.056  49.162  1.00  0.00    +0.000 C 
ATOM     38  C28 UNL A   1      24.754  41.737  48.968  1.00  0.00    +0.000 C 
ATOM     50  C35 UNL A   1      25.895  41.212  48.268  1.00  0.00    +0.000 C 
ATOM     51  C36 UNL A   1      27.125  41.810  48.059  1.00  0.00    +0.000 C 
ATOM     52  C37 UNL A   1      27.912  40.937  47.305  1.00  0.00    +0.000 C 
ATOM     53  C38 UNL A   1      27.189  39.776  47.085  1.00  0.00    +0.000 C 
ATOM     54  N5  UNL A   1      25.949  39.962  47.674  1.00  0.00    +0.000 N 
ATOM     55  C39 UNL A   1      27.599  38.588  46.383  1.00  0.00    +0.000 C 
ATOM     67  C46 UNL A   1      26.830  37.488  46.199  1.00  0.00    +0.000 C 
ATOM     68  N6  UNL A   1      25.537  37.247  46.639  1.00  0.00    +0.000 N 
ATOM     69  C47 UNL A   1      25.223  36.053  46.201  1.00  0.00    +0.000 C 
ATOM     70  C48 UNL A   1      23.955  35.269  46.410  1.00  0.00    +0.000 C 
ATOM     82  C55 UNL A   1      22.947  35.821  47.116  1.00  0.00    +0.000 C 
ATOM     83  C56 UNL A   1      21.674  35.174  47.425  1.00  0.00    +0.000 C 
ATOM     84  C57 UNL A   1      20.918  36.016  48.149  1.00  0.00    +0.000 C 
ATOM     85  C58 UNL A   1      21.668  37.252  48.382  1.00  0.00    +0.000 C 
ATOM     86  N7  UNL A   1      22.848  37.057  47.707  1.00  0.00    +0.000 N 
ATOM     87  C59 UNL A   1      26.279  35.411  45.405  1.00  0.00    +0.000 C 
ATOM     88  C60 UNL A   1      27.251  36.312  45.467  1.00  0.00    +0.000 C 
ATOM     89  C61 UNL A   1      22.470  41.569  49.902  1.00  0.00    +0.000 C 
ATOM     90  C62 UNL A   1      21.536  40.639  50.043  1.00  0.00    +0.000 C 
ATOM    117  H25 UNL A   1      27.412  42.741  48.400  1.00  0.00    +0.000 H 
ATOM    118  H26 UNL A   1      28.871  41.124  46.970  1.00  0.00    +0.000 H 
ATOM    119  H27 UNL A   1      25.217  39.304  47.670  1.00  0.00    +0.000 H 
ATOM    120  H28 UNL A   1      21.400  34.224  47.134  1.00  0.00    +0.000 H 
ATOM    121  H29 UNL A   1      19.963  35.823  48.486  1.00  0.00    +0.000 H 
ATOM    122  H30 UNL A   1      23.555  37.739  47.653  1.00  0.00    +0.000 H 
ATOM    123  H31 UNL A   1      26.268  34.499  44.923  1.00  0.00    +0.000 H 
ATOM    124  H32 UNL A   1      28.186  36.191  45.047  1.00  0.00    +0.000 H 
ATOM    125  H33 UNL A   1      22.398  42.530  50.270  1.00  0.00    +0.000 H 
ATOM    126  H34 UNL A   1      20.650  40.684  50.570  1.00  0.00    +0.000 H 
ENDROOT
BRANCH   34   33
ATOM     33  C24 UNL A   1      19.907  38.234  49.782  1.00  0.00    +0.000 C 
ATOM    127  H35 UNL A   1      18.878  39.288  48.265  1.00  0.00    +0.000 H 
ATOM    115  H23 UNL A   1      18.418  37.091  52.572  1.00  0.00    +0.000 H 
ATOM    116  H24 UNL A   1      20.580  37.158  51.475  1.00  0.00    +0.000 H 
ATOM     91  C63 UNL A   1      18.794  38.857  49.199  1.00  0.00    +0.000 C 
ATOM     92  C64 UNL A   1      17.574  38.894  49.874  1.00  0.00    +0.000 C 
ATOM     32  C23 UNL A   1      19.763  37.605  51.029  1.00  0.00    +0.000 C 
ATOM     30  C21 UNL A   1      17.422  38.215  51.086  1.00  0.00    +0.000 C 
ATOM     31  C22 UNL A   1      18.523  37.579  51.669  1.00  0.00    +0.000 C 
ATOM    128  H36 UNL A   1      16.783  39.424  49.477  1.00  0.00    +0.000 H 
BRANCH   30    2
ATOM      1  O1  UNL A   1      16.034  38.818  52.877  1.00  0.00    +0.000 O 
ATOM      2  C1  UNL A   1      16.134  38.203  51.818  1.00  0.00    +0.000 C 
BRANCH    2    3
ATOM      3  N1  UNL A   1      15.058  37.506  51.334  1.00  0.00    +0.000 N 
ATOM     93  H1  UNL A   1      14.891  36.640  51.771  1.00  0.00    +0.000 H 
BRANCH    3    4
ATOM      4  C2  UNL A   1      14.129  37.850  50.274  1.00  0.00    +0.000 C 
ATOM     94  H2  UNL A   1      14.435  38.776  49.836  1.00  0.00    +0.000 H 
ATOM     95  H3  UNL A   1      13.153  37.923  50.708  1.00  0.00    +0.000 H 
BRANCH    4    5
ATOM     97  H5  UNL A   1      13.534  35.961  49.601  1.00  0.00    +0.000 H 
ATOM      5  C3  UNL A   1      14.070  36.787  49.181  1.00  0.00    +0.000 C 
ATOM     96  H4  UNL A   1      13.592  37.219  48.326  1.00  0.00    +0.000 H 
BRANCH    5    6
ATOM     98  H6  UNL A   1      15.361  35.162  48.749  1.00  0.00    +0.000 H 
ATOM     99  H7  UNL A   1      16.144  36.632  49.416  1.00  0.00    +0.000 H 
ATOM      6  C4  UNL A   1      15.423  36.230  48.734  1.00  0.00    +0.000 C 
BRANCH    6    7
ATOM    100  H8  UNL A   1      15.722  37.707  47.243  1.00  0.00    +0.000 H 
ATOM    101  H9  UNL A   1      15.321  36.062  46.650  1.00  0.00    +0.000 H 
ATOM      7  C5  UNL A   1      15.887  36.654  47.338  1.00  0.00    +0.000 C 
BRANCH    7    8
ATOM    102  H10 UNL A   1      17.713  35.635  47.701  1.00  0.00    +0.000 H 
ATOM    103  H11 UNL A   1      17.863  37.318  47.109  1.00  0.00    +0.000 H 
ATOM      8  C6  UNL A   1      17.359  36.379  47.018  1.00  0.00    +0.000 C 
BRANCH    8    9
ATOM      9  C7  UNL A   1      17.633  35.887  45.600  1.00  0.00    +0.000 C 
ATOM    105  H13 UNL A   1      16.691  35.677  45.137  1.00  0.00    +0.000 H 
ATOM    104  H12 UNL A   1      18.167  36.646  45.069  1.00  0.00    +0.000 H 
BRANCH    9   10
ATOM     10  N2  UNL A   1      18.417  34.666  45.585  1.00  0.00    +0.000 N 
ATOM    106  H14 UNL A   1      18.629  34.281  46.467  1.00  0.00    +0.000 H 
BRANCH   10   11
ATOM     11  C8  UNL A   1      18.903  33.982  44.499  1.00  0.00    +0.000 C 
ATOM     12  O2  UNL A   1      19.839  34.435  43.845  1.00  0.00    +0.000 O 
BRANCH   11   13
ATOM    107  H15 UNL A   1      19.687  31.675  45.485  1.00  0.00    +0.000 H 
ATOM    108  H16 UNL A   1      18.812  29.450  45.058  1.00  0.00    +0.000 H 
ATOM     13  C9  UNL A   1      18.358  32.652  44.165  1.00  0.00    +0.000 C 
ATOM     14  C10 UNL A   1      18.909  31.545  44.819  1.00  0.00    +0.000 C 
ATOM     15  C11 UNL A   1      18.407  30.266  44.572  1.00  0.00    +0.000 C 
ATOM     16  C12 UNL A   1      17.357  30.086  43.662  1.00  0.00    +0.000 C 
ATOM    113  H21 UNL A   1      16.069  31.069  42.300  1.00  0.00    +0.000 H 
ATOM     27  C19 UNL A   1      16.833  31.197  42.983  1.00  0.00    +0.000 C 
ATOM     28  C20 UNL A   1      17.339  32.473  43.225  1.00  0.00    +0.000 C 
BRANCH   16   17
ATOM    109  H17 UNL A   1      15.370  29.334  41.875  1.00  0.00    +0.000 H 
ATOM    110  H18 UNL A   1      14.351  27.218  41.660  1.00  0.00    +0.000 H 
ATOM    112  H20 UNL A   1      18.012  27.842  44.775  1.00  0.00    +0.000 H 
ATOM     17  C13 UNL A   1      16.781  28.754  43.399  1.00  0.00    +0.000 C 
ATOM     18  C14 UNL A   1      15.701  28.545  42.454  1.00  0.00    +0.000 C 
ATOM     19  C15 UNL A   1      15.130  27.343  42.326  1.00  0.00    +0.000 C 
ATOM     20  N3  UNL A   1      15.566  26.265  43.072  1.00  0.00    +0.000 N 
ATOM     24  C17 UNL A   1      16.617  26.358  43.971  1.00  0.00    +0.000 C 
ATOM     25  O3  UNL A   1      17.058  25.440  44.654  1.00  0.00    +0.000 O 
ATOM     26  C18 UNL A   1      17.230  27.708  44.116  1.00  0.00    +0.000 C 
BRANCH   20   21
ATOM     21  C16 UNL A   1      14.914  24.987  42.959  1.00  0.00    +0.000 C 
ATOM     22  F1  UNL A   1      13.604  25.071  43.295  1.00  0.00    +0.000 F 
ATOM    111  H19 UNL A   1      15.415  24.321  43.630  1.00  0.00    +0.000 H 
ATOM     23  F2  UNL A   1      14.993  24.515  41.690  1.00  0.00    +0.000 F 
ENDBRANCH   20   21
ENDBRANCH   16   17
BRANCH   28   29
ATOM    114  H22 UNL A   1      16.112  33.418  41.949  1.00  0.00    +0.000 H 
ATOM     29  O4  UNL A   1      16.822  33.542  42.547  1.00  0.00    +0.000 O 
ENDBRANCH   28   29
ENDBRANCH   11   13
ENDBRANCH   10   11
ENDBRANCH    9   10
ENDBRANCH    8    9
ENDBRANCH    7    8
ENDBRANCH    6    7
ENDBRANCH    5    6
ENDBRANCH    4    5
ENDBRANCH    3    4
ENDBRANCH    2    3
ENDBRANCH   30    2
ENDBRANCH   34   33
BRANCH   38   39
ATOM     39  C29 UNL A   1      24.863  43.119  49.541  1.00  0.00    +0.000 C 
ATOM     40  C30 UNL A   1      24.480  44.246  48.800  1.00  0.00    +0.000 C 
ATOM     41  F3  UNL A   1      24.097  44.116  47.520  1.00  0.00    +0.000 F 
ATOM     42  C31 UNL A   1      24.502  45.517  49.368  1.00  0.00    +0.000 C 
ATOM     43  F4  UNL A   1      24.155  46.583  48.633  1.00  0.00    +0.000 F 
ATOM     44  C32 UNL A   1      24.881  45.682  50.691  1.00  0.00    +0.000 C 
ATOM     45  F5  UNL A   1      24.879  46.903  51.243  1.00  0.00    +0.000 F 
ATOM     46  C33 UNL A   1      25.261  44.580  51.444  1.00  0.00    +0.000 C 
ATOM     47  F6  UNL A   1      25.612  44.736  52.728  1.00  0.00    +0.000 F 
ATOM     48  C34 UNL A   1      25.265  43.311  50.871  1.00  0.00    +0.000 C 
ATOM     49  F7  UNL A   1      25.635  42.265  51.623  1.00  0.00    +0.000 F 
ENDBRANCH   38   39
BRANCH   55   56
ATOM     65  C45 UNL A   1      30.032  37.951  46.519  1.00  0.00    +0.000 C 
ATOM     66  F12 UNL A   1      29.777  37.278  47.651  1.00  0.00    +0.000 F 
ATOM     56  C40 UNL A   1      28.990  38.578  45.819  1.00  0.00    +0.000 C 
ATOM     57  C41 UNL A   1      29.308  39.278  44.647  1.00  0.00    +0.000 C 
ATOM     58  F8  UNL A   1      28.342  39.883  43.940  1.00  0.00    +0.000 F 
ATOM     59  C42 UNL A   1      30.622  39.350  44.195  1.00  0.00    +0.000 C 
ATOM     60  F9  UNL A   1      30.903  40.008  43.063  1.00  0.00    +0.000 F 
ATOM     61  C43 UNL A   1      31.642  38.746  44.916  1.00  0.00    +0.000 C 
ATOM     62  F10 UNL A   1      32.910  38.839  44.493  1.00  0.00    +0.000 F 
ATOM     63  C44 UNL A   1      31.348  38.048  46.078  1.00  0.00    +0.000 C 
ATOM     64  F11 UNL A   1      32.334  37.478  46.785  1.00  0.00    +0.000 F 
ENDBRANCH   55   56
BRANCH   70   71
ATOM     71  C49 UNL A   1      23.818  33.886  45.883  1.00  0.00    +0.000 C 
ATOM     72  C50 UNL A   1      24.356  32.794  46.580  1.00  0.00    +0.000 C 
ATOM     73  F13 UNL A   1      25.023  32.996  47.726  1.00  0.00    +0.000 F 
ATOM     74  C51 UNL A   1      24.240  31.496  46.087  1.00  0.00    +0.000 C 
ATOM     75  F14 UNL A   1      24.797  30.477  46.753  1.00  0.00    +0.000 F 
ATOM     76  C52 UNL A   1      23.562  31.261  44.901  1.00  0.00    +0.000 C 
ATOM     77  F15 UNL A   1      23.443  30.012  44.430  1.00  0.00    +0.000 F 
ATOM     78  C53 UNL A   1      23.010  32.323  44.200  1.00  0.00    +0.000 C 
ATOM     79  F16 UNL A   1      22.341  32.098  43.061  1.00  0.00    +0.000 F 
ATOM     80  C54 UNL A   1      23.148  33.624  44.679  1.00  0.00    +0.000 C 
ATOM     81  F17 UNL A   1      22.614  34.632  43.975  1.00  0.00    +0.000 F 
ENDBRANCH   70   71
TORSDOF 18
ENDMDL
MODEL 6
REMARK VINA RESULT:     -11.0     20.235     26.059
ROOT
ATOM     34  C25 UNL A   1      53.223  19.726  11.708  1.00  0.00    +0.000 C 
ATOM     35  C26 UNL A   1      54.581  19.096  11.553  1.00  0.00    +0.000 C 
ATOM     36  N4  UNL A   1      55.583  19.070  12.396  1.00  0.00    +0.000 N 
ATOM     37  C27 UNL A   1      56.585  18.340  11.772  1.00  0.00    +0.000 C 
ATOM     38  C28 UNL A   1      57.844  18.096  12.202  1.00  0.00    +0.000 C 
ATOM     50  C35 UNL A   1      58.383  18.579  13.445  1.00  0.00    +0.000 C 
ATOM     51  C36 UNL A   1      59.663  18.422  13.946  1.00  0.00    +0.000 C 
ATOM     52  C37 UNL A   1      59.719  19.038  15.198  1.00  0.00    +0.000 C 
ATOM     53  C38 UNL A   1      58.488  19.619  15.456  1.00  0.00    +0.000 C 
ATOM     54  N5  UNL A   1      57.674  19.322  14.375  1.00  0.00    +0.000 N 
ATOM     55  C39 UNL A   1      58.085  20.383  16.607  1.00  0.00    +0.000 C 
ATOM     67  C46 UNL A   1      56.854  20.916  16.795  1.00  0.00    +0.000 C 
ATOM     68  N6  UNL A   1      55.750  20.875  15.955  1.00  0.00    +0.000 N 
ATOM     69  C47 UNL A   1      54.797  21.520  16.580  1.00  0.00    +0.000 C 
ATOM     70  C48 UNL A   1      53.393  21.814  16.123  1.00  0.00    +0.000 C 
ATOM     82  C55 UNL A   1      52.981  21.358  14.923  1.00  0.00    +0.000 C 
ATOM     83  C56 UNL A   1      51.664  21.587  14.334  1.00  0.00    +0.000 C 
ATOM     84  C57 UNL A   1      51.611  20.993  13.130  1.00  0.00    +0.000 C 
ATOM     85  C58 UNL A   1      52.904  20.368  12.849  1.00  0.00    +0.000 C 
ATOM     86  N7  UNL A   1      53.644  20.610  13.980  1.00  0.00    +0.000 N 
ATOM     87  C59 UNL A   1      55.183  22.022  17.907  1.00  0.00    +0.000 C 
ATOM     88  C60 UNL A   1      56.458  21.661  17.972  1.00  0.00    +0.000 C 
ATOM     89  C61 UNL A   1      56.058  17.889  10.504  1.00  0.00    +0.000 C 
ATOM     90  C62 UNL A   1      54.847  18.384  10.291  1.00  0.00    +0.000 C 
ATOM    117  H25 UNL A   1      60.441  17.934  13.477  1.00  0.00    +0.000 H 
ATOM    118  H26 UNL A   1      60.539  19.057  15.825  1.00  0.00    +0.000 H 
ATOM    119  H27 UNL A   1      56.734  19.598  14.282  1.00  0.00    +0.000 H 
ATOM    120  H28 UNL A   1      50.897  22.120  14.772  1.00  0.00    +0.000 H 
ATOM    121  H29 UNL A   1      50.791  20.981  12.505  1.00  0.00    +0.000 H 
ATOM    122  H30 UNL A   1      54.562  20.278  14.104  1.00  0.00    +0.000 H 
ATOM    123  H31 UNL A   1      54.614  22.524  18.605  1.00  0.00    +0.000 H 
ATOM    124  H32 UNL A   1      57.087  21.881  18.760  1.00  0.00    +0.000 H 
ATOM    125  H33 UNL A   1      56.558  17.265   9.851  1.00  0.00    +0.000 H 
ATOM    126  H34 UNL A   1      54.246  18.294   9.457  1.00  0.00    +0.000 H 
ENDROOT
BRANCH   34   33
ATOM     33  C24 UNL A   1      52.232  19.636  10.604  1.00  0.00    +0.000 C 
ATOM    127  H35 UNL A   1      51.488  17.738  11.165  1.00  0.00    +0.000 H 
ATOM    115  H23 UNL A   1      51.109  21.344   7.934  1.00  0.00    +0.000 H 
ATOM    116  H24 UNL A   1      52.706  21.513   9.751  1.00  0.00    +0.000 H 
ATOM     91  C63 UNL A   1      51.441  18.488  10.458  1.00  0.00    +0.000 C 
ATOM     92  C64 UNL A   1      50.589  18.355   9.362  1.00  0.00    +0.000 C 
ATOM     32  C23 UNL A   1      52.116  20.671   9.662  1.00  0.00    +0.000 C 
ATOM     30  C21 UNL A   1      50.434  19.413   8.461  1.00  0.00    +0.000 C 
ATOM     31  C22 UNL A   1      51.208  20.568   8.607  1.00  0.00    +0.000 C 
ATOM    128  H36 UNL A   1      50.072  17.474   9.216  1.00  0.00    +0.000 H 
BRANCH   30    2
ATOM      1  O1  UNL A   1      48.381  19.790   7.393  1.00  0.00    +0.000 O 
ATOM      2  C1  UNL A   1      49.514  19.324   7.303  1.00  0.00    +0.000 C 
BRANCH    2    3
ATOM      3  N1  UNL A   1      49.908  18.719   6.138  1.00  0.00    +0.000 N 
ATOM     93  H1  UNL A   1      49.442  19.028   5.328  1.00  0.00    +0.000 H 
BRANCH    3    4
ATOM      4  C2  UNL A   1      50.908  17.690   5.918  1.00  0.00    +0.000 C 
ATOM     94  H2  UNL A   1      51.425  17.512   6.837  1.00  0.00    +0.000 H 
ATOM     95  H3  UNL A   1      51.571  18.039   5.154  1.00  0.00    +0.000 H 
BRANCH    4    5
ATOM     97  H5  UNL A   1      50.819  16.122   4.537  1.00  0.00    +0.000 H 
ATOM      5  C3  UNL A   1      50.299  16.377   5.437  1.00  0.00    +0.000 C 
ATOM     96  H4  UNL A   1      50.414  15.654   6.218  1.00  0.00    +0.000 H 
BRANCH    5    6
ATOM     98  H6  UNL A   1      48.643  17.362   4.554  1.00  0.00    +0.000 H 
ATOM     99  H7  UNL A   1      48.280  16.347   5.987  1.00  0.00    +0.000 H 
ATOM      6  C4  UNL A   1      48.815  16.439   5.065  1.00  0.00    +0.000 C 
BRANCH    6    7
ATOM    100  H8  UNL A   1      48.066  14.474   4.802  1.00  0.00    +0.000 H 
ATOM    101  H9  UNL A   1      49.095  15.105   3.476  1.00  0.00    +0.000 H 
ATOM      7  C5  UNL A   1      48.307  15.304   4.173  1.00  0.00    +0.000 C 
BRANCH    7    8
ATOM    102  H10 UNL A   1      46.736  14.722   2.871  1.00  0.00    +0.000 H 
ATOM    103  H11 UNL A   1      47.384  16.372   2.622  1.00  0.00    +0.000 H 
ATOM      8  C6  UNL A   1      47.073  15.629   3.327  1.00  0.00    +0.000 C 
BRANCH    8    9
ATOM      9  C7  UNL A   1      45.903  16.236   4.094  1.00  0.00    +0.000 C 
ATOM    105  H13 UNL A   1      45.299  15.432   4.463  1.00  0.00    +0.000 H 
ATOM    104  H12 UNL A   1      46.287  16.833   4.894  1.00  0.00    +0.000 H 
BRANCH    9   10
ATOM     10  N2  UNL A   1      45.066  17.068   3.249  1.00  0.00    +0.000 N 
ATOM    106  H14 UNL A   1      44.635  16.612   2.490  1.00  0.00    +0.000 H 
BRANCH   10   11
ATOM     11  C8  UNL A   1      44.803  18.409   3.373  1.00  0.00    +0.000 C 
ATOM     12  O2  UNL A   1      45.567  19.140   3.999  1.00  0.00    +0.000 O 
BRANCH   11   13
ATOM    107  H15 UNL A   1      42.267  17.915   3.862  1.00  0.00    +0.000 H 
ATOM    108  H16 UNL A   1      40.292  18.878   2.828  1.00  0.00    +0.000 H 
ATOM     13  C9  UNL A   1      43.642  18.996   2.676  1.00  0.00    +0.000 C 
ATOM     14  C10 UNL A   1      42.367  18.609   3.105  1.00  0.00    +0.000 C 
ATOM     15  C11 UNL A   1      41.232  19.161   2.508  1.00  0.00    +0.000 C 
ATOM     16  C12 UNL A   1      41.365  20.097   1.474  1.00  0.00    +0.000 C 
ATOM    113  H21 UNL A   1      42.751  21.131   0.254  1.00  0.00    +0.000 H 
ATOM     27  C19 UNL A   1      42.646  20.454   1.025  1.00  0.00    +0.000 C 
ATOM     28  C20 UNL A   1      43.780  19.897   1.617  1.00  0.00    +0.000 C 
BRANCH   16   17
ATOM    109  H17 UNL A   1      38.993  20.974   2.620  1.00  0.00    +0.000 H 
ATOM    110  H18 UNL A   1      37.069  21.773   1.516  1.00  0.00    +0.000 H 
ATOM    112  H20 UNL A   1      41.045  20.676  -1.030  1.00  0.00    +0.000 H 
ATOM     17  C13 UNL A   1      40.188  20.724   0.842  1.00  0.00    +0.000 C 
ATOM     18  C14 UNL A   1      38.999  21.080   1.593  1.00  0.00    +0.000 C 
ATOM     19  C15 UNL A   1      37.912  21.541   0.967  1.00  0.00    +0.000 C 
ATOM     20  N3  UNL A   1      37.899  21.712  -0.404  1.00  0.00    +0.000 N 
ATOM     24  C17 UNL A   1      38.999  21.438  -1.199  1.00  0.00    +0.000 C 
ATOM     25  O3  UNL A   1      39.056  21.577  -2.417  1.00  0.00    +0.000 O 
ATOM     26  C18 UNL A   1      40.197  20.907  -0.490  1.00  0.00    +0.000 C 
BRANCH   20   21
ATOM     21  C16 UNL A   1      36.707  22.167  -1.072  1.00  0.00    +0.000 C 
ATOM     22  F1  UNL A   1      35.904  21.129  -1.407  1.00  0.00    +0.000 F 
ATOM    111  H19 UNL A   1      37.022  22.679  -1.957  1.00  0.00    +0.000 H 
ATOM     23  F2  UNL A   1      35.999  23.007  -0.276  1.00  0.00    +0.000 F 
ENDBRANCH   20   21
ENDBRANCH   16   17
BRANCH   28   29
ATOM    114  H22 UNL A   1      45.110  20.663   0.324  1.00  0.00    +0.000 H 
ATOM     29  O4  UNL A   1      45.019  20.251   1.160  1.00  0.00    +0.000 O 
ENDBRANCH   28   29
ENDBRANCH   11   13
ENDBRANCH   10   11
ENDBRANCH    9   10
ENDBRANCH    8    9
ENDBRANCH    7    8
ENDBRANCH    6    7
ENDBRANCH    5    6
ENDBRANCH    4    5
ENDBRANCH    3    4
ENDBRANCH    2    3
ENDBRANCH   30    2
ENDBRANCH   34   33
BRANCH   38   39
ATOM     39  C29 UNL A   1      58.750  17.293  11.316  1.00  0.00    +0.000 C 
ATOM     40  C30 UNL A   1      58.824  15.897  11.425  1.00  0.00    +0.000 C 
ATOM     41  F3  UNL A   1      58.153  15.258  12.395  1.00  0.00    +0.000 F 
ATOM     42  C31 UNL A   1      59.600  15.150  10.542  1.00  0.00    +0.000 C 
ATOM     43  F4  UNL A   1      59.675  13.819  10.680  1.00  0.00    +0.000 F 
ATOM     44  C32 UNL A   1      60.294  15.780   9.521  1.00  0.00    +0.000 C 
ATOM     45  F5  UNL A   1      61.022  15.058   8.658  1.00  0.00    +0.000 F 
ATOM     46  C33 UNL A   1      60.233  17.161   9.393  1.00  0.00    +0.000 C 
ATOM     47  F6  UNL A   1      60.891  17.770   8.397  1.00  0.00    +0.000 F 
ATOM     48  C34 UNL A   1      59.479  17.913  10.290  1.00  0.00    +0.000 C 
ATOM     49  F7  UNL A   1      59.437  19.245  10.140  1.00  0.00    +0.000 F 
ENDBRANCH   38   39
BRANCH   55   56
ATOM     65  C45 UNL A   1      59.270  19.670  18.712  1.00  0.00    +0.000 C 
ATOM     66  F12 UNL A   1      58.560  18.532  18.709  1.00  0.00    +0.000 F 
ATOM     56  C40 UNL A   1      59.117  20.602  17.673  1.00  0.00    +0.000 C 
ATOM     57  C41 UNL A   1      59.874  21.780  17.727  1.00  0.00    +0.000 C 
ATOM     58  F8  UNL A   1      59.768  22.694  16.750  1.00  0.00    +0.000 F 
ATOM     59  C42 UNL A   1      60.750  22.018  18.782  1.00  0.00    +0.000 C 
ATOM     60  F9  UNL A   1      61.478  23.142  18.804  1.00  0.00    +0.000 F 
ATOM     61  C43 UNL A   1      60.867  21.096  19.812  1.00  0.00    +0.000 C 
ATOM     62  F10 UNL A   1      61.691  21.339  20.840  1.00  0.00    +0.000 F 
ATOM     63  C44 UNL A   1      60.127  19.923  19.778  1.00  0.00    +0.000 C 
ATOM     64  F11 UNL A   1      60.226  19.040  20.781  1.00  0.00    +0.000 F 
ENDBRANCH   55   56
BRANCH   70   71
ATOM     71  C49 UNL A   1      52.474  22.630  16.959  1.00  0.00    +0.000 C 
ATOM     72  C50 UNL A   1      51.683  22.033  17.952  1.00  0.00    +0.000 C 
ATOM     73  F13 UNL A   1      51.734  20.706  18.138  1.00  0.00    +0.000 F 
ATOM     74  C51 UNL A   1      50.813  22.790  18.733  1.00  0.00    +0.000 C 
ATOM     75  F14 UNL A   1      50.041  22.188  19.647  1.00  0.00    +0.000 F 
ATOM     76  C52 UNL A   1      50.735  24.163  18.556  1.00  0.00    +0.000 C 
ATOM     77  F15 UNL A   1      49.904  24.893  19.312  1.00  0.00    +0.000 F 
ATOM     78  C53 UNL A   1      51.517  24.779  17.590  1.00  0.00    +0.000 C 
ATOM     79  F16 UNL A   1      51.456  26.107  17.426  1.00  0.00    +0.000 F 
ATOM     80  C54 UNL A   1      52.368  24.018  16.790  1.00  0.00    +0.000 C 
ATOM     81  F17 UNL A   1      53.104  24.639  15.857  1.00  0.00    +0.000 F 
ENDBRANCH   70   71
TORSDOF 18
ENDMDL
MODEL 7
REMARK VINA RESULT:     -11.0     20.873     25.848
ROOT
ATOM     34  C25 UNL A   1      21.200  38.455  49.127  1.00  0.00    +0.000 C 
ATOM     35  C26 UNL A   1      22.024  39.707  49.261  1.00  0.00    +0.000 C 
ATOM     36  N4  UNL A   1      23.203  39.979  48.761  1.00  0.00    +0.000 N 
ATOM     37  C27 UNL A   1      23.496  41.275  49.164  1.00  0.00    +0.000 C 
ATOM     38  C28 UNL A   1      24.631  41.984  48.967  1.00  0.00    +0.000 C 
ATOM     50  C35 UNL A   1      25.786  41.486  48.270  1.00  0.00    +0.000 C 
ATOM     51  C36 UNL A   1      27.000  42.114  48.060  1.00  0.00    +0.000 C 
ATOM     52  C37 UNL A   1      27.810  41.258  47.310  1.00  0.00    +0.000 C 
ATOM     53  C38 UNL A   1      27.117  40.078  47.093  1.00  0.00    +0.000 C 
ATOM     54  N5  UNL A   1      25.872  40.234  47.681  1.00  0.00    +0.000 N 
ATOM     55  C39 UNL A   1      27.557  38.898  46.397  1.00  0.00    +0.000 C 
ATOM     67  C46 UNL A   1      26.817  37.779  46.217  1.00  0.00    +0.000 C 
ATOM     68  N6  UNL A   1      25.530  37.506  46.657  1.00  0.00    +0.000 N 
ATOM     69  C47 UNL A   1      25.247  36.303  46.224  1.00  0.00    +0.000 C 
ATOM     70  C48 UNL A   1      23.999  35.488  46.436  1.00  0.00    +0.000 C 
ATOM     82  C55 UNL A   1      22.977  36.016  47.139  1.00  0.00    +0.000 C 
ATOM     83  C56 UNL A   1      21.720  35.339  47.449  1.00  0.00    +0.000 C 
ATOM     84  C57 UNL A   1      20.943  36.164  48.170  1.00  0.00    +0.000 C 
ATOM     85  C58 UNL A   1      21.661  37.419  48.398  1.00  0.00    +0.000 C 
ATOM     86  N7  UNL A   1      22.846  37.252  47.725  1.00  0.00    +0.000 N 
ATOM     87  C59 UNL A   1      26.319  35.684  45.431  1.00  0.00    +0.000 C 
ATOM     88  C60 UNL A   1      27.268  36.610  45.490  1.00  0.00    +0.000 C 
ATOM     89  C61 UNL A   1      22.351  41.761  49.900  1.00  0.00    +0.000 C 
ATOM     90  C62 UNL A   1      21.442  40.808  50.045  1.00  0.00    +0.000 C 
ATOM    117  H25 UNL A   1      27.263  43.053  48.397  1.00  0.00    +0.000 H 
ATOM    118  H26 UNL A   1      28.764  41.468  46.974  1.00  0.00    +0.000 H 
ATOM    119  H27 UNL A   1      25.157  39.558  47.680  1.00  0.00    +0.000 H 
ATOM    120  H28 UNL A   1      21.471  34.380  47.162  1.00  0.00    +0.000 H 
ATOM    121  H29 UNL A   1      19.993  35.948  48.507  1.00  0.00    +0.000 H 
ATOM    122  H30 UNL A   1      23.536  37.951  47.668  1.00  0.00    +0.000 H 
ATOM    123  H31 UNL A   1      26.332  34.770  44.954  1.00  0.00    +0.000 H 
ATOM    124  H32 UNL A   1      28.206  36.512  45.072  1.00  0.00    +0.000 H 
ATOM    125  H33 UNL A   1      22.255  42.722  50.265  1.00  0.00    +0.000 H 
ATOM    126  H34 UNL A   1      20.554  40.833  50.572  1.00  0.00    +0.000 H 
ENDROOT
BRANCH   34   33
ATOM     33  C24 UNL A   1      19.875  38.362  49.793  1.00  0.00    +0.000 C 
ATOM    127  H35 UNL A   1      18.854  39.536  48.361  1.00  0.00    +0.000 H 
ATOM    115  H23 UNL A   1      18.380  37.039  52.500  1.00  0.00    +0.000 H 
ATOM    116  H24 UNL A   1      20.539  37.158  51.401  1.00  0.00    +0.000 H 
ATOM     91  C63 UNL A   1      18.768  39.040  49.261  1.00  0.00    +0.000 C 
ATOM     92  C64 UNL A   1      17.551  39.044  49.942  1.00  0.00    +0.000 C 
ATOM     32  C23 UNL A   1      19.727  37.646  50.992  1.00  0.00    +0.000 C 
ATOM     30  C21 UNL A   1      17.394  38.281  51.103  1.00  0.00    +0.000 C 
ATOM     31  C22 UNL A   1      18.488  37.590  51.634  1.00  0.00    +0.000 C 
ATOM    128  H36 UNL A   1      16.766  39.611  49.588  1.00  0.00    +0.000 H 
BRANCH   30    2
ATOM      1  O1  UNL A   1      16.010  38.799  52.923  1.00  0.00    +0.000 O 
ATOM      2  C1  UNL A   1      16.108  38.232  51.838  1.00  0.00    +0.000 C 
BRANCH    2    3
ATOM      3  N1  UNL A   1      15.033  37.554  51.326  1.00  0.00    +0.000 N 
ATOM     93  H1  UNL A   1      14.775  36.744  51.824  1.00  0.00    +0.000 H 
BRANCH    3    4
ATOM      4  C2  UNL A   1      14.217  37.847  50.162  1.00  0.00    +0.000 C 
ATOM     94  H2  UNL A   1      14.611  38.715  49.677  1.00  0.00    +0.000 H 
ATOM     95  H3  UNL A   1      13.214  38.005  50.500  1.00  0.00    +0.000 H 
BRANCH    4    5
ATOM     97  H5  UNL A   1      13.775  35.860  49.683  1.00  0.00    +0.000 H 
ATOM      5  C3  UNL A   1      14.192  36.697  49.162  1.00  0.00    +0.000 C 
ATOM     96  H4  UNL A   1      13.614  37.007  48.316  1.00  0.00    +0.000 H 
BRANCH    5    6
ATOM     98  H6  UNL A   1      15.501  35.190  48.446  1.00  0.00    +0.000 H 
ATOM     99  H7  UNL A   1      16.257  36.485  49.429  1.00  0.00    +0.000 H 
ATOM      6  C4  UNL A   1      15.562  36.238  48.655  1.00  0.00    +0.000 C 
BRANCH    6    7
ATOM    100  H8  UNL A   1      16.104  37.991  47.594  1.00  0.00    +0.000 H 
ATOM    101  H9  UNL A   1      15.394  36.669  46.613  1.00  0.00    +0.000 H 
ATOM      7  C5  UNL A   1      16.072  36.941  47.394  1.00  0.00    +0.000 C 
BRANCH    7    8
ATOM    102  H10 UNL A   1      17.894  35.888  47.667  1.00  0.00    +0.000 H 
ATOM    103  H11 UNL A   1      18.006  37.415  46.738  1.00  0.00    +0.000 H 
ATOM      8  C6  UNL A   1      17.460  36.511  46.913  1.00  0.00    +0.000 C 
BRANCH    8    9
ATOM      9  C7  UNL A   1      17.481  35.742  45.596  1.00  0.00    +0.000 C 
ATOM    105  H13 UNL A   1      16.513  35.308  45.453  1.00  0.00    +0.000 H 
ATOM    104  H12 UNL A   1      17.724  36.420  44.804  1.00  0.00    +0.000 H 
BRANCH    9   10
ATOM     10  N2  UNL A   1      18.453  34.665  45.604  1.00  0.00    +0.000 N 
ATOM    106  H14 UNL A   1      18.780  34.389  46.492  1.00  0.00    +0.000 H 
BRANCH   10   11
ATOM     11  C8  UNL A   1      18.978  33.986  44.533  1.00  0.00    +0.000 C 
ATOM     12  O2  UNL A   1      19.965  34.417  43.943  1.00  0.00    +0.000 O 
BRANCH   11   13
ATOM    107  H15 UNL A   1      19.702  31.623  45.430  1.00  0.00    +0.000 H 
ATOM    108  H16 UNL A   1      18.783  29.438  44.904  1.00  0.00    +0.000 H 
ATOM     13  C9  UNL A   1      18.407  32.683  44.140  1.00  0.00    +0.000 C 
ATOM     14  C10 UNL A   1      18.928  31.538  44.753  1.00  0.00    +0.000 C 
ATOM     15  C11 UNL A   1      18.401  30.281  44.448  1.00  0.00    +0.000 C 
ATOM     16  C12 UNL A   1      17.356  30.162  43.522  1.00  0.00    +0.000 C 
ATOM    113  H21 UNL A   1      16.103  31.229  42.191  1.00  0.00    +0.000 H 
ATOM     27  C19 UNL A   1      16.862  31.312  42.885  1.00  0.00    +0.000 C 
ATOM     28  C20 UNL A   1      17.394  32.565  43.185  1.00  0.00    +0.000 C 
BRANCH   16   17
ATOM    109  H17 UNL A   1      15.552  29.485  41.524  1.00  0.00    +0.000 H 
ATOM    110  H18 UNL A   1      14.470  27.415  41.200  1.00  0.00    +0.000 H 
ATOM    112  H20 UNL A   1      17.778  27.900  44.710  1.00  0.00    +0.000 H 
ATOM     17  C13 UNL A   1      16.754  28.855  43.200  1.00  0.00    +0.000 C 
ATOM     18  C14 UNL A   1      15.780  28.687  42.138  1.00  0.00    +0.000 C 
ATOM     19  C15 UNL A   1      15.173  27.510  41.950  1.00  0.00    +0.000 C 
ATOM     20  N3  UNL A   1      15.473  26.420  42.745  1.00  0.00    +0.000 N 
ATOM     24  C17 UNL A   1      16.418  26.473  43.756  1.00  0.00    +0.000 C 
ATOM     25  O3  UNL A   1      16.737  25.543  44.489  1.00  0.00    +0.000 O 
ATOM     26  C18 UNL A   1      17.071  27.796  43.966  1.00  0.00    +0.000 C 
BRANCH   20   21
ATOM     21  C16 UNL A   1      14.781  25.171  42.562  1.00  0.00    +0.000 C 
ATOM     22  F1  UNL A   1      13.848  24.980  43.525  1.00  0.00    +0.000 F 
ATOM    111  H19 UNL A   1      15.517  24.396  42.615  1.00  0.00    +0.000 H 
ATOM     23  F2  UNL A   1      14.157  25.137  41.358  1.00  0.00    +0.000 F 
ENDBRANCH   20   21
ENDBRANCH   16   17
BRANCH   28   29
ATOM    114  H22 UNL A   1      17.182  33.869  41.674  1.00  0.00    +0.000 H 
ATOM     29  O4  UNL A   1      16.906  33.672  42.547  1.00  0.00    +0.000 O 
ENDBRANCH   28   29
ENDBRANCH   11   13
ENDBRANCH   10   11
ENDBRANCH    9   10
ENDBRANCH    8    9
ENDBRANCH    7    8
ENDBRANCH    6    7
ENDBRANCH    5    6
ENDBRANCH    4    5
ENDBRANCH    3    4
ENDBRANCH    2    3
ENDBRANCH   30    2
ENDBRANCH   34   33
BRANCH   38   39
ATOM     39  C29 UNL A   1      24.705  43.371  49.535  1.00  0.00    +0.000 C 
ATOM     40  C30 UNL A   1      24.288  44.484  48.791  1.00  0.00    +0.000 C 
ATOM     41  F3  UNL A   1      23.904  44.339  47.514  1.00  0.00    +0.000 F 
ATOM     42  C31 UNL A   1      24.277  45.757  49.354  1.00  0.00    +0.000 C 
ATOM     43  F4  UNL A   1      23.899  46.811  48.617  1.00  0.00    +0.000 F 
ATOM     44  C32 UNL A   1      24.656  45.938  50.676  1.00  0.00    +0.000 C 
ATOM     45  F5  UNL A   1      24.623  47.161  51.223  1.00  0.00    +0.000 F 
ATOM     46  C33 UNL A   1      25.069  44.850  51.430  1.00  0.00    +0.000 C 
ATOM     47  F6  UNL A   1      25.421  45.019  52.712  1.00  0.00    +0.000 F 
ATOM     48  C34 UNL A   1      25.107  43.579  50.862  1.00  0.00    +0.000 C 
ATOM     49  F7  UNL A   1      25.508  42.546  51.618  1.00  0.00    +0.000 F 
ENDBRANCH   38   39
BRANCH   55   56
ATOM     65  C45 UNL A   1      29.203  39.552  44.606  1.00  0.00    +0.000 C 
ATOM     66  F12 UNL A   1      28.227  40.218  43.972  1.00  0.00    +0.000 F 
ATOM     56  C40 UNL A   1      28.948  38.921  45.834  1.00  0.00    +0.000 C 
ATOM     57  C41 UNL A   1      29.998  38.229  46.451  1.00  0.00    +0.000 C 
ATOM     58  F8  UNL A   1      29.803  37.621  47.631  1.00  0.00    +0.000 F 
ATOM     59  C42 UNL A   1      31.257  38.169  45.861  1.00  0.00    +0.000 C 
ATOM     60  F9  UNL A   1      32.252  37.517  46.478  1.00  0.00    +0.000 F 
ATOM     61  C43 UNL A   1      31.482  38.776  44.634  1.00  0.00    +0.000 C 
ATOM     62  F10 UNL A   1      32.687  38.694  44.055  1.00  0.00    +0.000 F 
ATOM     63  C44 UNL A   1      30.456  39.466  44.006  1.00  0.00    +0.000 C 
ATOM     64  F11 UNL A   1      30.666  40.039  42.813  1.00  0.00    +0.000 F 
ENDBRANCH   55   56
BRANCH   70   71
ATOM     71  C49 UNL A   1      23.898  34.099  45.914  1.00  0.00    +0.000 C 
ATOM     72  C50 UNL A   1      23.286  33.838  44.679  1.00  0.00    +0.000 C 
ATOM     73  F13 UNL A   1      22.763  34.846  43.966  1.00  0.00    +0.000 F 
ATOM     74  C51 UNL A   1      23.180  32.538  44.188  1.00  0.00    +0.000 C 
ATOM     75  F14 UNL A   1      22.556  32.313  43.024  1.00  0.00    +0.000 F 
ATOM     76  C52 UNL A   1      23.706  31.477  44.908  1.00  0.00    +0.000 C 
ATOM     77  F15 UNL A   1      23.611  30.228  44.433  1.00  0.00    +0.000 F 
ATOM     78  C53 UNL A   1      24.328  31.712  46.126  1.00  0.00    +0.000 C 
ATOM     79  F16 UNL A   1      24.850  30.691  46.818  1.00  0.00    +0.000 F 
ATOM     80  C54 UNL A   1      24.411  33.008  46.630  1.00  0.00    +0.000 C 
ATOM     81  F17 UNL A   1      25.008  33.204  47.815  1.00  0.00    +0.000 F 
ENDBRANCH   70   71
TORSDOF 18
ENDMDL
MODEL 8
REMARK VINA RESULT:     -10.9     17.951     22.826
ROOT
ATOM     34  C25 UNL A   1      25.795  36.006  45.405  1.00  0.00    +0.000 C 
ATOM     35  C26 UNL A   1      25.661  37.150  46.374  1.00  0.00    +0.000 C 
ATOM     36  N4  UNL A   1      26.548  38.048  46.721  1.00  0.00    +0.000 N 
ATOM     37  C27 UNL A   1      25.906  38.887  47.622  1.00  0.00    +0.000 C 
ATOM     38  C28 UNL A   1      26.419  39.923  48.324  1.00  0.00    +0.000 C 
ATOM     50  C35 UNL A   1      27.789  40.351  48.250  1.00  0.00    +0.000 C 
ATOM     51  C36 UNL A   1      28.414  41.363  48.957  1.00  0.00    +0.000 C 
ATOM     52  C37 UNL A   1      29.743  41.434  48.535  1.00  0.00    +0.000 C 
ATOM     53  C38 UNL A   1      29.959  40.436  47.598  1.00  0.00    +0.000 C 
ATOM     54  N5  UNL A   1      28.749  39.784  47.426  1.00  0.00    +0.000 N 
ATOM     55  C39 UNL A   1      31.179  40.107  46.909  1.00  0.00    +0.000 C 
ATOM     67  C46 UNL A   1      31.313  39.117  45.994  1.00  0.00    +0.000 C 
ATOM     68  N6  UNL A   1      30.361  38.214  45.542  1.00  0.00    +0.000 N 
ATOM     69  C47 UNL A   1      30.966  37.466  44.654  1.00  0.00    +0.000 C 
ATOM     70  C48 UNL A   1      30.424  36.303  43.867  1.00  0.00    +0.000 C 
ATOM     82  C55 UNL A   1      29.136  35.940  44.028  1.00  0.00    +0.000 C 
ATOM     83  C56 UNL A   1      28.478  34.820  43.358  1.00  0.00    +0.000 C 
ATOM     84  C57 UNL A   1      27.200  34.754  43.765  1.00  0.00    +0.000 C 
ATOM     85  C58 UNL A   1      26.956  35.809  44.750  1.00  0.00    +0.000 C 
ATOM     86  N7  UNL A   1      28.151  36.481  44.820  1.00  0.00    +0.000 N 
ATOM     87  C59 UNL A   1      32.371  37.830  44.421  1.00  0.00    +0.000 C 
ATOM     88  C60 UNL A   1      32.543  38.818  45.291  1.00  0.00    +0.000 C 
ATOM     89  C61 UNL A   1      24.538  38.431  47.728  1.00  0.00    +0.000 C 
ATOM     90  C62 UNL A   1      24.353  37.321  47.028  1.00  0.00    +0.000 C 
ATOM    117  H25 UNL A   1      27.974  41.962  49.673  1.00  0.00    +0.000 H 
ATOM    118  H26 UNL A   1      30.446  42.114  48.865  1.00  0.00    +0.000 H 
ATOM    119  H27 UNL A   1      28.594  39.031  46.811  1.00  0.00    +0.000 H 
ATOM    120  H28 UNL A   1      28.925  34.183  42.682  1.00  0.00    +0.000 H 
ATOM    121  H29 UNL A   1      26.502  34.070  43.436  1.00  0.00    +0.000 H 
ATOM    122  H30 UNL A   1      28.290  37.276  45.384  1.00  0.00    +0.000 H 
ATOM    123  H31 UNL A   1      33.047  37.426  43.756  1.00  0.00    +0.000 H 
ATOM    124  H32 UNL A   1      33.436  39.309  45.446  1.00  0.00    +0.000 H 
ATOM    125  H33 UNL A   1      23.804  38.905  48.277  1.00  0.00    +0.000 H 
ATOM    126  H34 UNL A   1      23.509  36.731  46.959  1.00  0.00    +0.000 H 
ENDROOT
BRANCH   34   33
ATOM     33  C24 UNL A   1      24.645  35.095  45.166  1.00  0.00    +0.000 C 
ATOM    127  H35 UNL A   1      23.661  36.378  43.803  1.00  0.00    +0.000 H 
ATOM    115  H23 UNL A   1      23.427  32.101  46.092  1.00  0.00    +0.000 H 
ATOM    116  H24 UNL A   1      25.323  33.566  46.461  1.00  0.00    +0.000 H 
ATOM     91  C63 UNL A   1      23.595  35.489  44.323  1.00  0.00    +0.000 C 
ATOM     92  C64 UNL A   1      22.465  34.685  44.183  1.00  0.00    +0.000 C 
ATOM     32  C23 UNL A   1      24.565  33.858  45.825  1.00  0.00    +0.000 C 
ATOM     30  C21 UNL A   1      22.418  33.429  44.794  1.00  0.00    +0.000 C 
ATOM     31  C22 UNL A   1      23.466  33.021  45.625  1.00  0.00    +0.000 C 
ATOM    128  H36 UNL A   1      21.662  35.018  43.627  1.00  0.00    +0.000 H 
BRANCH   30    2
ATOM      1  O1  UNL A   1      21.424  31.361  44.308  1.00  0.00    +0.000 O 
ATOM      2  C1  UNL A   1      21.249  32.530  44.643  1.00  0.00    +0.000 C 
BRANCH    2    3
ATOM      3  N1  UNL A   1      19.977  32.990  44.861  1.00  0.00    +0.000 N 
ATOM     93  H1  UNL A   1      19.663  32.925  45.792  1.00  0.00    +0.000 H 
BRANCH    3    4
ATOM      4  C2  UNL A   1      19.022  33.558  43.927  1.00  0.00    +0.000 C 
ATOM     94  H2  UNL A   1      19.445  34.441  43.498  1.00  0.00    +0.000 H 
ATOM     95  H3  UNL A   1      18.126  33.775  44.471  1.00  0.00    +0.000 H 
BRANCH    4    5
ATOM     97  H5  UNL A   1      19.489  32.599  42.129  1.00  0.00    +0.000 H 
ATOM      5  C3  UNL A   1      18.659  32.593  42.804  1.00  0.00    +0.000 C 
ATOM     96  H4  UNL A   1      18.469  31.634  43.241  1.00  0.00    +0.000 H 
BRANCH    5    6
ATOM     98  H6  UNL A   1      17.014  32.088  41.565  1.00  0.00    +0.000 H 
ATOM     99  H7  UNL A   1      17.791  33.670  41.234  1.00  0.00    +0.000 H 
ATOM      6  C4  UNL A   1      17.435  32.983  41.973  1.00  0.00    +0.000 C 
BRANCH    6    7
ATOM    100  H8  UNL A   1      15.936  34.478  42.082  1.00  0.00    +0.000 H 
ATOM    101  H9  UNL A   1      16.785  34.105  43.617  1.00  0.00    +0.000 H 
ATOM      7  C5  UNL A   1      16.327  33.722  42.729  1.00  0.00    +0.000 C 
BRANCH    7    8
ATOM    102  H10 UNL A   1      14.604  32.546  42.339  1.00  0.00    +0.000 H 
ATOM    103  H11 UNL A   1      14.592  33.462  43.877  1.00  0.00    +0.000 H 
ATOM      8  C6  UNL A   1      15.157  32.854  43.202  1.00  0.00    +0.000 C 
BRANCH    8    9
ATOM      9  C7  UNL A   1      15.550  31.605  43.984  1.00  0.00    +0.000 C 
ATOM    105  H13 UNL A   1      16.603  31.650  44.167  1.00  0.00    +0.000 H 
ATOM    104  H12 UNL A   1      14.996  31.583  44.899  1.00  0.00    +0.000 H 
BRANCH    9   10
ATOM     10  N2  UNL A   1      15.278  30.387  43.243  1.00  0.00    +0.000 N 
ATOM    106  H14 UNL A   1      14.369  30.303  42.874  1.00  0.00    +0.000 H 
BRANCH   10   11
ATOM     11  C8  UNL A   1      16.127  29.338  42.995  1.00  0.00    +0.000 C 
ATOM     12  O2  UNL A   1      17.344  29.489  43.068  1.00  0.00    +0.000 O 
BRANCH   11   13
ATOM    107  H15 UNL A   1      15.501  28.345  40.643  1.00  0.00    +0.000 H 
ATOM    108  H16 UNL A   1      14.661  26.135  40.088  1.00  0.00    +0.000 H 
ATOM     13  C9  UNL A   1      15.576  27.996  42.725  1.00  0.00    +0.000 C 
ATOM     14  C10 UNL A   1      15.326  27.656  41.391  1.00  0.00    +0.000 C 
ATOM     15  C11 UNL A   1      14.840  26.386  41.073  1.00  0.00    +0.000 C 
ATOM     16  C12 UNL A   1      14.594  25.452  42.088  1.00  0.00    +0.000 C 
ATOM    113  H21 UNL A   1      14.619  25.134  44.180  1.00  0.00    +0.000 H 
ATOM     27  C19 UNL A   1      14.813  25.812  43.427  1.00  0.00    +0.000 C 
ATOM     28  C20 UNL A   1      15.291  27.083  43.745  1.00  0.00    +0.000 C 
BRANCH   16   17
ATOM    109  H17 UNL A   1      14.423  23.225  43.736  1.00  0.00    +0.000 H 
ATOM    110  H18 UNL A   1      13.838  21.023  43.127  1.00  0.00    +0.000 H 
ATOM    112  H20 UNL A   1      13.654  24.580  39.838  1.00  0.00    +0.000 H 
ATOM     17  C13 UNL A   1      14.111  24.091  41.786  1.00  0.00    +0.000 C 
ATOM     18  C14 UNL A   1      14.137  23.021  42.765  1.00  0.00    +0.000 C 
ATOM     19  C15 UNL A   1      13.796  21.775  42.421  1.00  0.00    +0.000 C 
ATOM     20  N3  UNL A   1      13.390  21.478  41.134  1.00  0.00    +0.000 N 
ATOM     24  C17 UNL A   1      13.295  22.441  40.142  1.00  0.00    +0.000 C 
ATOM     25  O3  UNL A   1      12.934  22.246  38.986  1.00  0.00    +0.000 O 
ATOM     26  C18 UNL A   1      13.696  23.820  40.535  1.00  0.00    +0.000 C 
BRANCH   20   21
ATOM     21  C16 UNL A   1      13.070  20.124  40.763  1.00  0.00    +0.000 C 
ATOM     22  F1  UNL A   1      13.673  19.233  41.585  1.00  0.00    +0.000 F 
ATOM    111  H19 UNL A   1      13.420  19.984  39.762  1.00  0.00    +0.000 H 
ATOM     23  F2  UNL A   1      11.732  19.912  40.821  1.00  0.00    +0.000 F 
ENDBRANCH   20   21
ENDBRANCH   16   17
BRANCH   28   29
ATOM    114  H22 UNL A   1      15.066  28.171  45.415  1.00  0.00    +0.000 H 
ATOM     29  O4  UNL A   1      15.490  27.418  45.056  1.00  0.00    +0.000 O 
ENDBRANCH   28   29
ENDBRANCH   11   13
ENDBRANCH   10   11
ENDBRANCH    9   10
ENDBRANCH    8    9
ENDBRANCH    7    8
ENDBRANCH    6    7
ENDBRANCH    5    6
ENDBRANCH    4    5
ENDBRANCH    3    4
ENDBRANCH    2    3
ENDBRANCH   30    2
ENDBRANCH   34   33
BRANCH   38   39
ATOM     39  C29 UNL A   1      25.509  40.659  49.263  1.00  0.00    +0.000 C 
ATOM     40  C30 UNL A   1      24.748  41.754  48.830  1.00  0.00    +0.000 C 
ATOM     41  F3  UNL A   1      24.894  42.228  47.583  1.00  0.00    +0.000 F 
ATOM     42  C31 UNL A   1      23.842  42.378  49.682  1.00  0.00    +0.000 C 
ATOM     43  F4  UNL A   1      23.143  43.439  49.255  1.00  0.00    +0.000 F 
ATOM     44  C32 UNL A   1      23.659  41.904  50.973  1.00  0.00    +0.000 C 
ATOM     45  F5  UNL A   1      22.770  42.490  51.785  1.00  0.00    +0.000 F 
ATOM     46  C33 UNL A   1      24.400  40.819  51.421  1.00  0.00    +0.000 C 
ATOM     47  F6  UNL A   1      24.214  40.349  52.663  1.00  0.00    +0.000 F 
ATOM     48  C34 UNL A   1      25.327  40.210  50.579  1.00  0.00    +0.000 C 
ATOM     49  F7  UNL A   1      26.026  39.162  51.040  1.00  0.00    +0.000 F 
ENDBRANCH   38   39
BRANCH   55   56
ATOM     65  C45 UNL A   1      33.218  40.568  48.312  1.00  0.00    +0.000 C 
ATOM     66  F12 UNL A   1      32.988  39.435  48.992  1.00  0.00    +0.000 F 
ATOM     56  C40 UNL A   1      32.389  40.930  47.239  1.00  0.00    +0.000 C 
ATOM     57  C41 UNL A   1      32.664  42.128  46.567  1.00  0.00    +0.000 C 
ATOM     58  F8  UNL A   1      31.905  42.508  45.528  1.00  0.00    +0.000 F 
ATOM     59  C42 UNL A   1      33.729  42.936  46.956  1.00  0.00    +0.000 C 
ATOM     60  F9  UNL A   1      33.985  44.068  46.288  1.00  0.00    +0.000 F 
ATOM     61  C43 UNL A   1      34.520  42.574  48.036  1.00  0.00    +0.000 C 
ATOM     62  F10 UNL A   1      35.528  43.366  48.425  1.00  0.00    +0.000 F 
ATOM     63  C44 UNL A   1      34.265  41.391  48.715  1.00  0.00    +0.000 C 
ATOM     64  F11 UNL A   1      35.018  41.048  49.769  1.00  0.00    +0.000 F 
ENDBRANCH   55   56
BRANCH   70   71
ATOM     71  C49 UNL A   1      31.300  35.530  42.948  1.00  0.00    +0.000 C 
ATOM     72  C50 UNL A   1      31.411  35.882  41.594  1.00  0.00    +0.000 C 
ATOM     73  F13 UNL A   1      30.703  36.914  41.112  1.00  0.00    +0.000 F 
ATOM     74  C51 UNL A   1      32.223  35.157  40.725  1.00  0.00    +0.000 C 
ATOM     75  F14 UNL A   1      32.280  35.492  39.429  1.00  0.00    +0.000 F 
ATOM     76  C52 UNL A   1      32.961  34.082  41.196  1.00  0.00    +0.000 C 
ATOM     77  F15 UNL A   1      33.748  33.389  40.362  1.00  0.00    +0.000 F 
ATOM     78  C53 UNL A   1      32.878  33.723  42.533  1.00  0.00    +0.000 C 
ATOM     79  F16 UNL A   1      33.601  32.694  42.995  1.00  0.00    +0.000 F 
ATOM     80  C54 UNL A   1      32.046  34.431  43.398  1.00  0.00    +0.000 C 
ATOM     81  F17 UNL A   1      31.977  34.054  44.683  1.00  0.00    +0.000 F 
ENDBRANCH   70   71
TORSDOF 18
ENDMDL
MODEL 9
REMARK VINA RESULT:     -10.9     37.810     43.300
ROOT
ATOM     34  C25 UNL A   1      13.407  49.620   3.067  1.00  0.00    +0.000 C 
ATOM     35  C26 UNL A   1      14.244  49.223   1.880  1.00  0.00    +0.000 C 
ATOM     36  N4  UNL A   1      15.073  49.949   1.172  1.00  0.00    +0.000 N 
ATOM     37  C27 UNL A   1      15.602  49.094   0.214  1.00  0.00    +0.000 C 
ATOM     38  C28 UNL A   1      16.446  49.384  -0.802  1.00  0.00    +0.000 C 
ATOM     50  C35 UNL A   1      16.963  50.698  -1.074  1.00  0.00    +0.000 C 
ATOM     51  C36 UNL A   1      17.789  51.099  -2.109  1.00  0.00    +0.000 C 
ATOM     52  C37 UNL A   1      18.051  52.463  -1.954  1.00  0.00    +0.000 C 
ATOM     53  C38 UNL A   1      17.352  52.920  -0.849  1.00  0.00    +0.000 C 
ATOM     54  N5  UNL A   1      16.695  51.825  -0.313  1.00  0.00    +0.000 N 
ATOM     55  C39 UNL A   1      17.294  54.257  -0.319  1.00  0.00    +0.000 C 
ATOM     67  C46 UNL A   1      16.590  54.630   0.776  1.00  0.00    +0.000 C 
ATOM     68  N6  UNL A   1      15.781  53.857   1.596  1.00  0.00    +0.000 N 
ATOM     69  C47 UNL A   1      15.333  54.663   2.526  1.00  0.00    +0.000 C 
ATOM     70  C48 UNL A   1      14.387  54.370   3.660  1.00  0.00    +0.000 C 
ATOM     82  C55 UNL A   1      13.915  53.118   3.819  1.00  0.00    +0.000 C 
ATOM     83  C56 UNL A   1      12.973  52.689   4.851  1.00  0.00    +0.000 C 
ATOM     84  C57 UNL A   1      12.723  51.378   4.700  1.00  0.00    +0.000 C 
ATOM     85  C58 UNL A   1      13.463  50.880   3.540  1.00  0.00    +0.000 C 
ATOM     86  N7  UNL A   1      14.166  51.975   3.099  1.00  0.00    +0.000 N 
ATOM     87  C59 UNL A   1      15.833  56.041   2.415  1.00  0.00    +0.000 C 
ATOM     88  C60 UNL A   1      16.564  55.976   1.310  1.00  0.00    +0.000 C 
ATOM     89  C61 UNL A   1      15.050  47.782   0.463  1.00  0.00    +0.000 C 
ATOM     90  C62 UNL A   1      14.155  47.821   1.439  1.00  0.00    +0.000 C 
ATOM    117  H25 UNL A   1      18.149  50.497  -2.865  1.00  0.00    +0.000 H 
ATOM    118  H26 UNL A   1      18.663  53.033  -2.560  1.00  0.00    +0.000 H 
ATOM    119  H27 UNL A   1      16.123  51.844   0.488  1.00  0.00    +0.000 H 
ATOM    120  H28 UNL A   1      12.566  53.297   5.577  1.00  0.00    +0.000 H 
ATOM    121  H29 UNL A   1      12.107  50.814   5.305  1.00  0.00    +0.000 H 
ATOM    122  H30 UNL A   1      14.790  51.943   2.339  1.00  0.00    +0.000 H 
ATOM    123  H31 UNL A   1      15.661  56.849   3.034  1.00  0.00    +0.000 H 
ATOM    124  H32 UNL A   1      17.052  56.780   0.885  1.00  0.00    +0.000 H 
ATOM    125  H33 UNL A   1      15.316  46.928  -0.052  1.00  0.00    +0.000 H 
ATOM    126  H34 UNL A   1      13.552  47.064   1.798  1.00  0.00    +0.000 H 
ENDROOT
BRANCH   34   33
ATOM     33  C24 UNL A   1      12.522  48.621   3.719  1.00  0.00    +0.000 C 
ATOM    127  H35 UNL A   1      10.825  49.063   2.537  1.00  0.00    +0.000 H 
ATOM    115  H23 UNL A   1      12.522  46.301   6.154  1.00  0.00    +0.000 H 
ATOM    116  H24 UNL A   1      13.983  47.906   5.072  1.00  0.00    +0.000 H 
ATOM     91  C63 UNL A   1      11.179  48.508   3.332  1.00  0.00    +0.000 C 
ATOM     92  C64 UNL A   1      10.318  47.649   4.016  1.00  0.00    +0.000 C 
ATOM     32  C23 UNL A   1      13.000  47.819   4.768  1.00  0.00    +0.000 C 
ATOM     30  C21 UNL A   1      10.815  46.812   5.019  1.00  0.00    +0.000 C 
ATOM     31  C22 UNL A   1      12.156  46.906   5.402  1.00  0.00    +0.000 C 
ATOM    128  H36 UNL A   1       9.314  47.632   3.780  1.00  0.00    +0.000 H 
BRANCH   30    2
ATOM      1  O1  UNL A   1       8.793  45.671   5.350  1.00  0.00    +0.000 O 
ATOM      2  C1  UNL A   1       9.941  45.861   5.746  1.00  0.00    +0.000 C 
BRANCH    2    3
ATOM      3  N1  UNL A   1      10.393  45.203   6.859  1.00  0.00    +0.000 N 
ATOM     93  H1  UNL A   1      10.733  44.293   6.697  1.00  0.00    +0.000 H 
BRANCH    3    4
ATOM      4  C2  UNL A   1      10.445  45.643   8.241  1.00  0.00    +0.000 C 
ATOM     94  H2  UNL A   1       9.779  45.038   8.819  1.00  0.00    +0.000 H 
ATOM     95  H3  UNL A   1      10.161  46.674   8.264  1.00  0.00    +0.000 H 
BRANCH    4    5
ATOM     97  H5  UNL A   1      11.730  45.033   9.774  1.00  0.00    +0.000 H 
ATOM      5  C3  UNL A   1      11.845  45.535   8.835  1.00  0.00    +0.000 C 
ATOM     96  H4  UNL A   1      12.460  45.004   8.138  1.00  0.00    +0.000 H 
BRANCH    5    6
ATOM     98  H6  UNL A   1      13.268  47.043   8.397  1.00  0.00    +0.000 H 
ATOM     99  H7  UNL A   1      12.932  46.762  10.136  1.00  0.00    +0.000 H 
ATOM      6  C4  UNL A   1      12.529  46.867   9.150  1.00  0.00    +0.000 C 
BRANCH    6    7
ATOM    100  H8  UNL A   1      10.792  47.914   8.535  1.00  0.00    +0.000 H 
ATOM    101  H9  UNL A   1      12.219  48.926   8.931  1.00  0.00    +0.000 H 
ATOM      7  C5  UNL A   1      11.609  48.089   9.202  1.00  0.00    +0.000 C 
BRANCH    7    8
ATOM    102  H10 UNL A   1      11.334  47.656  11.262  1.00  0.00    +0.000 H 
ATOM    103  H11 UNL A   1       9.968  48.481  10.448  1.00  0.00    +0.000 H 
ATOM      8  C6  UNL A   1      11.029  48.422  10.580  1.00  0.00    +0.000 C 
BRANCH    8    9
ATOM      9  C7  UNL A   1      11.459  49.767  11.157  1.00  0.00    +0.000 C 
ATOM    105  H13 UNL A   1      11.480  50.477  10.356  1.00  0.00    +0.000 H 
ATOM    104  H12 UNL A   1      10.762  50.056  11.915  1.00  0.00    +0.000 H 
BRANCH    9   10
ATOM     10  N2  UNL A   1      12.787  49.714  11.739  1.00  0.00    +0.000 N 
ATOM    106  H14 UNL A   1      12.897  49.103  12.503  1.00  0.00    +0.000 H 
BRANCH   10   11
ATOM     11  C8  UNL A   1      13.908  50.411  11.361  1.00  0.00    +0.000 C 
ATOM     12  O2  UNL A   1      14.488  51.141  12.161  1.00  0.00    +0.000 O 
BRANCH   11   13
ATOM    107  H15 UNL A   1      13.536  51.956   9.266  1.00  0.00    +0.000 H 
ATOM    108  H16 UNL A   1      14.475  51.763   7.036  1.00  0.00    +0.000 H 
ATOM     13  C9  UNL A   1      14.474  50.215  10.012  1.00  0.00    +0.000 C 
ATOM     14  C10 UNL A   1      14.164  51.169   9.037  1.00  0.00    +0.000 C 
ATOM     15  C11 UNL A   1      14.701  51.056   7.753  1.00  0.00    +0.000 C 
ATOM     16  C12 UNL A   1      15.547  49.984   7.436  1.00  0.00    +0.000 C 
ATOM    113  H21 UNL A   1      16.434  48.211   8.178  1.00  0.00    +0.000 H 
ATOM     27  C19 UNL A   1      15.825  49.012   8.410  1.00  0.00    +0.000 C 
ATOM     28  C20 UNL A   1      15.281  49.121   9.689  1.00  0.00    +0.000 C 
BRANCH   16   17
ATOM    109  H17 UNL A   1      16.029  47.704   5.927  1.00  0.00    +0.000 H 
ATOM    110  H18 UNL A   1      17.204  47.547   3.889  1.00  0.00    +0.000 H 
ATOM    112  H20 UNL A   1      16.412  51.884   5.905  1.00  0.00    +0.000 H 
ATOM     17  C13 UNL A   1      16.158  49.850   6.100  1.00  0.00    +0.000 C 
ATOM     18  C14 UNL A   1      16.381  48.561   5.472  1.00  0.00    +0.000 C 
ATOM     19  C15 UNL A   1      17.040  48.474   4.312  1.00  0.00    +0.000 C 
ATOM     20  N3  UNL A   1      17.504  49.607   3.671  1.00  0.00    +0.000 N 
ATOM     24  C17 UNL A   1      17.303  50.882   4.173  1.00  0.00    +0.000 C 
ATOM     25  O3  UNL A   1      17.680  51.926   3.650  1.00  0.00    +0.000 O 
ATOM     26  C18 UNL A   1      16.585  50.962   5.476  1.00  0.00    +0.000 C 
BRANCH   20   21
ATOM     21  C16 UNL A   1      18.251  49.497   2.445  1.00  0.00    +0.000 C 
ATOM     22  F1  UNL A   1      19.579  49.655   2.662  1.00  0.00    +0.000 F 
ATOM    111  H19 UNL A   1      17.898  50.271   1.795  1.00  0.00    +0.000 H 
ATOM     23  F2  UNL A   1      18.059  48.284   1.870  1.00  0.00    +0.000 F 
ENDBRANCH   20   21
ENDBRANCH   16   17
BRANCH   28   29
ATOM    114  H22 UNL A   1      16.195  47.499  10.438  1.00  0.00    +0.000 H 
ATOM     29  O4  UNL A   1      15.557  48.159  10.622  1.00  0.00    +0.000 O 
ENDBRANCH   28   29
ENDBRANCH   11   13
ENDBRANCH   10   11
ENDBRANCH    9   10
ENDBRANCH    8    9
ENDBRANCH    7    8
ENDBRANCH    6    7
ENDBRANCH    5    6
ENDBRANCH    4    5
ENDBRANCH    3    4
ENDBRANCH    2    3
ENDBRANCH   30    2
ENDBRANCH   34   33
BRANCH   38   39
ATOM     39  C29 UNL A   1      16.850  48.272  -1.724  1.00  0.00    +0.000 C 
ATOM     40  C30 UNL A   1      16.054  47.912  -2.821  1.00  0.00    +0.000 C 
ATOM     41  F3  UNL A   1      14.861  48.496  -3.011  1.00  0.00    +0.000 F 
ATOM     42  C31 UNL A   1      16.477  46.939  -3.723  1.00  0.00    +0.000 C 
ATOM     43  F4  UNL A   1      15.689  46.593  -4.750  1.00  0.00    +0.000 F 
ATOM     44  C32 UNL A   1      17.711  46.327  -3.560  1.00  0.00    +0.000 C 
ATOM     45  F5  UNL A   1      18.126  45.407  -4.441  1.00  0.00    +0.000 F 
ATOM     46  C33 UNL A   1      18.515  46.670  -2.483  1.00  0.00    +0.000 C 
ATOM     47  F6  UNL A   1      19.714  46.092  -2.332  1.00  0.00    +0.000 F 
ATOM     48  C34 UNL A   1      18.084  47.625  -1.565  1.00  0.00    +0.000 C 
ATOM     49  F7  UNL A   1      18.884  47.937  -0.535  1.00  0.00    +0.000 F 
ENDBRANCH   38   39
BRANCH   55   56
ATOM     65  C45 UNL A   1      19.356  55.673  -0.608  1.00  0.00    +0.000 C 
ATOM     66  F12 UNL A   1      19.932  55.016   0.410  1.00  0.00    +0.000 F 
ATOM     56  C40 UNL A   1      18.074  55.311  -1.048  1.00  0.00    +0.000 C 
ATOM     57  C41 UNL A   1      17.511  56.035  -2.108  1.00  0.00    +0.000 C 
ATOM     58  F8  UNL A   1      16.292  55.717  -2.569  1.00  0.00    +0.000 F 
ATOM     59  C42 UNL A   1      18.205  57.083  -2.704  1.00  0.00    +0.000 C 
ATOM     60  F9  UNL A   1      17.657  57.750  -3.728  1.00  0.00    +0.000 F 
ATOM     61  C43 UNL A   1      19.461  57.442  -2.236  1.00  0.00    +0.000 C 
ATOM     62  F10 UNL A   1      20.117  58.469  -2.794  1.00  0.00    +0.000 F 
ATOM     63  C44 UNL A   1      20.036  56.739  -1.188  1.00  0.00    +0.000 C 
ATOM     64  F11 UNL A   1      21.242  57.095  -0.724  1.00  0.00    +0.000 F 
ENDBRANCH   55   56
BRANCH   70   71
ATOM     71  C49 UNL A   1      13.941  55.451   4.578  1.00  0.00    +0.000 C 
ATOM     72  C50 UNL A   1      14.521  55.603   5.846  1.00  0.00    +0.000 C 
ATOM     73  F13 UNL A   1      15.476  54.752   6.251  1.00  0.00    +0.000 F 
ATOM     74  C51 UNL A   1      14.101  56.608   6.716  1.00  0.00    +0.000 C 
ATOM     75  F14 UNL A   1      14.646  56.705   7.936  1.00  0.00    +0.000 F 
ATOM     76  C52 UNL A   1      13.112  57.497   6.325  1.00  0.00    +0.000 C 
ATOM     77  F15 UNL A   1      12.714  58.468   7.158  1.00  0.00    +0.000 F 
ATOM     78  C53 UNL A   1      12.532  57.375   5.071  1.00  0.00    +0.000 C 
ATOM     79  F16 UNL A   1      11.586  58.241   4.685  1.00  0.00    +0.000 F 
ATOM     80  C54 UNL A   1      12.933  56.354   4.211  1.00  0.00    +0.000 C 
ATOM     81  F17 UNL A   1      12.347  56.254   3.009  1.00  0.00    +0.000 F 
ENDBRANCH   70   71
TORSDOF 18
ENDMDL
MODEL 10
REMARK VINA RESULT:     -10.8     25.405     33.214
ROOT
ATOM     34  C25 UNL A   1      20.991  18.739   5.906  1.00  0.00    +0.000 C 
ATOM     35  C26 UNL A   1      19.800  18.407   6.765  1.00  0.00    +0.000 C 
ATOM     36  N4  UNL A   1      18.563  18.826   6.661  1.00  0.00    +0.000 N 
ATOM     37  C27 UNL A   1      17.864  18.199   7.683  1.00  0.00    +0.000 C 
ATOM     38  C28 UNL A   1      16.570  18.360   8.044  1.00  0.00    +0.000 C 
ATOM     50  C35 UNL A   1      15.656  19.259   7.394  1.00  0.00    +0.000 C 
ATOM     51  C36 UNL A   1      14.337  19.526   7.717  1.00  0.00    +0.000 C 
ATOM     52  C37 UNL A   1      13.839  20.445   6.790  1.00  0.00    +0.000 C 
ATOM     53  C38 UNL A   1      14.860  20.785   5.919  1.00  0.00    +0.000 C 
ATOM     54  N5  UNL A   1      15.968  20.044   6.295  1.00  0.00    +0.000 N 
ATOM     55  C39 UNL A   1      14.824  21.715   4.820  1.00  0.00    +0.000 C 
ATOM     67  C46 UNL A   1      15.866  21.992   4.001  1.00  0.00    +0.000 C 
ATOM     68  N6  UNL A   1      17.159  21.489   4.036  1.00  0.00    +0.000 N 
ATOM     69  C47 UNL A   1      17.791  22.047   3.034  1.00  0.00    +0.000 C 
ATOM     70  C48 UNL A   1      19.229  21.892   2.616  1.00  0.00    +0.000 C 
ATOM     82  C55 UNL A   1      20.032  21.059   3.308  1.00  0.00    +0.000 C 
ATOM     83  C56 UNL A   1      21.450  20.828   3.040  1.00  0.00    +0.000 C 
ATOM     84  C57 UNL A   1      21.927  19.944   3.932  1.00  0.00    +0.000 C 
ATOM     85  C58 UNL A   1      20.854  19.569   4.854  1.00  0.00    +0.000 C 
ATOM     86  N7  UNL A   1      19.760  20.256   4.389  1.00  0.00    +0.000 N 
ATOM     87  C59 UNL A   1      16.957  22.951   2.229  1.00  0.00    +0.000 C 
ATOM     88  C60 UNL A   1      15.804  22.912   2.884  1.00  0.00    +0.000 C 
ATOM     89  C61 UNL A   1      18.795  17.326   8.364  1.00  0.00    +0.000 C 
ATOM     90  C62 UNL A   1      20.019  17.468   7.877  1.00  0.00    +0.000 C 
ATOM    117  H25 UNL A   1      13.812  19.117   8.505  1.00  0.00    +0.000 H 
ATOM    118  H26 UNL A   1      12.873  20.809   6.760  1.00  0.00    +0.000 H 
ATOM    119  H27 UNL A   1      16.845  20.070   5.849  1.00  0.00    +0.000 H 
ATOM    120  H28 UNL A   1      21.996  21.274   2.288  1.00  0.00    +0.000 H 
ATOM    121  H29 UNL A   1      22.894  19.587   3.961  1.00  0.00    +0.000 H 
ATOM    122  H30 UNL A   1      18.866  20.180   4.793  1.00  0.00    +0.000 H 
ATOM    123  H31 UNL A   1      17.203  23.479   1.378  1.00  0.00    +0.000 H 
ATOM    124  H32 UNL A   1      14.970  23.463   2.631  1.00  0.00    +0.000 H 
ATOM    125  H33 UNL A   1      18.540  16.680   9.127  1.00  0.00    +0.000 H 
ATOM    126  H34 UNL A   1      20.898  17.031   8.195  1.00  0.00    +0.000 H 
ENDROOT
BRANCH   34   33
ATOM     33  C24 UNL A   1      22.318  18.146   6.217  1.00  0.00    +0.000 C 
ATOM    127  H35 UNL A   1      23.088  19.876   7.159  1.00  0.00    +0.000 H 
ATOM    115  H23 UNL A   1      24.083  15.308   5.844  1.00  0.00    +0.000 H 
ATOM    116  H24 UNL A   1      21.903  16.256   5.363  1.00  0.00    +0.000 H 
ATOM     91  C63 UNL A   1      23.308  18.920   6.841  1.00  0.00    +0.000 C 
ATOM     92  C64 UNL A   1      24.589  18.402   7.035  1.00  0.00    +0.000 C 
ATOM     32  C23 UNL A   1      22.618  16.828   5.839  1.00  0.00    +0.000 C 
ATOM     30  C21 UNL A   1      24.863  17.070   6.710  1.00  0.00    +0.000 C 
ATOM     31  C22 UNL A   1      23.878  16.287   6.101  1.00  0.00    +0.000 C 
ATOM    128  H36 UNL A   1      25.334  19.003   7.419  1.00  0.00    +0.000 H 
BRANCH   30    2
ATOM      1  O1  UNL A   1      26.657  15.687   6.104  1.00  0.00    +0.000 O 
ATOM      2  C1  UNL A   1      26.201  16.473   6.931  1.00  0.00    +0.000 C 
BRANCH    2    3
ATOM      3  N1  UNL A   1      26.928  16.776   8.052  1.00  0.00    +0.000 N 
ATOM     93  H1  UNL A   1      26.701  16.250   8.853  1.00  0.00    +0.000 H 
BRANCH    3    4
ATOM      4  C2  UNL A   1      27.983  17.756   8.238  1.00  0.00    +0.000 C 
ATOM     94  H2  UNL A   1      27.883  18.513   7.490  1.00  0.00    +0.000 H 
ATOM     95  H3  UNL A   1      28.919  17.244   8.158  1.00  0.00    +0.000 H 
BRANCH    4    5
ATOM     97  H5  UNL A   1      28.281  17.680  10.306  1.00  0.00    +0.000 H 
ATOM      5  C3  UNL A   1      27.931  18.415   9.612  1.00  0.00    +0.000 C 
ATOM     96  H4  UNL A   1      28.539  19.297   9.578  1.00  0.00    +0.000 H 
BRANCH    5    6
ATOM     98  H6  UNL A   1      26.491  18.654  11.149  1.00  0.00    +0.000 H 
ATOM     99  H7  UNL A   1      25.849  18.226   9.530  1.00  0.00    +0.000 H 
ATOM      6  C4  UNL A   1      26.537  18.821  10.094  1.00  0.00    +0.000 C 
BRANCH    6    7
ATOM    100  H8  UNL A   1      25.328  20.276   9.135  1.00  0.00    +0.000 H 
ATOM    101  H9  UNL A   1      27.024  20.757   9.464  1.00  0.00    +0.000 H 
ATOM      7  C5  UNL A   1      26.141  20.277   9.831  1.00  0.00    +0.000 C 
BRANCH    7    8
ATOM    102  H10 UNL A   1      24.653  21.246  10.992  1.00  0.00    +0.000 H 
ATOM    103  H11 UNL A   1      26.287  21.978  11.048  1.00  0.00    +0.000 H 
ATOM      8  C6  UNL A   1      25.708  21.078  11.061  1.00  0.00    +0.000 C 
BRANCH    8    9
ATOM      9  C7  UNL A   1      25.993  20.411  12.403  1.00  0.00    +0.000 C 
ATOM    105  H13 UNL A   1      26.323  19.411  12.209  1.00  0.00    +0.000 H 
ATOM    104  H12 UNL A   1      26.743  20.975  12.916  1.00  0.00    +0.000 H 
BRANCH    9   10
ATOM     10  N2  UNL A   1      24.811  20.335  13.240  1.00  0.00    +0.000 N 
ATOM    106  H14 UNL A   1      24.926  20.624  14.174  1.00  0.00    +0.000 H 
BRANCH   10   11
ATOM     11  C8  UNL A   1      23.552  19.908  12.895  1.00  0.00    +0.000 C 
ATOM     12  O2  UNL A   1      22.565  20.581  13.181  1.00  0.00    +0.000 O 
BRANCH   11   13
ATOM    107  H15 UNL A   1      22.592  19.738  10.454  1.00  0.00    +0.000 H 
ATOM    108  H16 UNL A   1      22.348  17.782   9.036  1.00  0.00    +0.000 H 
ATOM     13  C9  UNL A   1      23.387  18.677  12.098  1.00  0.00    +0.000 C 
ATOM     14  C10 UNL A   1      22.869  18.808  10.805  1.00  0.00    +0.000 C 
ATOM     15  C11 UNL A   1      22.726  17.683   9.992  1.00  0.00    +0.000 C 
ATOM     16  C12 UNL A   1      23.094  16.417  10.470  1.00  0.00    +0.000 C 
ATOM    113  H21 UNL A   1      23.838  15.358  12.144  1.00  0.00    +0.000 H 
ATOM     27  C19 UNL A   1      23.580  16.289  11.781  1.00  0.00    +0.000 C 
ATOM     28  C20 UNL A   1      23.715  17.412  12.595  1.00  0.00    +0.000 C 
BRANCH   16   17
ATOM    109  H17 UNL A   1      24.977  14.445   9.949  1.00  0.00    +0.000 H 
ATOM    110  H18 UNL A   1      24.805  12.656   8.423  1.00  0.00    +0.000 H 
ATOM    112  H20 UNL A   1      21.032  15.618   9.123  1.00  0.00    +0.000 H 
ATOM     17  C13 UNL A   1      22.987  15.211   9.628  1.00  0.00    +0.000 C 
ATOM     18  C14 UNL A   1      24.099  14.302   9.426  1.00  0.00    +0.000 C 
ATOM     19  C15 UNL A   1      23.997  13.283   8.567  1.00  0.00    +0.000 C 
ATOM     20  N3  UNL A   1      22.827  13.055   7.867  1.00  0.00    +0.000 N 
ATOM     24  C17 UNL A   1      21.700  13.845   8.024  1.00  0.00    +0.000 C 
ATOM     25  O3  UNL A   1      20.631  13.692   7.443  1.00  0.00    +0.000 O 
ATOM     26  C18 UNL A   1      21.835  14.988   8.970  1.00  0.00    +0.000 C 
BRANCH   20   21
ATOM     21  C16 UNL A   1      22.745  11.982   6.911  1.00  0.00    +0.000 C 
ATOM     22  F1  UNL A   1      23.386  12.297   5.760  1.00  0.00    +0.000 F 
ATOM    111  H19 UNL A   1      21.706  11.821   6.712  1.00  0.00    +0.000 H 
ATOM     23  F2  UNL A   1      23.303  10.850   7.408  1.00  0.00    +0.000 F 
ENDBRANCH   20   21
ENDBRANCH   16   17
BRANCH   28   29
ATOM    114  H22 UNL A   1      23.863  16.568  14.409  1.00  0.00    +0.000 H 
ATOM     29  O4  UNL A   1      24.182  17.265  13.872  1.00  0.00    +0.000 O 
ENDBRANCH   28   29
ENDBRANCH   11   13
ENDBRANCH   10   11
ENDBRANCH    9   10
ENDBRANCH    8    9
ENDBRANCH    7    8
ENDBRANCH    6    7
ENDBRANCH    5    6
ENDBRANCH    4    5
ENDBRANCH    3    4
ENDBRANCH    2    3
ENDBRANCH   30    2
ENDBRANCH   34   33
BRANCH   38   39
ATOM     39  C29 UNL A   1      16.061  17.575   9.216  1.00  0.00    +0.000 C 
ATOM     40  C30 UNL A   1      15.998  18.140  10.498  1.00  0.00    +0.000 C 
ATOM     41  F3  UNL A   1      16.488  19.369  10.720  1.00  0.00    +0.000 F 
ATOM     42  C31 UNL A   1      15.443  17.437  11.564  1.00  0.00    +0.000 C 
ATOM     43  F4  UNL A   1      15.417  17.986  12.786  1.00  0.00    +0.000 F 
ATOM     44  C32 UNL A   1      14.918  16.169  11.364  1.00  0.00    +0.000 C 
ATOM     45  F5  UNL A   1      14.363  15.503  12.385  1.00  0.00    +0.000 F 
ATOM     46  C33 UNL A   1      14.966  15.593  10.103  1.00  0.00    +0.000 C 
ATOM     47  F6  UNL A   1      14.445  14.374   9.903  1.00  0.00    +0.000 F 
ATOM     48  C34 UNL A   1      15.545  16.283   9.040  1.00  0.00    +0.000 C 
ATOM     49  F7  UNL A   1      15.575  15.701   7.832  1.00  0.00    +0.000 F 
ENDBRANCH   38   39
BRANCH   55   56
ATOM     65  C45 UNL A   1      13.193  23.565   5.328  1.00  0.00    +0.000 C 
ATOM     66  F12 UNL A   1      14.069  24.077   6.205  1.00  0.00    +0.000 F 
ATOM     56  C40 UNL A   1      13.527  22.428   4.576  1.00  0.00    +0.000 C 
ATOM     57  C41 UNL A   1      12.574  21.925   3.680  1.00  0.00    +0.000 C 
ATOM     58  F8  UNL A   1      12.854  20.847   2.933  1.00  0.00    +0.000 F 
ATOM     59  C42 UNL A   1      11.331  22.537   3.544  1.00  0.00    +0.000 C 
ATOM     60  F9  UNL A   1      10.442  22.051   2.668  1.00  0.00    +0.000 F 
ATOM     61  C43 UNL A   1      11.011  23.644   4.316  1.00  0.00    +0.000 C 
ATOM     62  F10 UNL A   1       9.804  24.215   4.202  1.00  0.00    +0.000 F 
ATOM     63  C44 UNL A   1      11.940  24.158   5.208  1.00  0.00    +0.000 C 
ATOM     64  F11 UNL A   1      11.626  25.217   5.967  1.00  0.00    +0.000 F 
ENDBRANCH   55   56
BRANCH   70   71
ATOM     71  C49 UNL A   1      19.780  22.674   1.478  1.00  0.00    +0.000 C 
ATOM     72  C50 UNL A   1      19.624  22.229   0.157  1.00  0.00    +0.000 C 
ATOM     73  F13 UNL A   1      18.991  21.072  -0.088  1.00  0.00    +0.000 F 
ATOM     74  C51 UNL A   1      20.146  22.952  -0.914  1.00  0.00    +0.000 C 
ATOM     75  F14 UNL A   1      20.016  22.483  -2.162  1.00  0.00    +0.000 F 
ATOM     76  C52 UNL A   1      20.810  24.147  -0.689  1.00  0.00    +0.000 C 
ATOM     77  F15 UNL A   1      21.305  24.847  -1.719  1.00  0.00    +0.000 F 
ATOM     78  C53 UNL A   1      20.965  24.615   0.608  1.00  0.00    +0.000 C 
ATOM     79  F16 UNL A   1      21.594  25.777   0.829  1.00  0.00    +0.000 F 
ATOM     80  C54 UNL A   1      20.467  23.880   1.681  1.00  0.00    +0.000 C 
ATOM     81  F17 UNL A   1      20.642  24.351   2.925  1.00  0.00    +0.000 F 
ENDBRANCH   70   71
TORSDOF 18
ENDMDL
