MODEL 1
REMARK VINA RESULT:      -8.7      0.000      0.000
ROOT
ATOM    140  H42 UNL A   1      19.911  33.769  47.199  1.00  0.00    +0.000 H 
ATOM    141  H43 UNL A   1      17.894  35.022  48.275  1.00  0.00    +0.000 H 
ATOM    142  H44 UNL A   1      21.044  37.687  47.926  1.00  0.00    +0.000 H 
ATOM    143  H45 UNL A   1      23.541  43.454  49.060  1.00  0.00    +0.000 H 
ATOM    144  H46 UNL A   1      25.469  42.259  47.913  1.00  0.00    +0.000 H 
ATOM    145  H47 UNL A   1      22.293  39.589  48.173  1.00  0.00    +0.000 H 
ATOM    146  H48 UNL A   1      18.508  42.138  50.276  1.00  0.00    +0.000 H 
ATOM    147  H49 UNL A   1      17.169  39.958  50.206  1.00  0.00    +0.000 H 
ATOM    148  H50 UNL A   1      24.788  35.331  45.579  1.00  0.00    +0.000 H 
ATOM    149  H51 UNL A   1      26.303  37.334  46.079  1.00  0.00    +0.000 H 
ATOM     40  C31 UNL A   1      24.933  39.538  47.251  1.00  0.00    +0.000 C 
ATOM     41  C32 UNL A   1      24.387  38.169  46.958  1.00  0.00    +0.000 C 
ATOM     42  N5  UNL A   1      23.188  37.689  47.176  1.00  0.00    +0.000 N 
ATOM     43  C33 UNL A   1      23.205  36.393  46.680  1.00  0.00    +0.000 C 
ATOM     44  C34 UNL A   1      22.229  35.453  46.731  1.00  0.00    +0.000 C 
ATOM     56  C41 UNL A   1      20.936  35.663  47.329  1.00  0.00    +0.000 C 
ATOM     57  C42 UNL A   1      19.896  34.762  47.479  1.00  0.00    +0.000 C 
ATOM     58  C43 UNL A   1      18.820  35.431  48.072  1.00  0.00    +0.000 C 
ATOM     59  C44 UNL A   1      19.207  36.734  48.342  1.00  0.00    +0.000 C 
ATOM     60  N6  UNL A   1      20.506  36.864  47.875  1.00  0.00    +0.000 N 
ATOM     61  C45 UNL A   1      18.449  37.783  48.975  1.00  0.00    +0.000 C 
ATOM     73  C52 UNL A   1      18.906  39.037  49.217  1.00  0.00    +0.000 C 
ATOM     74  N7  UNL A   1      20.151  39.581  48.933  1.00  0.00    +0.000 N 
ATOM     75  C53 UNL A   1      20.105  40.824  49.348  1.00  0.00    +0.000 C 
ATOM     76  C54 UNL A   1      21.180  41.875  49.324  1.00  0.00    +0.000 C 
ATOM     88  C61 UNL A   1      22.386  41.571  48.806  1.00  0.00    +0.000 C 
ATOM     89  C62 UNL A   1      23.525  42.480  48.719  1.00  0.00    +0.000 C 
ATOM     90  C63 UNL A   1      24.547  41.845  48.124  1.00  0.00    +0.000 C 
ATOM     91  C64 UNL A   1      24.147  40.469  47.824  1.00  0.00    +0.000 C 
ATOM     92  N8  UNL A   1      22.845  40.401  48.253  1.00  0.00    +0.000 N 
ATOM     93  C65 UNL A   1      18.809  41.218  49.917  1.00  0.00    +0.000 C 
ATOM     94  C66 UNL A   1      18.130  40.083  49.852  1.00  0.00    +0.000 C 
ATOM     95  C67 UNL A   1      24.511  36.180  46.095  1.00  0.00    +0.000 C 
ATOM     96  C68 UNL A   1      25.303  37.220  46.309  1.00  0.00    +0.000 C 
ENDROOT
BRANCH   40   39
ATOM     97  C69 UNL A   1      26.543  40.601  45.666  1.00  0.00    +0.000 C 
ATOM     98  C70 UNL A   1      27.839  40.909  45.261  1.00  0.00    +0.000 C 
ATOM     36  C27 UNL A   1      28.920  40.610  46.095  1.00  0.00    +0.000 C 
ATOM     37  C28 UNL A   1      28.712  39.886  47.272  1.00  0.00    +0.000 C 
ATOM     38  C29 UNL A   1      27.419  39.509  47.639  1.00  0.00    +0.000 C 
ATOM     39  C30 UNL A   1      26.320  39.890  46.854  1.00  0.00    +0.000 C 
ATOM    138  H40 UNL A   1      29.514  39.631  47.870  1.00  0.00    +0.000 H 
ATOM    139  H41 UNL A   1      27.270  38.948  48.493  1.00  0.00    +0.000 H 
ATOM    150  H52 UNL A   1      25.741  40.899  45.088  1.00  0.00    +0.000 H 
ATOM    151  H53 UNL A   1      28.002  41.357  44.346  1.00  0.00    +0.000 H 
BRANCH   36   34
ATOM     34  C26 UNL A   1      30.301  41.017  45.747  1.00  0.00    +0.000 C 
ATOM     35  O5  UNL A   1      30.708  42.127  46.079  1.00  0.00    +0.000 O 
BRANCH   34   33
ATOM     33  N4  UNL A   1      31.119  40.173  45.040  1.00  0.00    +0.000 N 
ATOM    137  H39 UNL A   1      32.041  40.107  45.377  1.00  0.00    +0.000 H 
BRANCH   33   32
ATOM    136  H38 UNL A   1      31.704  39.364  43.251  1.00  0.00    +0.000 H 
ATOM    135  H37 UNL A   1      29.987  39.779  43.362  1.00  0.00    +0.000 H 
ATOM     32  C25 UNL A   1      30.831  39.362  43.870  1.00  0.00    +0.000 C 
BRANCH   32   31
ATOM    133  H35 UNL A   1      30.977  37.288  43.487  1.00  0.00    +0.000 H 
ATOM    134  H36 UNL A   1      30.905  37.762  45.212  1.00  0.00    +0.000 H 
ATOM     31  C24 UNL A   1      30.521  37.913  44.225  1.00  0.00    +0.000 C 
BRANCH   31   30
ATOM    131  H33 UNL A   1      28.511  38.408  44.679  1.00  0.00    +0.000 H 
ATOM    132  H34 UNL A   1      28.757  37.291  43.293  1.00  0.00    +0.000 H 
ATOM     30  C23 UNL A   1      29.033  37.559  44.291  1.00  0.00    +0.000 C 
BRANCH   30   29
ATOM    129  H31 UNL A   1      29.479  36.173  45.836  1.00  0.00    +0.000 H 
ATOM    130  H32 UNL A   1      27.744  36.604  45.637  1.00  0.00    +0.000 H 
ATOM     29  C22 UNL A   1      28.667  36.347  45.160  1.00  0.00    +0.000 C 
BRANCH   29   28
ATOM     28  C21 UNL A   1      28.392  35.036  44.412  1.00  0.00    +0.000 C 
ATOM    127  H29 UNL A   1      27.341  34.842  44.453  1.00  0.00    +0.000 H 
ATOM    128  H30 UNL A   1      28.753  35.174  43.414  1.00  0.00    +0.000 H 
BRANCH   28   27
ATOM     27  C20 UNL A   1      29.122  33.823  44.973  1.00  0.00    +0.000 C 
ATOM    125  H27 UNL A   1      29.730  33.405  44.199  1.00  0.00    +0.000 H 
ATOM    126  H28 UNL A   1      29.704  34.162  45.805  1.00  0.00    +0.000 H 
BRANCH   27   26
ATOM     26  N3  UNL A   1      28.231  32.793  45.464  1.00  0.00    +0.000 N 
ATOM    124  H26 UNL A   1      28.305  31.883  45.096  1.00  0.00    +0.000 H 
BRANCH   26   24
ATOM     25  O4  UNL A   1      26.114  33.185  46.060  1.00  0.00    +0.000 O 
ATOM     24  C19 UNL A   1      27.286  33.047  46.430  1.00  0.00    +0.000 C 
BRANCH   24   16
ATOM    116  H18 UNL A   1      26.836  32.827  48.471  1.00  0.00    +0.000 H 
ATOM     16  C11 UNL A   1      27.676  33.208  47.930  1.00  0.00    +0.000 C 
BRANCH   16   15
ATOM    115  H17 UNL A   1      29.674  32.738  48.384  1.00  0.00    +0.000 H 
ATOM     15  N2  UNL A   1      28.769  32.352  48.430  1.00  0.00    +0.000 N 
BRANCH   15   13
ATOM     13  C10 UNL A   1      28.682  31.087  48.950  1.00  0.00    +0.000 C 
ATOM     14  O3  UNL A   1      28.665  30.979  50.180  1.00  0.00    +0.000 O 
BRANCH   13   12
ATOM      8  N1  UNL A   1      29.091  28.624  48.573  1.00  0.00    +0.000 N 
ATOM      9  C6  UNL A   1      28.101  27.575  48.671  1.00  0.00    +0.000 C 
ATOM     10  C7  UNL A   1      27.000  28.014  47.724  1.00  0.00    +0.000 C 
ATOM     11  C8  UNL A   1      27.056  29.537  47.793  1.00  0.00    +0.000 C 
ATOM     12  C9  UNL A   1      28.545  29.862  48.018  1.00  0.00    +0.000 C 
ATOM    108  H10 UNL A   1      27.731  27.495  49.672  1.00  0.00    +0.000 H 
ATOM    109  H11 UNL A   1      28.496  26.612  48.423  1.00  0.00    +0.000 H 
ATOM    110  H12 UNL A   1      26.047  27.652  48.050  1.00  0.00    +0.000 H 
ATOM    111  H13 UNL A   1      27.131  27.638  46.731  1.00  0.00    +0.000 H 
ATOM    112  H14 UNL A   1      26.462  29.900  48.606  1.00  0.00    +0.000 H 
ATOM    114  H16 UNL A   1      29.079  30.142  47.135  1.00  0.00    +0.000 H 
ATOM    113  H15 UNL A   1      26.670  29.998  46.908  1.00  0.00    +0.000 H 
BRANCH    8    6
ATOM      6  C5  UNL A   1      30.442  28.484  48.739  1.00  0.00    +0.000 C 
ATOM      7  O2  UNL A   1      30.953  28.441  49.843  1.00  0.00    +0.000 O 
BRANCH    6    5
ATOM      1  C1  UNL A   1      32.672  27.625  45.976  1.00  0.00    +0.000 C 
ATOM      2  C2  UNL A   1      31.705  27.231  47.101  1.00  0.00    +0.000 C 
ATOM     99  H1  UNL A   1      33.129  26.745  45.574  1.00  0.00    +0.000 H 
ATOM    100  H2  UNL A   1      33.429  28.273  46.367  1.00  0.00    +0.000 H 
ATOM    101  H3  UNL A   1      32.134  28.132  45.203  1.00  0.00    +0.000 H 
ATOM      3  C3  UNL A   1      30.590  26.352  46.525  1.00  0.00    +0.000 C 
ATOM      4  C4  UNL A   1      32.524  26.478  48.167  1.00  0.00    +0.000 C 
ATOM      5  O1  UNL A   1      31.141  28.486  47.576  1.00  0.00    +0.000 O 
ATOM    102  H4  UNL A   1      31.007  25.430  46.176  1.00  0.00    +0.000 H 
ATOM    103  H5  UNL A   1      30.119  26.861  45.711  1.00  0.00    +0.000 H 
ATOM    104  H6  UNL A   1      29.866  26.151  47.286  1.00  0.00    +0.000 H 
ATOM    105  H7  UNL A   1      32.905  25.570  47.748  1.00  0.00    +0.000 H 
ATOM    106  H8  UNL A   1      31.897  26.250  49.003  1.00  0.00    +0.000 H 
ATOM    107  H9  UNL A   1      33.339  27.093  48.489  1.00  0.00    +0.000 H 
ENDBRANCH    6    5
ENDBRANCH    8    6
ENDBRANCH   13   12
ENDBRANCH   15   13
ENDBRANCH   16   15
BRANCH   16   17
ATOM     17  C12 UNL A   1      27.878  34.700  48.277  1.00  0.00    +0.000 C 
ATOM    117  H19 UNL A   1      28.042  35.229  47.362  1.00  0.00    +0.000 H 
ATOM    118  H20 UNL A   1      28.706  34.731  48.954  1.00  0.00    +0.000 H 
BRANCH   17   18
ATOM     18  C13 UNL A   1      26.733  35.370  49.001  1.00  0.00    +0.000 C 
ATOM     19  C14 UNL A   1      26.892  36.653  49.544  1.00  0.00    +0.000 C 
ATOM     20  C15 UNL A   1      25.866  37.245  50.281  1.00  0.00    +0.000 C 
ATOM     21  C16 UNL A   1      24.657  36.575  50.453  1.00  0.00    +0.000 C 
ATOM     22  C17 UNL A   1      24.472  35.318  49.878  1.00  0.00    +0.000 C 
ATOM     23  C18 UNL A   1      25.505  34.715  49.158  1.00  0.00    +0.000 C 
ATOM    119  H21 UNL A   1      27.777  37.164  49.398  1.00  0.00    +0.000 H 
ATOM    120  H22 UNL A   1      26.002  38.179  50.698  1.00  0.00    +0.000 H 
ATOM    122  H24 UNL A   1      23.568  34.832  49.986  1.00  0.00    +0.000 H 
ATOM    123  H25 UNL A   1      25.363  33.783  48.741  1.00  0.00    +0.000 H 
ATOM    121  H23 UNL A   1      23.900  37.007  51.005  1.00  0.00    +0.000 H 
ENDBRANCH   17   18
ENDBRANCH   16   17
ENDBRANCH   24   16
ENDBRANCH   26   24
ENDBRANCH   27   26
ENDBRANCH   28   27
ENDBRANCH   29   28
ENDBRANCH   30   29
ENDBRANCH   31   30
ENDBRANCH   32   31
ENDBRANCH   33   32
ENDBRANCH   34   33
ENDBRANCH   36   34
ENDBRANCH   40   39
BRANCH   44   45
ATOM     45  C35 UNL A   1      22.529  34.114  46.119  1.00  0.00    +0.000 C 
ATOM     46  C36 UNL A   1      22.628  33.946  44.728  1.00  0.00    +0.000 C 
ATOM     47  F1  UNL A   1      22.439  34.990  43.907  1.00  0.00    +0.000 F 
ATOM     48  C37 UNL A   1      22.869  32.693  44.171  1.00  0.00    +0.000 C 
ATOM     49  F2  UNL A   1      22.895  32.547  42.840  1.00  0.00    +0.000 F 
ATOM     50  C38 UNL A   1      23.059  31.592  44.993  1.00  0.00    +0.000 C 
ATOM     51  F3  UNL A   1      23.290  30.386  44.455  1.00  0.00    +0.000 F 
ATOM     52  C39 UNL A   1      22.999  31.740  46.370  1.00  0.00    +0.000 C 
ATOM     53  F4  UNL A   1      23.197  30.679  47.164  1.00  0.00    +0.000 F 
ATOM     54  C40 UNL A   1      22.724  32.985  46.929  1.00  0.00    +0.000 C 
ATOM     55  F5  UNL A   1      22.649  33.089  48.265  1.00  0.00    +0.000 F 
ENDBRANCH   44   45
BRANCH   61   62
ATOM     65  C48 UNL A   1      15.422  37.084  51.190  1.00  0.00    +0.000 C 
ATOM     66  F7  UNL A   1      15.139  36.951  52.493  1.00  0.00    +0.000 F 
ATOM     67  C49 UNL A   1      14.421  36.919  50.244  1.00  0.00    +0.000 C 
ATOM     68  F8  UNL A   1      13.167  36.650  50.633  1.00  0.00    +0.000 F 
ATOM     69  C50 UNL A   1      14.721  37.026  48.895  1.00  0.00    +0.000 C 
ATOM     70  F9  UNL A   1      13.752  36.881  47.980  1.00  0.00    +0.000 F 
ATOM     71  C51 UNL A   1      16.027  37.282  48.488  1.00  0.00    +0.000 C 
ATOM     72  F10 UNL A   1      16.290  37.365  47.175  1.00  0.00    +0.000 F 
ATOM     62  C46 UNL A   1      17.054  37.463  49.428  1.00  0.00    +0.000 C 
ATOM     63  C47 UNL A   1      16.724  37.370  50.788  1.00  0.00    +0.000 C 
ATOM     64  F6  UNL A   1      17.673  37.519  51.725  1.00  0.00    +0.000 F 
ENDBRANCH   61   62
BRANCH   76   77
ATOM     77  C55 UNL A   1      20.943  43.224  49.898  1.00  0.00    +0.000 C 
ATOM     78  C56 UNL A   1      20.494  44.276  49.088  1.00  0.00    +0.000 C 
ATOM     79  F11 UNL A   1      20.305  44.077  47.775  1.00  0.00    +0.000 F 
ATOM     80  C57 UNL A   1      20.271  45.547  49.615  1.00  0.00    +0.000 C 
ATOM     81  F12 UNL A   1      19.878  46.543  48.811  1.00  0.00    +0.000 F 
ATOM     82  C58 UNL A   1      20.467  45.782  50.968  1.00  0.00    +0.000 C 
ATOM     83  F13 UNL A   1      20.244  47.002  51.476  1.00  0.00    +0.000 F 
ATOM     84  C59 UNL A   1      20.898  44.754  51.791  1.00  0.00    +0.000 C 
ATOM     85  F14 UNL A   1      21.074  44.975  53.101  1.00  0.00    +0.000 F 
ATOM     86  C60 UNL A   1      21.148  43.490  51.260  1.00  0.00    +0.000 C 
ATOM     87  F15 UNL A   1      21.573  42.516  52.078  1.00  0.00    +0.000 F 
ENDBRANCH   76   77
TORSDOF 22
ENDMDL
MODEL 2
REMARK VINA RESULT:      -8.3     43.818     47.307
ROOT
ATOM    140  H42 UNL A   1      18.725  53.235  -1.241  1.00  0.00    +0.000 H 
ATOM    141  H43 UNL A   1      18.249  50.730  -1.787  1.00  0.00    +0.000 H 
ATOM    142  H44 UNL A   1      15.926  51.817   1.464  1.00  0.00    +0.000 H 
ATOM    143  H45 UNL A   1      11.861  50.214   6.121  1.00  0.00    +0.000 H 
ATOM    144  H46 UNL A   1      12.247  52.682   6.583  1.00  0.00    +0.000 H 
ATOM    145  H47 UNL A   1      14.524  51.639   3.265  1.00  0.00    +0.000 H 
ATOM    146  H48 UNL A   1      13.515  46.801   2.357  1.00  0.00    +0.000 H 
ATOM    147  H49 UNL A   1      15.244  46.925   0.474  1.00  0.00    +0.000 H 
ATOM    148  H50 UNL A   1      16.637  56.705   2.288  1.00  0.00    +0.000 H 
ATOM    149  H51 UNL A   1      15.301  56.489   4.461  1.00  0.00    +0.000 H 
ATOM     40  C31 UNL A   1      14.109  53.927   4.818  1.00  0.00    +0.000 C 
ATOM     41  C32 UNL A   1      15.061  54.353   3.737  1.00  0.00    +0.000 C 
ATOM     42  N5  UNL A   1      15.553  53.657   2.742  1.00  0.00    +0.000 N 
ATOM     43  C33 UNL A   1      16.344  54.540   2.019  1.00  0.00    +0.000 C 
ATOM     44  C34 UNL A   1      17.126  54.289   0.941  1.00  0.00    +0.000 C 
ATOM     56  C41 UNL A   1      17.259  52.995   0.323  1.00  0.00    +0.000 C 
ATOM     57  C42 UNL A   1      18.062  52.623  -0.740  1.00  0.00    +0.000 C 
ATOM     58  C43 UNL A   1      17.819  51.274  -1.022  1.00  0.00    +0.000 C 
ATOM     59  C44 UNL A   1      16.904  50.791  -0.100  1.00  0.00    +0.000 C 
ATOM     60  N6  UNL A   1      16.565  51.859   0.716  1.00  0.00    +0.000 N 
ATOM     61  C45 UNL A   1      16.376  49.456   0.027  1.00  0.00    +0.000 C 
ATOM     73  C52 UNL A   1      15.488  49.056   0.971  1.00  0.00    +0.000 C 
ATOM     74  N7  UNL A   1      14.908  49.796   1.992  1.00  0.00    +0.000 N 
ATOM     75  C53 UNL A   1      14.115  48.971   2.631  1.00  0.00    +0.000 C 
ATOM     76  C54 UNL A   1      13.258  49.220   3.841  1.00  0.00    +0.000 C 
ATOM     88  C61 UNL A   1      13.246  50.447   4.397  1.00  0.00    +0.000 C 
ATOM     89  C62 UNL A   1      12.474  50.837   5.573  1.00  0.00    +0.000 C 
ATOM     90  C63 UNL A   1      12.687  52.139   5.824  1.00  0.00    +0.000 C 
ATOM     91  C64 UNL A   1      13.644  52.664   4.849  1.00  0.00    +0.000 C 
ATOM     92  N8  UNL A   1      13.912  51.591   4.035  1.00  0.00    +0.000 N 
ATOM     93  C65 UNL A   1      14.079  47.615   2.065  1.00  0.00    +0.000 C 
ATOM     94  C66 UNL A   1      14.964  47.710   1.083  1.00  0.00    +0.000 C 
ATOM     95  C67 UNL A   1      16.221  55.835   2.652  1.00  0.00    +0.000 C 
ATOM     96  C68 UNL A   1      15.501  55.756   3.762  1.00  0.00    +0.000 C 
ENDROOT
BRANCH   40   39
ATOM     97  C69 UNL A   1      12.405  55.570   5.615  1.00  0.00    +0.000 C 
ATOM     98  C70 UNL A   1      11.956  56.522   6.527  1.00  0.00    +0.000 C 
ATOM     36  C27 UNL A   1      12.665  56.744   7.710  1.00  0.00    +0.000 C 
ATOM     37  C28 UNL A   1      13.893  56.109   7.916  1.00  0.00    +0.000 C 
ATOM     38  C29 UNL A   1      14.382  55.212   6.964  1.00  0.00    +0.000 C 
ATOM     39  C30 UNL A   1      13.627  54.912   5.820  1.00  0.00    +0.000 C 
ATOM    138  H40 UNL A   1      14.437  56.302   8.772  1.00  0.00    +0.000 H 
ATOM    139  H41 UNL A   1      15.303  54.767   7.103  1.00  0.00    +0.000 H 
ATOM    150  H52 UNL A   1      11.835  55.346   4.785  1.00  0.00    +0.000 H 
ATOM    151  H53 UNL A   1      11.099  57.062   6.330  1.00  0.00    +0.000 H 
BRANCH   36   34
ATOM     34  C26 UNL A   1      12.162  57.670   8.751  1.00  0.00    +0.000 C 
ATOM     35  O5  UNL A   1      12.536  58.839   8.754  1.00  0.00    +0.000 O 
BRANCH   34   33
ATOM     33  N4  UNL A   1      11.298  57.227   9.720  1.00  0.00    +0.000 N 
ATOM    137  H39 UNL A   1      10.561  57.842   9.935  1.00  0.00    +0.000 H 
BRANCH   33   32
ATOM    136  H38 UNL A   1      10.652  56.113  11.313  1.00  0.00    +0.000 H 
ATOM    135  H37 UNL A   1      12.309  55.781  10.787  1.00  0.00    +0.000 H 
ATOM     32  C25 UNL A   1      11.306  55.987  10.476  1.00  0.00    +0.000 C 
BRANCH   32   31
ATOM    133  H35 UNL A   1       9.749  54.692   9.868  1.00  0.00    +0.000 H 
ATOM    134  H36 UNL A   1      11.011  55.031   8.642  1.00  0.00    +0.000 H 
ATOM     31  C24 UNL A   1      10.794  54.804   9.664  1.00  0.00    +0.000 C 
BRANCH   31   30
ATOM    131  H33 UNL A   1      11.001  53.032  10.808  1.00  0.00    +0.000 H 
ATOM    132  H34 UNL A   1      11.378  52.891   9.056  1.00  0.00    +0.000 H 
ATOM     30  C23 UNL A   1      11.478  53.465   9.954  1.00  0.00    +0.000 C 
BRANCH   30   29
ATOM    129  H31 UNL A   1      13.306  54.535  10.082  1.00  0.00    +0.000 H 
ATOM    130  H32 UNL A   1      13.102  53.177  11.243  1.00  0.00    +0.000 H 
ATOM     29  C22 UNL A   1      12.985  53.526  10.238  1.00  0.00    +0.000 C 
BRANCH   29   28
ATOM     28  C21 UNL A   1      13.873  52.615   9.381  1.00  0.00    +0.000 C 
ATOM    127  H29 UNL A   1      13.255  51.859   8.945  1.00  0.00    +0.000 H 
ATOM    128  H30 UNL A   1      14.341  53.245   8.652  1.00  0.00    +0.000 H 
BRANCH   28   27
ATOM     27  C20 UNL A   1      14.997  51.928  10.144  1.00  0.00    +0.000 C 
ATOM    125  H27 UNL A   1      15.632  51.432   9.441  1.00  0.00    +0.000 H 
ATOM    126  H28 UNL A   1      15.517  52.687  10.692  1.00  0.00    +0.000 H 
BRANCH   27   26
ATOM     26  N3  UNL A   1      14.527  50.952  11.105  1.00  0.00    +0.000 N 
ATOM    124  H26 UNL A   1      14.438  51.217  12.049  1.00  0.00    +0.000 H 
BRANCH   26   24
ATOM     25  O4  UNL A   1      15.130  48.876  10.542  1.00  0.00    +0.000 O 
ATOM     24  C19 UNL A   1      14.201  49.667  10.739  1.00  0.00    +0.000 C 
BRANCH   24   16
ATOM    116  H18 UNL A   1      12.580  48.414  11.203  1.00  0.00    +0.000 H 
ATOM     16  C11 UNL A   1      12.719  49.231  10.528  1.00  0.00    +0.000 C 
BRANCH   16   15
ATOM    115  H17 UNL A   1      11.599  51.008  10.459  1.00  0.00    +0.000 H 
ATOM     15  N2  UNL A   1      11.677  50.174  10.977  1.00  0.00    +0.000 N 
BRANCH   15   13
ATOM     13  C10 UNL A   1      10.804  50.034  12.023  1.00  0.00    +0.000 C 
ATOM     14  O3  UNL A   1       9.721  49.489  11.790  1.00  0.00    +0.000 O 
BRANCH   13   12
ATOM      8  N1  UNL A   1      12.088  49.559  14.145  1.00  0.00    +0.000 N 
ATOM      9  C6  UNL A   1      13.340  50.170  14.533  1.00  0.00    +0.000 C 
ATOM     10  C7  UNL A   1      13.056  51.660  14.485  1.00  0.00    +0.000 C 
ATOM     11  C8  UNL A   1      12.023  51.790  13.370  1.00  0.00    +0.000 C 
ATOM     12  C9  UNL A   1      11.202  50.488  13.445  1.00  0.00    +0.000 C 
ATOM    108  H10 UNL A   1      14.119  49.909  13.847  1.00  0.00    +0.000 H 
ATOM    109  H11 UNL A   1      13.673  49.847  15.497  1.00  0.00    +0.000 H 
ATOM    110  H12 UNL A   1      13.943  52.211  14.250  1.00  0.00    +0.000 H 
ATOM    111  H13 UNL A   1      12.710  52.048  15.420  1.00  0.00    +0.000 H 
ATOM    112  H14 UNL A   1      12.504  51.879  12.418  1.00  0.00    +0.000 H 
ATOM    114  H16 UNL A   1      10.271  50.578  13.964  1.00  0.00    +0.000 H 
ATOM    113  H15 UNL A   1      11.412  52.662  13.483  1.00  0.00    +0.000 H 
BRANCH    8    6
ATOM      6  C5  UNL A   1      11.621  48.338  14.548  1.00  0.00    +0.000 C 
ATOM      7  O2  UNL A   1      11.199  48.149  15.674  1.00  0.00    +0.000 O 
BRANCH    6    5
ATOM      1  C1  UNL A   1      12.431  45.242  12.785  1.00  0.00    +0.000 C 
ATOM      2  C2  UNL A   1      12.032  46.006  14.055  1.00  0.00    +0.000 C 
ATOM     99  H1  UNL A   1      12.653  44.225  13.035  1.00  0.00    +0.000 H 
ATOM    100  H2  UNL A   1      13.295  45.699  12.350  1.00  0.00    +0.000 H 
ATOM    101  H3  UNL A   1      11.623  45.268  12.084  1.00  0.00    +0.000 H 
ATOM      3  C3  UNL A   1      10.761  45.385  14.641  1.00  0.00    +0.000 C 
ATOM      4  C4  UNL A   1      13.214  45.907  15.039  1.00  0.00    +0.000 C 
ATOM      5  O1  UNL A   1      11.753  47.364  13.612  1.00  0.00    +0.000 O 
ATOM    102  H4  UNL A   1      10.968  44.386  14.966  1.00  0.00    +0.000 H 
ATOM    103  H5  UNL A   1       9.996  45.364  13.893  1.00  0.00    +0.000 H 
ATOM    104  H6  UNL A   1      10.429  45.969  15.474  1.00  0.00    +0.000 H 
ATOM    105  H7  UNL A   1      13.360  44.885  15.319  1.00  0.00    +0.000 H 
ATOM    106  H8  UNL A   1      13.002  46.490  15.910  1.00  0.00    +0.000 H 
ATOM    107  H9  UNL A   1      14.101  46.278  14.568  1.00  0.00    +0.000 H 
ENDBRANCH    6    5
ENDBRANCH    8    6
ENDBRANCH   13   12
ENDBRANCH   15   13
ENDBRANCH   16   15
BRANCH   16   17
ATOM     17  C12 UNL A   1      12.503  48.744   9.078  1.00  0.00    +0.000 C 
ATOM    117  H19 UNL A   1      13.219  47.973   8.882  1.00  0.00    +0.000 H 
ATOM    118  H20 UNL A   1      12.615  49.611   8.461  1.00  0.00    +0.000 H 
BRANCH   17   18
ATOM     18  C13 UNL A   1      11.131  48.194   8.764  1.00  0.00    +0.000 C 
ATOM     19  C14 UNL A   1      10.273  48.884   7.896  1.00  0.00    +0.000 C 
ATOM     20  C15 UNL A   1       8.977  48.423   7.663  1.00  0.00    +0.000 C 
ATOM     21  C16 UNL A   1       8.537  47.248   8.269  1.00  0.00    +0.000 C 
ATOM     22  C17 UNL A   1       9.398  46.529   9.098  1.00  0.00    +0.000 C 
ATOM     23  C18 UNL A   1      10.689  47.000   9.347  1.00  0.00    +0.000 C 
ATOM    119  H21 UNL A   1      10.602  49.741   7.425  1.00  0.00    +0.000 H 
ATOM    120  H22 UNL A   1       8.344  48.951   7.042  1.00  0.00    +0.000 H 
ATOM    122  H24 UNL A   1       9.080  45.647   9.527  1.00  0.00    +0.000 H 
ATOM    123  H25 UNL A   1      11.318  46.467   9.967  1.00  0.00    +0.000 H 
ATOM    121  H23 UNL A   1       7.576  46.910   8.105  1.00  0.00    +0.000 H 
ENDBRANCH   17   18
ENDBRANCH   16   17
ENDBRANCH   24   16
ENDBRANCH   26   24
ENDBRANCH   27   26
ENDBRANCH   28   27
ENDBRANCH   29   28
ENDBRANCH   30   29
ENDBRANCH   31   30
ENDBRANCH   32   31
ENDBRANCH   33   32
ENDBRANCH   34   33
ENDBRANCH   36   34
ENDBRANCH   40   39
BRANCH   44   45
ATOM     45  C35 UNL A   1      17.894  55.443   0.363  1.00  0.00    +0.000 C 
ATOM     46  C36 UNL A   1      17.428  56.151  -0.758  1.00  0.00    +0.000 C 
ATOM     47  F1  UNL A   1      16.278  55.794  -1.350  1.00  0.00    +0.000 F 
ATOM     48  C37 UNL A   1      18.166  57.195  -1.307  1.00  0.00    +0.000 C 
ATOM     49  F2  UNL A   1      17.732  57.811  -2.414  1.00  0.00    +0.000 F 
ATOM     50  C38 UNL A   1      19.363  57.581  -0.724  1.00  0.00    +0.000 C 
ATOM     51  F3  UNL A   1      20.075  58.586  -1.255  1.00  0.00    +0.000 F 
ATOM     52  C39 UNL A   1      19.828  56.919   0.403  1.00  0.00    +0.000 C 
ATOM     53  F4  UNL A   1      20.978  57.302   0.974  1.00  0.00    +0.000 F 
ATOM     54  C40 UNL A   1      19.108  55.853   0.934  1.00  0.00    +0.000 C 
ATOM     55  F5  UNL A   1      19.598  55.218   2.010  1.00  0.00    +0.000 F 
ENDBRANCH   44   45
BRANCH   61   62
ATOM     65  C48 UNL A   1      16.623  47.141  -2.997  1.00  0.00    +0.000 C 
ATOM     66  F7  UNL A   1      15.900  46.819  -4.078  1.00  0.00    +0.000 F 
ATOM     67  C49 UNL A   1      17.835  46.508  -2.760  1.00  0.00    +0.000 C 
ATOM     68  F8  UNL A   1      18.293  45.591  -3.624  1.00  0.00    +0.000 F 
ATOM     69  C50 UNL A   1      18.567  46.820  -1.626  1.00  0.00    +0.000 C 
ATOM     70  F9  UNL A   1      19.744  46.220  -1.403  1.00  0.00    +0.000 F 
ATOM     71  C51 UNL A   1      18.082  47.756  -0.716  1.00  0.00    +0.000 C 
ATOM     72  F10 UNL A   1      18.806  48.026   0.380  1.00  0.00    +0.000 F 
ATOM     62  C46 UNL A   1      16.864  48.417  -0.940  1.00  0.00    +0.000 C 
ATOM     63  C47 UNL A   1      16.149  48.099  -2.105  1.00  0.00    +0.000 C 
ATOM     64  F6  UNL A   1      14.971  48.692  -2.356  1.00  0.00    +0.000 F 
ENDBRANCH   61   62
BRANCH   76   77
ATOM     77  C55 UNL A   1      12.462  48.125   4.453  1.00  0.00    +0.000 C 
ATOM     78  C56 UNL A   1      12.989  47.357   5.499  1.00  0.00    +0.000 C 
ATOM     79  F11 UNL A   1      14.236  47.587   5.936  1.00  0.00    +0.000 F 
ATOM     80  C57 UNL A   1      12.252  46.326   6.079  1.00  0.00    +0.000 C 
ATOM     81  F12 UNL A   1      12.795  45.583   7.052  1.00  0.00    +0.000 F 
ATOM     82  C58 UNL A   1      10.963  46.062   5.641  1.00  0.00    +0.000 C 
ATOM     83  F13 UNL A   1      10.251  45.076   6.204  1.00  0.00    +0.000 F 
ATOM     84  C59 UNL A   1      10.415  46.818   4.615  1.00  0.00    +0.000 C 
ATOM     85  F14 UNL A   1       9.165  46.574   4.200  1.00  0.00    +0.000 F 
ATOM     86  C60 UNL A   1      11.161  47.830   4.017  1.00  0.00    +0.000 C 
ATOM     87  F15 UNL A   1      10.610  48.540   3.021  1.00  0.00    +0.000 F 
ENDBRANCH   76   77
TORSDOF 22
ENDMDL
MODEL 3
REMARK VINA RESULT:      -8.2     44.397     47.954
ROOT
ATOM    140  H42 UNL A   1      19.104  53.439  -1.673  1.00  0.00    +0.000 H 
ATOM    141  H43 UNL A   1      18.598  50.969  -2.335  1.00  0.00    +0.000 H 
ATOM    142  H44 UNL A   1      16.248  51.947   0.931  1.00  0.00    +0.000 H 
ATOM    143  H45 UNL A   1      12.099  50.203   5.462  1.00  0.00    +0.000 H 
ATOM    144  H46 UNL A   1      12.516  52.643   6.037  1.00  0.00    +0.000 H 
ATOM    145  H47 UNL A   1      14.820  51.712   2.705  1.00  0.00    +0.000 H 
ATOM    146  H48 UNL A   1      13.750  46.935   1.571  1.00  0.00    +0.000 H 
ATOM    147  H49 UNL A   1      15.505  47.115  -0.283  1.00  0.00    +0.000 H 
ATOM    148  H50 UNL A   1      17.022  56.782   1.980  1.00  0.00    +0.000 H 
ATOM    149  H51 UNL A   1      15.654  56.491   4.124  1.00  0.00    +0.000 H 
ATOM     40  C31 UNL A   1      14.419  53.936   4.353  1.00  0.00    +0.000 C 
ATOM     41  C32 UNL A   1      15.392  54.394   3.304  1.00  0.00    +0.000 C 
ATOM     42  N5  UNL A   1      15.886  53.735   2.284  1.00  0.00    +0.000 N 
ATOM     43  C33 UNL A   1      16.700  54.636   1.612  1.00  0.00    +0.000 C 
ATOM     44  C34 UNL A   1      17.492  54.420   0.533  1.00  0.00    +0.000 C 
ATOM     56  C41 UNL A   1      17.614  53.153  -0.139  1.00  0.00    +0.000 C 
ATOM     57  C42 UNL A   1      18.425  52.816  -1.208  1.00  0.00    +0.000 C 
ATOM     58  C43 UNL A   1      18.165  51.484  -1.552  1.00  0.00    +0.000 C 
ATOM     59  C44 UNL A   1      17.231  50.976  -0.664  1.00  0.00    +0.000 C 
ATOM     60  N6  UNL A   1      16.897  52.012   0.194  1.00  0.00    +0.000 N 
ATOM     61  C45 UNL A   1      16.682  49.645  -0.603  1.00  0.00    +0.000 C 
ATOM     73  C52 UNL A   1      15.776  49.218   0.311  1.00  0.00    +0.000 C 
ATOM     74  N7  UNL A   1      15.193  49.921   1.357  1.00  0.00    +0.000 N 
ATOM     75  C53 UNL A   1      14.379  49.081   1.948  1.00  0.00    +0.000 C 
ATOM     76  C54 UNL A   1      13.511  49.290   3.157  1.00  0.00    +0.000 C 
ATOM     88  C61 UNL A   1      13.510  50.491   3.767  1.00  0.00    +0.000 C 
ATOM     89  C62 UNL A   1      12.727  50.841   4.949  1.00  0.00    +0.000 C 
ATOM     90  C63 UNL A   1      12.957  52.127   5.260  1.00  0.00    +0.000 C 
ATOM     91  C64 UNL A   1      13.935  52.679   4.322  1.00  0.00    +0.000 C 
ATOM     92  N8  UNL A   1      14.197  51.640   3.464  1.00  0.00    +0.000 N 
ATOM     93  C65 UNL A   1      14.331  47.752   1.322  1.00  0.00    +0.000 C 
ATOM     94  C66 UNL A   1      15.230  47.876   0.356  1.00  0.00    +0.000 C 
ATOM     95  C67 UNL A   1      16.588  55.903   2.300  1.00  0.00    +0.000 C 
ATOM     96  C68 UNL A   1      15.852  55.787   3.396  1.00  0.00    +0.000 C 
ENDROOT
BRANCH   40   39
ATOM     97  C69 UNL A   1      12.750  55.598   5.182  1.00  0.00    +0.000 C 
ATOM     98  C70 UNL A   1      12.305  56.516   6.130  1.00  0.00    +0.000 C 
ATOM     36  C27 UNL A   1      12.979  56.646   7.347  1.00  0.00    +0.000 C 
ATOM     37  C28 UNL A   1      14.174  55.952   7.559  1.00  0.00    +0.000 C 
ATOM     38  C29 UNL A   1      14.662  55.090   6.575  1.00  0.00    +0.000 C 
ATOM     39  C30 UNL A   1      13.939  54.883   5.391  1.00  0.00    +0.000 C 
ATOM    138  H40 UNL A   1      14.693  56.076   8.442  1.00  0.00    +0.000 H 
ATOM    139  H41 UNL A   1      15.560  54.601   6.720  1.00  0.00    +0.000 H 
ATOM    150  H52 UNL A   1      12.203  55.443   4.321  1.00  0.00    +0.000 H 
ATOM    151  H53 UNL A   1      11.477  57.101   5.933  1.00  0.00    +0.000 H 
BRANCH   36   34
ATOM     34  C26 UNL A   1      12.473  57.533   8.420  1.00  0.00    +0.000 C 
ATOM     35  O5  UNL A   1      13.016  58.616   8.616  1.00  0.00    +0.000 O 
BRANCH   34   33
ATOM     33  N4  UNL A   1      11.419  57.145   9.206  1.00  0.00    +0.000 N 
ATOM    137  H39 UNL A   1      10.551  57.544   8.967  1.00  0.00    +0.000 H 
BRANCH   33   32
ATOM    136  H38 UNL A   1      10.362  56.006  10.542  1.00  0.00    +0.000 H 
ATOM    135  H37 UNL A   1      11.860  56.708  11.173  1.00  0.00    +0.000 H 
ATOM     32  C25 UNL A   1      11.387  56.235  10.338  1.00  0.00    +0.000 C 
BRANCH   32   31
ATOM    133  H35 UNL A   1      11.906  54.652   9.034  1.00  0.00    +0.000 H 
ATOM    134  H36 UNL A   1      13.140  55.099  10.254  1.00  0.00    +0.000 H 
ATOM     31  C24 UNL A   1      12.104  54.921  10.051  1.00  0.00    +0.000 C 
BRANCH   31   30
ATOM    131  H33 UNL A   1      10.876  53.245  10.467  1.00  0.00    +0.000 H 
ATOM    132  H34 UNL A   1      12.575  53.143  11.044  1.00  0.00    +0.000 H 
ATOM     30  C23 UNL A   1      11.696  53.744  10.940  1.00  0.00    +0.000 C 
BRANCH   30   29
ATOM    129  H31 UNL A   1      10.710  55.010  12.329  1.00  0.00    +0.000 H 
ATOM    130  H32 UNL A   1      10.706  53.255  12.719  1.00  0.00    +0.000 H 
ATOM     29  C22 UNL A   1      11.267  54.097  12.371  1.00  0.00    +0.000 C 
BRANCH   29   28
ATOM     28  C21 UNL A   1      12.398  54.286  13.390  1.00  0.00    +0.000 C 
ATOM    127  H29 UNL A   1      13.330  54.247  12.866  1.00  0.00    +0.000 H 
ATOM    128  H30 UNL A   1      12.225  55.229  13.865  1.00  0.00    +0.000 H 
BRANCH   28   27
ATOM     27  C20 UNL A   1      12.431  53.243  14.498  1.00  0.00    +0.000 C 
ATOM    125  H27 UNL A   1      13.284  53.430  15.116  1.00  0.00    +0.000 H 
ATOM    126  H28 UNL A   1      11.512  53.328  15.040  1.00  0.00    +0.000 H 
BRANCH   27   26
ATOM     26  N3  UNL A   1      12.513  51.883  14.005  1.00  0.00    +0.000 N 
ATOM    124  H26 UNL A   1      11.680  51.376  13.866  1.00  0.00    +0.000 H 
BRANCH   26   24
ATOM     25  O4  UNL A   1      14.522  51.155  14.656  1.00  0.00    +0.000 O 
ATOM     24  C19 UNL A   1      13.717  51.280  13.726  1.00  0.00    +0.000 C 
BRANCH   24   16
ATOM    116  H18 UNL A   1      14.671  49.934  12.425  1.00  0.00    +0.000 H 
ATOM     16  C11 UNL A   1      14.080  50.814  12.284  1.00  0.00    +0.000 C 
BRANCH   16   15
ATOM    115  H17 UNL A   1      12.574  50.949  10.824  1.00  0.00    +0.000 H 
ATOM     15  N2  UNL A   1      12.975  50.304  11.451  1.00  0.00    +0.000 N 
BRANCH   15   13
ATOM     13  C10 UNL A   1      12.437  49.043  11.438  1.00  0.00    +0.000 C 
ATOM     14  O3  UNL A   1      11.716  48.724  12.388  1.00  0.00    +0.000 O 
BRANCH   13   12
ATOM      8  N1  UNL A   1      12.382  48.686   8.939  1.00  0.00    +0.000 N 
ATOM      9  C6  UNL A   1      13.526  48.696   8.055  1.00  0.00    +0.000 C 
ATOM     10  C7  UNL A   1      14.465  47.664   8.652  1.00  0.00    +0.000 C 
ATOM     11  C8  UNL A   1      14.181  47.747  10.149  1.00  0.00    +0.000 C 
ATOM     12  C9  UNL A   1      12.683  48.096  10.242  1.00  0.00    +0.000 C 
ATOM    108  H10 UNL A   1      13.985  49.663   8.040  1.00  0.00    +0.000 H 
ATOM    109  H11 UNL A   1      13.265  48.476   7.042  1.00  0.00    +0.000 H 
ATOM    110  H12 UNL A   1      15.485  47.908   8.442  1.00  0.00    +0.000 H 
ATOM    111  H13 UNL A   1      14.312  46.683   8.253  1.00  0.00    +0.000 H 
ATOM    112  H14 UNL A   1      14.777  48.510  10.604  1.00  0.00    +0.000 H 
ATOM    114  H16 UNL A   1      12.042  47.261  10.431  1.00  0.00    +0.000 H 
ATOM    113  H15 UNL A   1      14.418  46.835  10.657  1.00  0.00    +0.000 H 
BRANCH    8    6
ATOM      6  C5  UNL A   1      11.087  48.963   8.594  1.00  0.00    +0.000 C 
ATOM      7  O2  UNL A   1      10.803  49.866   7.828  1.00  0.00    +0.000 O 
BRANCH    6    5
ATOM      1  C1  UNL A   1       8.373  46.657   9.410  1.00  0.00    +0.000 C 
ATOM      2  C2  UNL A   1       9.552  47.095   8.530  1.00  0.00    +0.000 C 
ATOM     99  H1  UNL A   1       7.864  45.839   8.945  1.00  0.00    +0.000 H 
ATOM    100  H2  UNL A   1       7.695  47.476   9.532  1.00  0.00    +0.000 H 
ATOM    101  H3  UNL A   1       8.737  46.351  10.369  1.00  0.00    +0.000 H 
ATOM      3  C3  UNL A   1      10.549  45.939   8.409  1.00  0.00    +0.000 C 
ATOM      4  C4  UNL A   1       8.976  47.491   7.158  1.00  0.00    +0.000 C 
ATOM      5  O1  UNL A   1      10.171  48.201   9.245  1.00  0.00    +0.000 O 
ATOM    102  H4  UNL A   1      10.091  45.126   7.883  1.00  0.00    +0.000 H 
ATOM    103  H5  UNL A   1      10.839  45.613   9.385  1.00  0.00    +0.000 H 
ATOM    104  H6  UNL A   1      11.414  46.268   7.872  1.00  0.00    +0.000 H 
ATOM    105  H7  UNL A   1       8.538  46.632   6.693  1.00  0.00    +0.000 H 
ATOM    106  H8  UNL A   1       9.760  47.871   6.538  1.00  0.00    +0.000 H 
ATOM    107  H9  UNL A   1       8.227  48.245   7.289  1.00  0.00    +0.000 H 
ENDBRANCH    6    5
ENDBRANCH    8    6
ENDBRANCH   13   12
ENDBRANCH   15   13
ENDBRANCH   16   15
BRANCH   16   17
ATOM     17  C12 UNL A   1      14.923  51.892  11.567  1.00  0.00    +0.000 C 
ATOM    117  H19 UNL A   1      15.702  52.196  12.235  1.00  0.00    +0.000 H 
ATOM    118  H20 UNL A   1      14.238  52.672  11.310  1.00  0.00    +0.000 H 
BRANCH   17   18
ATOM     18  C13 UNL A   1      15.567  51.469  10.267  1.00  0.00    +0.000 C 
ATOM     19  C14 UNL A   1      16.682  50.618  10.272  1.00  0.00    +0.000 C 
ATOM     20  C15 UNL A   1      17.329  50.286   9.081  1.00  0.00    +0.000 C 
ATOM     21  C16 UNL A   1      16.847  50.775   7.869  1.00  0.00    +0.000 C 
ATOM     22  C17 UNL A   1      15.711  51.584   7.848  1.00  0.00    +0.000 C 
ATOM     23  C18 UNL A   1      15.075  51.933   9.041  1.00  0.00    +0.000 C 
ATOM    119  H21 UNL A   1      17.028  50.234  11.166  1.00  0.00    +0.000 H 
ATOM    120  H22 UNL A   1      18.164  49.680   9.098  1.00  0.00    +0.000 H 
ATOM    122  H24 UNL A   1      15.341  51.926   6.948  1.00  0.00    +0.000 H 
ATOM    123  H25 UNL A   1      14.239  52.537   9.018  1.00  0.00    +0.000 H 
ATOM    121  H23 UNL A   1      17.329  50.539   6.988  1.00  0.00    +0.000 H 
ENDBRANCH   17   18
ENDBRANCH   16   17
ENDBRANCH   24   16
ENDBRANCH   26   24
ENDBRANCH   27   26
ENDBRANCH   28   27
ENDBRANCH   29   28
ENDBRANCH   30   29
ENDBRANCH   31   30
ENDBRANCH   32   31
ENDBRANCH   33   32
ENDBRANCH   34   33
ENDBRANCH   36   34
ENDBRANCH   40   39
BRANCH   44   45
ATOM     45  C35 UNL A   1      18.284  55.587   0.016  1.00  0.00    +0.000 C 
ATOM     46  C36 UNL A   1      17.859  56.331  -1.096  1.00  0.00    +0.000 C 
ATOM     47  F1  UNL A   1      16.728  56.000  -1.737  1.00  0.00    +0.000 F 
ATOM     48  C37 UNL A   1      18.621  57.387  -1.589  1.00  0.00    +0.000 C 
ATOM     49  F2  UNL A   1      18.227  58.040  -2.691  1.00  0.00    +0.000 F 
ATOM     50  C38 UNL A   1      19.801  57.748  -0.955  1.00  0.00    +0.000 C 
ATOM     51  F3  UNL A   1      20.535  58.764  -1.431  1.00  0.00    +0.000 F 
ATOM     52  C39 UNL A   1      20.224  57.049   0.165  1.00  0.00    +0.000 C 
ATOM     53  F4  UNL A   1      21.356  57.407   0.786  1.00  0.00    +0.000 F 
ATOM     54  C40 UNL A   1      19.481  55.971   0.640  1.00  0.00    +0.000 C 
ATOM     55  F5  UNL A   1      19.932  55.301   1.711  1.00  0.00    +0.000 F 
ENDBRANCH   44   45
BRANCH   61   62
ATOM     65  C48 UNL A   1      18.620  46.801  -2.252  1.00  0.00    +0.000 C 
ATOM     66  F7  UNL A   1      19.635  45.976  -1.961  1.00  0.00    +0.000 F 
ATOM     67  C49 UNL A   1      18.009  46.737  -3.495  1.00  0.00    +0.000 C 
ATOM     68  F8  UNL A   1      18.418  45.834  -4.398  1.00  0.00    +0.000 F 
ATOM     69  C50 UNL A   1      16.980  47.612  -3.806  1.00  0.00    +0.000 C 
ATOM     70  F9  UNL A   1      16.379  47.542  -5.001  1.00  0.00    +0.000 F 
ATOM     71  C51 UNL A   1      16.570  48.564  -2.878  1.00  0.00    +0.000 C 
ATOM     72  F10 UNL A   1      15.581  49.408  -3.212  1.00  0.00    +0.000 F 
ATOM     62  C46 UNL A   1      17.166  48.642  -1.609  1.00  0.00    +0.000 C 
ATOM     63  C47 UNL A   1      18.192  47.733  -1.310  1.00  0.00    +0.000 C 
ATOM     64  F6  UNL A   1      18.805  47.776  -0.117  1.00  0.00    +0.000 F 
ENDBRANCH   61   62
BRANCH   76   77
ATOM     77  C55 UNL A   1      12.690  48.182   3.710  1.00  0.00    +0.000 C 
ATOM     78  C56 UNL A   1      13.189  47.364   4.733  1.00  0.00    +0.000 C 
ATOM     79  F11 UNL A   1      14.431  47.559   5.199  1.00  0.00    +0.000 F 
ATOM     80  C57 UNL A   1      12.429  46.320   5.257  1.00  0.00    +0.000 C 
ATOM     81  F12 UNL A   1      12.945  45.531   6.208  1.00  0.00    +0.000 F 
ATOM     82  C58 UNL A   1      11.144  46.092   4.787  1.00  0.00    +0.000 C 
ATOM     83  F13 UNL A   1      10.411  45.094   5.297  1.00  0.00    +0.000 F 
ATOM     84  C59 UNL A   1      10.624  46.896   3.784  1.00  0.00    +0.000 C 
ATOM     85  F14 UNL A   1       9.378  46.686   3.338  1.00  0.00    +0.000 F 
ATOM     86  C60 UNL A   1      11.393  47.922   3.240  1.00  0.00    +0.000 C 
ATOM     87  F15 UNL A   1      10.868  48.679   2.266  1.00  0.00    +0.000 F 
ENDBRANCH   76   77
TORSDOF 22
ENDMDL
MODEL 4
REMARK VINA RESULT:      -8.2     47.420     52.402
ROOT
ATOM    140  H42 UNL A   1      24.532  -9.355  29.791  1.00  0.00    +0.000 H 
ATOM    141  H43 UNL A   1      23.086  -9.213  31.955  1.00  0.00    +0.000 H 
ATOM    142  H44 UNL A   1      26.240 -11.800  32.666  1.00  0.00    +0.000 H 
ATOM    143  H45 UNL A   1      29.195 -15.975  36.489  1.00  0.00    +0.000 H 
ATOM    144  H46 UNL A   1      30.661 -16.029  34.414  1.00  0.00    +0.000 H 
ATOM    145  H47 UNL A   1      27.554 -13.360  33.706  1.00  0.00    +0.000 H 
ATOM    146  H48 UNL A   1      24.860 -13.213  37.945  1.00  0.00    +0.000 H 
ATOM    147  H49 UNL A   1      23.258 -11.635  36.722  1.00  0.00    +0.000 H 
ATOM    148  H50 UNL A   1      29.158 -11.810  28.596  1.00  0.00    +0.000 H 
ATOM    149  H51 UNL A   1      30.489 -13.748  29.609  1.00  0.00    +0.000 H 
ATOM     40  C31 UNL A   1      29.734 -14.380  32.282  1.00  0.00    +0.000 C 
ATOM     41  C32 UNL A   1      29.076 -13.402  31.349  1.00  0.00    +0.000 C 
ATOM     42  N5  UNL A   1      28.028 -12.642  31.546  1.00  0.00    +0.000 N 
ATOM     43  C33 UNL A   1      27.873 -11.903  30.381  1.00  0.00    +0.000 C 
ATOM     44  C34 UNL A   1      26.891 -11.026  30.059  1.00  0.00    +0.000 C 
ATOM     56  C41 UNL A   1      25.793 -10.686  30.926  1.00  0.00    +0.000 C 
ATOM     57  C42 UNL A   1      24.720  -9.849  30.677  1.00  0.00    +0.000 C 
ATOM     58  C43 UNL A   1      23.936  -9.787  31.834  1.00  0.00    +0.000 C 
ATOM     59  C44 UNL A   1      24.490 -10.627  32.786  1.00  0.00    +0.000 C 
ATOM     60  N6  UNL A   1      25.633 -11.168  32.218  1.00  0.00    +0.000 N 
ATOM     61  C45 UNL A   1      24.015 -10.913  34.117  1.00  0.00    +0.000 C 
ATOM     73  C52 UNL A   1      24.610 -11.763  34.990  1.00  0.00    +0.000 C 
ATOM     74  N7  UNL A   1      25.757 -12.525  34.820  1.00  0.00    +0.000 N 
ATOM     75  C53 UNL A   1      25.931 -13.172  35.947  1.00  0.00    +0.000 C 
ATOM     76  C54 UNL A   1      26.996 -14.166  36.319  1.00  0.00    +0.000 C 
ATOM     88  C61 UNL A   1      27.948 -14.477  35.418  1.00  0.00    +0.000 C 
ATOM     89  C62 UNL A   1      29.039 -15.424  35.631  1.00  0.00    +0.000 C 
ATOM     90  C63 UNL A   1      29.807 -15.461  34.530  1.00  0.00    +0.000 C 
ATOM     91  C64 UNL A   1      29.237 -14.570  33.519  1.00  0.00    +0.000 C 
ATOM     92  N8  UNL A   1      28.143 -14.019  34.139  1.00  0.00    +0.000 N 
ATOM     93  C65 UNL A   1      24.925 -12.868  36.974  1.00  0.00    +0.000 C 
ATOM     94  C66 UNL A   1      24.121 -12.037  36.326  1.00  0.00    +0.000 C 
ATOM     95  C67 UNL A   1      28.968 -12.259  29.506  1.00  0.00    +0.000 C 
ATOM     96  C68 UNL A   1      29.695 -13.237  30.025  1.00  0.00    +0.000 C 
ENDROOT
BRANCH   40   39
ATOM     97  C69 UNL A   1      30.867 -16.328  31.207  1.00  0.00    +0.000 C 
ATOM     98  C70 UNL A   1      32.015 -17.027  30.842  1.00  0.00    +0.000 C 
ATOM     36  C27 UNL A   1      33.273 -16.449  31.027  1.00  0.00    +0.000 C 
ATOM     37  C28 UNL A   1      33.387 -15.228  31.699  1.00  0.00    +0.000 C 
ATOM     38  C29 UNL A   1      32.239 -14.564  32.136  1.00  0.00    +0.000 C 
ATOM     39  C30 UNL A   1      30.968 -15.094  31.866  1.00  0.00    +0.000 C 
ATOM    138  H40 UNL A   1      34.318 -14.818  31.872  1.00  0.00    +0.000 H 
ATOM    139  H41 UNL A   1      32.325 -13.678  32.659  1.00  0.00    +0.000 H 
ATOM    150  H52 UNL A   1      29.938 -16.720  30.990  1.00  0.00    +0.000 H 
ATOM    151  H53 UNL A   1      31.936 -17.972  30.434  1.00  0.00    +0.000 H 
BRANCH   36   34
ATOM     34  C26 UNL A   1      34.508 -17.116  30.555  1.00  0.00    +0.000 C 
ATOM     35  O5  UNL A   1      35.515 -17.095  31.257  1.00  0.00    +0.000 O 
BRANCH   34   33
ATOM     33  N4  UNL A   1      34.540 -17.738  29.333  1.00  0.00    +0.000 N 
ATOM    137  H39 UNL A   1      33.704 -18.186  29.070  1.00  0.00    +0.000 H 
BRANCH   33   32
ATOM    136  H38 UNL A   1      35.803 -18.875  28.188  1.00  0.00    +0.000 H 
ATOM    135  H37 UNL A   1      36.485 -17.348  28.767  1.00  0.00    +0.000 H 
ATOM     32  C25 UNL A   1      35.621 -17.836  28.367  1.00  0.00    +0.000 C 
BRANCH   32   31
ATOM    133  H35 UNL A   1      35.932 -16.363  26.882  1.00  0.00    +0.000 H 
ATOM    134  H36 UNL A   1      35.375 -17.961  26.295  1.00  0.00    +0.000 H 
ATOM     31  C24 UNL A   1      35.271 -17.192  27.031  1.00  0.00    +0.000 C 
BRANCH   31   30
ATOM    131  H33 UNL A   1      33.401 -17.129  26.038  1.00  0.00    +0.000 H 
ATOM    132  H34 UNL A   1      33.354 -16.946  27.825  1.00  0.00    +0.000 H 
ATOM     30  C23 UNL A   1      33.834 -16.680  26.907  1.00  0.00    +0.000 C 
BRANCH   30   29
ATOM    129  H31 UNL A   1      34.639 -14.738  26.611  1.00  0.00    +0.000 H 
ATOM    130  H32 UNL A   1      32.978 -15.010  25.978  1.00  0.00    +0.000 H 
ATOM     29  C22 UNL A   1      33.669 -15.159  26.781  1.00  0.00    +0.000 C 
BRANCH   29   28
ATOM     28  C21 UNL A   1      33.055 -14.442  27.990  1.00  0.00    +0.000 C 
ATOM    127  H29 UNL A   1      32.030 -14.739  28.070  1.00  0.00    +0.000 H 
ATOM    128  H30 UNL A   1      33.639 -14.725  28.841  1.00  0.00    +0.000 H 
BRANCH   28   27
ATOM     27  C20 UNL A   1      33.104 -12.922  27.916  1.00  0.00    +0.000 C 
ATOM    125  H27 UNL A   1      32.654 -12.524  28.801  1.00  0.00    +0.000 H 
ATOM    126  H28 UNL A   1      34.134 -12.644  27.826  1.00  0.00    +0.000 H 
BRANCH   27   26
ATOM     26  N3  UNL A   1      32.413 -12.380  26.765  1.00  0.00    +0.000 N 
ATOM    124  H26 UNL A   1      31.484 -12.656  26.593  1.00  0.00    +0.000 H 
BRANCH   26   24
ATOM     25  O4  UNL A   1      33.887 -11.932  25.146  1.00  0.00    +0.000 O 
ATOM     24  C19 UNL A   1      33.015 -11.492  25.905  1.00  0.00    +0.000 C 
BRANCH   24   16
ATOM    116  H18 UNL A   1      32.964  -9.617  24.957  1.00  0.00    +0.000 H 
ATOM     16  C11 UNL A   1      32.655  -9.975  25.916  1.00  0.00    +0.000 C 
BRANCH   16   15
ATOM    115  H17 UNL A   1      30.708  -9.924  26.706  1.00  0.00    +0.000 H 
ATOM     15  N2  UNL A   1      31.220  -9.632  25.917  1.00  0.00    +0.000 N 
BRANCH   15   13
ATOM     13  C10 UNL A   1      30.511  -8.956  24.959  1.00  0.00    +0.000 C 
ATOM     14  O3  UNL A   1      30.488  -7.724  25.032  1.00  0.00    +0.000 O 
BRANCH   13   12
ATOM      8  N1  UNL A   1      30.544  -9.645  22.529  1.00  0.00    +0.000 N 
ATOM      9  C6  UNL A   1      30.915 -10.948  22.023  1.00  0.00    +0.000 C 
ATOM     10  C7  UNL A   1      30.006 -11.908  22.766  1.00  0.00    +0.000 C 
ATOM     11  C8  UNL A   1      29.797 -11.229  24.116  1.00  0.00    +0.000 C 
ATOM     12  C9  UNL A   1      29.829  -9.720  23.802  1.00  0.00    +0.000 C 
ATOM    108  H10 UNL A   1      31.943 -11.158  22.233  1.00  0.00    +0.000 H 
ATOM    109  H11 UNL A   1      30.809 -11.021  20.961  1.00  0.00    +0.000 H 
ATOM    110  H12 UNL A   1      30.473 -12.862  22.887  1.00  0.00    +0.000 H 
ATOM    111  H13 UNL A   1      29.088 -12.096  22.249  1.00  0.00    +0.000 H 
ATOM    112  H14 UNL A   1      30.581 -11.490  24.796  1.00  0.00    +0.000 H 
ATOM    114  H16 UNL A   1      28.866  -9.263  23.716  1.00  0.00    +0.000 H 
ATOM    113  H15 UNL A   1      28.881 -11.527  24.583  1.00  0.00    +0.000 H 
BRANCH    8    6
ATOM      6  C5  UNL A   1      30.613  -8.460  21.850  1.00  0.00    +0.000 C 
ATOM      7  O2  UNL A   1      29.679  -7.680  21.820  1.00  0.00    +0.000 O 
BRANCH    6    5
ATOM      1  C1  UNL A   1      33.797  -7.189  20.586  1.00  0.00    +0.000 C 
ATOM      2  C2  UNL A   1      32.790  -7.413  21.723  1.00  0.00    +0.000 C 
ATOM     99  H1  UNL A   1      34.584  -6.549  20.927  1.00  0.00    +0.000 H 
ATOM    100  H2  UNL A   1      33.300  -6.732  19.755  1.00  0.00    +0.000 H 
ATOM    101  H3  UNL A   1      34.208  -8.128  20.282  1.00  0.00    +0.000 H 
ATOM      3  C3  UNL A   1      33.491  -8.121  22.887  1.00  0.00    +0.000 C 
ATOM      4  C4  UNL A   1      32.257  -6.030  22.142  1.00  0.00    +0.000 C 
ATOM      5  O1  UNL A   1      31.770  -8.287  21.162  1.00  0.00    +0.000 O 
ATOM    102  H4  UNL A   1      34.241  -7.476  23.297  1.00  0.00    +0.000 H 
ATOM    103  H5  UNL A   1      33.949  -9.021  22.533  1.00  0.00    +0.000 H 
ATOM    104  H6  UNL A   1      32.773  -8.360  23.643  1.00  0.00    +0.000 H 
ATOM    105  H7  UNL A   1      33.058  -5.445  22.542  1.00  0.00    +0.000 H 
ATOM    106  H8  UNL A   1      31.497  -6.151  22.885  1.00  0.00    +0.000 H 
ATOM    107  H9  UNL A   1      31.845  -5.533  21.287  1.00  0.00    +0.000 H 
ENDBRANCH    6    5
ENDBRANCH    8    6
ENDBRANCH   13   12
ENDBRANCH   15   13
ENDBRANCH   16   15
BRANCH   16   17
ATOM     17  C12 UNL A   1      33.447  -9.241  27.020  1.00  0.00    +0.000 C 
ATOM    117  H19 UNL A   1      33.914  -8.387  26.575  1.00  0.00    +0.000 H 
ATOM    118  H20 UNL A   1      34.137  -9.961  27.409  1.00  0.00    +0.000 H 
BRANCH   17   18
ATOM     18  C13 UNL A   1      32.642  -8.765  28.206  1.00  0.00    +0.000 C 
ATOM     19  C14 UNL A   1      32.607  -7.403  28.539  1.00  0.00    +0.000 C 
ATOM     20  C15 UNL A   1      31.930  -6.965  29.677  1.00  0.00    +0.000 C 
ATOM     21  C16 UNL A   1      31.250  -7.882  30.476  1.00  0.00    +0.000 C 
ATOM     22  C17 UNL A   1      31.239  -9.232  30.129  1.00  0.00    +0.000 C 
ATOM     23  C18 UNL A   1      31.933  -9.674  29.001  1.00  0.00    +0.000 C 
ATOM    119  H21 UNL A   1      33.089  -6.717  27.936  1.00  0.00    +0.000 H 
ATOM    120  H22 UNL A   1      31.932  -5.964  29.927  1.00  0.00    +0.000 H 
ATOM    122  H24 UNL A   1      30.715  -9.907  30.708  1.00  0.00    +0.000 H 
ATOM    123  H25 UNL A   1      31.926 -10.675  28.754  1.00  0.00    +0.000 H 
ATOM    121  H23 UNL A   1      30.756  -7.562  31.324  1.00  0.00    +0.000 H 
ENDBRANCH   17   18
ENDBRANCH   16   17
ENDBRANCH   24   16
ENDBRANCH   26   24
ENDBRANCH   27   26
ENDBRANCH   28   27
ENDBRANCH   29   28
ENDBRANCH   30   29
ENDBRANCH   31   30
ENDBRANCH   32   31
ENDBRANCH   33   32
ENDBRANCH   34   33
ENDBRANCH   36   34
ENDBRANCH   40   39
BRANCH   44   45
ATOM     45  C35 UNL A   1      26.968 -10.372  28.708  1.00  0.00    +0.000 C 
ATOM     46  C36 UNL A   1      27.603  -9.133  28.524  1.00  0.00    +0.000 C 
ATOM     47  F1  UNL A   1      28.148  -8.493  29.570  1.00  0.00    +0.000 F 
ATOM     48  C37 UNL A   1      27.634  -8.520  27.275  1.00  0.00    +0.000 C 
ATOM     49  F2  UNL A   1      28.189  -7.308  27.138  1.00  0.00    +0.000 F 
ATOM     50  C38 UNL A   1      27.071  -9.151  26.176  1.00  0.00    +0.000 C 
ATOM     51  F3  UNL A   1      27.101  -8.559  24.974  1.00  0.00    +0.000 F 
ATOM     52  C39 UNL A   1      26.468 -10.391  26.326  1.00  0.00    +0.000 C 
ATOM     53  F4  UNL A   1      25.935 -11.007  25.262  1.00  0.00    +0.000 F 
ATOM     54  C40 UNL A   1      26.404 -10.991  27.581  1.00  0.00    +0.000 C 
ATOM     55  F5  UNL A   1      25.792 -12.179  27.697  1.00  0.00    +0.000 F 
ENDBRANCH   44   45
BRANCH   61   62
ATOM     65  C48 UNL A   1      21.581  -8.420  35.675  1.00  0.00    +0.000 C 
ATOM     66  F7  UNL A   1      21.623  -7.291  36.395  1.00  0.00    +0.000 F 
ATOM     67  C49 UNL A   1      20.359  -8.984  35.341  1.00  0.00    +0.000 C 
ATOM     68  F8  UNL A   1      19.219  -8.388  35.719  1.00  0.00    +0.000 F 
ATOM     69  C50 UNL A   1      20.318 -10.168  34.622  1.00  0.00    +0.000 C 
ATOM     70  F9  UNL A   1      19.137 -10.707  34.286  1.00  0.00    +0.000 F 
ATOM     71  C51 UNL A   1      21.500 -10.800  34.248  1.00  0.00    +0.000 C 
ATOM     72  F10 UNL A   1      21.429 -11.953  33.566  1.00  0.00    +0.000 F 
ATOM     62  C46 UNL A   1      22.749 -10.243  34.566  1.00  0.00    +0.000 C 
ATOM     63  C47 UNL A   1      22.766  -9.034  35.277  1.00  0.00    +0.000 C 
ATOM     64  F6  UNL A   1      23.935  -8.468  35.619  1.00  0.00    +0.000 F 
ENDBRANCH   61   62
BRANCH   76   77
ATOM     77  C55 UNL A   1      26.988 -14.836  37.644  1.00  0.00    +0.000 C 
ATOM     78  C56 UNL A   1      26.388 -16.092  37.807  1.00  0.00    +0.000 C 
ATOM     79  F11 UNL A   1      25.787 -16.686  36.765  1.00  0.00    +0.000 F 
ATOM     80  C57 UNL A   1      26.371 -16.729  39.046  1.00  0.00    +0.000 C 
ATOM     81  F12 UNL A   1      25.758 -17.912  39.180  1.00  0.00    +0.000 F 
ATOM     82  C58 UNL A   1      26.979 -16.133  40.141  1.00  0.00    +0.000 C 
ATOM     83  F13 UNL A   1      26.971 -16.750  41.330  1.00  0.00    +0.000 F 
ATOM     84  C59 UNL A   1      27.591 -14.897  40.002  1.00  0.00    +0.000 C 
ATOM     85  F14 UNL A   1      28.191 -14.325  41.055  1.00  0.00    +0.000 F 
ATOM     86  C60 UNL A   1      27.583 -14.247  38.770  1.00  0.00    +0.000 C 
ATOM     87  F15 UNL A   1      28.174 -13.048  38.666  1.00  0.00    +0.000 F 
ENDBRANCH   76   77
TORSDOF 22
ENDMDL
MODEL 5
REMARK VINA RESULT:      -8.2     44.225     47.792
ROOT
ATOM    140  H42 UNL A   1      18.775  53.260  -1.241  1.00  0.00    +0.000 H 
ATOM    141  H43 UNL A   1      18.283  50.760  -1.795  1.00  0.00    +0.000 H 
ATOM    142  H44 UNL A   1      15.954  51.857   1.449  1.00  0.00    +0.000 H 
ATOM    143  H45 UNL A   1      11.859  50.274   6.086  1.00  0.00    +0.000 H 
ATOM    144  H46 UNL A   1      12.261  52.738   6.555  1.00  0.00    +0.000 H 
ATOM    145  H47 UNL A   1      14.544  51.686   3.244  1.00  0.00    +0.000 H 
ATOM    146  H48 UNL A   1      13.502  46.857   2.321  1.00  0.00    +0.000 H 
ATOM    147  H49 UNL A   1      15.239  46.973   0.445  1.00  0.00    +0.000 H 
ATOM    148  H50 UNL A   1      16.699  56.738   2.287  1.00  0.00    +0.000 H 
ATOM    149  H51 UNL A   1      15.352  56.526   4.454  1.00  0.00    +0.000 H 
ATOM     40  C31 UNL A   1      14.139  53.973   4.801  1.00  0.00    +0.000 C 
ATOM     41  C32 UNL A   1      15.099  54.395   3.724  1.00  0.00    +0.000 C 
ATOM     42  N5  UNL A   1      15.589  53.697   2.729  1.00  0.00    +0.000 N 
ATOM     43  C33 UNL A   1      16.391  54.575   2.012  1.00  0.00    +0.000 C 
ATOM     44  C34 UNL A   1      17.174  54.321   0.937  1.00  0.00    +0.000 C 
ATOM     56  C41 UNL A   1      17.301  53.027   0.316  1.00  0.00    +0.000 C 
ATOM     57  C42 UNL A   1      18.106  52.651  -0.745  1.00  0.00    +0.000 C 
ATOM     58  C43 UNL A   1      17.853  51.305  -1.030  1.00  0.00    +0.000 C 
ATOM     59  C44 UNL A   1      16.931  50.827  -0.113  1.00  0.00    +0.000 C 
ATOM     60  N6  UNL A   1      16.596  51.896   0.704  1.00  0.00    +0.000 N 
ATOM     61  C45 UNL A   1      16.393  49.496   0.008  1.00  0.00    +0.000 C 
ATOM     73  C52 UNL A   1      15.498  49.100   0.948  1.00  0.00    +0.000 C 
ATOM     74  N7  UNL A   1      14.919  49.843   1.968  1.00  0.00    +0.000 N 
ATOM     75  C53 UNL A   1      14.117  49.022   2.602  1.00  0.00    +0.000 C 
ATOM     76  C54 UNL A   1      13.257  49.275   3.809  1.00  0.00    +0.000 C 
ATOM     88  C61 UNL A   1      13.252  50.500   4.367  1.00  0.00    +0.000 C 
ATOM     89  C62 UNL A   1      12.478  50.894   5.541  1.00  0.00    +0.000 C 
ATOM     90  C63 UNL A   1      12.700  52.193   5.796  1.00  0.00    +0.000 C 
ATOM     91  C64 UNL A   1      13.665  52.713   4.827  1.00  0.00    +0.000 C 
ATOM     92  N8  UNL A   1      13.928  51.641   4.011  1.00  0.00    +0.000 N 
ATOM     93  C65 UNL A   1      14.073  47.667   2.033  1.00  0.00    +0.000 C 
ATOM     94  C66 UNL A   1      14.963  47.758   1.054  1.00  0.00    +0.000 C 
ATOM     95  C67 UNL A   1      16.274  55.870   2.647  1.00  0.00    +0.000 C 
ATOM     96  C68 UNL A   1      15.549  55.794   3.754  1.00  0.00    +0.000 C 
ENDROOT
BRANCH   40   39
ATOM     97  C69 UNL A   1      14.346  55.103   7.018  1.00  0.00    +0.000 C 
ATOM     98  C70 UNL A   1      13.890  55.999   7.982  1.00  0.00    +0.000 C 
ATOM     36  C27 UNL A   1      12.814  56.843   7.698  1.00  0.00    +0.000 C 
ATOM     37  C28 UNL A   1      12.113  56.697   6.497  1.00  0.00    +0.000 C 
ATOM     38  C29 UNL A   1      12.522  55.744   5.562  1.00  0.00    +0.000 C 
ATOM     39  C30 UNL A   1      13.661  54.960   5.802  1.00  0.00    +0.000 C 
ATOM    138  H40 UNL A   1      11.294  57.294   6.302  1.00  0.00    +0.000 H 
ATOM    139  H41 UNL A   1      11.985  55.617   4.690  1.00  0.00    +0.000 H 
ATOM    150  H52 UNL A   1      15.193  54.542   7.199  1.00  0.00    +0.000 H 
ATOM    151  H53 UNL A   1      14.348  56.039   8.907  1.00  0.00    +0.000 H 
BRANCH   36   34
ATOM     34  C26 UNL A   1      12.371  57.881   8.657  1.00  0.00    +0.000 C 
ATOM     35  O5  UNL A   1      12.750  59.039   8.515  1.00  0.00    +0.000 O 
BRANCH   34   33
ATOM     33  N4  UNL A   1      11.557  57.552   9.711  1.00  0.00    +0.000 N 
ATOM    137  H39 UNL A   1      11.580  58.182  10.468  1.00  0.00    +0.000 H 
BRANCH   33   32
ATOM    136  H38 UNL A   1      10.802  55.770   9.040  1.00  0.00    +0.000 H 
ATOM    135  H37 UNL A   1       9.661  56.776   9.946  1.00  0.00    +0.000 H 
ATOM     32  C25 UNL A   1      10.667  56.417   9.881  1.00  0.00    +0.000 C 
BRANCH   32   31
ATOM    133  H35 UNL A   1      10.987  56.287  11.968  1.00  0.00    +0.000 H 
ATOM    134  H36 UNL A   1      10.224  54.859  11.201  1.00  0.00    +0.000 H 
ATOM     31  C24 UNL A   1      10.980  55.612  11.137  1.00  0.00    +0.000 C 
BRANCH   31   30
ATOM    131  H33 UNL A   1      12.174  53.946  10.599  1.00  0.00    +0.000 H 
ATOM    132  H34 UNL A   1      13.012  55.534  10.654  1.00  0.00    +0.000 H 
ATOM     30  C23 UNL A   1      12.318  54.868  11.122  1.00  0.00    +0.000 C 
BRANCH   30   29
ATOM    129  H31 UNL A   1      13.334  55.443  12.894  1.00  0.00    +0.000 H 
ATOM    130  H32 UNL A   1      12.119  54.130  13.071  1.00  0.00    +0.000 H 
ATOM     29  C22 UNL A   1      12.922  54.540  12.494  1.00  0.00    +0.000 C 
BRANCH   29   28
ATOM     28  C21 UNL A   1      14.026  53.475  12.512  1.00  0.00    +0.000 C 
ATOM    127  H29 UNL A   1      14.031  52.983  11.561  1.00  0.00    +0.000 H 
ATOM    128  H30 UNL A   1      14.941  53.989  12.722  1.00  0.00    +0.000 H 
BRANCH   28   27
ATOM     27  C20 UNL A   1      13.866  52.416  13.594  1.00  0.00    +0.000 C 
ATOM    125  H27 UNL A   1      14.384  52.744  14.469  1.00  0.00    +0.000 H 
ATOM    126  H28 UNL A   1      12.816  52.297  13.766  1.00  0.00    +0.000 H 
BRANCH   27   26
ATOM     26  N3  UNL A   1      14.386  51.120  13.211  1.00  0.00    +0.000 N 
ATOM    124  H26 UNL A   1      15.361  50.998  13.142  1.00  0.00    +0.000 H 
BRANCH   26   24
ATOM     25  O4  UNL A   1      13.132  49.403  13.900  1.00  0.00    +0.000 O 
ATOM     24  C19 UNL A   1      13.560  50.054  12.940  1.00  0.00    +0.000 C 
BRANCH   24   16
ATOM    116  H18 UNL A   1      12.284  49.122  11.555  1.00  0.00    +0.000 H 
ATOM     16  C11 UNL A   1      13.214  49.644  11.476  1.00  0.00    +0.000 C 
BRANCH   16   15
ATOM    115  H17 UNL A   1      13.617  51.114  10.029  1.00  0.00    +0.000 H 
ATOM     15  N2  UNL A   1      12.868  50.734  10.543  1.00  0.00    +0.000 N 
BRANCH   15   13
ATOM     13  C10 UNL A   1      11.636  51.282  10.302  1.00  0.00    +0.000 C 
ATOM     14  O3  UNL A   1      10.994  51.687  11.276  1.00  0.00    +0.000 O 
BRANCH   13   12
ATOM      8  N1  UNL A   1      10.135  50.428   8.460  1.00  0.00    +0.000 N 
ATOM      9  C6  UNL A   1       8.872  51.007   8.058  1.00  0.00    +0.000 C 
ATOM     10  C7  UNL A   1       9.208  52.454   7.751  1.00  0.00    +0.000 C 
ATOM     11  C8  UNL A   1      10.349  52.768   8.714  1.00  0.00    +0.000 C 
ATOM     12  C9  UNL A   1      11.115  51.438   8.856  1.00  0.00    +0.000 C 
ATOM    108  H10 UNL A   1       8.156  50.943   8.851  1.00  0.00    +0.000 H 
ATOM    109  H11 UNL A   1       8.435  50.501   7.223  1.00  0.00    +0.000 H 
ATOM    110  H12 UNL A   1       8.367  53.089   7.935  1.00  0.00    +0.000 H 
ATOM    111  H13 UNL A   1       9.473  52.611   6.727  1.00  0.00    +0.000 H 
ATOM    112  H14 UNL A   1       9.967  53.087   9.661  1.00  0.00    +0.000 H 
ATOM    114  H16 UNL A   1      11.993  51.364   8.250  1.00  0.00    +0.000 H 
ATOM    113  H15 UNL A   1      10.974  53.560   8.358  1.00  0.00    +0.000 H 
BRANCH    8    6
ATOM      6  C5  UNL A   1      10.520  49.126   8.297  1.00  0.00    +0.000 C 
ATOM      7  O2  UNL A   1      11.693  48.805   8.225  1.00  0.00    +0.000 O 
BRANCH    6    5
ATOM      1  C1  UNL A   1       8.282  46.246   8.507  1.00  0.00    +0.000 C 
ATOM      2  C2  UNL A   1       9.306  47.206   9.128  1.00  0.00    +0.000 C 
ATOM     99  H1  UNL A   1       8.098  45.436   9.182  1.00  0.00    +0.000 H 
ATOM    100  H2  UNL A   1       8.666  45.862   7.585  1.00  0.00    +0.000 H 
ATOM    101  H3  UNL A   1       7.368  46.769   8.322  1.00  0.00    +0.000 H 
ATOM      3  C3  UNL A   1       8.728  47.798  10.417  1.00  0.00    +0.000 C 
ATOM      4  C4  UNL A   1      10.586  46.395   9.404  1.00  0.00    +0.000 C 
ATOM      5  O1  UNL A   1       9.485  48.262   8.142  1.00  0.00    +0.000 O 
ATOM    102  H4  UNL A   1       8.597  47.020  11.140  1.00  0.00    +0.000 H 
ATOM    103  H5  UNL A   1       7.782  48.253  10.208  1.00  0.00    +0.000 H 
ATOM    104  H6  UNL A   1       9.400  48.535  10.804  1.00  0.00    +0.000 H 
ATOM    105  H7  UNL A   1      10.380  45.640  10.134  1.00  0.00    +0.000 H 
ATOM    106  H8  UNL A   1      11.350  47.048   9.771  1.00  0.00    +0.000 H 
ATOM    107  H9  UNL A   1      10.917  45.932   8.496  1.00  0.00    +0.000 H 
ENDBRANCH    6    5
ENDBRANCH    8    6
ENDBRANCH   13   12
ENDBRANCH   15   13
ENDBRANCH   16   15
BRANCH   16   17
ATOM     17  C12 UNL A   1      14.292  48.693  10.913  1.00  0.00    +0.000 C 
ATOM    117  H19 UNL A   1      13.816  48.032  10.219  1.00  0.00    +0.000 H 
ATOM    118  H20 UNL A   1      14.716  48.201  11.763  1.00  0.00    +0.000 H 
BRANCH   17   18
ATOM     18  C13 UNL A   1      15.451  49.354  10.204  1.00  0.00    +0.000 C 
ATOM     19  C14 UNL A   1      15.403  49.573   8.819  1.00  0.00    +0.000 C 
ATOM     20  C15 UNL A   1      16.500  50.112   8.146  1.00  0.00    +0.000 C 
ATOM     21  C16 UNL A   1      17.644  50.469   8.855  1.00  0.00    +0.000 C 
ATOM     22  C17 UNL A   1      17.685  50.299  10.239  1.00  0.00    +0.000 C 
ATOM     23  C18 UNL A   1      16.596  49.742  10.911  1.00  0.00    +0.000 C 
ATOM    119  H21 UNL A   1      14.548  49.333   8.293  1.00  0.00    +0.000 H 
ATOM    120  H22 UNL A   1      16.464  50.245   7.123  1.00  0.00    +0.000 H 
ATOM    122  H24 UNL A   1      18.524  50.586  10.767  1.00  0.00    +0.000 H 
ATOM    123  H25 UNL A   1      16.636  49.613  11.934  1.00  0.00    +0.000 H 
ATOM    121  H23 UNL A   1      18.460  50.859   8.358  1.00  0.00    +0.000 H 
ENDBRANCH   17   18
ENDBRANCH   16   17
ENDBRANCH   24   16
ENDBRANCH   26   24
ENDBRANCH   27   26
ENDBRANCH   28   27
ENDBRANCH   29   28
ENDBRANCH   30   29
ENDBRANCH   31   30
ENDBRANCH   32   31
ENDBRANCH   33   32
ENDBRANCH   34   33
ENDBRANCH   36   34
ENDBRANCH   40   39
BRANCH   44   45
ATOM     45  C35 UNL A   1      17.953  55.471   0.364  1.00  0.00    +0.000 C 
ATOM     46  C36 UNL A   1      19.173  55.886   0.924  1.00  0.00    +0.000 C 
ATOM     47  F1  UNL A   1      19.665  55.263   2.005  1.00  0.00    +0.000 F 
ATOM     48  C37 UNL A   1      19.866  56.977   0.407  1.00  0.00    +0.000 C 
ATOM     49  F2  UNL A   1      20.994  57.393   0.999  1.00  0.00    +0.000 F 
ATOM     50  C38 UNL A   1      19.379  57.648  -0.704  1.00  0.00    +0.000 C 
ATOM     51  F3  UNL A   1      20.047  58.699  -1.200  1.00  0.00    +0.000 F 
ATOM     52  C39 UNL A   1      18.193  57.236  -1.294  1.00  0.00    +0.000 C 
ATOM     53  F4  UNL A   1      17.730  57.875  -2.377  1.00  0.00    +0.000 F 
ATOM     54  C40 UNL A   1      17.480  56.166  -0.760  1.00  0.00    +0.000 C 
ATOM     55  F5  UNL A   1      16.325  55.809  -1.340  1.00  0.00    +0.000 F 
ENDBRANCH   44   45
BRANCH   61   62
ATOM     65  C48 UNL A   1      16.637  47.189  -3.021  1.00  0.00    +0.000 C 
ATOM     66  F7  UNL A   1      15.918  46.877  -4.108  1.00  0.00    +0.000 F 
ATOM     67  C49 UNL A   1      17.841  46.543  -2.779  1.00  0.00    +0.000 C 
ATOM     68  F8  UNL A   1      18.296  45.625  -3.643  1.00  0.00    +0.000 F 
ATOM     69  C50 UNL A   1      18.569  46.844  -1.639  1.00  0.00    +0.000 C 
ATOM     70  F9  UNL A   1      19.739  46.232  -1.410  1.00  0.00    +0.000 F 
ATOM     71  C51 UNL A   1      18.087  47.781  -0.730  1.00  0.00    +0.000 C 
ATOM     72  F10 UNL A   1      18.806  48.041   0.372  1.00  0.00    +0.000 F 
ATOM     62  C46 UNL A   1      16.876  48.455  -0.959  1.00  0.00    +0.000 C 
ATOM     63  C47 UNL A   1      16.166  48.148  -2.129  1.00  0.00    +0.000 C 
ATOM     64  F6  UNL A   1      14.996  48.753  -2.386  1.00  0.00    +0.000 F 
ENDBRANCH   61   62
BRANCH   76   77
ATOM     77  C55 UNL A   1      12.450  48.185   4.415  1.00  0.00    +0.000 C 
ATOM     78  C56 UNL A   1      12.995  47.359   5.407  1.00  0.00    +0.000 C 
ATOM     79  F11 UNL A   1      14.268  47.530   5.796  1.00  0.00    +0.000 F 
ATOM     80  C57 UNL A   1      12.249  46.332   5.981  1.00  0.00    +0.000 C 
ATOM     81  F12 UNL A   1      12.807  45.534   6.901  1.00  0.00    +0.000 F 
ATOM     82  C58 UNL A   1      10.933  46.129   5.592  1.00  0.00    +0.000 C 
ATOM     83  F13 UNL A   1      10.212  45.147   6.150  1.00  0.00    +0.000 F 
ATOM     84  C59 UNL A   1      10.368  46.941   4.621  1.00  0.00    +0.000 C 
ATOM     85  F14 UNL A   1       9.093  46.756   4.253  1.00  0.00    +0.000 F 
ATOM     86  C60 UNL A   1      11.122  47.951   4.027  1.00  0.00    +0.000 C 
ATOM     87  F15 UNL A   1      10.553  48.716   3.085  1.00  0.00    +0.000 F 
ENDBRANCH   76   77
TORSDOF 22
ENDMDL
MODEL 6
REMARK VINA RESULT:      -8.2     23.424     31.827
ROOT
ATOM    140  H42 UNL A   1      38.293  27.491  30.029  1.00  0.00    +0.000 H 
ATOM    141  H43 UNL A   1      39.184  25.292  28.948  1.00  0.00    +0.000 H 
ATOM    142  H44 UNL A   1      42.107  28.201  28.577  1.00  0.00    +0.000 H 
ATOM    143  H45 UNL A   1      47.775  30.065  26.301  1.00  0.00    +0.000 H 
ATOM    144  H46 UNL A   1      46.947  32.175  27.450  1.00  0.00    +0.000 H 
ATOM    145  H47 UNL A   1      44.031  29.248  27.913  1.00  0.00    +0.000 H 
ATOM    146  H48 UNL A   1      45.882  25.097  25.769  1.00  0.00    +0.000 H 
ATOM    147  H49 UNL A   1      43.648  23.974  26.312  1.00  0.00    +0.000 H 
ATOM    148  H50 UNL A   1      40.485  32.311  30.932  1.00  0.00    +0.000 H 
ATOM    149  H51 UNL A   1      42.485  33.594  29.980  1.00  0.00    +0.000 H 
ATOM     40  C31 UNL A   1      44.345  31.943  28.592  1.00  0.00    +0.000 C 
ATOM     41  C32 UNL A   1      43.007  31.549  29.151  1.00  0.00    +0.000 C 
ATOM     42  N5  UNL A   1      42.404  30.386  29.122  1.00  0.00    +0.000 N 
ATOM     43  C33 UNL A   1      41.216  30.559  29.818  1.00  0.00    +0.000 C 
ATOM     44  C34 UNL A   1      40.208  29.673  30.008  1.00  0.00    +0.000 C 
ATOM     56  C41 UNL A   1      40.211  28.325  29.502  1.00  0.00    +0.000 C 
ATOM     57  C42 UNL A   1      39.220  27.364  29.595  1.00  0.00    +0.000 C 
ATOM     58  C43 UNL A   1      39.693  26.189  28.999  1.00  0.00    +0.000 C 
ATOM     59  C44 UNL A   1      40.957  26.434  28.487  1.00  0.00    +0.000 C 
ATOM     60  N6  UNL A   1      41.265  27.747  28.808  1.00  0.00    +0.000 N 
ATOM     61  C45 UNL A   1      41.821  25.537  27.762  1.00  0.00    +0.000 C 
ATOM     73  C52 UNL A   1      43.047  25.858  27.279  1.00  0.00    +0.000 C 
ATOM     74  N7  UNL A   1      43.727  27.065  27.358  1.00  0.00    +0.000 N 
ATOM     75  C53 UNL A   1      44.874  26.874  26.752  1.00  0.00    +0.000 C 
ATOM     76  C54 UNL A   1      45.995  27.846  26.509  1.00  0.00    +0.000 C 
ATOM     88  C61 UNL A   1      45.878  29.110  26.960  1.00  0.00    +0.000 C 
ATOM     89  C62 UNL A   1      46.875  30.165  26.796  1.00  0.00    +0.000 C 
ATOM     90  C63 UNL A   1      46.432  31.282  27.392  1.00  0.00    +0.000 C 
ATOM     91  C64 UNL A   1      45.100  31.034  27.947  1.00  0.00    +0.000 C 
ATOM     92  N8  UNL A   1      44.859  29.715  27.653  1.00  0.00    +0.000 N 
ATOM     93  C65 UNL A   1      45.063  25.508  26.244  1.00  0.00    +0.000 C 
ATOM     94  C66 UNL A   1      43.906  24.943  26.554  1.00  0.00    +0.000 C 
ATOM     95  C67 UNL A   1      41.209  31.919  30.312  1.00  0.00    +0.000 C 
ATOM     96  C68 UNL A   1      42.256  32.595  29.862  1.00  0.00    +0.000 C 
ENDROOT
BRANCH   40   39
ATOM     97  C69 UNL A   1      44.603  34.312  27.848  1.00  0.00    +0.000 C 
ATOM     98  C70 UNL A   1      45.114  35.598  28.012  1.00  0.00    +0.000 C 
ATOM     36  C27 UNL A   1      45.795  35.934  29.185  1.00  0.00    +0.000 C 
ATOM     37  C28 UNL A   1      46.077  34.946  30.134  1.00  0.00    +0.000 C 
ATOM     38  C29 UNL A   1      45.633  33.638  29.932  1.00  0.00    +0.000 C 
ATOM     39  C30 UNL A   1      44.866  33.317  28.801  1.00  0.00    +0.000 C 
ATOM    138  H40 UNL A   1      46.614  35.185  30.983  1.00  0.00    +0.000 H 
ATOM    139  H41 UNL A   1      45.869  32.904  30.618  1.00  0.00    +0.000 H 
ATOM    150  H52 UNL A   1      44.028  34.091  27.020  1.00  0.00    +0.000 H 
ATOM    151  H53 UNL A   1      44.990  36.302  27.268  1.00  0.00    +0.000 H 
BRANCH   36   34
ATOM     34  C26 UNL A   1      46.258  37.317  29.441  1.00  0.00    +0.000 C 
ATOM     35  O5  UNL A   1      47.462  37.554  29.485  1.00  0.00    +0.000 O 
BRANCH   34   33
ATOM     33  N4  UNL A   1      45.355  38.328  29.647  1.00  0.00    +0.000 N 
ATOM    137  H39 UNL A   1      44.409  38.059  29.601  1.00  0.00    +0.000 H 
BRANCH   33   32
ATOM    136  H38 UNL A   1      45.959  40.185  29.029  1.00  0.00    +0.000 H 
ATOM    135  H37 UNL A   1      46.277  39.820  30.731  1.00  0.00    +0.000 H 
ATOM     32  C25 UNL A   1      45.581  39.736  29.923  1.00  0.00    +0.000 C 
BRANCH   32   31
ATOM    133  H35 UNL A   1      43.678  39.788  30.844  1.00  0.00    +0.000 H 
ATOM    134  H36 UNL A   1      44.606  41.320  30.876  1.00  0.00    +0.000 H 
ATOM     31  C24 UNL A   1      44.301  40.470  30.303  1.00  0.00    +0.000 C 
BRANCH   31   30
ATOM    131  H33 UNL A   1      43.240  42.038  29.352  1.00  0.00    +0.000 H 
ATOM    132  H34 UNL A   1      44.110  40.900  28.267  1.00  0.00    +0.000 H 
ATOM     30  C23 UNL A   1      43.488  41.022  29.129  1.00  0.00    +0.000 C 
BRANCH   30   29
ATOM    129  H31 UNL A   1      41.890  39.739  29.680  1.00  0.00    +0.000 H 
ATOM    130  H32 UNL A   1      41.491  41.037  28.501  1.00  0.00    +0.000 H 
ATOM     29  C22 UNL A   1      42.184  40.280  28.805  1.00  0.00    +0.000 C 
BRANCH   29   28
ATOM     28  C21 UNL A   1      42.242  39.286  27.638  1.00  0.00    +0.000 C 
ATOM    127  H29 UNL A   1      43.271  39.075  27.429  1.00  0.00    +0.000 H 
ATOM    128  H30 UNL A   1      41.693  38.421  27.948  1.00  0.00    +0.000 H 
BRANCH   28   27
ATOM     27  C20 UNL A   1      41.588  39.778  26.355  1.00  0.00    +0.000 C 
ATOM    125  H27 UNL A   1      41.972  39.207  25.537  1.00  0.00    +0.000 H 
ATOM    126  H28 UNL A   1      40.531  39.655  26.472  1.00  0.00    +0.000 H 
BRANCH   27   26
ATOM     26  N3  UNL A   1      41.828  41.181  26.088  1.00  0.00    +0.000 N 
ATOM    124  H26 UNL A   1      41.750  41.827  26.826  1.00  0.00    +0.000 H 
BRANCH   26   24
ATOM     25  O4  UNL A   1      41.311  41.538  23.943  1.00  0.00    +0.000 O 
ATOM     24  C19 UNL A   1      42.163  41.637  24.834  1.00  0.00    +0.000 C 
BRANCH   24   16
ATOM    116  H18 UNL A   1      44.070  41.440  23.975  1.00  0.00    +0.000 H 
ATOM     16  C11 UNL A   1      43.579  42.213  24.528  1.00  0.00    +0.000 C 
BRANCH   16   15
ATOM    115  H17 UNL A   1      42.832  43.893  23.512  1.00  0.00    +0.000 H 
ATOM     15  N2  UNL A   1      43.648  43.347  23.588  1.00  0.00    +0.000 N 
BRANCH   15   13
ATOM     13  C10 UNL A   1      44.705  43.737  22.808  1.00  0.00    +0.000 C 
ATOM     14  O3  UNL A   1      45.336  44.736  23.165  1.00  0.00    +0.000 O 
BRANCH   13   12
ATOM      8  N1  UNL A   1      44.745  43.513  20.293  1.00  0.00    +0.000 N 
ATOM      9  C6  UNL A   1      45.888  43.752  19.439  1.00  0.00    +0.000 C 
ATOM     10  C7  UNL A   1      46.968  42.849  20.003  1.00  0.00    +0.000 C 
ATOM     11  C8  UNL A   1      46.652  42.803  21.495  1.00  0.00    +0.000 C 
ATOM     12  C9  UNL A   1      45.116  42.907  21.571  1.00  0.00    +0.000 C 
ATOM    108  H10 UNL A   1      46.188  44.778  19.484  1.00  0.00    +0.000 H 
ATOM    109  H11 UNL A   1      45.680  43.549  18.409  1.00  0.00    +0.000 H 
ATOM    110  H12 UNL A   1      47.940  43.261  19.831  1.00  0.00    +0.000 H 
ATOM    111  H13 UNL A   1      46.979  41.879  19.551  1.00  0.00    +0.000 H 
ATOM    112  H14 UNL A   1      47.112  43.625  22.004  1.00  0.00    +0.000 H 
ATOM    114  H16 UNL A   1      44.612  41.973  21.700  1.00  0.00    +0.000 H 
ATOM    113  H15 UNL A   1      47.022  41.914  21.961  1.00  0.00    +0.000 H 
BRANCH    8    6
ATOM      6  C5  UNL A   1      43.429  43.601  19.932  1.00  0.00    +0.000 C 
ATOM      7  O2  UNL A   1      42.665  42.660  20.049  1.00  0.00    +0.000 O 
BRANCH    6    5
ATOM      1  C1  UNL A   1      42.516  46.240  17.575  1.00  0.00    +0.000 C 
ATOM      2  C2  UNL A   1      42.472  44.781  18.049  1.00  0.00    +0.000 C 
ATOM     99  H1  UNL A   1      42.072  46.313  16.604  1.00  0.00    +0.000 H 
ATOM    100  H2  UNL A   1      43.533  46.570  17.529  1.00  0.00    +0.000 H 
ATOM    101  H3  UNL A   1      41.973  46.855  18.262  1.00  0.00    +0.000 H 
ATOM      3  C3  UNL A   1      41.013  44.331  18.171  1.00  0.00    +0.000 C 
ATOM      4  C4  UNL A   1      43.237  43.938  17.010  1.00  0.00    +0.000 C 
ATOM      5  O1  UNL A   1      43.093  44.788  19.366  1.00  0.00    +0.000 O 
ATOM    102  H4  UNL A   1      40.558  44.327  17.202  1.00  0.00    +0.000 H 
ATOM    103  H5  UNL A   1      40.484  45.008  18.810  1.00  0.00    +0.000 H 
ATOM    104  H6  UNL A   1      40.976  43.347  18.587  1.00  0.00    +0.000 H 
ATOM    105  H7  UNL A   1      42.726  43.980  16.071  1.00  0.00    +0.000 H 
ATOM    106  H8  UNL A   1      43.291  42.923  17.343  1.00  0.00    +0.000 H 
ATOM    107  H9  UNL A   1      44.227  44.329  16.894  1.00  0.00    +0.000 H 
ENDBRANCH    6    5
ENDBRANCH    8    6
ENDBRANCH   13   12
ENDBRANCH   15   13
ENDBRANCH   16   15
BRANCH   16   17
ATOM     17  C12 UNL A   1      44.349  42.474  25.841  1.00  0.00    +0.000 C 
ATOM    117  H19 UNL A   1      43.652  42.400  26.650  1.00  0.00    +0.000 H 
ATOM    118  H20 UNL A   1      44.789  43.444  25.731  1.00  0.00    +0.000 H 
BRANCH   17   18
ATOM     18  C13 UNL A   1      45.497  41.536  26.131  1.00  0.00    +0.000 C 
ATOM     19  C14 UNL A   1      45.365  40.159  25.896  1.00  0.00    +0.000 C 
ATOM     20  C15 UNL A   1      46.392  39.278  26.234  1.00  0.00    +0.000 C 
ATOM     21  C16 UNL A   1      47.576  39.767  26.780  1.00  0.00    +0.000 C 
ATOM     22  C17 UNL A   1      47.737  41.139  26.975  1.00  0.00    +0.000 C 
ATOM     23  C18 UNL A   1      46.702  42.020  26.655  1.00  0.00    +0.000 C 
ATOM    119  H21 UNL A   1      44.498  39.795  25.469  1.00  0.00    +0.000 H 
ATOM    120  H22 UNL A   1      46.274  38.264  26.081  1.00  0.00    +0.000 H 
ATOM    122  H24 UNL A   1      48.623  41.503  27.357  1.00  0.00    +0.000 H 
ATOM    123  H25 UNL A   1      46.825  43.033  26.808  1.00  0.00    +0.000 H 
ATOM    121  H23 UNL A   1      48.334  39.116  27.040  1.00  0.00    +0.000 H 
ENDBRANCH   17   18
ENDBRANCH   16   17
ENDBRANCH   24   16
ENDBRANCH   26   24
ENDBRANCH   27   26
ENDBRANCH   28   27
ENDBRANCH   29   28
ENDBRANCH   30   29
ENDBRANCH   31   30
ENDBRANCH   32   31
ENDBRANCH   33   32
ENDBRANCH   34   33
ENDBRANCH   36   34
ENDBRANCH   40   39
BRANCH   44   45
ATOM     45  C35 UNL A   1      39.020  30.140  30.801  1.00  0.00    +0.000 C 
ATOM     46  C36 UNL A   1      38.964  29.996  32.197  1.00  0.00    +0.000 C 
ATOM     47  F1  UNL A   1      39.979  29.418  32.857  1.00  0.00    +0.000 F 
ATOM     48  C37 UNL A   1      37.842  30.398  32.916  1.00  0.00    +0.000 C 
ATOM     49  F2  UNL A   1      37.786  30.192  34.239  1.00  0.00    +0.000 F 
ATOM     50  C38 UNL A   1      36.773  30.991  32.262  1.00  0.00    +0.000 C 
ATOM     51  F3  UNL A   1      35.692  31.377  32.955  1.00  0.00    +0.000 F 
ATOM     52  C39 UNL A   1      36.819  31.174  30.888  1.00  0.00    +0.000 C 
ATOM     53  F4  UNL A   1      35.792  31.759  30.258  1.00  0.00    +0.000 F 
ATOM     54  C40 UNL A   1      37.925  30.742  30.162  1.00  0.00    +0.000 C 
ATOM     55  F5  UNL A   1      37.928  30.911  28.831  1.00  0.00    +0.000 F 
ENDBRANCH   44   45
BRANCH   61   62
ATOM     65  C48 UNL A   1      39.805  22.609  26.374  1.00  0.00    +0.000 C 
ATOM     66  F7  UNL A   1      38.748  22.406  25.576  1.00  0.00    +0.000 F 
ATOM     67  C49 UNL A   1      40.444  21.530  26.965  1.00  0.00    +0.000 C 
ATOM     68  F8  UNL A   1      40.020  20.282  26.721  1.00  0.00    +0.000 F 
ATOM     69  C50 UNL A   1      41.518  21.744  27.815  1.00  0.00    +0.000 C 
ATOM     70  F9  UNL A   1      42.146  20.702  28.376  1.00  0.00    +0.000 F 
ATOM     71  C51 UNL A   1      41.945  23.040  28.088  1.00  0.00    +0.000 C 
ATOM     72  F10 UNL A   1      42.978  23.217  28.926  1.00  0.00    +0.000 F 
ATOM     62  C46 UNL A   1      41.320  24.148  27.493  1.00  0.00    +0.000 C 
ATOM     63  C47 UNL A   1      40.248  23.906  26.621  1.00  0.00    +0.000 C 
ATOM     64  F6  UNL A   1      39.606  24.932  26.040  1.00  0.00    +0.000 F 
ENDBRANCH   61   62
BRANCH   76   77
ATOM     77  C55 UNL A   1      47.204  27.444  25.747  1.00  0.00    +0.000 C 
ATOM     78  C56 UNL A   1      47.268  27.628  24.359  1.00  0.00    +0.000 C 
ATOM     79  F11 UNL A   1      46.217  28.144  23.703  1.00  0.00    +0.000 F 
ATOM     80  C57 UNL A   1      48.396  27.252  23.633  1.00  0.00    +0.000 C 
ATOM     81  F12 UNL A   1      48.415  27.405  22.302  1.00  0.00    +0.000 F 
ATOM     82  C58 UNL A   1      49.493  26.710  24.286  1.00  0.00    +0.000 C 
ATOM     83  F13 UNL A   1      50.582  26.356  23.588  1.00  0.00    +0.000 F 
ATOM     84  C59 UNL A   1      49.459  26.530  25.660  1.00  0.00    +0.000 C 
ATOM     85  F14 UNL A   1      50.522  26.019  26.294  1.00  0.00    +0.000 F 
ATOM     86  C60 UNL A   1      48.320  26.880  26.383  1.00  0.00    +0.000 C 
ATOM     87  F15 UNL A   1      48.311  26.687  27.710  1.00  0.00    +0.000 F 
ENDBRANCH   76   77
TORSDOF 22
ENDMDL
MODEL 7
REMARK VINA RESULT:      -8.1     38.203     40.885
ROOT
ATOM    140  H42 UNL A   1      10.685  49.138  17.662  1.00  0.00    +0.000 H 
ATOM    141  H43 UNL A   1      10.328  50.863  19.585  1.00  0.00    +0.000 H 
ATOM    142  H44 UNL A   1      10.526  52.930  16.003  1.00  0.00    +0.000 H 
ATOM    143  H45 UNL A   1      10.702  58.473  12.836  1.00  0.00    +0.000 H 
ATOM    144  H46 UNL A   1      10.943  56.782  10.955  1.00  0.00    +0.000 H 
ATOM    145  H47 UNL A   1      10.660  54.676  14.528  1.00  0.00    +0.000 H 
ATOM    146  H48 UNL A   1       9.997  58.127  18.121  1.00  0.00    +0.000 H 
ATOM    147  H49 UNL A   1      10.063  56.201  19.805  1.00  0.00    +0.000 H 
ATOM    148  H50 UNL A   1      10.904  49.566  12.312  1.00  0.00    +0.000 H 
ATOM    149  H51 UNL A   1      11.333  51.482  10.669  1.00  0.00    +0.000 H 
ATOM     40  C31 UNL A   1      11.028  54.068  11.824  1.00  0.00    +0.000 C 
ATOM     41  C32 UNL A   1      10.986  52.739  12.524  1.00  0.00    +0.000 C 
ATOM     42  N5  UNL A   1      10.811  52.475  13.796  1.00  0.00    +0.000 N 
ATOM     43  C33 UNL A   1      10.816  51.091  13.898  1.00  0.00    +0.000 C 
ATOM     44  C34 UNL A   1      10.743  50.324  15.013  1.00  0.00    +0.000 C 
ATOM     56  C41 UNL A   1      10.627  50.848  16.349  1.00  0.00    +0.000 C 
ATOM     57  C42 UNL A   1      10.596  50.160  17.549  1.00  0.00    +0.000 C 
ATOM     58  C43 UNL A   1      10.421  51.088  18.581  1.00  0.00    +0.000 C 
ATOM     59  C44 UNL A   1      10.397  52.359  18.030  1.00  0.00    +0.000 C 
ATOM     60  N6  UNL A   1      10.518  52.197  16.659  1.00  0.00    +0.000 N 
ATOM     61  C45 UNL A   1      10.270  53.627  18.703  1.00  0.00    +0.000 C 
ATOM     73  C52 UNL A   1      10.268  54.837  18.090  1.00  0.00    +0.000 C 
ATOM     74  N7  UNL A   1      10.387  55.130  16.738  1.00  0.00    +0.000 N 
ATOM     75  C53 UNL A   1      10.319  56.436  16.645  1.00  0.00    +0.000 C 
ATOM     76  C54 UNL A   1      10.421  57.308  15.425  1.00  0.00    +0.000 C 
ATOM     88  C61 UNL A   1      10.598  56.735  14.219  1.00  0.00    +0.000 C 
ATOM     89  C62 UNL A   1      10.721  57.448  12.951  1.00  0.00    +0.000 C 
ATOM     90  C63 UNL A   1      10.860  56.554  11.958  1.00  0.00    +0.000 C 
ATOM     91  C64 UNL A   1      10.877  55.206  12.527  1.00  0.00    +0.000 C 
ATOM     92  N8  UNL A   1      10.703  55.411  13.873  1.00  0.00    +0.000 N 
ATOM     93  C65 UNL A   1      10.118  57.119  17.930  1.00  0.00    +0.000 C 
ATOM     94  C66 UNL A   1      10.136  56.103  18.781  1.00  0.00    +0.000 C 
ATOM     95  C67 UNL A   1      10.949  50.568  12.556  1.00  0.00    +0.000 C 
ATOM     96  C68 UNL A   1      11.135  51.544  11.680  1.00  0.00    +0.000 C 
ENDROOT
BRANCH   40   39
ATOM     97  C69 UNL A   1      12.442  54.326   9.782  1.00  0.00    +0.000 C 
ATOM     98  C70 UNL A   1      12.591  54.420   8.401  1.00  0.00    +0.000 C 
ATOM     36  C27 UNL A   1      11.494  54.204   7.564  1.00  0.00    +0.000 C 
ATOM     37  C28 UNL A   1      10.221  54.025   8.116  1.00  0.00    +0.000 C 
ATOM     38  C29 UNL A   1      10.059  54.008   9.502  1.00  0.00    +0.000 C 
ATOM     39  C30 UNL A   1      11.173  54.129  10.347  1.00  0.00    +0.000 C 
ATOM    138  H40 UNL A   1       9.403  53.904   7.498  1.00  0.00    +0.000 H 
ATOM    139  H41 UNL A   1       9.116  53.906   9.908  1.00  0.00    +0.000 H 
ATOM    150  H52 UNL A   1      13.270  54.401  10.393  1.00  0.00    +0.000 H 
ATOM    151  H53 UNL A   1      13.512  54.650   7.995  1.00  0.00    +0.000 H 
BRANCH   36   34
ATOM     34  C26 UNL A   1      11.636  54.191   6.090  1.00  0.00    +0.000 C 
ATOM     35  O5  UNL A   1      11.904  55.233   5.497  1.00  0.00    +0.000 O 
BRANCH   34   33
ATOM     33  N4  UNL A   1      11.452  53.031   5.382  1.00  0.00    +0.000 N 
ATOM    137  H39 UNL A   1      10.513  52.788   5.215  1.00  0.00    +0.000 H 
BRANCH   33   32
ATOM    136  H38 UNL A   1      13.131  52.673   4.263  1.00  0.00    +0.000 H 
ATOM    135  H37 UNL A   1      11.925  51.377   4.244  1.00  0.00    +0.000 H 
ATOM     32  C25 UNL A   1      12.432  52.105   4.842  1.00  0.00    +0.000 C 
BRANCH   32   31
ATOM    133  H35 UNL A   1      12.583  51.298   6.790  1.00  0.00    +0.000 H 
ATOM    134  H36 UNL A   1      13.501  50.440   5.514  1.00  0.00    +0.000 H 
ATOM     31  C24 UNL A   1      13.215  51.382   5.931  1.00  0.00    +0.000 C 
BRANCH   31   30
ATOM    131  H33 UNL A   1      15.157  52.119   5.511  1.00  0.00    +0.000 H 
ATOM    132  H34 UNL A   1      14.224  53.015   6.759  1.00  0.00    +0.000 H 
ATOM     30  C23 UNL A   1      14.516  52.064   6.365  1.00  0.00    +0.000 C 
BRANCH   30   29
ATOM    129  H31 UNL A   1      15.550  52.117   8.218  1.00  0.00    +0.000 H 
ATOM    130  H32 UNL A   1      14.646  50.604   7.861  1.00  0.00    +0.000 H 
ATOM     29  C22 UNL A   1      15.295  51.372   7.493  1.00  0.00    +0.000 C 
BRANCH   29   28
ATOM     28  C21 UNL A   1      16.588  50.656   7.083  1.00  0.00    +0.000 C 
ATOM    127  H29 UNL A   1      17.236  51.373   6.623  1.00  0.00    +0.000 H 
ATOM    128  H30 UNL A   1      16.998  50.233   7.976  1.00  0.00    +0.000 H 
BRANCH   28   27
ATOM     27  C20 UNL A   1      16.390  49.502   6.110  1.00  0.00    +0.000 C 
ATOM    125  H27 UNL A   1      15.445  49.624   5.625  1.00  0.00    +0.000 H 
ATOM    126  H28 UNL A   1      17.206  49.528   5.417  1.00  0.00    +0.000 H 
BRANCH   27   26
ATOM     26  N3  UNL A   1      16.412  48.202   6.748  1.00  0.00    +0.000 N 
ATOM    124  H26 UNL A   1      17.279  47.763   6.906  1.00  0.00    +0.000 H 
BRANCH   26   24
ATOM     25  O4  UNL A   1      14.644  46.917   6.280  1.00  0.00    +0.000 O 
ATOM     24  C19 UNL A   1      15.259  47.561   7.138  1.00  0.00    +0.000 C 
BRANCH   24   16
ATOM    116  H18 UNL A   1      14.162  48.598   8.601  1.00  0.00    +0.000 H 
ATOM     16  C11 UNL A   1      14.714  47.681   8.594  1.00  0.00    +0.000 C 
BRANCH   16   15
ATOM    115  H17 UNL A   1      14.017  45.870   9.399  1.00  0.00    +0.000 H 
ATOM     15  N2  UNL A   1      13.684  46.707   9.001  1.00  0.00    +0.000 N 
BRANCH   15   13
ATOM     13  C10 UNL A   1      12.323  46.821   8.897  1.00  0.00    +0.000 C 
ATOM     14  O3  UNL A   1      11.634  46.058   9.581  1.00  0.00    +0.000 O 
BRANCH   13   12
ATOM      8  N1  UNL A   1      10.418  47.528   7.396  1.00  0.00    +0.000 N 
ATOM      9  C6  UNL A   1       9.340  48.421   7.758  1.00  0.00    +0.000 C 
ATOM     10  C7  UNL A   1      10.043  49.676   8.239  1.00  0.00    +0.000 C 
ATOM     11  C8  UNL A   1      11.338  49.148   8.850  1.00  0.00    +0.000 C 
ATOM     12  C9  UNL A   1      11.693  47.912   8.001  1.00  0.00    +0.000 C 
ATOM    108  H10 UNL A   1       8.742  47.997   8.538  1.00  0.00    +0.000 H 
ATOM    109  H11 UNL A   1       8.673  48.611   6.944  1.00  0.00    +0.000 H 
ATOM    110  H12 UNL A   1       9.455  50.187   8.973  1.00  0.00    +0.000 H 
ATOM    111  H13 UNL A   1      10.212  50.385   7.456  1.00  0.00    +0.000 H 
ATOM    112  H14 UNL A   1      11.188  48.873   9.873  1.00  0.00    +0.000 H 
ATOM    114  H16 UNL A   1      12.427  48.088   7.244  1.00  0.00    +0.000 H 
ATOM    113  H15 UNL A   1      12.117  49.881   8.845  1.00  0.00    +0.000 H 
BRANCH    8    6
ATOM      6  C5  UNL A   1      10.382  46.560   6.430  1.00  0.00    +0.000 C 
ATOM      7  O2  UNL A   1       9.575  45.648   6.462  1.00  0.00    +0.000 O 
BRANCH    6    5
ATOM      1  C1  UNL A   1      12.257  46.917   3.315  1.00  0.00    +0.000 C 
ATOM      2  C2  UNL A   1      11.039  47.220   4.198  1.00  0.00    +0.000 C 
ATOM     99  H1  UNL A   1      12.086  47.296   2.329  1.00  0.00    +0.000 H 
ATOM    100  H2  UNL A   1      12.409  45.858   3.269  1.00  0.00    +0.000 H 
ATOM    101  H3  UNL A   1      13.125  47.384   3.730  1.00  0.00    +0.000 H 
ATOM      3  C3  UNL A   1      10.860  48.738   4.310  1.00  0.00    +0.000 C 
ATOM      4  C4  UNL A   1       9.817  46.555   3.538  1.00  0.00    +0.000 C 
ATOM      5  O1  UNL A   1      11.368  46.670   5.505  1.00  0.00    +0.000 O 
ATOM    102  H4  UNL A   1      10.618  49.140   3.348  1.00  0.00    +0.000 H 
ATOM    103  H5  UNL A   1      11.768  49.179   4.662  1.00  0.00    +0.000 H 
ATOM    104  H6  UNL A   1      10.069  48.954   4.996  1.00  0.00    +0.000 H 
ATOM    105  H7  UNL A   1       9.635  47.007   2.585  1.00  0.00    +0.000 H 
ATOM    106  H8  UNL A   1       8.959  46.683   4.163  1.00  0.00    +0.000 H 
ATOM    107  H9  UNL A   1      10.009  45.510   3.405  1.00  0.00    +0.000 H 
ENDBRANCH    6    5
ENDBRANCH    8    6
ENDBRANCH   13   12
ENDBRANCH   15   13
ENDBRANCH   16   15
BRANCH   16   17
ATOM     17  C12 UNL A   1      15.882  47.776   9.600  1.00  0.00    +0.000 C 
ATOM    117  H19 UNL A   1      16.794  47.645   9.056  1.00  0.00    +0.000 H 
ATOM    118  H20 UNL A   1      15.697  47.016  10.331  1.00  0.00    +0.000 H 
BRANCH   17   18
ATOM     18  C13 UNL A   1      15.984  49.070  10.373  1.00  0.00    +0.000 C 
ATOM     19  C14 UNL A   1      14.825  49.754  10.767  1.00  0.00    +0.000 C 
ATOM     20  C15 UNL A   1      14.911  50.988  11.412  1.00  0.00    +0.000 C 
ATOM     21  C16 UNL A   1      16.159  51.535  11.701  1.00  0.00    +0.000 C 
ATOM     22  C17 UNL A   1      17.319  50.842  11.354  1.00  0.00    +0.000 C 
ATOM     23  C18 UNL A   1      17.233  49.616  10.691  1.00  0.00    +0.000 C 
ATOM    119  H21 UNL A   1      13.898  49.340  10.578  1.00  0.00    +0.000 H 
ATOM    120  H22 UNL A   1      14.052  51.495  11.676  1.00  0.00    +0.000 H 
ATOM    122  H24 UNL A   1      18.243  51.237  11.590  1.00  0.00    +0.000 H 
ATOM    123  H25 UNL A   1      18.095  49.112  10.432  1.00  0.00    +0.000 H 
ATOM    121  H23 UNL A   1      16.226  52.452  12.169  1.00  0.00    +0.000 H 
ENDBRANCH   17   18
ENDBRANCH   16   17
ENDBRANCH   24   16
ENDBRANCH   26   24
ENDBRANCH   27   26
ENDBRANCH   28   27
ENDBRANCH   29   28
ENDBRANCH   30   29
ENDBRANCH   31   30
ENDBRANCH   32   31
ENDBRANCH   33   32
ENDBRANCH   34   33
ENDBRANCH   36   34
ENDBRANCH   40   39
BRANCH   44   45
ATOM     45  C35 UNL A   1      10.784  48.833  14.827  1.00  0.00    +0.000 C 
ATOM     46  C36 UNL A   1      11.998  48.143  14.680  1.00  0.00    +0.000 C 
ATOM     47  F1  UNL A   1      13.160  48.813  14.688  1.00  0.00    +0.000 F 
ATOM     48  C37 UNL A   1      12.022  46.767  14.471  1.00  0.00    +0.000 C 
ATOM     49  F2  UNL A   1      13.189  46.141  14.269  1.00  0.00    +0.000 F 
ATOM     50  C38 UNL A   1      10.837  46.047  14.447  1.00  0.00    +0.000 C 
ATOM     51  F3  UNL A   1      10.860  44.722  14.245  1.00  0.00    +0.000 F 
ATOM     52  C39 UNL A   1       9.627  46.702  14.624  1.00  0.00    +0.000 C 
ATOM     53  F4  UNL A   1       8.483  46.004  14.615  1.00  0.00    +0.000 F 
ATOM     54  C40 UNL A   1       9.598  48.083  14.799  1.00  0.00    +0.000 C 
ATOM     55  F5  UNL A   1       8.410  48.689  14.942  1.00  0.00    +0.000 F 
ENDBRANCH   44   45
BRANCH   61   62
ATOM     65  C48 UNL A   1       8.857  53.354  22.237  1.00  0.00    +0.000 C 
ATOM     66  F7  UNL A   1       7.672  53.169  22.834  1.00  0.00    +0.000 F 
ATOM     67  C49 UNL A   1       9.996  53.544  23.005  1.00  0.00    +0.000 C 
ATOM     68  F8  UNL A   1       9.917  53.519  24.342  1.00  0.00    +0.000 F 
ATOM     69  C50 UNL A   1      11.217  53.767  22.386  1.00  0.00    +0.000 C 
ATOM     70  F9  UNL A   1      12.321  53.936  23.125  1.00  0.00    +0.000 F 
ATOM     71  C51 UNL A   1      11.297  53.816  20.997  1.00  0.00    +0.000 C 
ATOM     72  F10 UNL A   1      12.489  54.048  20.427  1.00  0.00    +0.000 F 
ATOM     62  C46 UNL A   1      10.159  53.616  20.200  1.00  0.00    +0.000 C 
ATOM     63  C47 UNL A   1       8.938  53.373  20.847  1.00  0.00    +0.000 C 
ATOM     64  F6  UNL A   1       7.818  53.192  20.130  1.00  0.00    +0.000 F 
ENDBRANCH   61   62
BRANCH   76   77
ATOM     77  C55 UNL A   1      10.371  58.789  15.537  1.00  0.00    +0.000 C 
ATOM     78  C56 UNL A   1      11.534  59.525  15.800  1.00  0.00    +0.000 C 
ATOM     79  F11 UNL A   1      12.701  58.889  15.984  1.00  0.00    +0.000 F 
ATOM     80  C57 UNL A   1      11.499  60.914  15.910  1.00  0.00    +0.000 C 
ATOM     81  F12 UNL A   1      12.619  61.589  16.199  1.00  0.00    +0.000 F 
ATOM     82  C58 UNL A   1      10.304  61.595  15.732  1.00  0.00    +0.000 C 
ATOM     83  F13 UNL A   1      10.272  62.930  15.829  1.00  0.00    +0.000 F 
ATOM     84  C59 UNL A   1       9.143  60.889  15.458  1.00  0.00    +0.000 C 
ATOM     85  F14 UNL A   1       7.990  61.545  15.271  1.00  0.00    +0.000 F 
ATOM     86  C60 UNL A   1       9.172  59.498  15.375  1.00  0.00    +0.000 C 
ATOM     87  F15 UNL A   1       8.032  58.840  15.117  1.00  0.00    +0.000 F 
ENDBRANCH   76   77
TORSDOF 22
ENDMDL
MODEL 8
REMARK VINA RESULT:      -8.1     43.784     47.095
ROOT
ATOM    140  H42 UNL A   1      13.522  46.817   3.077  1.00  0.00    +0.000 H 
ATOM    141  H43 UNL A   1      15.143  46.876   1.036  1.00  0.00    +0.000 H 
ATOM    142  H44 UNL A   1      15.016  50.663   2.706  1.00  0.00    +0.000 H 
ATOM    143  H45 UNL A   1      16.661  56.831   2.520  1.00  0.00    +0.000 H 
ATOM    144  H46 UNL A   1      15.164  56.744   4.572  1.00  0.00    +0.000 H 
ATOM    145  H47 UNL A   1      15.343  52.914   2.967  1.00  0.00    +0.000 H 
ATOM    146  H48 UNL A   1      18.476  53.198  -0.952  1.00  0.00    +0.000 H 
ATOM    147  H49 UNL A   1      17.950  50.731  -1.388  1.00  0.00    +0.000 H 
ATOM    148  H50 UNL A   1      12.138  50.436   6.797  1.00  0.00    +0.000 H 
ATOM    149  H51 UNL A   1      12.254  52.988   6.967  1.00  0.00    +0.000 H 
ATOM     40  C31 UNL A   1      14.036  54.178   5.092  1.00  0.00    +0.000 C 
ATOM     41  C32 UNL A   1      13.626  52.735   5.180  1.00  0.00    +0.000 C 
ATOM     42  N5  UNL A   1      13.982  51.723   4.428  1.00  0.00    +0.000 N 
ATOM     43  C33 UNL A   1      13.350  50.611   4.968  1.00  0.00    +0.000 C 
ATOM     44  C34 UNL A   1      13.341  49.336   4.509  1.00  0.00    +0.000 C 
ATOM     56  C41 UNL A   1      14.037  48.897   3.328  1.00  0.00    +0.000 C 
ATOM     57  C42 UNL A   1      14.051  47.640   2.749  1.00  0.00    +0.000 C 
ATOM     58  C43 UNL A   1      14.908  47.677   1.644  1.00  0.00    +0.000 C 
ATOM     59  C44 UNL A   1      15.385  48.970   1.501  1.00  0.00    +0.000 C 
ATOM     60  N6  UNL A   1      14.847  49.707   2.545  1.00  0.00    +0.000 N 
ATOM     61  C45 UNL A   1      16.269  49.495   0.490  1.00  0.00    +0.000 C 
ATOM     73  C52 UNL A   1      16.682  50.784   0.411  1.00  0.00    +0.000 C 
ATOM     74  N7  UNL A   1      16.367  51.854   1.237  1.00  0.00    +0.000 N 
ATOM     75  C53 UNL A   1      17.018  52.885   0.757  1.00  0.00    +0.000 C 
ATOM     76  C54 UNL A   1      17.025  54.311   1.233  1.00  0.00    +0.000 C 
ATOM     88  C61 UNL A   1      16.289  54.649   2.309  1.00  0.00    +0.000 C 
ATOM     89  C62 UNL A   1      16.190  55.988   2.883  1.00  0.00    +0.000 C 
ATOM     90  C63 UNL A   1      15.390  55.944   3.960  1.00  0.00    +0.000 C 
ATOM     91  C64 UNL A   1      14.887  54.580   4.128  1.00  0.00    +0.000 C 
ATOM     92  N8  UNL A   1      15.483  53.878   3.110  1.00  0.00    +0.000 N 
ATOM     93  C65 UNL A   1      17.847  52.577  -0.417  1.00  0.00    +0.000 C 
ATOM     94  C66 UNL A   1      17.574  51.295  -0.610  1.00  0.00    +0.000 C 
ATOM     95  C67 UNL A   1      12.638  51.059   6.145  1.00  0.00    +0.000 C 
ATOM     96  C68 UNL A   1      12.714  52.376   6.276  1.00  0.00    +0.000 C 
ENDROOT
BRANCH   40   39
ATOM     97  C69 UNL A   1      12.435  55.949   5.822  1.00  0.00    +0.000 C 
ATOM     98  C70 UNL A   1      11.992  56.893   6.745  1.00  0.00    +0.000 C 
ATOM     36  C27 UNL A   1      12.593  56.974   8.004  1.00  0.00    +0.000 C 
ATOM     37  C28 UNL A   1      13.722  56.200   8.288  1.00  0.00    +0.000 C 
ATOM     38  C29 UNL A   1      14.214  55.309   7.333  1.00  0.00    +0.000 C 
ATOM     39  C30 UNL A   1      13.556  55.154   6.103  1.00  0.00    +0.000 C 
ATOM    138  H40 UNL A   1      14.190  56.287   9.204  1.00  0.00    +0.000 H 
ATOM    139  H41 UNL A   1      15.065  54.760   7.532  1.00  0.00    +0.000 H 
ATOM    150  H52 UNL A   1      11.934  55.833   4.927  1.00  0.00    +0.000 H 
ATOM    151  H53 UNL A   1      11.220  57.533   6.500  1.00  0.00    +0.000 H 
BRANCH   36   34
ATOM     34  C26 UNL A   1      12.080  57.891   9.048  1.00  0.00    +0.000 C 
ATOM     35  O5  UNL A   1      12.369  59.084   9.002  1.00  0.00    +0.000 O 
BRANCH   34   33
ATOM     33  N4  UNL A   1      11.303  57.416  10.073  1.00  0.00    +0.000 N 
ATOM    137  H39 UNL A   1      11.780  57.256  10.919  1.00  0.00    +0.000 H 
BRANCH   33   32
ATOM    136  H38 UNL A   1       9.374  57.889   9.569  1.00  0.00    +0.000 H 
ATOM    135  H37 UNL A   1       9.563  57.056  11.119  1.00  0.00    +0.000 H 
ATOM     32  C25 UNL A   1       9.883  57.112  10.100  1.00  0.00    +0.000 C 
BRANCH   32   31
ATOM    133  H35 UNL A   1       8.628  55.434   9.810  1.00  0.00    +0.000 H 
ATOM    134  H36 UNL A   1       9.518  56.005   8.364  1.00  0.00    +0.000 H 
ATOM     31  C24 UNL A   1       9.555  55.792   9.412  1.00  0.00    +0.000 C 
BRANCH   31   30
ATOM    131  H33 UNL A   1      11.425  54.915   8.940  1.00  0.00    +0.000 H 
ATOM    132  H34 UNL A   1      10.844  54.679  10.623  1.00  0.00    +0.000 H 
ATOM     30  C23 UNL A   1      10.601  54.687   9.582  1.00  0.00    +0.000 C 
BRANCH   30   29
ATOM    129  H31 UNL A   1      10.675  52.927   8.397  1.00  0.00    +0.000 H 
ATOM    130  H32 UNL A   1      10.318  52.690  10.143  1.00  0.00    +0.000 H 
ATOM     29  C22 UNL A   1      10.133  53.261   9.258  1.00  0.00    +0.000 C 
BRANCH   29   28
ATOM     28  C21 UNL A   1       8.637  53.090   8.963  1.00  0.00    +0.000 C 
ATOM    127  H29 UNL A   1       8.087  53.433   9.814  1.00  0.00    +0.000 H 
ATOM    128  H30 UNL A   1       8.435  53.657   8.078  1.00  0.00    +0.000 H 
BRANCH   28   27
ATOM     27  C20 UNL A   1       8.211  51.658   8.667  1.00  0.00    +0.000 C 
ATOM    125  H27 UNL A   1       7.452  51.378   9.366  1.00  0.00    +0.000 H 
ATOM    126  H28 UNL A   1       7.859  51.636   7.656  1.00  0.00    +0.000 H 
BRANCH   27   26
ATOM     26  N3  UNL A   1       9.297  50.704   8.762  1.00  0.00    +0.000 N 
ATOM    124  H26 UNL A   1      10.038  50.759   8.117  1.00  0.00    +0.000 H 
BRANCH   26   24
ATOM     25  O4  UNL A   1       8.239  49.264  10.104  1.00  0.00    +0.000 O 
ATOM     24  C19 UNL A   1       9.323  49.724   9.726  1.00  0.00    +0.000 C 
BRANCH   24   16
ATOM    116  H18 UNL A   1      11.058  48.539   9.658  1.00  0.00    +0.000 H 
ATOM     16  C11 UNL A   1      10.662  49.242  10.362  1.00  0.00    +0.000 C 
BRANCH   16   15
ATOM    115  H17 UNL A   1      12.228  50.420   9.604  1.00  0.00    +0.000 H 
ATOM     15  N2  UNL A   1      11.754  50.231  10.445  1.00  0.00    +0.000 N 
BRANCH   15   13
ATOM     13  C10 UNL A   1      12.189  50.919  11.547  1.00  0.00    +0.000 C 
ATOM     14  O3  UNL A   1      11.426  51.762  12.028  1.00  0.00    +0.000 O 
BRANCH   13   12
ATOM      8  N1  UNL A   1      14.553  51.654  12.047  1.00  0.00    +0.000 N 
ATOM      9  C6  UNL A   1      15.041  52.130  13.323  1.00  0.00    +0.000 C 
ATOM     10  C7  UNL A   1      14.683  51.021  14.294  1.00  0.00    +0.000 C 
ATOM     11  C8  UNL A   1      13.399  50.437  13.712  1.00  0.00    +0.000 C 
ATOM     12  C9  UNL A   1      13.557  50.592  12.188  1.00  0.00    +0.000 C 
ATOM    108  H10 UNL A   1      14.558  53.045  13.596  1.00  0.00    +0.000 H 
ATOM    109  H11 UNL A   1      16.090  52.340  13.309  1.00  0.00    +0.000 H 
ATOM    110  H12 UNL A   1      14.515  51.412  15.276  1.00  0.00    +0.000 H 
ATOM    111  H13 UNL A   1      15.460  50.293  14.400  1.00  0.00    +0.000 H 
ATOM    112  H14 UNL A   1      12.546  50.980  14.062  1.00  0.00    +0.000 H 
ATOM    114  H16 UNL A   1      13.881  49.708  11.681  1.00  0.00    +0.000 H 
ATOM    113  H15 UNL A   1      13.249  49.418  14.003  1.00  0.00    +0.000 H 
BRANCH    8    6
ATOM      6  C5  UNL A   1      15.075  51.945  10.817  1.00  0.00    +0.000 C 
ATOM      7  O2  UNL A   1      14.411  52.473   9.944  1.00  0.00    +0.000 O 
BRANCH    6    5
ATOM      1  C1  UNL A   1      18.052  50.030   9.911  1.00  0.00    +0.000 C 
ATOM      2  C2  UNL A   1      16.621  50.511   9.633  1.00  0.00    +0.000 C 
ATOM     99  H1  UNL A   1      18.322  49.281   9.197  1.00  0.00    +0.000 H 
ATOM    100  H2  UNL A   1      18.105  49.618  10.898  1.00  0.00    +0.000 H 
ATOM    101  H3  UNL A   1      18.727  50.856   9.833  1.00  0.00    +0.000 H 
ATOM      3  C3  UNL A   1      16.564  51.153   8.243  1.00  0.00    +0.000 C 
ATOM      4  C4  UNL A   1      15.699  49.280   9.724  1.00  0.00    +0.000 C 
ATOM      5  O1  UNL A   1      16.352  51.518  10.648  1.00  0.00    +0.000 O 
ATOM    102  H4  UNL A   1      16.762  50.410   7.498  1.00  0.00    +0.000 H 
ATOM    103  H5  UNL A   1      17.299  51.928   8.178  1.00  0.00    +0.000 H 
ATOM    104  H6  UNL A   1      15.592  51.569   8.082  1.00  0.00    +0.000 H 
ATOM    105  H7  UNL A   1      15.953  48.585   8.951  1.00  0.00    +0.000 H 
ATOM    106  H8  UNL A   1      14.681  49.588   9.607  1.00  0.00    +0.000 H 
ATOM    107  H9  UNL A   1      15.823  48.812  10.679  1.00  0.00    +0.000 H 
ENDBRANCH    6    5
ENDBRANCH    8    6
ENDBRANCH   13   12
ENDBRANCH   15   13
ENDBRANCH   16   15
BRANCH   16   17
ATOM     17  C12 UNL A   1      10.395  48.529  11.705  1.00  0.00    +0.000 C 
ATOM    117  H19 UNL A   1       9.338  48.379  11.791  1.00  0.00    +0.000 H 
ATOM    118  H20 UNL A   1      10.808  49.166  12.459  1.00  0.00    +0.000 H 
BRANCH   17   18
ATOM     18  C13 UNL A   1      11.069  47.189  11.888  1.00  0.00    +0.000 C 
ATOM     19  C14 UNL A   1      11.393  46.727  13.172  1.00  0.00    +0.000 C 
ATOM     20  C15 UNL A   1      12.085  45.528  13.343  1.00  0.00    +0.000 C 
ATOM     21  C16 UNL A   1      12.432  44.761  12.233  1.00  0.00    +0.000 C 
ATOM     22  C17 UNL A   1      12.074  45.188  10.955  1.00  0.00    +0.000 C 
ATOM     23  C18 UNL A   1      11.399  46.397  10.781  1.00  0.00    +0.000 C 
ATOM    119  H21 UNL A   1      11.117  47.280  13.999  1.00  0.00    +0.000 H 
ATOM    120  H22 UNL A   1      12.341  45.210  14.291  1.00  0.00    +0.000 H 
ATOM    122  H24 UNL A   1      12.310  44.607  10.135  1.00  0.00    +0.000 H 
ATOM    123  H25 UNL A   1      11.143  46.710   9.832  1.00  0.00    +0.000 H 
ATOM    121  H23 UNL A   1      12.952  43.878  12.357  1.00  0.00    +0.000 H 
ENDBRANCH   17   18
ENDBRANCH   16   17
ENDBRANCH   24   16
ENDBRANCH   26   24
ENDBRANCH   27   26
ENDBRANCH   28   27
ENDBRANCH   29   28
ENDBRANCH   30   29
ENDBRANCH   31   30
ENDBRANCH   32   31
ENDBRANCH   33   32
ENDBRANCH   34   33
ENDBRANCH   36   34
ENDBRANCH   40   39
BRANCH   44   45
ATOM     45  C35 UNL A   1      12.552  48.327   5.295  1.00  0.00    +0.000 C 
ATOM     46  C36 UNL A   1      11.187  48.105   5.048  1.00  0.00    +0.000 C 
ATOM     47  F1  UNL A   1      10.549  48.810   4.101  1.00  0.00    +0.000 F 
ATOM     48  C37 UNL A   1      10.458  47.194   5.808  1.00  0.00    +0.000 C 
ATOM     49  F2  UNL A   1       9.144  47.047   5.595  1.00  0.00    +0.000 F 
ATOM     50  C38 UNL A   1      11.086  46.457   6.800  1.00  0.00    +0.000 C 
ATOM     51  F3  UNL A   1      10.383  45.582   7.533  1.00  0.00    +0.000 F 
ATOM     52  C39 UNL A   1      12.440  46.635   7.041  1.00  0.00    +0.000 C 
ATOM     53  F4  UNL A   1      13.050  45.913   7.990  1.00  0.00    +0.000 F 
ATOM     54  C40 UNL A   1      13.164  47.570   6.305  1.00  0.00    +0.000 C 
ATOM     55  F5  UNL A   1      14.467  47.735   6.580  1.00  0.00    +0.000 F 
ENDBRANCH   44   45
BRANCH   61   62
ATOM     65  C48 UNL A   1      18.414  47.023  -1.473  1.00  0.00    +0.000 C 
ATOM     66  F7  UNL A   1      19.623  46.452  -1.387  1.00  0.00    +0.000 F 
ATOM     67  C49 UNL A   1      17.595  46.750  -2.558  1.00  0.00    +0.000 C 
ATOM     68  F8  UNL A   1      18.002  45.897  -3.509  1.00  0.00    +0.000 F 
ATOM     69  C50 UNL A   1      16.357  47.365  -2.662  1.00  0.00    +0.000 C 
ATOM     70  F9  UNL A   1      15.558  47.091  -3.702  1.00  0.00    +0.000 F 
ATOM     71  C51 UNL A   1      15.942  48.268  -1.688  1.00  0.00    +0.000 C 
ATOM     72  F10 UNL A   1      14.746  48.860  -1.822  1.00  0.00    +0.000 F 
ATOM     62  C46 UNL A   1      16.750  48.553  -0.575  1.00  0.00    +0.000 C 
ATOM     63  C47 UNL A   1      17.990  47.904  -0.481  1.00  0.00    +0.000 C 
ATOM     64  F6  UNL A   1      18.805  48.153   0.555  1.00  0.00    +0.000 F 
ENDBRANCH   61   62
BRANCH   76   77
ATOM     77  C55 UNL A   1      17.797  55.355   0.511  1.00  0.00    +0.000 C 
ATOM     78  C56 UNL A   1      19.053  55.765   0.977  1.00  0.00    +0.000 C 
ATOM     79  F11 UNL A   1      19.555  55.235   2.103  1.00  0.00    +0.000 F 
ATOM     80  C57 UNL A   1      19.786  56.745   0.310  1.00  0.00    +0.000 C 
ATOM     81  F12 UNL A   1      20.967  57.143   0.798  1.00  0.00    +0.000 F 
ATOM     82  C58 UNL A   1      19.286  57.314  -0.852  1.00  0.00    +0.000 C 
ATOM     83  F13 UNL A   1      19.994  58.250  -1.499  1.00  0.00    +0.000 F 
ATOM     84  C59 UNL A   1      18.051  56.916  -1.340  1.00  0.00    +0.000 C 
ATOM     85  F14 UNL A   1      17.573  57.454  -2.469  1.00  0.00    +0.000 F 
ATOM     86  C60 UNL A   1      17.306  55.956  -0.658  1.00  0.00    +0.000 C 
ATOM     87  F15 UNL A   1      16.111  55.595  -1.147  1.00  0.00    +0.000 F 
ENDBRANCH   76   77
TORSDOF 22
ENDMDL
MODEL 9
REMARK VINA RESULT:      -8.1     40.551     45.501
ROOT
ATOM    140  H42 UNL A   1      14.603  22.715   1.750  1.00  0.00    +0.000 H 
ATOM    141  H43 UNL A   1      13.034  23.578   3.645  1.00  0.00    +0.000 H 
ATOM    142  H44 UNL A   1      15.109  20.290   5.069  1.00  0.00    +0.000 H 
ATOM    143  H45 UNL A   1      16.136  15.988   9.676  1.00  0.00    +0.000 H 
ATOM    144  H46 UNL A   1      17.741  15.216   7.864  1.00  0.00    +0.000 H 
ATOM    145  H47 UNL A   1      15.735  18.567   6.441  1.00  0.00    +0.000 H 
ATOM    146  H48 UNL A   1      12.751  20.090  10.185  1.00  0.00    +0.000 H 
ATOM    147  H49 UNL A   1      11.880  21.891   8.589  1.00  0.00    +0.000 H 
ATOM    148  H50 UNL A   1      18.328  18.852   1.513  1.00  0.00    +0.000 H 
ATOM    149  H51 UNL A   1      18.855  16.763   2.896  1.00  0.00    +0.000 H 
ATOM     40  C31 UNL A   1      17.634  16.758   5.469  1.00  0.00    +0.000 C 
ATOM     41  C32 UNL A   1      17.431  17.750   4.358  1.00  0.00    +0.000 C 
ATOM     42  N5  UNL A   1      16.659  18.808   4.321  1.00  0.00    +0.000 N 
ATOM     43  C33 UNL A   1      16.881  19.393   3.082  1.00  0.00    +0.000 C 
ATOM     44  C34 UNL A   1      16.269  20.470   2.532  1.00  0.00    +0.000 C 
ATOM     56  C41 UNL A   1      15.241  21.237   3.185  1.00  0.00    +0.000 C 
ATOM     57  C42 UNL A   1      14.522  22.314   2.697  1.00  0.00    +0.000 C 
ATOM     58  C43 UNL A   1      13.668  22.765   3.709  1.00  0.00    +0.000 C 
ATOM     59  C44 UNL A   1      13.815  21.937   4.810  1.00  0.00    +0.000 C 
ATOM     60  N6  UNL A   1      14.788  21.007   4.477  1.00  0.00    +0.000 N 
ATOM     61  C45 UNL A   1      13.123  21.991   6.073  1.00  0.00    +0.000 C 
ATOM     73  C52 UNL A   1      13.315  21.130   7.103  1.00  0.00    +0.000 C 
ATOM     74  N7  UNL A   1      14.176  20.044   7.183  1.00  0.00    +0.000 N 
ATOM     75  C53 UNL A   1      14.005  19.535   8.380  1.00  0.00    +0.000 C 
ATOM     76  C54 UNL A   1      14.653  18.330   9.002  1.00  0.00    +0.000 C 
ATOM     88  C61 UNL A   1      15.557  17.628   8.291  1.00  0.00    +0.000 C 
ATOM     89  C62 UNL A   1      16.262  16.437   8.756  1.00  0.00    +0.000 C 
ATOM     90  C63 UNL A   1      17.101  16.023   7.794  1.00  0.00    +0.000 C 
ATOM     91  C64 UNL A   1      16.963  16.896   6.628  1.00  0.00    +0.000 C 
ATOM     92  N8  UNL A   1      16.033  17.828   7.019  1.00  0.00    +0.000 N 
ATOM     93  C65 UNL A   1      13.034  20.264   9.208  1.00  0.00    +0.000 C 
ATOM     94  C66 UNL A   1      12.613  21.200   8.369  1.00  0.00    +0.000 C 
ATOM     95  C67 UNL A   1      17.902  18.610   2.421  1.00  0.00    +0.000 C 
ATOM     96  C68 UNL A   1      18.220  17.540   3.135  1.00  0.00    +0.000 C 
ENDROOT
BRANCH   40   39
ATOM     97  C69 UNL A   1      19.956  15.867   5.690  1.00  0.00    +0.000 C 
ATOM     98  C70 UNL A   1      20.901  14.858   5.521  1.00  0.00    +0.000 C 
ATOM     36  C27 UNL A   1      20.500  13.592   5.085  1.00  0.00    +0.000 C 
ATOM     37  C28 UNL A   1      19.175  13.378   4.693  1.00  0.00    +0.000 C 
ATOM     38  C29 UNL A   1      18.244  14.414   4.789  1.00  0.00    +0.000 C 
ATOM     39  C30 UNL A   1      18.620  15.658   5.316  1.00  0.00    +0.000 C 
ATOM    138  H40 UNL A   1      18.886  12.454   4.335  1.00  0.00    +0.000 H 
ATOM    139  H41 UNL A   1      17.274  14.263   4.470  1.00  0.00    +0.000 H 
ATOM    150  H52 UNL A   1      20.241  16.773   6.092  1.00  0.00    +0.000 H 
ATOM    151  H53 UNL A   1      21.897  15.044   5.718  1.00  0.00    +0.000 H 
BRANCH   36   34
ATOM     34  C26 UNL A   1      21.457  12.466   4.996  1.00  0.00    +0.000 C 
ATOM     35  O5  UNL A   1      21.576  11.695   5.944  1.00  0.00    +0.000 O 
BRANCH   34   33
ATOM     33  N4  UNL A   1      22.224  12.290   3.872  1.00  0.00    +0.000 N 
ATOM    137  H39 UNL A   1      21.781  11.809   3.136  1.00  0.00    +0.000 H 
BRANCH   33   32
ATOM    136  H38 UNL A   1      23.972  12.079   2.825  1.00  0.00    +0.000 H 
ATOM    135  H37 UNL A   1      24.161  12.611   4.503  1.00  0.00    +0.000 H 
ATOM     32  C25 UNL A   1      23.589  12.705   3.603  1.00  0.00    +0.000 C 
BRANCH   32   31
ATOM    133  H35 UNL A   1      24.387  14.184   2.319  1.00  0.00    +0.000 H 
ATOM    134  H36 UNL A   1      22.685  14.422   2.825  1.00  0.00    +0.000 H 
ATOM     31  C24 UNL A   1      23.677  14.147   3.119  1.00  0.00    +0.000 C 
BRANCH   31   30
ATOM    131  H33 UNL A   1      24.759  15.871   3.708  1.00  0.00    +0.000 H 
ATOM    132  H34 UNL A   1      23.193  15.596   4.545  1.00  0.00    +0.000 H 
ATOM     30  C23 UNL A   1      24.102  15.169   4.177  1.00  0.00    +0.000 C 
BRANCH   30   29
ATOM    129  H31 UNL A   1      24.707  13.539   5.394  1.00  0.00    +0.000 H 
ATOM    130  H32 UNL A   1      25.834  14.939   5.330  1.00  0.00    +0.000 H 
ATOM     29  C22 UNL A   1      24.821  14.604   5.410  1.00  0.00    +0.000 C 
BRANCH   29   28
ATOM     28  C21 UNL A   1      24.327  15.107   6.772  1.00  0.00    +0.000 C 
ATOM    127  H29 UNL A   1      25.166  15.502   7.306  1.00  0.00    +0.000 H 
ATOM    128  H30 UNL A   1      23.575  15.842   6.570  1.00  0.00    +0.000 H 
BRANCH   28   27
ATOM     27  C20 UNL A   1      23.669  14.042   7.639  1.00  0.00    +0.000 C 
ATOM    125  H27 UNL A   1      22.721  13.794   7.211  1.00  0.00    +0.000 H 
ATOM    126  H28 UNL A   1      24.333  13.202   7.666  1.00  0.00    +0.000 H 
BRANCH   27   26
ATOM     26  N3  UNL A   1      23.459  14.465   9.008  1.00  0.00    +0.000 N 
ATOM    124  H26 UNL A   1      23.931  13.992   9.731  1.00  0.00    +0.000 H 
BRANCH   26   24
ATOM     25  O4  UNL A   1      21.438  15.418   8.971  1.00  0.00    +0.000 O 
ATOM     24  C19 UNL A   1      22.619  15.506   9.327  1.00  0.00    +0.000 C 
BRANCH   24   16
ATOM    116  H18 UNL A   1      22.664  17.593   9.568  1.00  0.00    +0.000 H 
ATOM     16  C11 UNL A   1      23.140  16.776  10.066  1.00  0.00    +0.000 C 
BRANCH   16   15
ATOM    115  H17 UNL A   1      21.863  17.490  11.575  1.00  0.00    +0.000 H 
ATOM     15  N2  UNL A   1      22.690  16.968  11.458  1.00  0.00    +0.000 N 
BRANCH   15   13
ATOM     13  C10 UNL A   1      23.278  16.511  12.608  1.00  0.00    +0.000 C 
ATOM     14  O3  UNL A   1      23.674  15.341  12.617  1.00  0.00    +0.000 O 
BRANCH   13   12
ATOM      8  N1  UNL A   1      23.902  18.809  13.449  1.00  0.00    +0.000 N 
ATOM      9  C6  UNL A   1      22.981  19.819  13.919  1.00  0.00    +0.000 C 
ATOM     10  C7  UNL A   1      22.192  19.123  15.011  1.00  0.00    +0.000 C 
ATOM     11  C8  UNL A   1      22.149  17.669  14.550  1.00  0.00    +0.000 C 
ATOM     12  C9  UNL A   1      23.486  17.455  13.813  1.00  0.00    +0.000 C 
ATOM    108  H10 UNL A   1      22.334  20.140  13.129  1.00  0.00    +0.000 H 
ATOM    109  H11 UNL A   1      23.479  20.698  14.269  1.00  0.00    +0.000 H 
ATOM    110  H12 UNL A   1      21.205  19.528  15.088  1.00  0.00    +0.000 H 
ATOM    111  H13 UNL A   1      22.631  19.239  15.980  1.00  0.00    +0.000 H 
ATOM    112  H14 UNL A   1      21.323  17.507  13.889  1.00  0.00    +0.000 H 
ATOM    114  H16 UNL A   1      24.243  16.976  14.396  1.00  0.00    +0.000 H 
ATOM    113  H15 UNL A   1      22.022  16.988  15.365  1.00  0.00    +0.000 H 
BRANCH    8    6
ATOM      6  C5  UNL A   1      25.147  19.025  12.925  1.00  0.00    +0.000 C 
ATOM      7  O2  UNL A   1      26.160  18.686  13.510  1.00  0.00    +0.000 O 
BRANCH    6    5
ATOM      1  C1  UNL A   1      25.554  21.585  10.350  1.00  0.00    +0.000 C 
ATOM      2  C2  UNL A   1      26.027  20.860  11.617  1.00  0.00    +0.000 C 
ATOM     99  H1  UNL A   1      26.167  22.445  10.181  1.00  0.00    +0.000 H 
ATOM    100  H2  UNL A   1      24.535  21.890  10.473  1.00  0.00    +0.000 H 
ATOM    101  H3  UNL A   1      25.629  20.925   9.511  1.00  0.00    +0.000 H 
ATOM      3  C3  UNL A   1      27.465  20.372  11.414  1.00  0.00    +0.000 C 
ATOM      4  C4  UNL A   1      25.930  21.863  12.782  1.00  0.00    +0.000 C 
ATOM      5  O1  UNL A   1      25.139  19.715  11.757  1.00  0.00    +0.000 O 
ATOM    102  H4  UNL A   1      28.117  21.215  11.312  1.00  0.00    +0.000 H 
ATOM    103  H5  UNL A   1      27.517  19.772  10.530  1.00  0.00    +0.000 H 
ATOM    104  H6  UNL A   1      27.767  19.789  12.258  1.00  0.00    +0.000 H 
ATOM    105  H7  UNL A   1      26.608  22.674  12.612  1.00  0.00    +0.000 H 
ATOM    106  H8  UNL A   1      26.184  21.372  13.698  1.00  0.00    +0.000 H 
ATOM    107  H9  UNL A   1      24.931  22.241  12.845  1.00  0.00    +0.000 H 
ENDBRANCH    6    5
ENDBRANCH    8    6
ENDBRANCH   13   12
ENDBRANCH   15   13
ENDBRANCH   16   15
BRANCH   16   17
ATOM     17  C12 UNL A   1      24.672  16.899   9.909  1.00  0.00    +0.000 C 
ATOM    117  H19 UNL A   1      25.052  15.936   9.637  1.00  0.00    +0.000 H 
ATOM    118  H20 UNL A   1      25.031  17.261  10.849  1.00  0.00    +0.000 H 
BRANCH   17   18
ATOM     18  C13 UNL A   1      25.151  17.894   8.878  1.00  0.00    +0.000 C 
ATOM     19  C14 UNL A   1      24.228  18.612   8.102  1.00  0.00    +0.000 C 
ATOM     20  C15 UNL A   1      24.664  19.473   7.095  1.00  0.00    +0.000 C 
ATOM     21  C16 UNL A   1      26.028  19.654   6.876  1.00  0.00    +0.000 C 
ATOM     22  C17 UNL A   1      26.954  18.981   7.672  1.00  0.00    +0.000 C 
ATOM     23  C18 UNL A   1      26.520  18.103   8.667  1.00  0.00    +0.000 C 
ATOM    119  H21 UNL A   1      23.217  18.500   8.277  1.00  0.00    +0.000 H 
ATOM    120  H22 UNL A   1      23.977  19.977   6.513  1.00  0.00    +0.000 H 
ATOM    122  H24 UNL A   1      27.964  19.133   7.525  1.00  0.00    +0.000 H 
ATOM    123  H25 UNL A   1      27.210  17.604   9.248  1.00  0.00    +0.000 H 
ATOM    121  H23 UNL A   1      26.352  20.284   6.126  1.00  0.00    +0.000 H 
ENDBRANCH   17   18
ENDBRANCH   16   17
ENDBRANCH   24   16
ENDBRANCH   26   24
ENDBRANCH   27   26
ENDBRANCH   28   27
ENDBRANCH   29   28
ENDBRANCH   30   29
ENDBRANCH   31   30
ENDBRANCH   32   31
ENDBRANCH   33   32
ENDBRANCH   34   33
ENDBRANCH   36   34
ENDBRANCH   40   39
BRANCH   44   45
ATOM     45  C35 UNL A   1      16.704  20.879   1.153  1.00  0.00    +0.000 C 
ATOM     46  C36 UNL A   1      16.016  20.451   0.006  1.00  0.00    +0.000 C 
ATOM     47  F1  UNL A   1      14.949  19.644   0.121  1.00  0.00    +0.000 F 
ATOM     48  C37 UNL A   1      16.450  20.806  -1.268  1.00  0.00    +0.000 C 
ATOM     49  F2  UNL A   1      15.814  20.332  -2.348  1.00  0.00    +0.000 F 
ATOM     50  C38 UNL A   1      17.554  21.630  -1.421  1.00  0.00    +0.000 C 
ATOM     51  F3  UNL A   1      17.973  21.971  -2.648  1.00  0.00    +0.000 F 
ATOM     52  C39 UNL A   1      18.231  22.093  -0.302  1.00  0.00    +0.000 C 
ATOM     53  F4  UNL A   1      19.290  22.901  -0.450  1.00  0.00    +0.000 F 
ATOM     54  C40 UNL A   1      17.819  21.712   0.972  1.00  0.00    +0.000 C 
ATOM     55  F5  UNL A   1      18.510  22.157   2.032  1.00  0.00    +0.000 F 
ENDBRANCH   44   45
BRANCH   61   62
ATOM     65  C48 UNL A   1      11.403  25.237   7.104  1.00  0.00    +0.000 C 
ATOM     66  F7  UNL A   1      11.680  26.340   7.813  1.00  0.00    +0.000 F 
ATOM     67  C49 UNL A   1      10.148  25.076   6.536  1.00  0.00    +0.000 C 
ATOM     68  F8  UNL A   1       9.220  26.032   6.677  1.00  0.00    +0.000 F 
ATOM     69  C50 UNL A   1       9.853  23.921   5.829  1.00  0.00    +0.000 C 
ATOM     70  F9  UNL A   1       8.646  23.770   5.268  1.00  0.00    +0.000 F 
ATOM     71  C51 UNL A   1      10.809  22.917   5.701  1.00  0.00    +0.000 C 
ATOM     72  F10 UNL A   1      10.489  21.804   5.023  1.00  0.00    +0.000 F 
ATOM     62  C46 UNL A   1      12.089  23.063   6.258  1.00  0.00    +0.000 C 
ATOM     63  C47 UNL A   1      12.372  24.248   6.953  1.00  0.00    +0.000 C 
ATOM     64  F6  UNL A   1      13.576  24.429   7.518  1.00  0.00    +0.000 F 
ENDBRANCH   61   62
BRANCH   76   77
ATOM     77  C55 UNL A   1      14.280  17.881  10.368  1.00  0.00    +0.000 C 
ATOM     78  C56 UNL A   1      13.166  17.056  10.570  1.00  0.00    +0.000 C 
ATOM     79  F11 UNL A   1      12.406  16.690   9.526  1.00  0.00    +0.000 F 
ATOM     80  C57 UNL A   1      12.805  16.631  11.847  1.00  0.00    +0.000 C 
ATOM     81  F12 UNL A   1      11.713  15.873  12.015  1.00  0.00    +0.000 F 
ATOM     82  C58 UNL A   1      13.569  17.001  12.944  1.00  0.00    +0.000 C 
ATOM     83  F13 UNL A   1      13.227  16.585  14.171  1.00  0.00    +0.000 F 
ATOM     84  C59 UNL A   1      14.683  17.806  12.767  1.00  0.00    +0.000 C 
ATOM     85  F14 UNL A   1      15.431  18.154  13.823  1.00  0.00    +0.000 F 
ATOM     86  C60 UNL A   1      15.029  18.254  11.494  1.00  0.00    +0.000 C 
ATOM     87  F15 UNL A   1      16.107  19.039  11.354  1.00  0.00    +0.000 F 
ENDBRANCH   76   77
TORSDOF 22
ENDMDL
MODEL 10
REMARK VINA RESULT:      -8.0      2.464      3.771
ROOT
ATOM    140  H42 UNL A   1      20.345  33.721  47.207  1.00  0.00    +0.000 H 
ATOM    141  H43 UNL A   1      18.373  35.060  48.264  1.00  0.00    +0.000 H 
ATOM    142  H44 UNL A   1      21.578  37.635  47.771  1.00  0.00    +0.000 H 
ATOM    143  H45 UNL A   1      24.225  43.379  48.654  1.00  0.00    +0.000 H 
ATOM    144  H46 UNL A   1      26.107  42.098  47.526  1.00  0.00    +0.000 H 
ATOM    145  H47 UNL A   1      22.875  39.515  47.930  1.00  0.00    +0.000 H 
ATOM    146  H48 UNL A   1      19.181  42.229  49.989  1.00  0.00    +0.000 H 
ATOM    147  H49 UNL A   1      17.791  40.080  50.019  1.00  0.00    +0.000 H 
ATOM    148  H50 UNL A   1      25.232  35.107  45.462  1.00  0.00    +0.000 H 
ATOM    149  H51 UNL A   1      26.800  37.090  45.866  1.00  0.00    +0.000 H 
ATOM     40  C31 UNL A   1      25.498  39.368  46.973  1.00  0.00    +0.000 C 
ATOM     41  C32 UNL A   1      24.917  38.002  46.739  1.00  0.00    +0.000 C 
ATOM     42  N5  UNL A   1      23.710  37.559  46.992  1.00  0.00    +0.000 N 
ATOM     43  C33 UNL A   1      23.690  36.245  46.545  1.00  0.00    +0.000 C 
ATOM     44  C34 UNL A   1      22.694  35.332  46.645  1.00  0.00    +0.000 C 
ATOM     56  C41 UNL A   1      21.415  35.593  47.252  1.00  0.00    +0.000 C 
ATOM     57  C42 UNL A   1      20.357  34.724  47.450  1.00  0.00    +0.000 C 
ATOM     58  C43 UNL A   1      19.305  35.440  48.032  1.00  0.00    +0.000 C 
ATOM     59  C44 UNL A   1      19.726  36.742  48.248  1.00  0.00    +0.000 C 
ATOM     60  N6  UNL A   1      21.021  36.824  47.759  1.00  0.00    +0.000 N 
ATOM     61  C45 UNL A   1      19.002  37.832  48.852  1.00  0.00    +0.000 C 
ATOM     73  C52 UNL A   1      19.492  39.082  49.041  1.00  0.00    +0.000 C 
ATOM     74  N7  UNL A   1      20.745  39.586  48.719  1.00  0.00    +0.000 N 
ATOM     75  C53 UNL A   1      20.734  40.844  49.088  1.00  0.00    +0.000 C 
ATOM     76  C54 UNL A   1      21.832  41.868  49.010  1.00  0.00    +0.000 C 
ATOM     88  C61 UNL A   1      23.023  41.516  48.487  1.00  0.00    +0.000 C 
ATOM     89  C62 UNL A   1      24.181  42.394  48.350  1.00  0.00    +0.000 C 
ATOM     90  C63 UNL A   1      25.179  41.713  47.765  1.00  0.00    +0.000 C 
ATOM     91  C64 UNL A   1      24.743  40.338  47.522  1.00  0.00    +0.000 C 
ATOM     92  N8  UNL A   1      23.446  40.316  47.972  1.00  0.00    +0.000 N 
ATOM     93  C65 UNL A   1      19.456  41.290  49.661  1.00  0.00    +0.000 C 
ATOM     94  C66 UNL A   1      18.749  40.169  49.647  1.00  0.00    +0.000 C 
ATOM     95  C67 UNL A   1      24.982  35.980  45.950  1.00  0.00    +0.000 C 
ATOM     96  C68 UNL A   1      25.801  37.008  46.113  1.00  0.00    +0.000 C 
ENDROOT
BRANCH   40   39
ATOM     97  C69 UNL A   1      27.954  39.427  47.421  1.00  0.00    +0.000 C 
ATOM     98  C70 UNL A   1      29.259  39.738  47.046  1.00  0.00    +0.000 C 
ATOM     36  C27 UNL A   1      29.525  40.190  45.751  1.00  0.00    +0.000 C 
ATOM     37  C28 UNL A   1      28.468  40.454  44.875  1.00  0.00    +0.000 C 
ATOM     38  C29 UNL A   1      27.153  40.216  45.278  1.00  0.00    +0.000 C 
ATOM     39  C30 UNL A   1      26.887  39.672  46.544  1.00  0.00    +0.000 C 
ATOM    138  H40 UNL A   1      28.660  40.825  43.931  1.00  0.00    +0.000 H 
ATOM    139  H41 UNL A   1      26.372  40.441  44.642  1.00  0.00    +0.000 H 
ATOM    150  H52 UNL A   1      27.772  39.013  48.348  1.00  0.00    +0.000 H 
ATOM    151  H53 UNL A   1      30.030  39.635  47.725  1.00  0.00    +0.000 H 
BRANCH   36   34
ATOM     34  C26 UNL A   1      30.910  40.429  45.285  1.00  0.00    +0.000 C 
ATOM     35  O5  UNL A   1      31.246  40.054  44.165  1.00  0.00    +0.000 O 
BRANCH   34   33
ATOM     33  N4  UNL A   1      31.823  41.047  46.100  1.00  0.00    +0.000 N 
ATOM    137  H39 UNL A   1      31.616  41.982  46.326  1.00  0.00    +0.000 H 
BRANCH   33   32
ATOM    136  H38 UNL A   1      33.352  41.206  47.455  1.00  0.00    +0.000 H 
ATOM    135  H37 UNL A   1      33.791  40.457  45.912  1.00  0.00    +0.000 H 
ATOM     32  C25 UNL A   1      33.051  40.531  46.682  1.00  0.00    +0.000 C 
BRANCH   32   31
ATOM    133  H35 UNL A   1      32.078  38.657  46.791  1.00  0.00    +0.000 H 
ATOM    134  H36 UNL A   1      33.813  38.666  47.237  1.00  0.00    +0.000 H 
ATOM     31  C24 UNL A   1      32.866  39.158  47.314  1.00  0.00    +0.000 C 
BRANCH   31   30
ATOM    131  H33 UNL A   1      33.404  38.941  49.352  1.00  0.00    +0.000 H 
ATOM    132  H34 UNL A   1      32.109  40.135  49.000  1.00  0.00    +0.000 H 
ATOM     30  C23 UNL A   1      32.514  39.164  48.804  1.00  0.00    +0.000 C 
BRANCH   30   29
ATOM    129  H31 UNL A   1      30.634  38.218  48.531  1.00  0.00    +0.000 H 
ATOM    130  H32 UNL A   1      31.917  37.219  49.299  1.00  0.00    +0.000 H 
ATOM     29  C22 UNL A   1      31.430  38.170  49.245  1.00  0.00    +0.000 C 
BRANCH   29   28
ATOM     28  C21 UNL A   1      30.825  38.401  50.635  1.00  0.00    +0.000 C 
ATOM    127  H29 UNL A   1      31.498  39.016  51.195  1.00  0.00    +0.000 H 
ATOM    128  H30 UNL A   1      29.870  38.860  50.479  1.00  0.00    +0.000 H 
BRANCH   28   27
ATOM     27  C20 UNL A   1      30.568  37.129  51.432  1.00  0.00    +0.000 C 
ATOM    125  H27 UNL A   1      30.861  36.290  50.837  1.00  0.00    +0.000 H 
ATOM    126  H28 UNL A   1      31.138  37.202  52.335  1.00  0.00    +0.000 H 
BRANCH   27   26
ATOM     26  N3  UNL A   1      29.181  36.960  51.814  1.00  0.00    +0.000 N 
ATOM    124  H26 UNL A   1      28.841  37.441  52.602  1.00  0.00    +0.000 H 
BRANCH   26   24
ATOM     25  O4  UNL A   1      28.098  35.021  51.567  1.00  0.00    +0.000 O 
ATOM     24  C19 UNL A   1      28.326  36.146  51.108  1.00  0.00    +0.000 C 
BRANCH   24   16
ATOM    116  H18 UNL A   1      27.975  37.630  49.662  1.00  0.00    +0.000 H 
ATOM     16  C11 UNL A   1      27.703  36.600  49.753  1.00  0.00    +0.000 C 
BRANCH   16   15
ATOM    115  H17 UNL A   1      28.702  36.667  47.905  1.00  0.00    +0.000 H 
ATOM     15  N2  UNL A   1      28.287  36.025  48.526  1.00  0.00    +0.000 N 
BRANCH   15   13
ATOM     13  C10 UNL A   1      28.326  34.710  48.143  1.00  0.00    +0.000 C 
ATOM     14  O3  UNL A   1      27.249  34.154  47.910  1.00  0.00    +0.000 O 
BRANCH   13   12
ATOM      8  N1  UNL A   1      30.384  34.348  46.725  1.00  0.00    +0.000 N 
ATOM      9  C6  UNL A   1      31.697  34.899  46.979  1.00  0.00    +0.000 C 
ATOM     10  C7  UNL A   1      32.021  34.450  48.392  1.00  0.00    +0.000 C 
ATOM     11  C8  UNL A   1      30.656  34.399  49.072  1.00  0.00    +0.000 C 
ATOM     12  C9  UNL A   1      29.679  33.987  47.954  1.00  0.00    +0.000 C 
ATOM    108  H10 UNL A   1      31.679  35.966  46.914  1.00  0.00    +0.000 H 
ATOM    109  H11 UNL A   1      32.425  34.570  46.267  1.00  0.00    +0.000 H 
ATOM    110  H12 UNL A   1      32.664  35.152  48.878  1.00  0.00    +0.000 H 
ATOM    111  H13 UNL A   1      32.535  33.513  48.423  1.00  0.00    +0.000 H 
ATOM    112  H14 UNL A   1      30.395  35.359  49.467  1.00  0.00    +0.000 H 
ATOM    114  H16 UNL A   1      29.424  32.948  47.946  1.00  0.00    +0.000 H 
ATOM    113  H15 UNL A   1      30.639  33.719  49.897  1.00  0.00    +0.000 H 
BRANCH    8    6
ATOM      6  C5  UNL A   1      29.885  33.965  45.510  1.00  0.00    +0.000 C 
ATOM      7  O2  UNL A   1      29.147  33.004  45.392  1.00  0.00    +0.000 O 
BRANCH    6    5
ATOM      1  C1  UNL A   1      30.181  35.941  42.452  1.00  0.00    +0.000 C 
ATOM      2  C2  UNL A   1      29.417  35.513  43.712  1.00  0.00    +0.000 C 
ATOM     99  H1  UNL A   1      29.549  36.551  41.841  1.00  0.00    +0.000 H 
ATOM    100  H2  UNL A   1      30.478  35.072  41.902  1.00  0.00    +0.000 H 
ATOM    101  H3  UNL A   1      31.050  36.498  42.732  1.00  0.00    +0.000 H 
ATOM      3  C3  UNL A   1      29.047  36.757  44.526  1.00  0.00    +0.000 C 
ATOM      4  C4  UNL A   1      28.163  34.747  43.249  1.00  0.00    +0.000 C 
ATOM      5  O1  UNL A   1      30.355  34.696  44.468  1.00  0.00    +0.000 O 
ATOM    102  H4  UNL A   1      28.357  37.356  43.968  1.00  0.00    +0.000 H 
ATOM    103  H5  UNL A   1      29.929  37.326  44.730  1.00  0.00    +0.000 H 
ATOM    104  H6  UNL A   1      28.594  36.458  45.448  1.00  0.00    +0.000 H 
ATOM    105  H7  UNL A   1      27.523  35.407  42.703  1.00  0.00    +0.000 H 
ATOM    106  H8  UNL A   1      27.641  34.369  44.103  1.00  0.00    +0.000 H 
ATOM    107  H9  UNL A   1      28.456  33.932  42.620  1.00  0.00    +0.000 H 
ENDBRANCH    6    5
ENDBRANCH    8    6
ENDBRANCH   13   12
ENDBRANCH   15   13
ENDBRANCH   16   15
BRANCH   16   17
ATOM     17  C12 UNL A   1      26.164  36.476  49.799  1.00  0.00    +0.000 C 
ATOM    117  H19 UNL A   1      25.922  35.633  50.413  1.00  0.00    +0.000 H 
ATOM    118  H20 UNL A   1      25.851  36.379  48.781  1.00  0.00    +0.000 H 
BRANCH   17   18
ATOM     18  C13 UNL A   1      25.422  37.674  50.343  1.00  0.00    +0.000 C 
ATOM     19  C14 UNL A   1      26.109  38.861  50.636  1.00  0.00    +0.000 C 
ATOM     20  C15 UNL A   1      25.444  39.944  51.211  1.00  0.00    +0.000 C 
ATOM     21  C16 UNL A   1      24.077  39.865  51.467  1.00  0.00    +0.000 C 
ATOM     22  C17 UNL A   1      23.374  38.706  51.136  1.00  0.00    +0.000 C 
ATOM     23  C18 UNL A   1      24.043  37.614  50.579  1.00  0.00    +0.000 C 
ATOM    119  H21 UNL A   1      27.117  38.934  50.426  1.00  0.00    +0.000 H 
ATOM    120  H22 UNL A   1      25.964  40.804  51.447  1.00  0.00    +0.000 H 
ATOM    122  H24 UNL A   1      22.358  38.657  51.303  1.00  0.00    +0.000 H 
ATOM    123  H25 UNL A   1      23.518  36.758  50.343  1.00  0.00    +0.000 H 
ATOM    121  H23 UNL A   1      23.585  40.661  51.900  1.00  0.00    +0.000 H 
ENDBRANCH   17   18
ENDBRANCH   16   17
ENDBRANCH   24   16
ENDBRANCH   26   24
ENDBRANCH   27   26
ENDBRANCH   28   27
ENDBRANCH   29   28
ENDBRANCH   30   29
ENDBRANCH   31   30
ENDBRANCH   32   31
ENDBRANCH   33   32
ENDBRANCH   34   33
ENDBRANCH   36   34
ENDBRANCH   40   39
BRANCH   44   45
ATOM     45  C35 UNL A   1      22.954  33.964  46.079  1.00  0.00    +0.000 C 
ATOM     46  C36 UNL A   1      23.701  33.005  46.782  1.00  0.00    +0.000 C 
ATOM     47  F1  UNL A   1      24.217  33.302  47.985  1.00  0.00    +0.000 F 
ATOM     48  C37 UNL A   1      23.967  31.755  46.231  1.00  0.00    +0.000 C 
ATOM     49  F2  UNL A   1      24.736  30.882  46.895  1.00  0.00    +0.000 F 
ATOM     50  C38 UNL A   1      23.457  31.422  44.986  1.00  0.00    +0.000 C 
ATOM     51  F3  UNL A   1      23.715  30.217  44.456  1.00  0.00    +0.000 F 
ATOM     52  C39 UNL A   1      22.688  32.339  44.286  1.00  0.00    +0.000 C 
ATOM     53  F4  UNL A   1      22.183  32.012  43.089  1.00  0.00    +0.000 F 
ATOM     54  C40 UNL A   1      22.449  33.603  44.820  1.00  0.00    +0.000 C 
ATOM     55  F5  UNL A   1      21.722  34.476  44.106  1.00  0.00    +0.000 F 
ENDBRANCH   44   45
BRANCH   61   62
ATOM     65  C48 UNL A   1      15.994  37.280  51.134  1.00  0.00    +0.000 C 
ATOM     66  F7  UNL A   1      15.729  37.196  52.445  1.00  0.00    +0.000 F 
ATOM     67  C49 UNL A   1      14.974  37.110  50.209  1.00  0.00    +0.000 C 
ATOM     68  F8  UNL A   1      13.720  36.886  50.626  1.00  0.00    +0.000 F 
ATOM     69  C50 UNL A   1      15.256  37.166  48.853  1.00  0.00    +0.000 C 
ATOM     70  F9  UNL A   1      14.269  37.017  47.958  1.00  0.00    +0.000 F 
ATOM     71  C51 UNL A   1      16.561  37.376  48.419  1.00  0.00    +0.000 C 
ATOM     72  F10 UNL A   1      16.805  37.411  47.100  1.00  0.00    +0.000 F 
ATOM     62  C46 UNL A   1      17.607  37.561  49.336  1.00  0.00    +0.000 C 
ATOM     63  C47 UNL A   1      17.296  37.520  50.704  1.00  0.00    +0.000 C 
ATOM     64  F6  UNL A   1      18.264  37.675  51.621  1.00  0.00    +0.000 F 
ENDBRANCH   61   62
BRANCH   76   77
ATOM     77  C55 UNL A   1      21.635  43.243  49.536  1.00  0.00    +0.000 C 
ATOM     78  C56 UNL A   1      21.198  44.274  48.694  1.00  0.00    +0.000 C 
ATOM     79  F11 UNL A   1      20.985  44.030  47.393  1.00  0.00    +0.000 F 
ATOM     80  C57 UNL A   1      21.013  45.568  49.176  1.00  0.00    +0.000 C 
ATOM     81  F12 UNL A   1      20.630  46.543  48.341  1.00  0.00    +0.000 F 
ATOM     82  C58 UNL A   1      21.233  45.849  50.516  1.00  0.00    +0.000 C 
ATOM     83  F13 UNL A   1      21.046  47.091  50.982  1.00  0.00    +0.000 F 
ATOM     84  C59 UNL A   1      21.653  44.842  51.371  1.00  0.00    +0.000 C 
ATOM     85  F14 UNL A   1      21.854  45.107  52.669  1.00  0.00    +0.000 F 
ATOM     86  C60 UNL A   1      21.866  43.554  50.885  1.00  0.00    +0.000 C 
ATOM     87  F15 UNL A   1      22.281  42.601  51.732  1.00  0.00    +0.000 F 
ENDBRANCH   76   77
TORSDOF 22
ENDMDL
