MODEL 1
REMARK VINA RESULT:     -11.7      0.000      0.000
ROOT
ATOM     28  C20 UNL A   1      40.028  29.205  29.143  1.00  0.00    +0.000 C 
ATOM     29  C21 UNL A   1      40.294  28.936  30.576  1.00  0.00    +0.000 C 
ATOM     30  N6  UNL A   1      41.219  29.451  31.313  1.00  0.00    +0.000 N 
ATOM     31  C22 UNL A   1      41.088  28.858  32.564  1.00  0.00    +0.000 C 
ATOM     32  C23 UNL A   1      42.149  28.778  33.415  1.00  0.00    +0.000 C 
ATOM     44  C30 UNL A   1      43.205  29.669  33.002  1.00  0.00    +0.000 C 
ATOM     45  C31 UNL A   1      43.316  31.040  32.874  1.00  0.00    +0.000 C 
ATOM     46  C32 UNL A   1      44.071  31.238  31.680  1.00  0.00    +0.000 C 
ATOM     47  C33 UNL A   1      44.446  29.984  31.193  1.00  0.00    +0.000 C 
ATOM     48  N7  UNL A   1      44.231  29.142  32.255  1.00  0.00    +0.000 N 
ATOM     49  C34 UNL A   1      44.888  29.535  29.893  1.00  0.00    +0.000 C 
ATOM     61  C41 UNL A   1      44.840  28.242  29.457  1.00  0.00    +0.000 C 
ATOM     62  N8  UNL A   1      44.901  27.936  28.104  1.00  0.00    +0.000 N 
ATOM     63  C42 UNL A   1      44.275  26.794  27.992  1.00  0.00    +0.000 C 
ATOM     64  C43 UNL A   1      43.334  26.494  26.879  1.00  0.00    +0.000 C 
ATOM     76  C50 UNL A   1      42.285  27.342  27.027  1.00  0.00    +0.000 C 
ATOM     77  C51 UNL A   1      41.280  27.762  26.080  1.00  0.00    +0.000 C 
ATOM     78  C52 UNL A   1      40.461  28.637  26.700  1.00  0.00    +0.000 C 
ATOM     79  C53 UNL A   1      40.774  28.689  28.136  1.00  0.00    +0.000 C 
ATOM     80  N9  UNL A   1      41.945  27.983  28.238  1.00  0.00    +0.000 N 
ATOM     81  C54 UNL A   1      44.106  26.044  29.226  1.00  0.00    +0.000 C 
ATOM     82  C55 UNL A   1      44.376  27.015  30.103  1.00  0.00    +0.000 C 
ATOM     83  C56 UNL A   1      39.813  28.189  32.561  1.00  0.00    +0.000 C 
ATOM     84  C57 UNL A   1      39.333  28.105  31.319  1.00  0.00    +0.000 C 
ATOM    112  H22 UNL A   1      42.936  31.762  33.506  1.00  0.00    +0.000 H 
ATOM    113  H23 UNL A   1      44.299  32.149  31.251  1.00  0.00    +0.000 H 
ATOM    114  H24 UNL A   1      44.722  28.311  32.446  1.00  0.00    +0.000 H 
ATOM    115  H25 UNL A   1      41.200  27.446  25.101  1.00  0.00    +0.000 H 
ATOM    116  H26 UNL A   1      39.725  29.190  26.234  1.00  0.00    +0.000 H 
ATOM    117  H27 UNL A   1      42.486  27.929  29.060  1.00  0.00    +0.000 H 
ATOM    118  H28 UNL A   1      43.855  25.054  29.379  1.00  0.00    +0.000 H 
ATOM    119  H29 UNL A   1      44.267  26.911  31.124  1.00  0.00    +0.000 H 
ATOM    120  H30 UNL A   1      39.338  27.825  33.402  1.00  0.00    +0.000 H 
ATOM    121  H31 UNL A   1      38.507  27.594  30.972  1.00  0.00    +0.000 H 
ENDROOT
BRANCH   28   27
ATOM    122  H32 UNL A   1      37.901  27.957  28.393  1.00  0.00    +0.000 H 
ATOM     27  C19 UNL A   1      38.745  29.829  28.871  1.00  0.00    +0.000 C 
ATOM    110  H20 UNL A   1      36.933  32.636  29.093  1.00  0.00    +0.000 H 
ATOM    111  H21 UNL A   1      39.207  31.808  29.486  1.00  0.00    +0.000 H 
ATOM     85  C58 UNL A   1      37.772  28.981  28.371  1.00  0.00    +0.000 C 
ATOM     86  C59 UNL A   1      36.644  29.530  27.849  1.00  0.00    +0.000 C 
ATOM     24  C16 UNL A   1      36.278  30.814  28.227  1.00  0.00    +0.000 C 
ATOM     25  C17 UNL A   1      37.196  31.669  28.844  1.00  0.00    +0.000 C 
ATOM     26  C18 UNL A   1      38.474  31.184  29.114  1.00  0.00    +0.000 C 
ATOM    123  H33 UNL A   1      36.066  28.998  27.180  1.00  0.00    +0.000 H 
BRANCH   24   22
ATOM     22  C15 UNL A   1      34.870  31.177  27.991  1.00  0.00    +0.000 C 
ATOM     23  O3  UNL A   1      34.356  32.100  28.592  1.00  0.00    +0.000 O 
BRANCH   22   21
ATOM    109  H19 UNL A   1      34.598  30.336  26.168  1.00  0.00    +0.000 H 
ATOM     21  N5  UNL A   1      34.168  30.438  27.047  1.00  0.00    +0.000 N 
BRANCH   21   20
ATOM    108  H18 UNL A   1      32.158  30.311  26.590  1.00  0.00    +0.000 H 
ATOM    107  H17 UNL A   1      32.578  29.838  28.240  1.00  0.00    +0.000 H 
ATOM     20  C14 UNL A   1      32.860  29.792  27.209  1.00  0.00    +0.000 C 
BRANCH   20   19
ATOM    105  H15 UNL A   1      33.210  27.740  27.595  1.00  0.00    +0.000 H 
ATOM    106  H16 UNL A   1      31.885  28.082  26.470  1.00  0.00    +0.000 H 
ATOM     19  C13 UNL A   1      32.878  28.339  26.773  1.00  0.00    +0.000 C 
BRANCH   19   18
ATOM     18  C12 UNL A   1      33.805  28.085  25.575  1.00  0.00    +0.000 C 
ATOM    103  H13 UNL A   1      33.563  28.798  24.816  1.00  0.00    +0.000 H 
ATOM    104  H14 UNL A   1      34.800  28.172  25.958  1.00  0.00    +0.000 H 
BRANCH   18   17
ATOM     17  C11 UNL A   1      33.728  26.683  24.945  1.00  0.00    +0.000 C 
ATOM    101  H11 UNL A   1      32.696  26.428  24.830  1.00  0.00    +0.000 H 
ATOM    102  H12 UNL A   1      34.262  26.745  24.019  1.00  0.00    +0.000 H 
BRANCH   17   16
ATOM     99  H9  UNL A   1      35.417  25.850  25.947  1.00  0.00    +0.000 H 
ATOM    100  H10 UNL A   1      33.843  25.432  26.649  1.00  0.00    +0.000 H 
ATOM     16  C10 UNL A   1      34.406  25.563  25.748  1.00  0.00    +0.000 C 
BRANCH   16   15
ATOM     97  H7  UNL A   1      34.082  24.361  24.009  1.00  0.00    +0.000 H 
ATOM     98  H8  UNL A   1      35.411  23.826  25.017  1.00  0.00    +0.000 H 
ATOM     15  C9  UNL A   1      34.416  24.219  25.015  1.00  0.00    +0.000 C 
BRANCH   15   14
ATOM     14  N4  UNL A   1      33.533  23.281  25.685  1.00  0.00    +0.000 N 
ATOM     96  H6  UNL A   1      33.999  22.693  26.323  1.00  0.00    +0.000 H 
BRANCH   14   12
ATOM     12  C8  UNL A   1      32.184  23.046  25.610  1.00  0.00    +0.000 C 
ATOM     13  O2  UNL A   1      31.789  21.907  25.862  1.00  0.00    +0.000 O 
BRANCH   12   11
ATOM      8  C4  UNL A   1      29.690  26.135  24.048  1.00  0.00    +0.000 C 
ATOM      9  C5  UNL A   1      30.079  25.078  23.228  1.00  0.00    +0.000 C 
ATOM     10  C6  UNL A   1      30.868  24.063  23.780  1.00  0.00    +0.000 C 
ATOM     11  C7  UNL A   1      31.204  24.067  25.146  1.00  0.00    +0.000 C 
ATOM     87  C60 UNL A   1      30.632  25.034  25.975  1.00  0.00    +0.000 C 
ATOM     88  C61 UNL A   1      29.931  26.104  25.424  1.00  0.00    +0.000 C 
ATOM    124  H34 UNL A   1      30.728  24.956  27.000  1.00  0.00    +0.000 H 
ATOM    125  H35 UNL A   1      29.590  26.869  26.028  1.00  0.00    +0.000 H 
ATOM     94  H4  UNL A   1      29.791  25.043  22.238  1.00  0.00    +0.000 H 
ATOM     95  H5  UNL A   1      31.209  23.300  23.175  1.00  0.00    +0.000 H 
BRANCH    8    7
ATOM      4  C3  UNL A   1      28.705  29.321  22.857  1.00  0.00    +0.000 C 
ATOM      5  N1  UNL A   1      27.514  28.697  23.152  1.00  0.00    +0.000 N 
ATOM      6  N2  UNL A   1      27.762  27.424  23.428  1.00  0.00    +0.000 N 
ATOM      7  N3  UNL A   1      29.095  27.278  23.489  1.00  0.00    +0.000 N 
ATOM     89  C62 UNL A   1      29.735  28.403  22.997  1.00  0.00    +0.000 C 
BRANCH    4    2
ATOM      2  C2  UNL A   1      28.739  30.723  22.457  1.00  0.00    +0.000 C 
ATOM      3  O1  UNL A   1      28.806  31.050  21.273  1.00  0.00    +0.000 O 
BRANCH    2    1
ATOM      1  C1  UNL A   1      28.690  31.785  23.524  1.00  0.00    +0.000 C 
ATOM     91  H1  UNL A   1      28.051  31.463  24.320  1.00  0.00    +0.000 H 
ATOM     92  H2  UNL A   1      28.307  32.693  23.106  1.00  0.00    +0.000 H 
ATOM     93  H3  UNL A   1      29.675  31.956  23.904  1.00  0.00    +0.000 H 
ENDBRANCH    2    1
ENDBRANCH    4    2
BRANCH   89   90
ATOM     90  C63 UNL A   1      31.192  28.429  22.719  1.00  0.00    +0.000 C 
ATOM    126  H36 UNL A   1      31.355  28.361  21.664  1.00  0.00    +0.000 H 
ATOM    127  H37 UNL A   1      31.662  27.601  23.207  1.00  0.00    +0.000 H 
ATOM    128  H38 UNL A   1      31.609  29.344  23.086  1.00  0.00    +0.000 H 
ENDBRANCH   89   90
ENDBRANCH    8    7
ENDBRANCH   12   11
ENDBRANCH   14   12
ENDBRANCH   15   14
ENDBRANCH   16   15
ENDBRANCH   17   16
ENDBRANCH   18   17
ENDBRANCH   19   18
ENDBRANCH   20   19
ENDBRANCH   21   20
ENDBRANCH   22   21
ENDBRANCH   24   22
ENDBRANCH   28   27
BRANCH   32   33
ATOM     33  C24 UNL A   1      42.386  27.661  34.400  1.00  0.00    +0.000 C 
ATOM     34  C25 UNL A   1      42.952  26.454  33.941  1.00  0.00    +0.000 C 
ATOM     35  F1  UNL A   1      43.513  26.383  32.723  1.00  0.00    +0.000 F 
ATOM     36  C26 UNL A   1      42.879  25.273  34.683  1.00  0.00    +0.000 C 
ATOM     37  F2  UNL A   1      43.319  24.125  34.150  1.00  0.00    +0.000 F 
ATOM     38  C27 UNL A   1      42.294  25.266  35.935  1.00  0.00    +0.000 C 
ATOM     39  F3  UNL A   1      42.167  24.124  36.621  1.00  0.00    +0.000 F 
ATOM     40  C28 UNL A   1      41.798  26.444  36.453  1.00  0.00    +0.000 C 
ATOM     41  F4  UNL A   1      41.216  26.455  37.660  1.00  0.00    +0.000 F 
ATOM     42  C29 UNL A   1      41.823  27.612  35.693  1.00  0.00    +0.000 C 
ATOM     43  F5  UNL A   1      41.177  28.652  36.233  1.00  0.00    +0.000 F 
ENDBRANCH   32   33
BRANCH   49   50
ATOM     50  C35 UNL A   1      45.217  30.605  28.884  1.00  0.00    +0.000 C 
ATOM     51  C36 UNL A   1      44.253  31.298  28.130  1.00  0.00    +0.000 C 
ATOM     52  F6  UNL A   1      42.955  30.992  28.231  1.00  0.00    +0.000 F 
ATOM     53  C37 UNL A   1      44.604  32.364  27.301  1.00  0.00    +0.000 C 
ATOM     54  F7  UNL A   1      43.661  33.003  26.591  1.00  0.00    +0.000 F 
ATOM     55  C38 UNL A   1      45.919  32.790  27.241  1.00  0.00    +0.000 C 
ATOM     56  F8  UNL A   1      46.253  33.840  26.479  1.00  0.00    +0.000 F 
ATOM     57  C39 UNL A   1      46.885  32.141  27.994  1.00  0.00    +0.000 C 
ATOM     58  F9  UNL A   1      48.150  32.579  27.978  1.00  0.00    +0.000 F 
ATOM     59  C40 UNL A   1      46.540  31.055  28.795  1.00  0.00    +0.000 C 
ATOM     60  F10 UNL A   1      47.497  30.470  29.532  1.00  0.00    +0.000 F 
ENDBRANCH   49   50
BRANCH   64   65
ATOM     65  C44 UNL A   1      43.396  25.250  26.080  1.00  0.00    +0.000 C 
ATOM     66  C45 UNL A   1      44.466  24.994  25.206  1.00  0.00    +0.000 C 
ATOM     67  F11 UNL A   1      45.341  25.966  24.914  1.00  0.00    +0.000 F 
ATOM     68  C46 UNL A   1      44.690  23.718  24.676  1.00  0.00    +0.000 C 
ATOM     69  F12 UNL A   1      45.752  23.498  23.889  1.00  0.00    +0.000 F 
ATOM     70  C47 UNL A   1      43.852  22.665  25.005  1.00  0.00    +0.000 C 
ATOM     71  F13 UNL A   1      44.102  21.430  24.548  1.00  0.00    +0.000 F 
ATOM     72  C48 UNL A   1      42.777  22.889  25.844  1.00  0.00    +0.000 C 
ATOM     73  F14 UNL A   1      41.982  21.871  26.203  1.00  0.00    +0.000 F 
ATOM     74  C49 UNL A   1      42.553  24.161  26.373  1.00  0.00    +0.000 C 
ATOM     75  F15 UNL A   1      41.550  24.291  27.256  1.00  0.00    +0.000 F 
ENDBRANCH   64   65
TORSDOF 19
ENDMDL
MODEL 2
REMARK VINA RESULT:     -11.3      2.935      8.019
ROOT
ATOM     28  C20 UNL A   1      40.642  27.813  28.807  1.00  0.00    +0.000 C 
ATOM     29  C21 UNL A   1      41.866  28.436  28.249  1.00  0.00    +0.000 C 
ATOM     30  N6  UNL A   1      42.971  28.687  28.866  1.00  0.00    +0.000 N 
ATOM     31  C22 UNL A   1      43.797  29.309  27.936  1.00  0.00    +0.000 C 
ATOM     32  C23 UNL A   1      44.805  30.134  28.337  1.00  0.00    +0.000 C 
ATOM     44  C30 UNL A   1      45.086  29.954  29.741  1.00  0.00    +0.000 C 
ATOM     45  C31 UNL A   1      45.545  28.900  30.505  1.00  0.00    +0.000 C 
ATOM     46  C32 UNL A   1      44.785  28.961  31.711  1.00  0.00    +0.000 C 
ATOM     47  C33 UNL A   1      43.968  30.092  31.649  1.00  0.00    +0.000 C 
ATOM     48  N7  UNL A   1      44.507  30.831  30.626  1.00  0.00    +0.000 N 
ATOM     49  C34 UNL A   1      42.774  30.473  32.368  1.00  0.00    +0.000 C 
ATOM     61  C41 UNL A   1      41.868  31.401  31.938  1.00  0.00    +0.000 C 
ATOM     62  N8  UNL A   1      40.579  31.439  32.452  1.00  0.00    +0.000 N 
ATOM     63  C42 UNL A   1      39.857  31.972  31.501  1.00  0.00    +0.000 C 
ATOM     64  C43 UNL A   1      38.503  31.472  31.138  1.00  0.00    +0.000 C 
ATOM     76  C50 UNL A   1      38.677  30.220  30.648  1.00  0.00    +0.000 C 
ATOM     77  C51 UNL A   1      37.735  29.138  30.487  1.00  0.00    +0.000 C 
ATOM     78  C52 UNL A   1      38.397  28.080  29.976  1.00  0.00    +0.000 C 
ATOM     79  C53 UNL A   1      39.763  28.474  29.598  1.00  0.00    +0.000 C 
ATOM     80  N9  UNL A   1      39.898  29.729  30.135  1.00  0.00    +0.000 N 
ATOM     81  C54 UNL A   1      40.596  32.695  30.479  1.00  0.00    +0.000 C 
ATOM     82  C55 UNL A   1      41.823  32.230  30.735  1.00  0.00    +0.000 C 
ATOM     83  C56 UNL A   1      43.178  29.111  26.652  1.00  0.00    +0.000 C 
ATOM     84  C57 UNL A   1      41.924  28.681  26.799  1.00  0.00    +0.000 C 
ATOM    112  H22 UNL A   1      46.278  28.217  30.258  1.00  0.00    +0.000 H 
ATOM    113  H23 UNL A   1      44.831  28.288  32.492  1.00  0.00    +0.000 H 
ATOM    114  H24 UNL A   1      44.483  31.811  30.542  1.00  0.00    +0.000 H 
ATOM    115  H25 UNL A   1      36.731  29.169  30.720  1.00  0.00    +0.000 H 
ATOM    116  H26 UNL A   1      38.003  27.132  29.868  1.00  0.00    +0.000 H 
ATOM    117  H27 UNL A   1      40.746  30.229  30.160  1.00  0.00    +0.000 H 
ATOM    118  H28 UNL A   1      40.270  33.369  29.768  1.00  0.00    +0.000 H 
ATOM    119  H29 UNL A   1      42.646  32.433  30.147  1.00  0.00    +0.000 H 
ATOM    120  H30 UNL A   1      43.640  29.280  25.744  1.00  0.00    +0.000 H 
ATOM    121  H31 UNL A   1      41.190  28.553  26.085  1.00  0.00    +0.000 H 
ENDROOT
BRANCH   28   27
ATOM    122  H32 UNL A   1      41.842  25.586  29.304  1.00  0.00    +0.000 H 
ATOM     27  C19 UNL A   1      40.296  26.529  28.223  1.00  0.00    +0.000 C 
ATOM    110  H20 UNL A   1      38.053  24.833  26.406  1.00  0.00    +0.000 H 
ATOM    111  H21 UNL A   1      38.542  27.109  27.176  1.00  0.00    +0.000 H 
ATOM     85  C58 UNL A   1      41.148  25.487  28.546  1.00  0.00    +0.000 C 
ATOM     86  C59 UNL A   1      41.047  24.330  27.840  1.00  0.00    +0.000 C 
ATOM     24  C16 UNL A   1      39.864  24.042  27.176  1.00  0.00    +0.000 C 
ATOM     25  C17 UNL A   1      38.917  25.041  26.930  1.00  0.00    +0.000 C 
ATOM     26  C18 UNL A   1      39.170  26.324  27.411  1.00  0.00    +0.000 C 
ATOM    123  H33 UNL A   1      41.842  23.673  27.798  1.00  0.00    +0.000 H 
BRANCH   24   22
ATOM     22  C15 UNL A   1      39.657  22.629  26.814  1.00  0.00    +0.000 C 
ATOM     23  O3  UNL A   1      40.563  21.824  26.902  1.00  0.00    +0.000 O 
BRANCH   22   21
ATOM    109  H19 UNL A   1      37.661  22.363  27.046  1.00  0.00    +0.000 H 
ATOM     21  N5  UNL A   1      38.386  22.256  26.390  1.00  0.00    +0.000 N 
BRANCH   21   20
ATOM    108  H18 UNL A   1      38.822  21.144  24.706  1.00  0.00    +0.000 H 
ATOM    107  H17 UNL A   1      37.778  22.542  24.425  1.00  0.00    +0.000 H 
ATOM     20  C14 UNL A   1      38.003  21.724  25.077  1.00  0.00    +0.000 C 
BRANCH   20   19
ATOM    105  H15 UNL A   1      36.954  19.970  24.522  1.00  0.00    +0.000 H 
ATOM    106  H16 UNL A   1      36.670  20.529  26.180  1.00  0.00    +0.000 H 
ATOM     19  C13 UNL A   1      36.790  20.817  25.156  1.00  0.00    +0.000 C 
BRANCH   19   18
ATOM     18  C12 UNL A   1      35.491  21.511  24.719  1.00  0.00    +0.000 C 
ATOM    103  H13 UNL A   1      35.240  21.151  23.743  1.00  0.00    +0.000 H 
ATOM    104  H14 UNL A   1      34.771  21.275  25.473  1.00  0.00    +0.000 H 
BRANCH   18   17
ATOM     17  C11 UNL A   1      35.533  23.049  24.656  1.00  0.00    +0.000 C 
ATOM    101  H11 UNL A   1      36.549  23.345  24.497  1.00  0.00    +0.000 H 
ATOM    102  H12 UNL A   1      34.873  23.330  23.862  1.00  0.00    +0.000 H 
BRANCH   17   16
ATOM     99  H9  UNL A   1      35.838  24.291  26.363  1.00  0.00    +0.000 H 
ATOM    100  H10 UNL A   1      34.245  24.441  25.597  1.00  0.00    +0.000 H 
ATOM     16  C10 UNL A   1      35.020  23.772  25.909  1.00  0.00    +0.000 C 
BRANCH   16   15
ATOM     97  H7  UNL A   1      34.647  21.812  26.680  1.00  0.00    +0.000 H 
ATOM     98  H8  UNL A   1      34.817  23.048  27.909  1.00  0.00    +0.000 H 
ATOM     15  C9  UNL A   1      34.412  22.821  26.944  1.00  0.00    +0.000 C 
BRANCH   15   14
ATOM     14  N4  UNL A   1      32.970  22.984  26.983  1.00  0.00    +0.000 N 
ATOM     96  H6  UNL A   1      32.628  23.234  27.872  1.00  0.00    +0.000 H 
BRANCH   14   12
ATOM     12  C8  UNL A   1      31.987  22.861  26.035  1.00  0.00    +0.000 C 
ATOM     13  O2  UNL A   1      31.635  21.724  25.722  1.00  0.00    +0.000 O 
BRANCH   12   11
ATOM      8  C4  UNL A   1      29.972  26.130  24.175  1.00  0.00    +0.000 C 
ATOM      9  C5  UNL A   1      30.389  26.237  25.500  1.00  0.00    +0.000 C 
ATOM     10  C6  UNL A   1      31.078  25.161  26.070  1.00  0.00    +0.000 C 
ATOM     11  C7  UNL A   1      31.407  24.025  25.308  1.00  0.00    +0.000 C 
ATOM     87  C60 UNL A   1      31.149  24.039  23.936  1.00  0.00    +0.000 C 
ATOM     88  C61 UNL A   1      30.377  25.055  23.378  1.00  0.00    +0.000 C 
ATOM    124  H34 UNL A   1      31.532  23.294  23.332  1.00  0.00    +0.000 H 
ATOM    125  H35 UNL A   1      30.105  25.016  22.383  1.00  0.00    +0.000 H 
ATOM     94  H4  UNL A   1      30.196  27.090  26.047  1.00  0.00    +0.000 H 
ATOM     95  H5  UNL A   1      31.348  25.201  27.065  1.00  0.00    +0.000 H 
BRANCH    8    7
ATOM      4  C3  UNL A   1      28.209  28.946  22.948  1.00  0.00    +0.000 C 
ATOM      5  N1  UNL A   1      27.218  28.118  23.424  1.00  0.00    +0.000 N 
ATOM      6  N2  UNL A   1      27.758  26.947  23.734  1.00  0.00    +0.000 N 
ATOM      7  N3  UNL A   1      29.090  27.080  23.635  1.00  0.00    +0.000 N 
ATOM     89  C62 UNL A   1      29.419  28.270  23.006  1.00  0.00    +0.000 C 
BRANCH    4    2
ATOM      2  C2  UNL A   1      27.902  30.290  22.473  1.00  0.00    +0.000 C 
ATOM      3  O1  UNL A   1      27.815  30.540  21.271  1.00  0.00    +0.000 O 
BRANCH    2    1
ATOM      1  C1  UNL A   1      27.685  31.387  23.481  1.00  0.00    +0.000 C 
ATOM     91  H1  UNL A   1      26.648  31.437  23.737  1.00  0.00    +0.000 H 
ATOM     92  H2  UNL A   1      27.995  32.322  23.064  1.00  0.00    +0.000 H 
ATOM     93  H3  UNL A   1      28.260  31.182  24.361  1.00  0.00    +0.000 H 
ENDBRANCH    2    1
ENDBRANCH    4    2
BRANCH   89   90
ATOM     90  C63 UNL A   1      30.797  28.569  22.546  1.00  0.00    +0.000 C 
ATOM    126  H36 UNL A   1      31.456  27.787  22.860  1.00  0.00    +0.000 H 
ATOM    127  H37 UNL A   1      31.120  29.498  22.967  1.00  0.00    +0.000 H 
ATOM    128  H38 UNL A   1      30.809  28.637  21.478  1.00  0.00    +0.000 H 
ENDBRANCH   89   90
ENDBRANCH    8    7
ENDBRANCH   12   11
ENDBRANCH   14   12
ENDBRANCH   15   14
ENDBRANCH   16   15
ENDBRANCH   17   16
ENDBRANCH   18   17
ENDBRANCH   19   18
ENDBRANCH   20   19
ENDBRANCH   21   20
ENDBRANCH   22   21
ENDBRANCH   24   22
ENDBRANCH   28   27
BRANCH   32   33
ATOM     33  C24 UNL A   1      45.293  31.339  27.573  1.00  0.00    +0.000 C 
ATOM     34  C25 UNL A   1      46.624  31.360  27.111  1.00  0.00    +0.000 C 
ATOM     35  F1  UNL A   1      47.366  30.242  27.110  1.00  0.00    +0.000 F 
ATOM     36  C26 UNL A   1      47.253  32.545  26.720  1.00  0.00    +0.000 C 
ATOM     37  F2  UNL A   1      48.557  32.535  26.408  1.00  0.00    +0.000 F 
ATOM     38  C27 UNL A   1      46.558  33.740  26.718  1.00  0.00    +0.000 C 
ATOM     39  F3  UNL A   1      47.175  34.886  26.404  1.00  0.00    +0.000 F 
ATOM     40  C28 UNL A   1      45.231  33.748  27.089  1.00  0.00    +0.000 C 
ATOM     41  F4  UNL A   1      44.543  34.899  27.106  1.00  0.00    +0.000 F 
ATOM     42  C29 UNL A   1      44.617  32.577  27.530  1.00  0.00    +0.000 C 
ATOM     43  F5  UNL A   1      43.378  32.733  28.010  1.00  0.00    +0.000 F 
ENDBRANCH   32   33
BRANCH   49   50
ATOM     50  C35 UNL A   1      42.402  29.626  33.558  1.00  0.00    +0.000 C 
ATOM     51  C36 UNL A   1      41.768  28.374  33.466  1.00  0.00    +0.000 C 
ATOM     52  F6  UNL A   1      41.398  27.880  32.279  1.00  0.00    +0.000 F 
ATOM     53  C37 UNL A   1      41.559  27.578  34.592  1.00  0.00    +0.000 C 
ATOM     54  F7  UNL A   1      40.948  26.390  34.471  1.00  0.00    +0.000 F 
ATOM     55  C38 UNL A   1      42.018  27.995  35.828  1.00  0.00    +0.000 C 
ATOM     56  F8  UNL A   1      41.857  27.214  36.906  1.00  0.00    +0.000 F 
ATOM     57  C39 UNL A   1      42.669  29.213  35.943  1.00  0.00    +0.000 C 
ATOM     58  F9  UNL A   1      43.159  29.599  37.128  1.00  0.00    +0.000 F 
ATOM     59  C40 UNL A   1      42.848  30.023  34.824  1.00  0.00    +0.000 C 
ATOM     60  F10 UNL A   1      43.509  31.182  34.969  1.00  0.00    +0.000 F 
ENDBRANCH   49   50
BRANCH   64   65
ATOM     65  C44 UNL A   1      37.330  32.360  30.979  1.00  0.00    +0.000 C 
ATOM     66  C45 UNL A   1      37.069  33.020  29.767  1.00  0.00    +0.000 C 
ATOM     67  F11 UNL A   1      37.995  33.033  28.797  1.00  0.00    +0.000 F 
ATOM     68  C46 UNL A   1      35.829  33.616  29.509  1.00  0.00    +0.000 C 
ATOM     69  F12 UNL A   1      35.598  34.189  28.320  1.00  0.00    +0.000 F 
ATOM     70  C47 UNL A   1      34.817  33.568  30.454  1.00  0.00    +0.000 C 
ATOM     71  F13 UNL A   1      33.610  34.083  30.183  1.00  0.00    +0.000 F 
ATOM     72  C48 UNL A   1      35.049  32.945  31.666  1.00  0.00    +0.000 C 
ATOM     73  F14 UNL A   1      34.067  32.856  32.573  1.00  0.00    +0.000 F 
ATOM     74  C49 UNL A   1      36.286  32.351  31.925  1.00  0.00    +0.000 C 
ATOM     75  F15 UNL A   1      36.415  31.681  33.080  1.00  0.00    +0.000 F 
ENDBRANCH   64   65
TORSDOF 19
ENDMDL
MODEL 3
REMARK VINA RESULT:     -11.2      3.205      8.476
ROOT
ATOM     28  C20 UNL A   1      41.113  28.291  28.614  1.00  0.00    +0.000 C 
ATOM     29  C21 UNL A   1      42.176  29.172  28.075  1.00  0.00    +0.000 C 
ATOM     30  N6  UNL A   1      43.186  29.664  28.711  1.00  0.00    +0.000 N 
ATOM     31  C22 UNL A   1      43.869  30.455  27.793  1.00  0.00    +0.000 C 
ATOM     32  C23 UNL A   1      44.659  31.484  28.209  1.00  0.00    +0.000 C 
ATOM     44  C30 UNL A   1      44.947  31.372  29.618  1.00  0.00    +0.000 C 
ATOM     45  C31 UNL A   1      45.617  30.447  30.396  1.00  0.00    +0.000 C 
ATOM     46  C32 UNL A   1      44.840  30.337  31.587  1.00  0.00    +0.000 C 
ATOM     47  C33 UNL A   1      43.792  31.257  31.506  1.00  0.00    +0.000 C 
ATOM     48  N7  UNL A   1      44.171  32.098  30.489  1.00  0.00    +0.000 N 
ATOM     49  C34 UNL A   1      42.529  31.361  32.201  1.00  0.00    +0.000 C 
ATOM     61  C41 UNL A   1      41.448  32.063  31.751  1.00  0.00    +0.000 C 
ATOM     62  N8  UNL A   1      40.173  31.812  32.241  1.00  0.00    +0.000 N 
ATOM     63  C42 UNL A   1      39.368  32.170  31.275  1.00  0.00    +0.000 C 
ATOM     64  C43 UNL A   1      38.167  31.380  30.890  1.00  0.00    +0.000 C 
ATOM     76  C50 UNL A   1      38.626  30.198  30.408  1.00  0.00    +0.000 C 
ATOM     77  C51 UNL A   1      37.953  28.933  30.235  1.00  0.00    +0.000 C 
ATOM     78  C52 UNL A   1      38.844  28.049  29.741  1.00  0.00    +0.000 C 
ATOM     79  C53 UNL A   1      40.094  28.738  29.386  1.00  0.00    +0.000 C 
ATOM     80  N9  UNL A   1      39.935  29.992  29.920  1.00  0.00    +0.000 N 
ATOM     81  C54 UNL A   1      39.946  33.040  30.263  1.00  0.00    +0.000 C 
ATOM     82  C55 UNL A   1      41.240  32.860  30.544  1.00  0.00    +0.000 C 
ATOM     83  C56 UNL A   1      43.334  30.123  26.499  1.00  0.00    +0.000 C 
ATOM     84  C57 UNL A   1      42.205  29.423  26.626  1.00  0.00    +0.000 C 
ATOM    112  H22 UNL A   1      46.488  29.946  30.164  1.00  0.00    +0.000 H 
ATOM    113  H23 UNL A   1      45.020  29.692  32.371  1.00  0.00    +0.000 H 
ATOM    114  H24 UNL A   1      43.930  33.048  30.401  1.00  0.00    +0.000 H 
ATOM    115  H25 UNL A   1      36.963  28.739  30.451  1.00  0.00    +0.000 H 
ATOM    116  H26 UNL A   1      38.674  27.037  29.630  1.00  0.00    +0.000 H 
ATOM    117  H27 UNL A   1      40.649  30.669  29.957  1.00  0.00    +0.000 H 
ATOM    118  H28 UNL A   1      39.491  33.623  29.544  1.00  0.00    +0.000 H 
ATOM    119  H29 UNL A   1      42.008  33.243  29.970  1.00  0.00    +0.000 H 
ATOM    120  H30 UNL A   1      43.764  30.390  25.599  1.00  0.00    +0.000 H 
ATOM    121  H31 UNL A   1      41.532  29.135  25.899  1.00  0.00    +0.000 H 
ENDROOT
BRANCH   28   27
ATOM    122  H32 UNL A   1      41.881  26.130  29.791  1.00  0.00    +0.000 H 
ATOM     27  C19 UNL A   1      41.073  26.962  28.029  1.00  0.00    +0.000 C 
ATOM    110  H20 UNL A   1      39.971  25.095  25.478  1.00  0.00    +0.000 H 
ATOM    111  H21 UNL A   1      40.061  27.429  26.223  1.00  0.00    +0.000 H 
ATOM     85  C58 UNL A   1      41.643  25.963  28.801  1.00  0.00    +0.000 C 
ATOM     86  C59 UNL A   1      41.879  24.757  28.221  1.00  0.00    +0.000 C 
ATOM     24  C16 UNL A   1      41.164  24.398  27.087  1.00  0.00    +0.000 C 
ATOM     25  C17 UNL A   1      40.474  25.358  26.341  1.00  0.00    +0.000 C 
ATOM     26  C18 UNL A   1      40.482  26.677  26.790  1.00  0.00    +0.000 C 
ATOM    123  H33 UNL A   1      42.583  24.115  28.619  1.00  0.00    +0.000 H 
BRANCH   24   22
ATOM     22  C15 UNL A   1      41.136  22.959  26.773  1.00  0.00    +0.000 C 
ATOM     23  O3  UNL A   1      42.123  22.396  26.343  1.00  0.00    +0.000 O 
BRANCH   22   21
ATOM    109  H19 UNL A   1      39.832  21.906  27.913  1.00  0.00    +0.000 H 
ATOM     21  N5  UNL A   1      39.949  22.276  27.009  1.00  0.00    +0.000 N 
BRANCH   21   20
ATOM    108  H18 UNL A   1      38.305  21.185  26.399  1.00  0.00    +0.000 H 
ATOM    107  H17 UNL A   1      39.260  21.888  25.088  1.00  0.00    +0.000 H 
ATOM     20  C14 UNL A   1      38.850  22.043  26.064  1.00  0.00    +0.000 C 
BRANCH   20   19
ATOM    105  H15 UNL A   1      37.508  23.394  26.992  1.00  0.00    +0.000 H 
ATOM    106  H16 UNL A   1      38.422  24.055  25.625  1.00  0.00    +0.000 H 
ATOM     19  C13 UNL A   1      37.884  23.213  26.006  1.00  0.00    +0.000 C 
BRANCH   19   18
ATOM     18  C12 UNL A   1      36.695  22.962  25.067  1.00  0.00    +0.000 C 
ATOM    103  H13 UNL A   1      36.624  23.795  24.399  1.00  0.00    +0.000 H 
ATOM    104  H14 UNL A   1      36.900  22.029  24.585  1.00  0.00    +0.000 H 
BRANCH   18   17
ATOM     17  C11 UNL A   1      35.323  22.783  25.743  1.00  0.00    +0.000 C 
ATOM    101  H11 UNL A   1      35.316  23.373  26.635  1.00  0.00    +0.000 H 
ATOM    102  H12 UNL A   1      34.595  23.086  25.020  1.00  0.00    +0.000 H 
BRANCH   17   16
ATOM     99  H9  UNL A   1      35.578  21.042  26.949  1.00  0.00    +0.000 H 
ATOM    100  H10 UNL A   1      33.923  21.328  26.378  1.00  0.00    +0.000 H 
ATOM     16  C10 UNL A   1      34.963  21.341  26.125  1.00  0.00    +0.000 C 
BRANCH   16   15
ATOM     97  H7  UNL A   1      35.526  20.868  24.117  1.00  0.00    +0.000 H 
ATOM     98  H8  UNL A   1      35.880  19.606  25.280  1.00  0.00    +0.000 H 
ATOM     15  C9  UNL A   1      35.167  20.346  24.979  1.00  0.00    +0.000 C 
BRANCH   15   14
ATOM     14  N4  UNL A   1      33.912  19.694  24.657  1.00  0.00    +0.000 N 
ATOM     96  H6  UNL A   1      33.856  18.768  24.988  1.00  0.00    +0.000 H 
BRANCH   14   12
ATOM     12  C8  UNL A   1      32.788  20.102  23.987  1.00  0.00    +0.000 C 
ATOM     13  O2  UNL A   1      32.228  19.282  23.258  1.00  0.00    +0.000 O 
BRANCH   12   11
ATOM      8  C4  UNL A   1      31.742  24.237  24.123  1.00  0.00    +0.000 C 
ATOM      9  C5  UNL A   1      32.336  23.710  22.978  1.00  0.00    +0.000 C 
ATOM     10  C6  UNL A   1      32.635  22.343  22.952  1.00  0.00    +0.000 C 
ATOM     11  C7  UNL A   1      32.281  21.503  24.024  1.00  0.00    +0.000 C 
ATOM     87  C60 UNL A   1      31.512  22.028  25.063  1.00  0.00    +0.000 C 
ATOM     88  C61 UNL A   1      31.296  23.401  25.151  1.00  0.00    +0.000 C 
ATOM    124  H34 UNL A   1      31.101  21.397  25.769  1.00  0.00    +0.000 H 
ATOM    125  H35 UNL A   1      30.809  23.800  25.970  1.00  0.00    +0.000 H 
ATOM     94  H4  UNL A   1      32.550  24.312  22.169  1.00  0.00    +0.000 H 
ATOM     95  H5  UNL A   1      33.122  21.946  22.134  1.00  0.00    +0.000 H 
BRANCH    8    7
ATOM      4  C3  UNL A   1      31.793  27.650  25.064  1.00  0.00    +0.000 C 
ATOM      5  N1  UNL A   1      30.599  27.511  24.396  1.00  0.00    +0.000 N 
ATOM      6  N2  UNL A   1      30.567  26.310  23.834  1.00  0.00    +0.000 N 
ATOM      7  N3  UNL A   1      31.632  25.627  24.283  1.00  0.00    +0.000 N 
ATOM     89  C62 UNL A   1      32.512  26.470  24.943  1.00  0.00    +0.000 C 
BRANCH    4    2
ATOM      2  C2  UNL A   1      32.137  28.898  25.737  1.00  0.00    +0.000 C 
ATOM      3  O1  UNL A   1      32.720  29.805  25.144  1.00  0.00    +0.000 O 
BRANCH    2    1
ATOM      1  C1  UNL A   1      31.764  29.070  27.185  1.00  0.00    +0.000 C 
ATOM     91  H1  UNL A   1      31.396  28.143  27.572  1.00  0.00    +0.000 H 
ATOM     92  H2  UNL A   1      31.004  29.819  27.272  1.00  0.00    +0.000 H 
ATOM     93  H3  UNL A   1      32.627  29.372  27.743  1.00  0.00    +0.000 H 
ENDBRANCH    2    1
ENDBRANCH    4    2
BRANCH   89   90
ATOM     90  C63 UNL A   1      33.878  26.043  25.330  1.00  0.00    +0.000 C 
ATOM    126  H36 UNL A   1      34.465  26.903  25.575  1.00  0.00    +0.000 H 
ATOM    127  H37 UNL A   1      34.333  25.521  24.514  1.00  0.00    +0.000 H 
ATOM    128  H38 UNL A   1      33.822  25.396  26.181  1.00  0.00    +0.000 H 
ENDBRANCH   89   90
ENDBRANCH    8    7
ENDBRANCH   12   11
ENDBRANCH   14   12
ENDBRANCH   15   14
ENDBRANCH   16   15
ENDBRANCH   17   16
ENDBRANCH   18   17
ENDBRANCH   19   18
ENDBRANCH   20   19
ENDBRANCH   21   20
ENDBRANCH   22   21
ENDBRANCH   24   22
ENDBRANCH   28   27
BRANCH   32   33
ATOM     33  C24 UNL A   1      44.880  32.767  27.449  1.00  0.00    +0.000 C 
ATOM     34  C25 UNL A   1      46.067  32.925  26.705  1.00  0.00    +0.000 C 
ATOM     35  F1  UNL A   1      46.861  31.872  26.455  1.00  0.00    +0.000 F 
ATOM     36  C26 UNL A   1      46.509  34.178  26.274  1.00  0.00    +0.000 C 
ATOM     37  F2  UNL A   1      47.706  34.292  25.681  1.00  0.00    +0.000 F 
ATOM     38  C27 UNL A   1      45.755  35.310  26.517  1.00  0.00    +0.000 C 
ATOM     39  F3  UNL A   1      46.207  36.519  26.161  1.00  0.00    +0.000 F 
ATOM     40  C28 UNL A   1      44.549  35.188  27.174  1.00  0.00    +0.000 C 
ATOM     41  F4  UNL A   1      43.809  36.275  27.430  1.00  0.00    +0.000 F 
ATOM     42  C29 UNL A   1      44.131  33.947  27.650  1.00  0.00    +0.000 C 
ATOM     43  F5  UNL A   1      43.026  33.973  28.404  1.00  0.00    +0.000 F 
ENDBRANCH   32   33
BRANCH   49   50
ATOM     50  C35 UNL A   1      42.334  30.453  33.387  1.00  0.00    +0.000 C 
ATOM     51  C36 UNL A   1      42.405  30.881  34.725  1.00  0.00    +0.000 C 
ATOM     52  F6  UNL A   1      42.718  32.147  35.024  1.00  0.00    +0.000 F 
ATOM     53  C37 UNL A   1      42.094  30.025  35.782  1.00  0.00    +0.000 C 
ATOM     54  F7  UNL A   1      42.176  30.462  37.048  1.00  0.00    +0.000 F 
ATOM     55  C38 UNL A   1      41.662  28.736  35.524  1.00  0.00    +0.000 C 
ATOM     56  F8  UNL A   1      41.322  27.924  36.535  1.00  0.00    +0.000 F 
ATOM     57  C39 UNL A   1      41.558  28.298  34.214  1.00  0.00    +0.000 C 
ATOM     58  F9  UNL A   1      41.093  27.068  33.956  1.00  0.00    +0.000 F 
ATOM     59  C40 UNL A   1      41.901  29.141  33.160  1.00  0.00    +0.000 C 
ATOM     60  F10 UNL A   1      41.759  28.692  31.904  1.00  0.00    +0.000 F 
ENDBRANCH   49   50
BRANCH   64   65
ATOM     65  C44 UNL A   1      36.828  31.983  30.706  1.00  0.00    +0.000 C 
ATOM     66  C45 UNL A   1      35.928  32.107  31.777  1.00  0.00    +0.000 C 
ATOM     67  F11 UNL A   1      36.176  31.486  32.938  1.00  0.00    +0.000 F 
ATOM     68  C46 UNL A   1      34.796  32.926  31.691  1.00  0.00    +0.000 C 
ATOM     69  F12 UNL A   1      33.988  33.063  32.752  1.00  0.00    +0.000 F 
ATOM     70  C47 UNL A   1      34.534  33.642  30.534  1.00  0.00    +0.000 C 
ATOM     71  F13 UNL A   1      33.485  34.475  30.474  1.00  0.00    +0.000 F 
ATOM     72  C48 UNL A   1      35.388  33.524  29.455  1.00  0.00    +0.000 C 
ATOM     73  F14 UNL A   1      35.169  34.242  28.344  1.00  0.00    +0.000 F 
ATOM     74  C49 UNL A   1      36.517  32.708  29.539  1.00  0.00    +0.000 C 
ATOM     75  F15 UNL A   1      37.356  32.711  28.492  1.00  0.00    +0.000 F 
ENDBRANCH   64   65
TORSDOF 19
ENDMDL
MODEL 4
REMARK VINA RESULT:     -11.2      3.376      9.010
ROOT
ATOM     28  C20 UNL A   1      40.630  27.784  28.938  1.00  0.00    +0.000 C 
ATOM     29  C21 UNL A   1      41.785  28.502  28.350  1.00  0.00    +0.000 C 
ATOM     30  N6  UNL A   1      42.889  28.825  28.935  1.00  0.00    +0.000 N 
ATOM     31  C22 UNL A   1      43.637  29.518  27.989  1.00  0.00    +0.000 C 
ATOM     32  C23 UNL A   1      44.594  30.409  28.369  1.00  0.00    +0.000 C 
ATOM     44  C30 UNL A   1      44.934  30.233  29.760  1.00  0.00    +0.000 C 
ATOM     45  C31 UNL A   1      45.494  29.205  30.494  1.00  0.00    +0.000 C 
ATOM     46  C32 UNL A   1      44.772  29.196  31.724  1.00  0.00    +0.000 C 
ATOM     47  C33 UNL A   1      43.874  30.264  31.705  1.00  0.00    +0.000 C 
ATOM     48  N7  UNL A   1      44.323  31.054  30.676  1.00  0.00    +0.000 N 
ATOM     49  C34 UNL A   1      42.679  30.548  32.467  1.00  0.00    +0.000 C 
ATOM     61  C41 UNL A   1      41.695  31.413  32.082  1.00  0.00    +0.000 C 
ATOM     62  N8  UNL A   1      40.424  31.350  32.637  1.00  0.00    +0.000 N 
ATOM     63  C42 UNL A   1      39.634  31.840  31.718  1.00  0.00    +0.000 C 
ATOM     64  C43 UNL A   1      38.309  31.248  31.391  1.00  0.00    +0.000 C 
ATOM     76  C50 UNL A   1      38.557  30.018  30.877  1.00  0.00    +0.000 C 
ATOM     77  C51 UNL A   1      37.691  28.871  30.731  1.00  0.00    +0.000 C 
ATOM     78  C52 UNL A   1      38.411  27.871  30.183  1.00  0.00    +0.000 C 
ATOM     79  C53 UNL A   1      39.731  28.369  29.768  1.00  0.00    +0.000 C 
ATOM     80  N9  UNL A   1      39.793  29.623  30.318  1.00  0.00    +0.000 N 
ATOM     81  C54 UNL A   1      40.284  32.629  30.684  1.00  0.00    +0.000 C 
ATOM     82  C55 UNL A   1      41.549  32.251  30.893  1.00  0.00    +0.000 C 
ATOM     83  C56 UNL A   1      42.991  29.291  26.722  1.00  0.00    +0.000 C 
ATOM     84  C57 UNL A   1      41.777  28.769  26.904  1.00  0.00    +0.000 C 
ATOM    112  H22 UNL A   1      46.266  28.581  30.212  1.00  0.00    +0.000 H 
ATOM    113  H23 UNL A   1      44.893  28.518  32.493  1.00  0.00    +0.000 H 
ATOM    114  H24 UNL A   1      44.225  32.031  30.608  1.00  0.00    +0.000 H 
ATOM    115  H25 UNL A   1      36.695  28.827  30.997  1.00  0.00    +0.000 H 
ATOM    116  H26 UNL A   1      38.083  26.898  30.073  1.00  0.00    +0.000 H 
ATOM    117  H27 UNL A   1      40.602  30.184  30.323  1.00  0.00    +0.000 H 
ATOM    118  H28 UNL A   1      39.887  33.285  29.993  1.00  0.00    +0.000 H 
ATOM    119  H29 UNL A   1      42.336  32.521  30.282  1.00  0.00    +0.000 H 
ATOM    120  H30 UNL A   1      43.409  29.505  25.803  1.00  0.00    +0.000 H 
ATOM    121  H31 UNL A   1      41.031  28.597  26.212  1.00  0.00    +0.000 H 
ENDROOT
BRANCH   28   27
ATOM    122  H32 UNL A   1      41.860  25.598  29.531  1.00  0.00    +0.000 H 
ATOM     27  C19 UNL A   1      40.358  26.485  28.347  1.00  0.00    +0.000 C 
ATOM    110  H20 UNL A   1      38.284  24.709  26.410  1.00  0.00    +0.000 H 
ATOM    111  H21 UNL A   1      38.657  27.004  27.187  1.00  0.00    +0.000 H 
ATOM     85  C58 UNL A   1      41.218  25.472  28.733  1.00  0.00    +0.000 C 
ATOM     86  C59 UNL A   1      41.196  24.307  28.034  1.00  0.00    +0.000 C 
ATOM     24  C16 UNL A   1      40.065  23.978  27.300  1.00  0.00    +0.000 C 
ATOM     25  C17 UNL A   1      39.107  24.947  26.986  1.00  0.00    +0.000 C 
ATOM     26  C18 UNL A   1      39.292  26.241  27.468  1.00  0.00    +0.000 C 
ATOM    123  H33 UNL A   1      42.011  23.674  28.048  1.00  0.00    +0.000 H 
BRANCH   24   22
ATOM     22  C15 UNL A   1      39.923  22.556  26.940  1.00  0.00    +0.000 C 
ATOM     23  O3  UNL A   1      40.467  21.690  27.596  1.00  0.00    +0.000 O 
BRANCH   22   21
ATOM    109  H19 UNL A   1      39.561  22.325  24.959  1.00  0.00    +0.000 H 
ATOM     21  N5  UNL A   1      39.130  22.252  25.840  1.00  0.00    +0.000 N 
BRANCH   21   20
ATOM    108  H18 UNL A   1      37.370  21.871  26.852  1.00  0.00    +0.000 H 
ATOM    107  H17 UNL A   1      37.658  20.841  25.444  1.00  0.00    +0.000 H 
ATOM     20  C14 UNL A   1      37.723  21.832  25.842  1.00  0.00    +0.000 C 
BRANCH   20   19
ATOM    105  H15 UNL A   1      37.475  23.457  24.507  1.00  0.00    +0.000 H 
ATOM    106  H16 UNL A   1      36.306  22.139  24.318  1.00  0.00    +0.000 H 
ATOM     19  C13 UNL A   1      36.848  22.750  25.009  1.00  0.00    +0.000 C 
BRANCH   19   18
ATOM     18  C12 UNL A   1      35.818  23.520  25.849  1.00  0.00    +0.000 C 
ATOM    103  H13 UNL A   1      35.009  22.855  26.065  1.00  0.00    +0.000 H 
ATOM    104  H14 UNL A   1      36.349  23.862  26.712  1.00  0.00    +0.000 H 
BRANCH   18   17
ATOM     17  C11 UNL A   1      35.226  24.785  25.202  1.00  0.00    +0.000 C 
ATOM    101  H11 UNL A   1      35.972  25.551  25.231  1.00  0.00    +0.000 H 
ATOM    102  H12 UNL A   1      34.936  24.503  24.211  1.00  0.00    +0.000 H 
BRANCH   17   16
ATOM     99  H9  UNL A   1      33.118  24.769  25.526  1.00  0.00    +0.000 H 
ATOM    100  H10 UNL A   1      34.092  25.244  26.930  1.00  0.00    +0.000 H 
ATOM     16  C10 UNL A   1      33.958  25.334  25.872  1.00  0.00    +0.000 C 
BRANCH   16   15
ATOM     97  H7  UNL A   1      33.429  27.319  26.466  1.00  0.00    +0.000 H 
ATOM     98  H8  UNL A   1      34.605  27.245  25.170  1.00  0.00    +0.000 H 
ATOM     15  C9  UNL A   1      33.709  26.814  25.566  1.00  0.00    +0.000 C 
BRANCH   15   14
ATOM     14  N4  UNL A   1      32.644  26.948  24.590  1.00  0.00    +0.000 N 
ATOM     96  H6  UNL A   1      31.907  27.527  24.892  1.00  0.00    +0.000 H 
BRANCH   14   12
ATOM     12  C8  UNL A   1      32.454  26.433  23.333  1.00  0.00    +0.000 C 
ATOM     13  O2  UNL A   1      32.272  27.229  22.411  1.00  0.00    +0.000 O 
BRANCH   12   11
ATOM      8  C4  UNL A   1      32.191  22.190  22.965  1.00  0.00    +0.000 C 
ATOM      9  C5  UNL A   1      31.097  22.914  23.434  1.00  0.00    +0.000 C 
ATOM     10  C6  UNL A   1      31.203  24.307  23.510  1.00  0.00    +0.000 C 
ATOM     11  C7  UNL A   1      32.358  24.972  23.058  1.00  0.00    +0.000 C 
ATOM     87  C60 UNL A   1      33.349  24.231  22.412  1.00  0.00    +0.000 C 
ATOM     88  C61 UNL A   1      33.303  22.839  22.420  1.00  0.00    +0.000 C 
ATOM    124  H34 UNL A   1      34.120  24.717  21.926  1.00  0.00    +0.000 H 
ATOM    125  H35 UNL A   1      34.083  22.290  22.027  1.00  0.00    +0.000 H 
ATOM     94  H4  UNL A   1      30.229  22.434  23.718  1.00  0.00    +0.000 H 
ATOM     95  H5  UNL A   1      30.423  24.854  23.904  1.00  0.00    +0.000 H 
BRANCH    8    7
ATOM      4  C3  UNL A   1      32.739  18.760  23.653  1.00  0.00    +0.000 C 
ATOM      5  N1  UNL A   1      32.267  18.765  22.361  1.00  0.00    +0.000 N 
ATOM      6  N2  UNL A   1      31.849  19.989  22.069  1.00  0.00    +0.000 N 
ATOM      7  N3  UNL A   1      32.213  20.791  23.082  1.00  0.00    +0.000 N 
ATOM     89  C62 UNL A   1      32.646  20.045  24.166  1.00  0.00    +0.000 C 
BRANCH    4    2
ATOM      2  C2  UNL A   1      33.217  17.530  24.274  1.00  0.00    +0.000 C 
ATOM      3  O1  UNL A   1      32.923  17.242  25.435  1.00  0.00    +0.000 O 
BRANCH    2    1
ATOM      1  C1  UNL A   1      34.083  16.597  23.470  1.00  0.00    +0.000 C 
ATOM     91  H1  UNL A   1      33.594  16.361  22.548  1.00  0.00    +0.000 H 
ATOM     92  H2  UNL A   1      34.251  15.698  24.025  1.00  0.00    +0.000 H 
ATOM     93  H3  UNL A   1      35.021  17.070  23.265  1.00  0.00    +0.000 H 
ENDBRANCH    2    1
ENDBRANCH    4    2
BRANCH   89   90
ATOM     90  C63 UNL A   1      32.879  20.649  25.501  1.00  0.00    +0.000 C 
ATOM    126  H36 UNL A   1      33.176  21.670  25.384  1.00  0.00    +0.000 H 
ATOM    127  H37 UNL A   1      33.652  20.108  26.007  1.00  0.00    +0.000 H 
ATOM    128  H38 UNL A   1      31.977  20.603  26.075  1.00  0.00    +0.000 H 
ENDBRANCH   89   90
ENDBRANCH    8    7
ENDBRANCH   12   11
ENDBRANCH   14   12
ENDBRANCH   15   14
ENDBRANCH   16   15
ENDBRANCH   17   16
ENDBRANCH   18   17
ENDBRANCH   19   18
ENDBRANCH   20   19
ENDBRANCH   21   20
ENDBRANCH   22   21
ENDBRANCH   24   22
ENDBRANCH   28   27
BRANCH   32   33
ATOM     33  C24 UNL A   1      44.968  31.656  27.608  1.00  0.00    +0.000 C 
ATOM     34  C25 UNL A   1      46.245  31.738  27.016  1.00  0.00    +0.000 C 
ATOM     35  F1  UNL A   1      47.015  30.644  26.899  1.00  0.00    +0.000 F 
ATOM     36  C26 UNL A   1      46.796  32.956  26.611  1.00  0.00    +0.000 C 
ATOM     37  F2  UNL A   1      48.061  32.999  26.171  1.00  0.00    +0.000 F 
ATOM     38  C27 UNL A   1      46.071  34.126  26.725  1.00  0.00    +0.000 C 
ATOM     39  F3  UNL A   1      46.619  35.302  26.396  1.00  0.00    +0.000 F 
ATOM     40  C28 UNL A   1      44.787  34.078  27.226  1.00  0.00    +0.000 C 
ATOM     41  F4  UNL A   1      44.072  35.204  27.357  1.00  0.00    +0.000 F 
ATOM     42  C29 UNL A   1      44.255  32.872  27.680  1.00  0.00    +0.000 C 
ATOM     43  F5  UNL A   1      43.067  32.970  28.287  1.00  0.00    +0.000 F 
ENDBRANCH   32   33
BRANCH   49   50
ATOM     50  C35 UNL A   1      42.409  29.662  33.656  1.00  0.00    +0.000 C 
ATOM     51  C36 UNL A   1      41.857  28.372  33.567  1.00  0.00    +0.000 C 
ATOM     52  F6  UNL A   1      41.475  27.871  32.386  1.00  0.00    +0.000 F 
ATOM     53  C37 UNL A   1      41.744  27.547  34.686  1.00  0.00    +0.000 C 
ATOM     54  F7  UNL A   1      41.208  26.323  34.569  1.00  0.00    +0.000 F 
ATOM     55  C38 UNL A   1      42.221  27.976  35.912  1.00  0.00    +0.000 C 
ATOM     56  F8  UNL A   1      42.153  27.171  36.981  1.00  0.00    +0.000 F 
ATOM     57  C39 UNL A   1      42.795  29.233  36.023  1.00  0.00    +0.000 C 
ATOM     58  F9  UNL A   1      43.303  29.634  37.195  1.00  0.00    +0.000 F 
ATOM     59  C40 UNL A   1      42.876  30.070  34.912  1.00  0.00    +0.000 C 
ATOM     60  F10 UNL A   1      43.465  31.267  35.051  1.00  0.00    +0.000 F 
ENDBRANCH   49   50
BRANCH   64   65
ATOM     65  C44 UNL A   1      37.069  32.049  31.284  1.00  0.00    +0.000 C 
ATOM     66  C45 UNL A   1      36.291  32.350  32.414  1.00  0.00    +0.000 C 
ATOM     67  F11 UNL A   1      36.535  31.735  33.580  1.00  0.00    +0.000 F 
ATOM     68  C46 UNL A   1      35.297  33.334  32.379  1.00  0.00    +0.000 C 
ATOM     69  F12 UNL A   1      34.611  33.632  33.491  1.00  0.00    +0.000 F 
ATOM     70  C47 UNL A   1      35.055  34.045  31.214  1.00  0.00    +0.000 C 
ATOM     71  F13 UNL A   1      34.147  35.031  31.197  1.00  0.00    +0.000 F 
ATOM     72  C48 UNL A   1      35.788  33.758  30.078  1.00  0.00    +0.000 C 
ATOM     73  F14 UNL A   1      35.593  34.466  28.957  1.00  0.00    +0.000 F 
ATOM     74  C49 UNL A   1      36.780  32.776  30.112  1.00  0.00    +0.000 C 
ATOM     75  F15 UNL A   1      37.519  32.612  29.005  1.00  0.00    +0.000 F 
ENDBRANCH   64   65
TORSDOF 19
ENDMDL
MODEL 5
REMARK VINA RESULT:     -11.1      1.388      3.832
ROOT
ATOM     28  C20 UNL A   1      40.255  29.237  29.114  1.00  0.00    +0.000 C 
ATOM     29  C21 UNL A   1      40.625  29.043  30.536  1.00  0.00    +0.000 C 
ATOM     30  N6  UNL A   1      41.596  29.601  31.178  1.00  0.00    +0.000 N 
ATOM     31  C22 UNL A   1      41.560  29.072  32.464  1.00  0.00    +0.000 C 
ATOM     32  C23 UNL A   1      42.680  29.042  33.239  1.00  0.00    +0.000 C 
ATOM     44  C30 UNL A   1      43.696  29.916  32.706  1.00  0.00    +0.000 C 
ATOM     45  C31 UNL A   1      43.785  31.279  32.501  1.00  0.00    +0.000 C 
ATOM     46  C32 UNL A   1      44.450  31.420  31.248  1.00  0.00    +0.000 C 
ATOM     47  C33 UNL A   1      44.802  30.145  30.800  1.00  0.00    +0.000 C 
ATOM     48  N7  UNL A   1      44.670  29.357  31.916  1.00  0.00    +0.000 N 
ATOM     49  C34 UNL A   1      45.154  29.631  29.496  1.00  0.00    +0.000 C 
ATOM     61  C41 UNL A   1      45.086  28.317  29.131  1.00  0.00    +0.000 C 
ATOM     62  N8  UNL A   1      45.053  27.942  27.794  1.00  0.00    +0.000 N 
ATOM     63  C42 UNL A   1      44.431  26.793  27.786  1.00  0.00    +0.000 C 
ATOM     64  C43 UNL A   1      43.415  26.431  26.760  1.00  0.00    +0.000 C 
ATOM     76  C50 UNL A   1      42.372  27.279  26.939  1.00  0.00    +0.000 C 
ATOM     77  C51 UNL A   1      41.298  27.645  26.047  1.00  0.00    +0.000 C 
ATOM     78  C52 UNL A   1      40.518  28.546  26.679  1.00  0.00    +0.000 C 
ATOM     79  C53 UNL A   1      40.932  28.674  28.084  1.00  0.00    +0.000 C 
ATOM     80  N9  UNL A   1      42.114  27.980  28.138  1.00  0.00    +0.000 N 
ATOM     81  C54 UNL A   1      44.358  26.106  29.065  1.00  0.00    +0.000 C 
ATOM     82  C55 UNL A   1      44.680  27.123  29.870  1.00  0.00    +0.000 C 
ATOM     83  C56 UNL A   1      40.295  28.398  32.586  1.00  0.00    +0.000 C 
ATOM     84  C57 UNL A   1      39.728  28.247  31.388  1.00  0.00    +0.000 C 
ATOM    112  H22 UNL A   1      43.445  32.031  33.121  1.00  0.00    +0.000 H 
ATOM    113  H23 UNL A   1      44.639  32.308  30.757  1.00  0.00    +0.000 H 
ATOM    114  H24 UNL A   1      45.182  28.539  32.113  1.00  0.00    +0.000 H 
ATOM    115  H25 UNL A   1      41.151  27.279  25.094  1.00  0.00    +0.000 H 
ATOM    116  H26 UNL A   1      39.745  29.070  26.239  1.00  0.00    +0.000 H 
ATOM    117  H27 UNL A   1      42.712  27.971  28.920  1.00  0.00    +0.000 H 
ATOM    118  H28 UNL A   1      44.127  25.124  29.286  1.00  0.00    +0.000 H 
ATOM    119  H29 UNL A   1      44.645  27.071  30.901  1.00  0.00    +0.000 H 
ATOM    120  H30 UNL A   1      39.884  28.074  33.477  1.00  0.00    +0.000 H 
ATOM    121  H31 UNL A   1      38.883  27.714  31.128  1.00  0.00    +0.000 H 
ENDROOT
BRANCH   28   27
ATOM    122  H32 UNL A   1      38.175  27.998  28.229  1.00  0.00    +0.000 H 
ATOM     27  C19 UNL A   1      38.951  29.840  28.904  1.00  0.00    +0.000 C 
ATOM    110  H20 UNL A   1      37.038  32.540  29.411  1.00  0.00    +0.000 H 
ATOM    111  H21 UNL A   1      39.340  31.758  29.726  1.00  0.00    +0.000 H 
ATOM     85  C58 UNL A   1      38.010  29.014  28.313  1.00  0.00    +0.000 C 
ATOM     86  C59 UNL A   1      36.863  29.573  27.847  1.00  0.00    +0.000 C 
ATOM     24  C16 UNL A   1      36.450  30.797  28.356  1.00  0.00    +0.000 C 
ATOM     25  C17 UNL A   1      37.336  31.615  29.063  1.00  0.00    +0.000 C 
ATOM     26  C18 UNL A   1      38.630  31.151  29.286  1.00  0.00    +0.000 C 
ATOM    123  H33 UNL A   1      36.305  29.095  27.123  1.00  0.00    +0.000 H 
BRANCH   24   22
ATOM     22  C15 UNL A   1      35.029  31.131  28.154  1.00  0.00    +0.000 C 
ATOM     23  O3  UNL A   1      34.490  31.988  28.825  1.00  0.00    +0.000 O 
BRANCH   22   21
ATOM    109  H19 UNL A   1      34.742  30.477  26.257  1.00  0.00    +0.000 H 
ATOM     21  N5  UNL A   1      34.346  30.445  27.157  1.00  0.00    +0.000 N 
BRANCH   21   20
ATOM    108  H18 UNL A   1      32.377  30.108  26.635  1.00  0.00    +0.000 H 
ATOM    107  H17 UNL A   1      32.779  29.721  28.312  1.00  0.00    +0.000 H 
ATOM     20  C14 UNL A   1      33.102  29.677  27.293  1.00  0.00    +0.000 C 
BRANCH   20   19
ATOM    105  H15 UNL A   1      34.150  27.839  27.391  1.00  0.00    +0.000 H 
ATOM    106  H16 UNL A   1      32.394  27.699  27.197  1.00  0.00    +0.000 H 
ATOM     19  C13 UNL A   1      33.279  28.222  26.900  1.00  0.00    +0.000 C 
BRANCH   19   18
ATOM     18  C12 UNL A   1      33.444  28.026  25.386  1.00  0.00    +0.000 C 
ATOM    103  H13 UNL A   1      34.446  28.299  25.127  1.00  0.00    +0.000 H 
ATOM    104  H14 UNL A   1      33.207  26.999  25.202  1.00  0.00    +0.000 H 
BRANCH   18   17
ATOM     17  C11 UNL A   1      32.489  28.835  24.490  1.00  0.00    +0.000 C 
ATOM    101  H11 UNL A   1      31.527  28.843  24.955  1.00  0.00    +0.000 H 
ATOM    102  H12 UNL A   1      32.929  29.806  24.391  1.00  0.00    +0.000 H 
BRANCH   17   16
ATOM     99  H9  UNL A   1      32.934  28.883  22.404  1.00  0.00    +0.000 H 
ATOM    100  H10 UNL A   1      32.606  27.271  23.068  1.00  0.00    +0.000 H 
ATOM     16  C10 UNL A   1      32.319  28.302  23.060  1.00  0.00    +0.000 C 
BRANCH   16   15
ATOM     97  H7  UNL A   1      30.638  29.378  22.294  1.00  0.00    +0.000 H 
ATOM     98  H8  UNL A   1      30.766  27.731  21.709  1.00  0.00    +0.000 H 
ATOM     15  C9  UNL A   1      30.874  28.369  22.562  1.00  0.00    +0.000 C 
BRANCH   15   14
ATOM     14  N4  UNL A   1      29.967  27.926  23.604  1.00  0.00    +0.000 N 
ATOM     96  H6  UNL A   1      29.675  28.650  24.204  1.00  0.00    +0.000 H 
BRANCH   14   12
ATOM     12  C8  UNL A   1      29.434  26.704  23.926  1.00  0.00    +0.000 C 
ATOM     13  O2  UNL A   1      28.206  26.606  23.956  1.00  0.00    +0.000 O 
BRANCH   12   11
ATOM      8  C4  UNL A   1      32.126  23.632  25.160  1.00  0.00    +0.000 C 
ATOM      9  C5  UNL A   1      31.605  24.517  26.102  1.00  0.00    +0.000 C 
ATOM     10  C6  UNL A   1      30.698  25.491  25.671  1.00  0.00    +0.000 C 
ATOM     11  C7  UNL A   1      30.263  25.535  24.334  1.00  0.00    +0.000 C 
ATOM     87  C60 UNL A   1      30.653  24.513  23.467  1.00  0.00    +0.000 C 
ATOM     88  C61 UNL A   1      31.631  23.600  23.853  1.00  0.00    +0.000 C 
ATOM    124  H34 UNL A   1      30.214  24.432  22.536  1.00  0.00    +0.000 H 
ATOM    125  H35 UNL A   1      31.987  22.903  23.180  1.00  0.00    +0.000 H 
ATOM     94  H4  UNL A   1      31.881  24.455  27.094  1.00  0.00    +0.000 H 
ATOM     95  H5  UNL A   1      30.343  26.187  26.345  1.00  0.00    +0.000 H 
BRANCH    8    7
ATOM      4  C3  UNL A   1      35.151  21.837  25.568  1.00  0.00    +0.000 C 
ATOM      5  N1  UNL A   1      34.177  20.910  25.859  1.00  0.00    +0.000 N 
ATOM      6  N2  UNL A   1      33.007  21.533  25.922  1.00  0.00    +0.000 N 
ATOM      7  N3  UNL A   1      33.199  22.793  25.499  1.00  0.00    +0.000 N 
ATOM     89  C62 UNL A   1      34.552  23.077  25.403  1.00  0.00    +0.000 C 
BRANCH    4    2
ATOM      2  C2  UNL A   1      36.555  21.451  25.490  1.00  0.00    +0.000 C 
ATOM      3  O1  UNL A   1      37.448  22.199  25.890  1.00  0.00    +0.000 O 
BRANCH    2    1
ATOM      1  C1  UNL A   1      36.910  20.107  24.912  1.00  0.00    +0.000 C 
ATOM     91  H1  UNL A   1      36.026  19.634  24.537  1.00  0.00    +0.000 H 
ATOM     92  H2  UNL A   1      37.346  19.494  25.673  1.00  0.00    +0.000 H 
ATOM     93  H3  UNL A   1      37.611  20.236  24.113  1.00  0.00    +0.000 H 
ENDBRANCH    2    1
ENDBRANCH    4    2
BRANCH   89   90
ATOM     90  C63 UNL A   1      35.059  24.455  25.196  1.00  0.00    +0.000 C 
ATOM    126  H36 UNL A   1      35.186  24.635  24.150  1.00  0.00    +0.000 H 
ATOM    127  H37 UNL A   1      36.000  24.567  25.694  1.00  0.00    +0.000 H 
ATOM    128  H38 UNL A   1      34.357  25.157  25.597  1.00  0.00    +0.000 H 
ENDBRANCH   89   90
ENDBRANCH    8    7
ENDBRANCH   12   11
ENDBRANCH   14   12
ENDBRANCH   15   14
ENDBRANCH   16   15
ENDBRANCH   17   16
ENDBRANCH   18   17
ENDBRANCH   19   18
ENDBRANCH   20   19
ENDBRANCH   21   20
ENDBRANCH   22   21
ENDBRANCH   24   22
ENDBRANCH   28   27
BRANCH   32   33
ATOM     33  C24 UNL A   1      42.997  27.978  34.260  1.00  0.00    +0.000 C 
ATOM     34  C25 UNL A   1      43.220  28.361  35.599  1.00  0.00    +0.000 C 
ATOM     35  F1  UNL A   1      42.901  29.595  36.018  1.00  0.00    +0.000 F 
ATOM     36  C26 UNL A   1      43.853  27.517  36.514  1.00  0.00    +0.000 C 
ATOM     37  F2  UNL A   1      44.157  27.971  37.738  1.00  0.00    +0.000 F 
ATOM     38  C27 UNL A   1      44.232  26.240  36.145  1.00  0.00    +0.000 C 
ATOM     39  F3  UNL A   1      44.895  25.452  37.000  1.00  0.00    +0.000 F 
ATOM     40  C28 UNL A   1      43.962  25.800  34.867  1.00  0.00    +0.000 C 
ATOM     41  F4  UNL A   1      44.332  24.570  34.486  1.00  0.00    +0.000 F 
ATOM     42  C29 UNL A   1      43.378  26.658  33.937  1.00  0.00    +0.000 C 
ATOM     43  F5  UNL A   1      43.304  26.177  32.691  1.00  0.00    +0.000 F 
ENDBRANCH   32   33
BRANCH   49   50
ATOM     50  C35 UNL A   1      45.400  30.649  28.412  1.00  0.00    +0.000 C 
ATOM     51  C36 UNL A   1      44.379  31.278  27.677  1.00  0.00    +0.000 C 
ATOM     52  F6  UNL A   1      43.096  30.950  27.867  1.00  0.00    +0.000 F 
ATOM     53  C37 UNL A   1      44.657  32.303  26.772  1.00  0.00    +0.000 C 
ATOM     54  F7  UNL A   1      43.661  32.879  26.082  1.00  0.00    +0.000 F 
ATOM     55  C38 UNL A   1      45.956  32.753  26.615  1.00  0.00    +0.000 C 
ATOM     56  F8  UNL A   1      46.221  33.766  25.779  1.00  0.00    +0.000 F 
ATOM     57  C39 UNL A   1      46.977  32.169  27.347  1.00  0.00    +0.000 C 
ATOM     58  F9  UNL A   1      48.228  32.634  27.237  1.00  0.00    +0.000 F 
ATOM     59  C40 UNL A   1      46.704  31.123  28.225  1.00  0.00    +0.000 C 
ATOM     60  F10 UNL A   1      47.714  30.602  28.939  1.00  0.00    +0.000 F 
ENDBRANCH   49   50
BRANCH   64   65
ATOM     65  C44 UNL A   1      43.432  25.148  26.023  1.00  0.00    +0.000 C 
ATOM     66  C45 UNL A   1      44.457  24.839  25.113  1.00  0.00    +0.000 C 
ATOM     67  F11 UNL A   1      45.323  25.788  24.731  1.00  0.00    +0.000 F 
ATOM     68  C46 UNL A   1      44.647  23.536  24.638  1.00  0.00    +0.000 C 
ATOM     69  F12 UNL A   1      45.669  23.267  23.814  1.00  0.00    +0.000 F 
ATOM     70  C47 UNL A   1      43.819  22.508  25.059  1.00  0.00    +0.000 C 
ATOM     71  F13 UNL A   1      44.040  21.249  24.654  1.00  0.00    +0.000 F 
ATOM     72  C48 UNL A   1      42.787  22.783  25.937  1.00  0.00    +0.000 C 
ATOM     73  F14 UNL A   1      42.004  21.791  26.384  1.00  0.00    +0.000 F 
ATOM     74  C49 UNL A   1      42.596  24.082  26.411  1.00  0.00    +0.000 C 
ATOM     75  F15 UNL A   1      41.638  24.265  27.332  1.00  0.00    +0.000 F 
ENDBRANCH   64   65
TORSDOF 19
ENDMDL
MODEL 6
REMARK VINA RESULT:     -11.1      3.984      7.387
ROOT
ATOM     28  C20 UNL A   1      40.066  29.267  29.105  1.00  0.00    +0.000 C 
ATOM     29  C21 UNL A   1      40.328  28.994  30.538  1.00  0.00    +0.000 C 
ATOM     30  N6  UNL A   1      41.248  29.511  31.281  1.00  0.00    +0.000 N 
ATOM     31  C22 UNL A   1      41.115  28.913  32.530  1.00  0.00    +0.000 C 
ATOM     32  C23 UNL A   1      42.173  28.834  33.384  1.00  0.00    +0.000 C 
ATOM     44  C30 UNL A   1      43.227  29.731  32.977  1.00  0.00    +0.000 C 
ATOM     45  C31 UNL A   1      43.333  31.103  32.854  1.00  0.00    +0.000 C 
ATOM     46  C32 UNL A   1      44.091  31.308  31.664  1.00  0.00    +0.000 C 
ATOM     47  C33 UNL A   1      44.474  30.057  31.174  1.00  0.00    +0.000 C 
ATOM     48  N7  UNL A   1      44.258  29.211  32.233  1.00  0.00    +0.000 N 
ATOM     49  C34 UNL A   1      44.923  29.614  29.874  1.00  0.00    +0.000 C 
ATOM     61  C41 UNL A   1      44.881  28.322  29.434  1.00  0.00    +0.000 C 
ATOM     62  N8  UNL A   1      44.949  28.021  28.080  1.00  0.00    +0.000 N 
ATOM     63  C42 UNL A   1      44.327  26.876  27.962  1.00  0.00    +0.000 C 
ATOM     64  C43 UNL A   1      43.391  26.577  26.845  1.00  0.00    +0.000 C 
ATOM     76  C50 UNL A   1      42.339  27.419  26.992  1.00  0.00    +0.000 C 
ATOM     77  C51 UNL A   1      41.335  27.839  26.043  1.00  0.00    +0.000 C 
ATOM     78  C52 UNL A   1      40.511  28.708  26.662  1.00  0.00    +0.000 C 
ATOM     79  C53 UNL A   1      40.818  28.757  28.099  1.00  0.00    +0.000 C 
ATOM     80  N9  UNL A   1      41.992  28.055  28.204  1.00  0.00    +0.000 N 
ATOM     81  C54 UNL A   1      44.157  26.122  29.193  1.00  0.00    +0.000 C 
ATOM     82  C55 UNL A   1      44.419  27.092  30.075  1.00  0.00    +0.000 C 
ATOM     83  C56 UNL A   1      39.843  28.239  32.519  1.00  0.00    +0.000 C 
ATOM     84  C57 UNL A   1      39.368  28.157  31.275  1.00  0.00    +0.000 C 
ATOM    112  H22 UNL A   1      42.948  31.822  33.487  1.00  0.00    +0.000 H 
ATOM    113  H23 UNL A   1      44.317  32.221  31.238  1.00  0.00    +0.000 H 
ATOM    114  H24 UNL A   1      44.752  28.381  32.423  1.00  0.00    +0.000 H 
ATOM    115  H25 UNL A   1      41.260  27.526  25.062  1.00  0.00    +0.000 H 
ATOM    116  H26 UNL A   1      39.774  29.260  26.195  1.00  0.00    +0.000 H 
ATOM    117  H27 UNL A   1      42.530  28.000  29.027  1.00  0.00    +0.000 H 
ATOM    118  H28 UNL A   1      43.909  25.131  29.342  1.00  0.00    +0.000 H 
ATOM    119  H29 UNL A   1      44.307  26.983  31.095  1.00  0.00    +0.000 H 
ATOM    120  H30 UNL A   1      39.366  27.870  33.357  1.00  0.00    +0.000 H 
ATOM    121  H31 UNL A   1      38.545  27.644  30.924  1.00  0.00    +0.000 H 
ENDROOT
BRANCH   28   27
ATOM    122  H32 UNL A   1      37.916  28.000  28.461  1.00  0.00    +0.000 H 
ATOM     27  C19 UNL A   1      38.782  29.887  28.830  1.00  0.00    +0.000 C 
ATOM    110  H20 UNL A   1      36.993  32.714  28.955  1.00  0.00    +0.000 H 
ATOM    111  H21 UNL A   1      39.270  31.889  29.341  1.00  0.00    +0.000 H 
ATOM     85  C58 UNL A   1      37.794  29.022  28.392  1.00  0.00    +0.000 C 
ATOM     86  C59 UNL A   1      36.658  29.554  27.869  1.00  0.00    +0.000 C 
ATOM     24  C16 UNL A   1      36.308  30.858  28.192  1.00  0.00    +0.000 C 
ATOM     25  C17 UNL A   1      37.245  31.735  28.747  1.00  0.00    +0.000 C 
ATOM     26  C18 UNL A   1      38.525  31.254  29.014  1.00  0.00    +0.000 C 
ATOM    123  H33 UNL A   1      36.062  28.996  27.238  1.00  0.00    +0.000 H 
BRANCH   24   22
ATOM     22  C15 UNL A   1      34.898  31.220  27.969  1.00  0.00    +0.000 C 
ATOM     23  O3  UNL A   1      34.267  30.732  27.052  1.00  0.00    +0.000 O 
BRANCH   22   21
ATOM    109  H19 UNL A   1      34.091  31.765  29.746  1.00  0.00    +0.000 H 
ATOM     21  N5  UNL A   1      34.320  32.119  28.857  1.00  0.00    +0.000 N 
BRANCH   21   20
ATOM    108  H18 UNL A   1      32.955  33.661  28.713  1.00  0.00    +0.000 H 
ATOM    107  H17 UNL A   1      34.356  33.805  27.645  1.00  0.00    +0.000 H 
ATOM     20  C14 UNL A   1      34.013  33.535  28.622  1.00  0.00    +0.000 C 
BRANCH   20   19
ATOM    105  H15 UNL A   1      35.397  33.872  30.189  1.00  0.00    +0.000 H 
ATOM    106  H16 UNL A   1      35.136  35.247  29.102  1.00  0.00    +0.000 H 
ATOM     19  C13 UNL A   1      34.678  34.444  29.639  1.00  0.00    +0.000 C 
BRANCH   19   18
ATOM     18  C12 UNL A   1      33.682  35.062  30.632  1.00  0.00    +0.000 C 
ATOM    103  H13 UNL A   1      33.194  35.878  30.141  1.00  0.00    +0.000 H 
ATOM    104  H14 UNL A   1      33.026  34.265  30.915  1.00  0.00    +0.000 H 
BRANCH   18   17
ATOM     17  C11 UNL A   1      34.277  35.592  31.948  1.00  0.00    +0.000 C 
ATOM    101  H11 UNL A   1      35.343  35.544  31.872  1.00  0.00    +0.000 H 
ATOM    102  H12 UNL A   1      33.899  36.586  32.065  1.00  0.00    +0.000 H 
BRANCH   17   16
ATOM     99  H9  UNL A   1      33.576  35.541  33.962  1.00  0.00    +0.000 H 
ATOM    100  H10 UNL A   1      33.045  34.189  32.945  1.00  0.00    +0.000 H 
ATOM     16  C10 UNL A   1      33.858  34.830  33.213  1.00  0.00    +0.000 C 
BRANCH   16   15
ATOM     97  H7  UNL A   1      35.908  34.452  33.690  1.00  0.00    +0.000 H 
ATOM     98  H8  UNL A   1      34.766  33.734  34.807  1.00  0.00    +0.000 H 
ATOM     15  C9  UNL A   1      34.972  33.944  33.777  1.00  0.00    +0.000 C 
BRANCH   15   14
ATOM     14  N4  UNL A   1      35.034  32.695  33.041  1.00  0.00    +0.000 N 
ATOM     96  H6  UNL A   1      34.186  32.194  33.047  1.00  0.00    +0.000 H 
BRANCH   14   12
ATOM     12  C8  UNL A   1      36.032  32.069  32.338  1.00  0.00    +0.000 C 
ATOM     13  O2  UNL A   1      35.774  30.977  31.831  1.00  0.00    +0.000 O 
BRANCH   12   11
ATOM      8  C4  UNL A   1      39.977  33.549  31.666  1.00  0.00    +0.000 C 
ATOM      9  C5  UNL A   1      38.876  34.344  31.353  1.00  0.00    +0.000 C 
ATOM     10  C6  UNL A   1      37.596  33.844  31.618  1.00  0.00    +0.000 C 
ATOM     11  C7  UNL A   1      37.421  32.599  32.250  1.00  0.00    +0.000 C 
ATOM     87  C60 UNL A   1      38.546  31.925  32.727  1.00  0.00    +0.000 C 
ATOM     88  C61 UNL A   1      39.824  32.360  32.382  1.00  0.00    +0.000 C 
ATOM    124  H34 UNL A   1      38.432  31.100  33.338  1.00  0.00    +0.000 H 
ATOM    125  H35 UNL A   1      40.653  31.808  32.655  1.00  0.00    +0.000 H 
ATOM     94  H4  UNL A   1      39.001  35.280  30.937  1.00  0.00    +0.000 H 
ATOM     95  H5  UNL A   1      36.769  34.396  31.345  1.00  0.00    +0.000 H 
BRANCH    8    7
ATOM      4  C3  UNL A   1      43.113  34.989  30.873  1.00  0.00    +0.000 C 
ATOM      5  N1  UNL A   1      42.789  34.266  29.748  1.00  0.00    +0.000 N 
ATOM      6  N2  UNL A   1      41.718  33.531  30.013  1.00  0.00    +0.000 N 
ATOM      7  N3  UNL A   1      41.256  33.911  31.215  1.00  0.00    +0.000 N 
ATOM     89  C62 UNL A   1      42.178  34.719  31.861  1.00  0.00    +0.000 C 
BRANCH    4    2
ATOM      2  C2  UNL A   1      44.289  35.851  30.900  1.00  0.00    +0.000 C 
ATOM      3  O1  UNL A   1      44.502  36.616  31.840  1.00  0.00    +0.000 O 
BRANCH    2    1
ATOM      1  C1  UNL A   1      45.259  35.795  29.749  1.00  0.00    +0.000 C 
ATOM     91  H1  UNL A   1      46.146  36.336  30.002  1.00  0.00    +0.000 H 
ATOM     92  H2  UNL A   1      44.810  36.233  28.882  1.00  0.00    +0.000 H 
ATOM     93  H3  UNL A   1      45.510  34.775  29.543  1.00  0.00    +0.000 H 
ENDBRANCH    2    1
ENDBRANCH    4    2
BRANCH   89   90
ATOM     90  C63 UNL A   1      42.045  35.085  33.292  1.00  0.00    +0.000 C 
ATOM    126  H36 UNL A   1      41.276  35.821  33.402  1.00  0.00    +0.000 H 
ATOM    127  H37 UNL A   1      42.973  35.484  33.645  1.00  0.00    +0.000 H 
ATOM    128  H38 UNL A   1      41.790  34.215  33.861  1.00  0.00    +0.000 H 
ENDBRANCH   89   90
ENDBRANCH    8    7
ENDBRANCH   12   11
ENDBRANCH   14   12
ENDBRANCH   15   14
ENDBRANCH   16   15
ENDBRANCH   17   16
ENDBRANCH   18   17
ENDBRANCH   19   18
ENDBRANCH   20   19
ENDBRANCH   21   20
ENDBRANCH   22   21
ENDBRANCH   24   22
ENDBRANCH   28   27
BRANCH   32   33
ATOM     33  C24 UNL A   1      42.412  27.715  34.366  1.00  0.00    +0.000 C 
ATOM     34  C25 UNL A   1      42.984  26.513  33.905  1.00  0.00    +0.000 C 
ATOM     35  F1  UNL A   1      43.550  26.447  32.689  1.00  0.00    +0.000 F 
ATOM     36  C26 UNL A   1      42.913  25.329  34.643  1.00  0.00    +0.000 C 
ATOM     37  F2  UNL A   1      43.360  24.184  34.108  1.00  0.00    +0.000 F 
ATOM     38  C27 UNL A   1      42.324  25.315  35.893  1.00  0.00    +0.000 C 
ATOM     39  F3  UNL A   1      42.198  24.171  36.575  1.00  0.00    +0.000 F 
ATOM     40  C28 UNL A   1      41.821  26.489  36.413  1.00  0.00    +0.000 C 
ATOM     41  F4  UNL A   1      41.234  26.494  37.618  1.00  0.00    +0.000 F 
ATOM     42  C29 UNL A   1      41.843  27.659  35.657  1.00  0.00    +0.000 C 
ATOM     43  F5  UNL A   1      41.192  28.695  36.197  1.00  0.00    +0.000 F 
ENDBRANCH   32   33
BRANCH   49   50
ATOM     50  C35 UNL A   1      45.251  30.688  28.870  1.00  0.00    +0.000 C 
ATOM     51  C36 UNL A   1      44.286  31.387  28.122  1.00  0.00    +0.000 C 
ATOM     52  F6  UNL A   1      42.987  31.083  28.225  1.00  0.00    +0.000 F 
ATOM     53  C37 UNL A   1      44.636  32.457  27.298  1.00  0.00    +0.000 C 
ATOM     54  F7  UNL A   1      43.694  33.100  26.593  1.00  0.00    +0.000 F 
ATOM     55  C38 UNL A   1      45.952  32.880  27.236  1.00  0.00    +0.000 C 
ATOM     56  F8  UNL A   1      46.286  33.934  26.479  1.00  0.00    +0.000 F 
ATOM     57  C39 UNL A   1      46.919  32.226  27.984  1.00  0.00    +0.000 C 
ATOM     58  F9  UNL A   1      48.185  32.663  27.967  1.00  0.00    +0.000 F 
ATOM     59  C40 UNL A   1      46.574  31.136  28.780  1.00  0.00    +0.000 C 
ATOM     60  F10 UNL A   1      47.532  30.547  29.512  1.00  0.00    +0.000 F 
ENDBRANCH   49   50
BRANCH   64   65
ATOM     65  C44 UNL A   1      43.462  25.335  26.042  1.00  0.00    +0.000 C 
ATOM     66  C45 UNL A   1      44.556  25.067  25.203  1.00  0.00    +0.000 C 
ATOM     67  F11 UNL A   1      45.455  26.027  24.945  1.00  0.00    +0.000 F 
ATOM     68  C46 UNL A   1      44.779  23.790  24.674  1.00  0.00    +0.000 C 
ATOM     69  F12 UNL A   1      45.863  23.557  23.922  1.00  0.00    +0.000 F 
ATOM     70  C47 UNL A   1      43.914  22.749  24.969  1.00  0.00    +0.000 C 
ATOM     71  F13 UNL A   1      44.161  21.512  24.515  1.00  0.00    +0.000 F 
ATOM     72  C48 UNL A   1      42.815  22.985  25.774  1.00  0.00    +0.000 C 
ATOM     73  F14 UNL A   1      41.993  21.978  26.100  1.00  0.00    +0.000 F 
ATOM     74  C49 UNL A   1      42.592  24.258  26.302  1.00  0.00    +0.000 C 
ATOM     75  F15 UNL A   1      41.563  24.399  27.150  1.00  0.00    +0.000 F 
ENDBRANCH   64   65
TORSDOF 19
ENDMDL
MODEL 7
REMARK VINA RESULT:     -11.1      2.144      4.320
ROOT
ATOM     28  C20 UNL A   1      40.261  28.926  29.882  1.00  0.00    +0.000 C 
ATOM     29  C21 UNL A   1      40.826  28.766  31.243  1.00  0.00    +0.000 C 
ATOM     30  N6  UNL A   1      41.903  29.299  31.714  1.00  0.00    +0.000 N 
ATOM     31  C22 UNL A   1      42.032  28.820  33.013  1.00  0.00    +0.000 C 
ATOM     32  C23 UNL A   1      43.250  28.764  33.620  1.00  0.00    +0.000 C 
ATOM     44  C30 UNL A   1      44.214  29.568  32.909  1.00  0.00    +0.000 C 
ATOM     45  C31 UNL A   1      44.331  30.916  32.635  1.00  0.00    +0.000 C 
ATOM     46  C32 UNL A   1      44.812  30.979  31.293  1.00  0.00    +0.000 C 
ATOM     47  C33 UNL A   1      45.039  29.673  30.855  1.00  0.00    +0.000 C 
ATOM     48  N7  UNL A   1      45.038  28.934  32.012  1.00  0.00    +0.000 N 
ATOM     49  C34 UNL A   1      45.175  29.095  29.537  1.00  0.00    +0.000 C 
ATOM     61  C41 UNL A   1      44.999  27.774  29.243  1.00  0.00    +0.000 C 
ATOM     62  N8  UNL A   1      44.756  27.352  27.942  1.00  0.00    +0.000 N 
ATOM     63  C42 UNL A   1      44.090  26.235  28.073  1.00  0.00    +0.000 C 
ATOM     64  C43 UNL A   1      42.922  25.886  27.221  1.00  0.00    +0.000 C 
ATOM     76  C50 UNL A   1      41.953  26.790  27.512  1.00  0.00    +0.000 C 
ATOM     77  C51 UNL A   1      40.777  27.174  26.768  1.00  0.00    +0.000 C 
ATOM     78  C52 UNL A   1      40.137  28.134  27.466  1.00  0.00    +0.000 C 
ATOM     79  C53 UNL A   1      40.756  28.293  28.790  1.00  0.00    +0.000 C 
ATOM     80  N9  UNL A   1      41.903  27.546  28.703  1.00  0.00    +0.000 N 
ATOM     81  C54 UNL A   1      44.175  25.600  29.378  1.00  0.00    +0.000 C 
ATOM     82  C55 UNL A   1      44.655  26.629  30.084  1.00  0.00    +0.000 C 
ATOM     83  C56 UNL A   1      40.770  28.213  33.345  1.00  0.00    +0.000 C 
ATOM     84  C57 UNL A   1      40.029  28.046  32.248  1.00  0.00    +0.000 C 
ATOM    112  H22 UNL A   1      44.117  31.706  33.264  1.00  0.00    +0.000 H 
ATOM    113  H23 UNL A   1      44.965  31.838  30.743  1.00  0.00    +0.000 H 
ATOM    114  H24 UNL A   1      45.538  28.100  32.168  1.00  0.00    +0.000 H 
ATOM    115  H25 UNL A   1      40.478  26.781  25.862  1.00  0.00    +0.000 H 
ATOM    116  H26 UNL A   1      39.331  28.679  27.120  1.00  0.00    +0.000 H 
ATOM    117  H27 UNL A   1      42.607  27.536  29.391  1.00  0.00    +0.000 H 
ATOM    118  H28 UNL A   1      43.937  24.639  29.672  1.00  0.00    +0.000 H 
ATOM    119  H29 UNL A   1      44.768  26.616  31.110  1.00  0.00    +0.000 H 
ATOM    120  H30 UNL A   1      40.480  27.942  34.298  1.00  0.00    +0.000 H 
ATOM    121  H31 UNL A   1      39.133  27.546  32.136  1.00  0.00    +0.000 H 
ENDROOT
BRANCH   28   27
ATOM    122  H32 UNL A   1      39.891  31.446  29.488  1.00  0.00    +0.000 H 
ATOM     27  C19 UNL A   1      38.967  29.583  29.835  1.00  0.00    +0.000 C 
ATOM    110  H20 UNL A   1      35.649  29.151  29.717  1.00  0.00    +0.000 H 
ATOM    111  H21 UNL A   1      37.724  27.865  29.951  1.00  0.00    +0.000 H 
ATOM     85  C58 UNL A   1      39.011  30.962  29.726  1.00  0.00    +0.000 C 
ATOM     86  C59 UNL A   1      37.867  31.662  29.939  1.00  0.00    +0.000 C 
ATOM     24  C16 UNL A   1      36.644  31.022  29.799  1.00  0.00    +0.000 C 
ATOM     25  C17 UNL A   1      36.562  29.626  29.786  1.00  0.00    +0.000 C 
ATOM     26  C18 UNL A   1      37.745  28.894  29.869  1.00  0.00    +0.000 C 
ATOM    123  H33 UNL A   1      37.906  32.660  30.201  1.00  0.00    +0.000 H 
BRANCH   24   22
ATOM     22  C15 UNL A   1      35.476  31.900  29.608  1.00  0.00    +0.000 C 
ATOM     23  O3  UNL A   1      34.931  32.427  30.558  1.00  0.00    +0.000 O 
BRANCH   22   21
ATOM    109  H19 UNL A   1      35.679  32.555  27.701  1.00  0.00    +0.000 H 
ATOM     21  N5  UNL A   1      35.041  32.112  28.305  1.00  0.00    +0.000 N 
BRANCH   21   20
ATOM    108  H18 UNL A   1      33.646  32.260  26.791  1.00  0.00    +0.000 H 
ATOM    107  H17 UNL A   1      32.968  32.037  28.408  1.00  0.00    +0.000 H 
ATOM     20  C14 UNL A   1      33.741  31.750  27.727  1.00  0.00    +0.000 C 
BRANCH   20   19
ATOM    105  H15 UNL A   1      34.183  30.031  26.572  1.00  0.00    +0.000 H 
ATOM    106  H16 UNL A   1      34.012  29.749  28.313  1.00  0.00    +0.000 H 
ATOM     19  C13 UNL A   1      33.627  30.261  27.457  1.00  0.00    +0.000 C 
BRANCH   19   18
ATOM     18  C12 UNL A   1      32.175  29.798  27.258  1.00  0.00    +0.000 C 
ATOM    103  H13 UNL A   1      31.566  30.317  27.969  1.00  0.00    +0.000 H 
ATOM    104  H14 UNL A   1      31.942  30.016  26.237  1.00  0.00    +0.000 H 
BRANCH   18   17
ATOM     17  C11 UNL A   1      31.916  28.290  27.427  1.00  0.00    +0.000 C 
ATOM    101  H11 UNL A   1      32.827  27.833  27.751  1.00  0.00    +0.000 H 
ATOM    102  H12 UNL A   1      31.116  28.205  28.133  1.00  0.00    +0.000 H 
BRANCH   17   16
ATOM     99  H9  UNL A   1      31.720  26.528  26.241  1.00  0.00    +0.000 H 
ATOM    100  H10 UNL A   1      30.382  27.684  26.100  1.00  0.00    +0.000 H 
ATOM     16  C10 UNL A   1      31.443  27.559  26.163  1.00  0.00    +0.000 C 
BRANCH   16   15
ATOM     97  H7  UNL A   1      31.347  28.019  24.077  1.00  0.00    +0.000 H 
ATOM     98  H8  UNL A   1      32.271  29.167  25.025  1.00  0.00    +0.000 H 
ATOM     15  C9  UNL A   1      32.048  28.130  24.877  1.00  0.00    +0.000 C 
BRANCH   15   14
ATOM     14  N4  UNL A   1      33.271  27.423  24.546  1.00  0.00    +0.000 N 
ATOM     96  H6  UNL A   1      34.044  27.704  25.087  1.00  0.00    +0.000 H 
BRANCH   14   12
ATOM     12  C8  UNL A   1      33.570  26.443  23.634  1.00  0.00    +0.000 C 
ATOM     13  O2  UNL A   1      33.638  26.769  22.448  1.00  0.00    +0.000 O 
BRANCH   12   11
ATOM      8  C4  UNL A   1      33.661  22.250  24.418  1.00  0.00    +0.000 C 
ATOM      9  C5  UNL A   1      34.115  22.736  23.194  1.00  0.00    +0.000 C 
ATOM     10  C6  UNL A   1      34.105  24.119  22.981  1.00  0.00    +0.000 C 
ATOM     11  C7  UNL A   1      33.714  25.006  24.000  1.00  0.00    +0.000 C 
ATOM     87  C60 UNL A   1      33.457  24.495  25.273  1.00  0.00    +0.000 C 
ATOM     88  C61 UNL A   1      33.366  23.119  25.471  1.00  0.00    +0.000 C 
ATOM    124  H34 UNL A   1      33.335  25.138  26.072  1.00  0.00    +0.000 H 
ATOM    125  H35 UNL A   1      33.082  22.743  26.390  1.00  0.00    +0.000 H 
ATOM     94  H4  UNL A   1      34.452  22.092  22.461  1.00  0.00    +0.000 H 
ATOM     95  H5  UNL A   1      34.388  24.493  22.062  1.00  0.00    +0.000 H 
BRANCH    8    7
ATOM      4  C3  UNL A   1      33.664  18.711  24.551  1.00  0.00    +0.000 C 
ATOM      5  N1  UNL A   1      32.330  19.036  24.474  1.00  0.00    +0.000 N 
ATOM      6  N2  UNL A   1      32.206  20.350  24.611  1.00  0.00    +0.000 N 
ATOM      7  N3  UNL A   1      33.442  20.874  24.592  1.00  0.00    +0.000 N 
ATOM     89  C62 UNL A   1      34.399  19.878  24.702  1.00  0.00    +0.000 C 
BRANCH    4    2
ATOM      2  C2  UNL A   1      34.104  17.322  24.489  1.00  0.00    +0.000 C 
ATOM      3  O1  UNL A   1      34.385  16.693  25.509  1.00  0.00    +0.000 O 
BRANCH    2    1
ATOM      1  C1  UNL A   1      34.211  16.652  23.145  1.00  0.00    +0.000 C 
ATOM     91  H1  UNL A   1      33.429  15.929  23.043  1.00  0.00    +0.000 H 
ATOM     92  H2  UNL A   1      35.160  16.163  23.064  1.00  0.00    +0.000 H 
ATOM     93  H3  UNL A   1      34.122  17.387  22.372  1.00  0.00    +0.000 H 
ENDBRANCH    2    1
ENDBRANCH    4    2
BRANCH   89   90
ATOM     90  C63 UNL A   1      35.830  20.178  24.950  1.00  0.00    +0.000 C 
ATOM    126  H36 UNL A   1      35.943  20.593  25.929  1.00  0.00    +0.000 H 
ATOM    127  H37 UNL A   1      36.178  20.881  24.222  1.00  0.00    +0.000 H 
ATOM    128  H38 UNL A   1      36.401  19.276  24.877  1.00  0.00    +0.000 H 
ENDBRANCH   89   90
ENDBRANCH    8    7
ENDBRANCH   12   11
ENDBRANCH   14   12
ENDBRANCH   15   14
ENDBRANCH   16   15
ENDBRANCH   17   16
ENDBRANCH   18   17
ENDBRANCH   19   18
ENDBRANCH   20   19
ENDBRANCH   21   20
ENDBRANCH   22   21
ENDBRANCH   24   22
ENDBRANCH   28   27
BRANCH   32   33
ATOM     33  C24 UNL A   1      43.667  27.724  34.629  1.00  0.00    +0.000 C 
ATOM     34  C25 UNL A   1      43.646  26.365  34.258  1.00  0.00    +0.000 C 
ATOM     35  F1  UNL A   1      43.517  26.010  32.970  1.00  0.00    +0.000 F 
ATOM     36  C26 UNL A   1      43.669  25.338  35.206  1.00  0.00    +0.000 C 
ATOM     37  F2  UNL A   1      43.519  24.066  34.811  1.00  0.00    +0.000 F 
ATOM     38  C27 UNL A   1      43.775  25.629  36.552  1.00  0.00    +0.000 C 
ATOM     39  F3  UNL A   1      43.734  24.652  37.466  1.00  0.00    +0.000 F 
ATOM     40  C28 UNL A   1      43.878  26.945  36.951  1.00  0.00    +0.000 C 
ATOM     41  F4  UNL A   1      43.969  27.248  38.253  1.00  0.00    +0.000 F 
ATOM     42  C29 UNL A   1      43.802  27.972  36.013  1.00  0.00    +0.000 C 
ATOM     43  F5  UNL A   1      43.757  29.207  36.526  1.00  0.00    +0.000 F 
ENDBRANCH   32   33
BRANCH   49   50
ATOM     50  C35 UNL A   1      45.304  30.060  28.387  1.00  0.00    +0.000 C 
ATOM     51  C36 UNL A   1      44.220  30.745  27.809  1.00  0.00    +0.000 C 
ATOM     52  F6  UNL A   1      42.969  30.523  28.227  1.00  0.00    +0.000 F 
ATOM     53  C37 UNL A   1      44.411  31.719  26.829  1.00  0.00    +0.000 C 
ATOM     54  F7  UNL A   1      43.356  32.352  26.294  1.00  0.00    +0.000 F 
ATOM     55  C38 UNL A   1      45.693  32.063  26.436  1.00  0.00    +0.000 C 
ATOM     56  F8  UNL A   1      45.883  33.028  25.526  1.00  0.00    +0.000 F 
ATOM     57  C39 UNL A   1      46.780  31.422  27.009  1.00  0.00    +0.000 C 
ATOM     58  F9  UNL A   1      48.024  31.785  26.669  1.00  0.00    +0.000 F 
ATOM     59  C40 UNL A   1      46.587  30.425  27.962  1.00  0.00    +0.000 C 
ATOM     60  F10 UNL A   1      47.665  29.848  28.516  1.00  0.00    +0.000 F 
ENDBRANCH   49   50
BRANCH   64   65
ATOM     65  C44 UNL A   1      42.776  24.577  26.545  1.00  0.00    +0.000 C 
ATOM     66  C45 UNL A   1      43.505  24.266  25.386  1.00  0.00    +0.000 C 
ATOM     67  F11 UNL A   1      44.185  25.226  24.743  1.00  0.00    +0.000 F 
ATOM     68  C46 UNL A   1      43.603  22.953  24.911  1.00  0.00    +0.000 C 
ATOM     69  F12 UNL A   1      44.353  22.686  23.833  1.00  0.00    +0.000 F 
ATOM     70  C47 UNL A   1      42.974  21.917  25.581  1.00  0.00    +0.000 C 
ATOM     71  F13 UNL A   1      43.118  20.651  25.163  1.00  0.00    +0.000 F 
ATOM     72  C48 UNL A   1      42.229  22.192  26.713  1.00  0.00    +0.000 C 
ATOM     73  F14 UNL A   1      41.650  21.194  27.394  1.00  0.00    +0.000 F 
ATOM     74  C49 UNL A   1      42.132  23.502  27.187  1.00  0.00    +0.000 C 
ATOM     75  F15 UNL A   1      41.474  23.689  28.341  1.00  0.00    +0.000 F 
ENDBRANCH   64   65
TORSDOF 19
ENDMDL
MODEL 8
REMARK VINA RESULT:     -11.1      5.690     11.845
ROOT
ATOM     28  C20 UNL A   1      40.836  27.971  28.702  1.00  0.00    +0.000 C 
ATOM     29  C21 UNL A   1      41.955  28.793  28.184  1.00  0.00    +0.000 C 
ATOM     30  N6  UNL A   1      42.981  29.224  28.839  1.00  0.00    +0.000 N 
ATOM     31  C22 UNL A   1      43.722  29.980  27.936  1.00  0.00    +0.000 C 
ATOM     32  C23 UNL A   1      44.562  30.961  28.369  1.00  0.00    +0.000 C 
ATOM     44  C30 UNL A   1      44.821  30.827  29.782  1.00  0.00    +0.000 C 
ATOM     45  C31 UNL A   1      45.425  29.863  30.565  1.00  0.00    +0.000 C 
ATOM     46  C32 UNL A   1      44.624  29.792  31.743  1.00  0.00    +0.000 C 
ATOM     47  C33 UNL A   1      43.631  30.769  31.650  1.00  0.00    +0.000 C 
ATOM     48  N7  UNL A   1      44.073  31.591  30.644  1.00  0.00    +0.000 N 
ATOM     49  C34 UNL A   1      42.365  30.941  32.326  1.00  0.00    +0.000 C 
ATOM     61  C41 UNL A   1      41.332  31.705  31.864  1.00  0.00    +0.000 C 
ATOM     62  N8  UNL A   1      40.038  31.524  32.333  1.00  0.00    +0.000 N 
ATOM     63  C42 UNL A   1      39.270  31.930  31.356  1.00  0.00    +0.000 C 
ATOM     64  C43 UNL A   1      38.033  31.211  30.947  1.00  0.00    +0.000 C 
ATOM     76  C50 UNL A   1      38.432  30.007  30.467  1.00  0.00    +0.000 C 
ATOM     77  C51 UNL A   1      37.692  28.782  30.277  1.00  0.00    +0.000 C 
ATOM     78  C52 UNL A   1      38.539  27.853  29.792  1.00  0.00    +0.000 C 
ATOM     79  C53 UNL A   1      39.831  28.472  29.461  1.00  0.00    +0.000 C 
ATOM     80  N9  UNL A   1      39.735  29.730  29.998  1.00  0.00    +0.000 N 
ATOM     81  C54 UNL A   1      39.911  32.771  30.358  1.00  0.00    +0.000 C 
ATOM     82  C55 UNL A   1      41.189  32.518  30.657  1.00  0.00    +0.000 C 
ATOM     83  C56 UNL A   1      43.190  29.684  26.632  1.00  0.00    +0.000 C 
ATOM     84  C57 UNL A   1      42.021  29.049  26.737  1.00  0.00    +0.000 C 
ATOM    112  H22 UNL A   1      46.270  29.314  30.345  1.00  0.00    +0.000 H 
ATOM    113  H23 UNL A   1      44.756  29.133  32.527  1.00  0.00    +0.000 H 
ATOM    114  H24 UNL A   1      43.887  32.554  30.557  1.00  0.00    +0.000 H 
ATOM    115  H25 UNL A   1      36.689  28.644  30.476  1.00  0.00    +0.000 H 
ATOM    116  H26 UNL A   1      38.314  26.852  29.673  1.00  0.00    +0.000 H 
ATOM    117  H27 UNL A   1      40.485  30.366  30.050  1.00  0.00    +0.000 H 
ATOM    118  H28 UNL A   1      39.501  33.382  29.634  1.00  0.00    +0.000 H 
ATOM    119  H29 UNL A   1      41.986  32.859  30.097  1.00  0.00    +0.000 H 
ATOM    120  H30 UNL A   1      43.648  29.931  25.740  1.00  0.00    +0.000 H 
ATOM    121  H31 UNL A   1      41.344  28.802  25.999  1.00  0.00    +0.000 H 
ENDROOT
BRANCH   28   27
ATOM    122  H32 UNL A   1      42.072  25.870  29.538  1.00  0.00    +0.000 H 
ATOM     27  C19 UNL A   1      40.731  26.649  28.110  1.00  0.00    +0.000 C 
ATOM    110  H20 UNL A   1      39.086  24.723  25.921  1.00  0.00    +0.000 H 
ATOM    111  H21 UNL A   1      39.209  27.049  26.685  1.00  0.00    +0.000 H 
ATOM     85  C58 UNL A   1      41.572  25.693  28.653  1.00  0.00    +0.000 C 
ATOM     86  C59 UNL A   1      41.723  24.516  27.990  1.00  0.00    +0.000 C 
ATOM     24  C16 UNL A   1      40.741  24.110  27.097  1.00  0.00    +0.000 C 
ATOM     25  C17 UNL A   1      39.795  25.017  26.611  1.00  0.00    +0.000 C 
ATOM     26  C18 UNL A   1      39.831  26.328  27.082  1.00  0.00    +0.000 C 
ATOM    123  H33 UNL A   1      42.558  23.931  28.149  1.00  0.00    +0.000 H 
BRANCH   24   22
ATOM     22  C15 UNL A   1      40.734  22.677  26.757  1.00  0.00    +0.000 C 
ATOM     23  O3  UNL A   1      39.867  21.940  27.185  1.00  0.00    +0.000 O 
BRANCH   22   21
ATOM    109  H19 UNL A   1      41.725  22.552  24.994  1.00  0.00    +0.000 H 
ATOM     21  N5  UNL A   1      41.739  22.213  25.917  1.00  0.00    +0.000 N 
BRANCH   21   20
ATOM    108  H18 UNL A   1      42.613  20.349  25.759  1.00  0.00    +0.000 H 
ATOM    107  H17 UNL A   1      42.858  21.157  27.312  1.00  0.00    +0.000 H 
ATOM     20  C14 UNL A   1      42.820  21.277  26.250  1.00  0.00    +0.000 C 
BRANCH   20   19
ATOM    105  H15 UNL A   1      44.867  20.953  25.815  1.00  0.00    +0.000 H 
ATOM    106  H16 UNL A   1      44.047  22.121  24.764  1.00  0.00    +0.000 H 
ATOM     19  C13 UNL A   1      44.173  21.766  25.766  1.00  0.00    +0.000 C 
BRANCH   19   18
ATOM     18  C12 UNL A   1      44.723  22.932  26.602  1.00  0.00    +0.000 C 
ATOM    103  H13 UNL A   1      44.096  23.043  27.461  1.00  0.00    +0.000 H 
ATOM    104  H14 UNL A   1      45.736  22.669  26.828  1.00  0.00    +0.000 H 
BRANCH   18   17
ATOM     17  C11 UNL A   1      44.800  24.296  25.894  1.00  0.00    +0.000 C 
ATOM    101  H11 UNL A   1      43.983  24.358  25.207  1.00  0.00    +0.000 H 
ATOM    102  H12 UNL A   1      44.769  25.033  26.669  1.00  0.00    +0.000 H 
BRANCH   17   16
ATOM     99  H9  UNL A   1      46.368  23.664  24.593  1.00  0.00    +0.000 H 
ATOM    100  H10 UNL A   1      45.905  25.370  24.441  1.00  0.00    +0.000 H 
ATOM     16  C10 UNL A   1      46.096  24.559  25.113  1.00  0.00    +0.000 C 
BRANCH   16   15
ATOM     97  H7  UNL A   1      47.196  24.457  26.944  1.00  0.00    +0.000 H 
ATOM     98  H8  UNL A   1      48.185  24.729  25.524  1.00  0.00    +0.000 H 
ATOM     15  C9  UNL A   1      47.264  24.975  26.011  1.00  0.00    +0.000 C 
BRANCH   15   14
ATOM     14  N4  UNL A   1      47.221  26.405  26.252  1.00  0.00    +0.000 N 
ATOM     96  H6  UNL A   1      47.582  26.939  25.507  1.00  0.00    +0.000 H 
BRANCH   14   12
ATOM     12  C8  UNL A   1      46.782  27.166  27.305  1.00  0.00    +0.000 C 
ATOM     13  O2  UNL A   1      46.762  28.388  27.157  1.00  0.00    +0.000 O 
BRANCH   12   11
ATOM      8  C4  UNL A   1      45.625  25.902  31.212  1.00  0.00    +0.000 C 
ATOM      9  C5  UNL A   1      44.651  26.135  30.243  1.00  0.00    +0.000 C 
ATOM     10  C6  UNL A   1      45.065  26.515  28.962  1.00  0.00    +0.000 C 
ATOM     11  C7  UNL A   1      46.432  26.591  28.634  1.00  0.00    +0.000 C 
ATOM     87  C60 UNL A   1      47.372  26.159  29.571  1.00  0.00    +0.000 C 
ATOM     88  C61 UNL A   1      46.981  25.877  30.878  1.00  0.00    +0.000 C 
ATOM    124  H34 UNL A   1      48.360  26.047  29.295  1.00  0.00    +0.000 H 
ATOM    125  H35 UNL A   1      47.688  25.649  31.595  1.00  0.00    +0.000 H 
ATOM     94  H4  UNL A   1      43.649  26.029  30.464  1.00  0.00    +0.000 H 
ATOM     95  H5  UNL A   1      44.358  26.742  28.246  1.00  0.00    +0.000 H 
BRANCH    8    7
ATOM      4  C3  UNL A   1      44.197  25.170  34.370  1.00  0.00    +0.000 C 
ATOM      5  N1  UNL A   1      44.795  26.396  34.555  1.00  0.00    +0.000 N 
ATOM      6  N2  UNL A   1      45.524  26.676  33.483  1.00  0.00    +0.000 N 
ATOM      7  N3  UNL A   1      45.255  25.741  32.557  1.00  0.00    +0.000 N 
ATOM     89  C62 UNL A   1      44.540  24.693  33.113  1.00  0.00    +0.000 C 
BRANCH    4    2
ATOM      2  C2  UNL A   1      43.374  24.571  35.413  1.00  0.00    +0.000 C 
ATOM      3  O1  UNL A   1      42.424  23.837  35.137  1.00  0.00    +0.000 O 
BRANCH    2    1
ATOM      1  C1  UNL A   1      43.701  24.859  36.854  1.00  0.00    +0.000 C 
ATOM     91  H1  UNL A   1      44.156  25.824  36.931  1.00  0.00    +0.000 H 
ATOM     92  H2  UNL A   1      44.378  24.116  37.222  1.00  0.00    +0.000 H 
ATOM     93  H3  UNL A   1      42.802  24.842  37.435  1.00  0.00    +0.000 H 
ENDBRANCH    2    1
ENDBRANCH    4    2
BRANCH   89   90
ATOM     90  C63 UNL A   1      44.314  23.417  32.391  1.00  0.00    +0.000 C 
ATOM    126  H36 UNL A   1      43.359  23.442  31.911  1.00  0.00    +0.000 H 
ATOM    127  H37 UNL A   1      44.343  22.604  33.087  1.00  0.00    +0.000 H 
ATOM    128  H38 UNL A   1      45.080  23.284  31.655  1.00  0.00    +0.000 H 
ENDBRANCH   89   90
ENDBRANCH    8    7
ENDBRANCH   12   11
ENDBRANCH   14   12
ENDBRANCH   15   14
ENDBRANCH   16   15
ENDBRANCH   17   16
ENDBRANCH   18   17
ENDBRANCH   19   18
ENDBRANCH   20   19
ENDBRANCH   21   20
ENDBRANCH   22   21
ENDBRANCH   24   22
ENDBRANCH   28   27
BRANCH   32   33
ATOM     33  C24 UNL A   1      44.866  32.233  27.619  1.00  0.00    +0.000 C 
ATOM     34  C25 UNL A   1      46.095  32.347  26.938  1.00  0.00    +0.000 C 
ATOM     35  F1  UNL A   1      46.865  31.267  26.732  1.00  0.00    +0.000 F 
ATOM     36  C26 UNL A   1      46.603  33.583  26.529  1.00  0.00    +0.000 C 
ATOM     37  F2  UNL A   1      47.832  33.654  25.999  1.00  0.00    +0.000 F 
ATOM     38  C27 UNL A   1      45.877  34.741  26.730  1.00  0.00    +0.000 C 
ATOM     39  F3  UNL A   1      46.388  35.932  26.396  1.00  0.00    +0.000 F 
ATOM     40  C28 UNL A   1      44.635  34.663  27.323  1.00  0.00    +0.000 C 
ATOM     41  F4  UNL A   1      43.920  35.776  27.538  1.00  0.00    +0.000 F 
ATOM     42  C29 UNL A   1      44.149  33.439  27.779  1.00  0.00    +0.000 C 
ATOM     43  F5  UNL A   1      43.008  33.506  28.474  1.00  0.00    +0.000 F 
ENDBRANCH   32   33
BRANCH   49   50
ATOM     50  C35 UNL A   1      42.101  30.040  33.505  1.00  0.00    +0.000 C 
ATOM     51  C36 UNL A   1      41.665  28.708  33.395  1.00  0.00    +0.000 C 
ATOM     52  F6  UNL A   1      41.397  28.171  32.199  1.00  0.00    +0.000 F 
ATOM     53  C37 UNL A   1      41.555  27.882  34.514  1.00  0.00    +0.000 C 
ATOM     54  F7  UNL A   1      41.131  26.616  34.376  1.00  0.00    +0.000 F 
ATOM     55  C38 UNL A   1      41.920  28.355  35.761  1.00  0.00    +0.000 C 
ATOM     56  F8  UNL A   1      41.856  27.551  36.832  1.00  0.00    +0.000 F 
ATOM     57  C39 UNL A   1      42.378  29.656  35.894  1.00  0.00    +0.000 C 
ATOM     58  F9  UNL A   1      42.780  30.104  37.091  1.00  0.00    +0.000 F 
ATOM     59  C40 UNL A   1      42.456  30.491  34.782  1.00  0.00    +0.000 C 
ATOM     60  F10 UNL A   1      42.932  31.735  34.945  1.00  0.00    +0.000 F 
ENDBRANCH   49   50
BRANCH   64   65
ATOM     65  C44 UNL A   1      36.732  31.889  30.746  1.00  0.00    +0.000 C 
ATOM     66  C45 UNL A   1      35.841  32.094  31.811  1.00  0.00    +0.000 C 
ATOM     67  F11 UNL A   1      36.051  31.489  32.989  1.00  0.00    +0.000 F 
ATOM     68  C46 UNL A   1      34.761  32.978  31.703  1.00  0.00    +0.000 C 
ATOM     69  F12 UNL A   1      33.962  33.190  32.759  1.00  0.00    +0.000 F 
ATOM     70  C47 UNL A   1      34.543  33.679  30.529  1.00  0.00    +0.000 C 
ATOM     71  F13 UNL A   1      33.546  34.572  30.446  1.00  0.00    +0.000 F 
ATOM     72  C48 UNL A   1      35.389  33.483  29.454  1.00  0.00    +0.000 C 
ATOM     73  F14 UNL A   1      35.215  34.185  28.325  1.00  0.00    +0.000 F 
ATOM     74  C49 UNL A   1      36.467  32.602  29.561  1.00  0.00    +0.000 C 
ATOM     75  F15 UNL A   1      37.305  32.528  28.515  1.00  0.00    +0.000 F 
ENDBRANCH   64   65
TORSDOF 19
ENDMDL
MODEL 9
REMARK VINA RESULT:     -10.8      1.980      4.443
ROOT
ATOM     28  C20 UNL A   1      40.224  28.622  30.012  1.00  0.00    +0.000 C 
ATOM     29  C21 UNL A   1      40.643  28.385  31.414  1.00  0.00    +0.000 C 
ATOM     30  N6  UNL A   1      41.742  28.756  31.979  1.00  0.00    +0.000 N 
ATOM     31  C22 UNL A   1      41.690  28.267  33.279  1.00  0.00    +0.000 C 
ATOM     32  C23 UNL A   1      42.832  28.034  33.985  1.00  0.00    +0.000 C 
ATOM     44  C30 UNL A   1      43.959  28.687  33.366  1.00  0.00    +0.000 C 
ATOM     45  C31 UNL A   1      44.294  30.004  33.116  1.00  0.00    +0.000 C 
ATOM     46  C32 UNL A   1      44.890  29.992  31.820  1.00  0.00    +0.000 C 
ATOM     47  C33 UNL A   1      44.961  28.666  31.389  1.00  0.00    +0.000 C 
ATOM     48  N7  UNL A   1      44.755  27.937  32.534  1.00  0.00    +0.000 N 
ATOM     49  C34 UNL A   1      45.122  28.071  30.082  1.00  0.00    +0.000 C 
ATOM     61  C41 UNL A   1      44.781  26.789  29.761  1.00  0.00    +0.000 C 
ATOM     62  N8  UNL A   1      44.590  26.404  28.440  1.00  0.00    +0.000 N 
ATOM     63  C42 UNL A   1      43.759  25.396  28.504  1.00  0.00    +0.000 C 
ATOM     64  C43 UNL A   1      42.629  25.219  27.553  1.00  0.00    +0.000 C 
ATOM     76  C50 UNL A   1      41.781  26.256  27.771  1.00  0.00    +0.000 C 
ATOM     77  C51 UNL A   1      40.740  26.806  26.935  1.00  0.00    +0.000 C 
ATOM     78  C52 UNL A   1      40.190  27.851  27.586  1.00  0.00    +0.000 C 
ATOM     79  C53 UNL A   1      40.712  27.921  28.960  1.00  0.00    +0.000 C 
ATOM     80  N9  UNL A   1      41.741  27.014  28.962  1.00  0.00    +0.000 N 
ATOM     81  C54 UNL A   1      43.641  24.759  29.805  1.00  0.00    +0.000 C 
ATOM     82  C55 UNL A   1      44.204  25.708  30.559  1.00  0.00    +0.000 C 
ATOM     83  C56 UNL A   1      40.330  27.850  33.498  1.00  0.00    +0.000 C 
ATOM     84  C57 UNL A   1      39.668  27.791  32.342  1.00  0.00    +0.000 C 
ATOM    112  H22 UNL A   1      44.145  30.818  33.732  1.00  0.00    +0.000 H 
ATOM    113  H23 UNL A   1      45.212  30.819  31.293  1.00  0.00    +0.000 H 
ATOM    114  H24 UNL A   1      45.113  27.040  32.724  1.00  0.00    +0.000 H 
ATOM    115  H25 UNL A   1      40.464  26.459  26.004  1.00  0.00    +0.000 H 
ATOM    116  H26 UNL A   1      39.505  28.507  27.179  1.00  0.00    +0.000 H 
ATOM    117  H27 UNL A   1      42.376  26.903  29.706  1.00  0.00    +0.000 H 
ATOM    118  H28 UNL A   1      43.241  23.844  30.068  1.00  0.00    +0.000 H 
ATOM    119  H29 UNL A   1      44.227  25.681  31.590  1.00  0.00    +0.000 H 
ATOM    120  H30 UNL A   1      39.925  27.628  34.421  1.00  0.00    +0.000 H 
ATOM    121  H31 UNL A   1      38.722  27.426  32.150  1.00  0.00    +0.000 H 
ENDROOT
BRANCH   28   27
ATOM    122  H32 UNL A   1      40.259  31.141  29.470  1.00  0.00    +0.000 H 
ATOM     27  C19 UNL A   1      39.048  29.461  29.864  1.00  0.00    +0.000 C 
ATOM    110  H20 UNL A   1      35.712  29.522  29.593  1.00  0.00    +0.000 H 
ATOM    111  H21 UNL A   1      37.555  27.957  30.002  1.00  0.00    +0.000 H 
ATOM     85  C58 UNL A   1      39.306  30.809  29.686  1.00  0.00    +0.000 C 
ATOM     86  C59 UNL A   1      38.273  31.683  29.802  1.00  0.00    +0.000 C 
ATOM     24  C16 UNL A   1      36.974  31.225  29.632  1.00  0.00    +0.000 C 
ATOM     25  C17 UNL A   1      36.683  29.859  29.686  1.00  0.00    +0.000 C 
ATOM     26  C18 UNL A   1      37.736  28.965  29.868  1.00  0.00    +0.000 C 
ATOM    123  H33 UNL A   1      38.451  32.677  30.015  1.00  0.00    +0.000 H 
BRANCH   24   22
ATOM     22  C15 UNL A   1      35.963  32.254  29.335  1.00  0.00    +0.000 C 
ATOM     23  O3  UNL A   1      36.220  33.435  29.462  1.00  0.00    +0.000 O 
BRANCH   22   21
ATOM    109  H19 UNL A   1      33.994  31.821  29.551  1.00  0.00    +0.000 H 
ATOM     21  N5  UNL A   1      34.721  31.820  28.887  1.00  0.00    +0.000 N 
BRANCH   21   20
ATOM    108  H18 UNL A   1      35.277  31.193  27.000  1.00  0.00    +0.000 H 
ATOM    107  H17 UNL A   1      33.767  32.110  27.065  1.00  0.00    +0.000 H 
ATOM     20  C14 UNL A   1      34.368  31.361  27.538  1.00  0.00    +0.000 C 
BRANCH   20   19
ATOM    105  H15 UNL A   1      33.418  29.780  28.578  1.00  0.00    +0.000 H 
ATOM    106  H16 UNL A   1      32.679  30.217  27.027  1.00  0.00    +0.000 H 
ATOM     19  C13 UNL A   1      33.594  30.056  27.559  1.00  0.00    +0.000 C 
BRANCH   19   18
ATOM     18  C12 UNL A   1      34.336  28.907  26.861  1.00  0.00    +0.000 C 
ATOM    103  H13 UNL A   1      35.094  29.337  26.240  1.00  0.00    +0.000 H 
ATOM    104  H14 UNL A   1      34.712  28.288  27.648  1.00  0.00    +0.000 H 
BRANCH   18   17
ATOM     17  C11 UNL A   1      33.478  27.980  25.982  1.00  0.00    +0.000 C 
ATOM    101  H11 UNL A   1      33.714  28.183  24.959  1.00  0.00    +0.000 H 
ATOM    102  H12 UNL A   1      33.712  26.982  26.289  1.00  0.00    +0.000 H 
BRANCH   17   16
ATOM     99  H9  UNL A   1      31.536  27.159  26.308  1.00  0.00    +0.000 H 
ATOM    100  H10 UNL A   1      31.797  28.774  26.995  1.00  0.00    +0.000 H 
ATOM     16  C10 UNL A   1      31.960  28.130  26.156  1.00  0.00    +0.000 C 
BRANCH   16   15
ATOM     97  H7  UNL A   1      30.539  29.471  25.285  1.00  0.00    +0.000 H 
ATOM     98  H8  UNL A   1      32.014  29.283  24.358  1.00  0.00    +0.000 H 
ATOM     15  C9  UNL A   1      31.278  28.775  24.947  1.00  0.00    +0.000 C 
BRANCH   15   14
ATOM     14  N4  UNL A   1      30.639  27.756  24.134  1.00  0.00    +0.000 N 
ATOM     96  H6  UNL A   1      29.709  27.570  24.400  1.00  0.00    +0.000 H 
BRANCH   14   12
ATOM     12  C8  UNL A   1      31.065  26.999  23.073  1.00  0.00    +0.000 C 
ATOM     13  O2  UNL A   1      30.998  27.501  21.950  1.00  0.00    +0.000 O 
BRANCH   12   11
ATOM      8  C4  UNL A   1      32.356  23.013  23.877  1.00  0.00    +0.000 C 
ATOM      9  C5  UNL A   1      31.074  23.414  24.248  1.00  0.00    +0.000 C 
ATOM     10  C6  UNL A   1      30.669  24.717  23.940  1.00  0.00    +0.000 C 
ATOM     11  C7  UNL A   1      31.504  25.582  23.208  1.00  0.00    +0.000 C 
ATOM     87  C60 UNL A   1      32.696  25.079  22.684  1.00  0.00    +0.000 C 
ATOM     88  C61 UNL A   1      33.156  23.822  23.067  1.00  0.00    +0.000 C 
ATOM    124  H34 UNL A   1      33.238  25.641  22.008  1.00  0.00    +0.000 H 
ATOM    125  H35 UNL A   1      34.083  23.490  22.755  1.00  0.00    +0.000 H 
ATOM     94  H4  UNL A   1      30.439  22.766  24.739  1.00  0.00    +0.000 H 
ATOM     95  H5  UNL A   1      29.744  25.048  24.253  1.00  0.00    +0.000 H 
BRANCH    8    7
ATOM      4  C3  UNL A   1      33.158  19.703  24.849  1.00  0.00    +0.000 C 
ATOM      5  N1  UNL A   1      33.713  20.480  25.839  1.00  0.00    +0.000 N 
ATOM      6  N2  UNL A   1      33.634  21.752  25.472  1.00  0.00    +0.000 N 
ATOM      7  N3  UNL A   1      32.883  21.804  24.360  1.00  0.00    +0.000 N 
ATOM     89  C62 UNL A   1      32.680  20.533  23.846  1.00  0.00    +0.000 C 
BRANCH    4    2
ATOM      2  C2  UNL A   1      33.154  18.248  24.950  1.00  0.00    +0.000 C 
ATOM      3  O1  UNL A   1      32.537  17.670  25.844  1.00  0.00    +0.000 O 
BRANCH    2    1
ATOM      1  C1  UNL A   1      33.920  17.446  23.932  1.00  0.00    +0.000 C 
ATOM     91  H1  UNL A   1      33.886  16.409  24.194  1.00  0.00    +0.000 H 
ATOM     92  H2  UNL A   1      34.938  17.774  23.911  1.00  0.00    +0.000 H 
ATOM     93  H3  UNL A   1      33.481  17.583  22.965  1.00  0.00    +0.000 H 
ENDBRANCH    2    1
ENDBRANCH    4    2
BRANCH   89   90
ATOM     90  C63 UNL A   1      32.097  20.306  22.501  1.00  0.00    +0.000 C 
ATOM    126  H36 UNL A   1      31.055  20.548  22.519  1.00  0.00    +0.000 H 
ATOM    127  H37 UNL A   1      32.221  19.279  22.228  1.00  0.00    +0.000 H 
ATOM    128  H38 UNL A   1      32.595  20.929  21.787  1.00  0.00    +0.000 H 
ENDBRANCH   89   90
ENDBRANCH    8    7
ENDBRANCH   12   11
ENDBRANCH   14   12
ENDBRANCH   15   14
ENDBRANCH   16   15
ENDBRANCH   17   16
ENDBRANCH   18   17
ENDBRANCH   19   18
ENDBRANCH   20   19
ENDBRANCH   21   20
ENDBRANCH   22   21
ENDBRANCH   24   22
ENDBRANCH   28   27
BRANCH   32   33
ATOM     33  C24 UNL A   1      43.007  26.947  35.016  1.00  0.00    +0.000 C 
ATOM     34  C25 UNL A   1      43.213  27.310  36.363  1.00  0.00    +0.000 C 
ATOM     35  F1  UNL A   1      42.997  28.570  36.772  1.00  0.00    +0.000 F 
ATOM     36  C26 UNL A   1      43.727  26.411  37.300  1.00  0.00    +0.000 C 
ATOM     37  F2  UNL A   1      44.024  26.837  38.536  1.00  0.00    +0.000 F 
ATOM     38  C27 UNL A   1      43.996  25.103  36.945  1.00  0.00    +0.000 C 
ATOM     39  F3  UNL A   1      44.547  24.257  37.823  1.00  0.00    +0.000 F 
ATOM     40  C28 UNL A   1      43.735  24.688  35.656  1.00  0.00    +0.000 C 
ATOM     41  F4  UNL A   1      44.001  23.427  35.288  1.00  0.00    +0.000 F 
ATOM     42  C29 UNL A   1      43.272  25.596  34.705  1.00  0.00    +0.000 C 
ATOM     43  F5  UNL A   1      43.201  25.122  33.456  1.00  0.00    +0.000 F 
ENDBRANCH   32   33
BRANCH   49   50
ATOM     50  C35 UNL A   1      45.487  29.004  28.956  1.00  0.00    +0.000 C 
ATOM     51  C36 UNL A   1      46.752  29.041  28.343  1.00  0.00    +0.000 C 
ATOM     52  F6  UNL A   1      47.749  28.265  28.782  1.00  0.00    +0.000 F 
ATOM     53  C37 UNL A   1      46.997  29.837  27.224  1.00  0.00    +0.000 C 
ATOM     54  F7  UNL A   1      48.217  29.854  26.665  1.00  0.00    +0.000 F 
ATOM     55  C38 UNL A   1      45.972  30.580  26.665  1.00  0.00    +0.000 C 
ATOM     56  F8  UNL A   1      46.193  31.312  25.564  1.00  0.00    +0.000 F 
ATOM     57  C39 UNL A   1      44.709  30.540  27.233  1.00  0.00    +0.000 C 
ATOM     58  F9  UNL A   1      43.701  31.217  26.668  1.00  0.00    +0.000 F 
ATOM     59  C40 UNL A   1      44.472  29.772  28.371  1.00  0.00    +0.000 C 
ATOM     60  F10 UNL A   1      43.230  29.736  28.876  1.00  0.00    +0.000 F 
ENDBRANCH   49   50
BRANCH   64   65
ATOM     65  C44 UNL A   1      42.351  23.944  26.854  1.00  0.00    +0.000 C 
ATOM     66  C45 UNL A   1      43.285  23.373  25.975  1.00  0.00    +0.000 C 
ATOM     67  F11 UNL A   1      44.355  24.078  25.581  1.00  0.00    +0.000 F 
ATOM     68  C46 UNL A   1      43.169  22.047  25.542  1.00  0.00    +0.000 C 
ATOM     69  F12 UNL A   1      44.109  21.518  24.746  1.00  0.00    +0.000 F 
ATOM     70  C47 UNL A   1      42.117  21.257  25.977  1.00  0.00    +0.000 C 
ATOM     71  F13 UNL A   1      42.040  19.969  25.614  1.00  0.00    +0.000 F 
ATOM     72  C48 UNL A   1      41.169  21.796  26.826  1.00  0.00    +0.000 C 
ATOM     73  F14 UNL A   1      40.169  21.032  27.287  1.00  0.00    +0.000 F 
ATOM     74  C49 UNL A   1      41.284  23.119  27.257  1.00  0.00    +0.000 C 
ATOM     75  F15 UNL A   1      40.384  23.552  28.154  1.00  0.00    +0.000 F 
ENDBRANCH   64   65
TORSDOF 19
ENDMDL
MODEL 10
REMARK VINA RESULT:     -10.8     25.759     31.194
ROOT
ATOM     28  C20 UNL A   1      22.111  18.527   5.201  1.00  0.00    +0.000 C 
ATOM     29  C21 UNL A   1      21.652  17.185   4.771  1.00  0.00    +0.000 C 
ATOM     30  N6  UNL A   1      21.226  16.224   5.520  1.00  0.00    +0.000 N 
ATOM     31  C22 UNL A   1      20.955  15.162   4.663  1.00  0.00    +0.000 C 
ATOM     32  C23 UNL A   1      20.969  13.877   5.117  1.00  0.00    +0.000 C 
ATOM     44  C30 UNL A   1      20.924  13.842   6.558  1.00  0.00    +0.000 C 
ATOM     45  C31 UNL A   1      20.002  14.244   7.504  1.00  0.00    +0.000 C 
ATOM     46  C32 UNL A   1      20.779  14.805   8.560  1.00  0.00    +0.000 C 
ATOM     47  C33 UNL A   1      22.128  14.640   8.238  1.00  0.00    +0.000 C 
ATOM     48  N7  UNL A   1      22.113  13.707   7.232  1.00  0.00    +0.000 N 
ATOM     49  C34 UNL A   1      23.330  15.288   8.711  1.00  0.00    +0.000 C 
ATOM     61  C41 UNL A   1      24.518  15.312   8.039  1.00  0.00    +0.000 C 
ATOM     62  N8  UNL A   1      25.494  16.254   8.336  1.00  0.00    +0.000 N 
ATOM     63  C42 UNL A   1      26.174  16.391   7.228  1.00  0.00    +0.000 C 
ATOM     64  C43 UNL A   1      26.632  17.712   6.719  1.00  0.00    +0.000 C 
ATOM     76  C50 UNL A   1      25.511  18.413   6.414  1.00  0.00    +0.000 C 
ATOM     77  C51 UNL A   1      25.313  19.832   6.237  1.00  0.00    +0.000 C 
ATOM     78  C52 UNL A   1      24.009  20.042   5.965  1.00  0.00    +0.000 C 
ATOM     79  C53 UNL A   1      23.324  18.756   5.761  1.00  0.00    +0.000 C 
ATOM     80  N9  UNL A   1      24.251  17.828   6.160  1.00  0.00    +0.000 N 
ATOM     81  C54 UNL A   1      26.016  15.322   6.256  1.00  0.00    +0.000 C 
ATOM     82  C55 UNL A   1      24.919  14.742   6.754  1.00  0.00    +0.000 C 
ATOM     83  C56 UNL A   1      20.971  15.705   3.331  1.00  0.00    +0.000 C 
ATOM     84  C57 UNL A   1      21.512  16.925   3.330  1.00  0.00    +0.000 C 
ATOM    112  H22 UNL A   1      18.975  14.157   7.457  1.00  0.00    +0.000 H 
ATOM    113  H23 UNL A   1      20.410  15.255   9.413  1.00  0.00    +0.000 H 
ATOM    114  H24 UNL A   1      22.827  13.060   7.030  1.00  0.00    +0.000 H 
ATOM    115  H25 UNL A   1      26.043  20.559   6.305  1.00  0.00    +0.000 H 
ATOM    116  H26 UNL A   1      23.558  20.969   5.909  1.00  0.00    +0.000 H 
ATOM    117  H27 UNL A   1      24.062  16.867   6.257  1.00  0.00    +0.000 H 
ATOM    118  H28 UNL A   1      26.584  15.081   5.428  1.00  0.00    +0.000 H 
ATOM    119  H29 UNL A   1      24.412  13.978   6.282  1.00  0.00    +0.000 H 
ATOM    120  H30 UNL A   1      20.614  15.219   2.493  1.00  0.00    +0.000 H 
ATOM    121  H31 UNL A   1      21.765  17.526   2.530  1.00  0.00    +0.000 H 
ENDROOT
BRANCH   28   27
ATOM    122  H32 UNL A   1      19.763  19.117   6.083  1.00  0.00    +0.000 H 
ATOM     27  C19 UNL A   1      21.293  19.629   4.726  1.00  0.00    +0.000 C 
ATOM    110  H20 UNL A   1      21.207  22.402   2.852  1.00  0.00    +0.000 H 
ATOM    111  H21 UNL A   1      22.696  20.538   3.418  1.00  0.00    +0.000 H 
ATOM     85  C58 UNL A   1      20.019  19.689   5.263  1.00  0.00    +0.000 C 
ATOM     86  C59 UNL A   1      19.114  20.521   4.684  1.00  0.00    +0.000 C 
ATOM     24  C16 UNL A   1      19.565  21.586   3.918  1.00  0.00    +0.000 C 
ATOM     25  C17 UNL A   1      20.882  21.626   3.450  1.00  0.00    +0.000 C 
ATOM     26  C18 UNL A   1      21.744  20.593   3.812  1.00  0.00    +0.000 C 
ATOM    123  H33 UNL A   1      18.102  20.362   4.811  1.00  0.00    +0.000 H 
BRANCH   24   22
ATOM     22  C15 UNL A   1      18.596  22.673   3.693  1.00  0.00    +0.000 C 
ATOM     23  O3  UNL A   1      18.458  23.166   2.591  1.00  0.00    +0.000 O 
BRANCH   22   21
ATOM    109  H19 UNL A   1      18.340  23.483   5.533  1.00  0.00    +0.000 H 
ATOM     21  N5  UNL A   1      17.840  23.091   4.781  1.00  0.00    +0.000 N 
BRANCH   21   20
ATOM    108  H18 UNL A   1      16.085  22.005   4.763  1.00  0.00    +0.000 H 
ATOM    107  H17 UNL A   1      15.926  23.685   4.237  1.00  0.00    +0.000 H 
ATOM     20  C14 UNL A   1      16.382  23.018   4.938  1.00  0.00    +0.000 C 
BRANCH   20   19
ATOM    105  H15 UNL A   1      16.424  24.307   6.617  1.00  0.00    +0.000 H 
ATOM    106  H16 UNL A   1      14.871  23.510   6.315  1.00  0.00    +0.000 H 
ATOM     19  C13 UNL A   1      15.934  23.398   6.337  1.00  0.00    +0.000 C 
BRANCH   19   18
ATOM     18  C12 UNL A   1      16.263  22.323   7.384  1.00  0.00    +0.000 C 
ATOM    103  H13 UNL A   1      16.475  21.413   6.863  1.00  0.00    +0.000 H 
ATOM    104  H14 UNL A   1      17.087  22.711   7.945  1.00  0.00    +0.000 H 
BRANCH   18   17
ATOM     17  C11 UNL A   1      15.163  22.027   8.419  1.00  0.00    +0.000 C 
ATOM    101  H11 UNL A   1      14.675  22.949   8.655  1.00  0.00    +0.000 H 
ATOM    102  H12 UNL A   1      14.518  21.302   7.967  1.00  0.00    +0.000 H 
BRANCH   17   16
ATOM     99  H9  UNL A   1      15.347  22.029  10.544  1.00  0.00    +0.000 H 
ATOM    100  H10 UNL A   1      15.213  20.424   9.801  1.00  0.00    +0.000 H 
ATOM     16  C10 UNL A   1      15.649  21.399   9.733  1.00  0.00    +0.000 C 
BRANCH   16   15
ATOM     97  H7  UNL A   1      17.614  21.729   8.959  1.00  0.00    +0.000 H 
ATOM     98  H8  UNL A   1      17.535  21.640  10.706  1.00  0.00    +0.000 H 
ATOM     15  C9  UNL A   1      17.169  21.225   9.790  1.00  0.00    +0.000 C 
BRANCH   15   14
ATOM     14  N4  UNL A   1      17.511  19.816   9.736  1.00  0.00    +0.000 N 
ATOM     96  H6  UNL A   1      18.397  19.614  10.114  1.00  0.00    +0.000 H 
BRANCH   14   12
ATOM     12  C8  UNL A   1      16.853  18.709   9.266  1.00  0.00    +0.000 C 
ATOM     13  O2  UNL A   1      16.209  18.040  10.075  1.00  0.00    +0.000 O 
BRANCH   12   11
ATOM      8  C4  UNL A   1      16.829  17.108   5.311  1.00  0.00    +0.000 C 
ATOM      9  C5  UNL A   1      15.870  18.047   5.684  1.00  0.00    +0.000 C 
ATOM     10  C6  UNL A   1      15.925  18.579   6.977  1.00  0.00    +0.000 C 
ATOM     11  C7  UNL A   1      16.965  18.231   7.859  1.00  0.00    +0.000 C 
ATOM     87  C60 UNL A   1      18.015  17.444   7.382  1.00  0.00    +0.000 C 
ATOM     88  C61 UNL A   1      17.921  16.829   6.137  1.00  0.00    +0.000 C 
ATOM    124  H34 UNL A   1      18.865  17.318   7.955  1.00  0.00    +0.000 H 
ATOM    125  H35 UNL A   1      18.653  16.171   5.824  1.00  0.00    +0.000 H 
ATOM     94  H4  UNL A   1      15.136  18.344   5.022  1.00  0.00    +0.000 H 
ATOM     95  H5  UNL A   1      15.193  19.235   7.288  1.00  0.00    +0.000 H 
BRANCH    8    7
ATOM      4  C3  UNL A   1      16.417  15.863   2.021  1.00  0.00    +0.000 C 
ATOM      5  N1  UNL A   1      15.812  14.912   2.811  1.00  0.00    +0.000 N 
ATOM      6  N2  UNL A   1      16.077  15.188   4.081  1.00  0.00    +0.000 N 
ATOM      7  N3  UNL A   1      16.681  16.387   4.115  1.00  0.00    +0.000 N 
ATOM     89  C62 UNL A   1      17.048  16.787   2.841  1.00  0.00    +0.000 C 
BRANCH    4    2
ATOM      2  C2  UNL A   1      16.346  15.787   0.566  1.00  0.00    +0.000 C 
ATOM      3  O1  UNL A   1      16.620  14.748  -0.035  1.00  0.00    +0.000 O 
BRANCH    2    1
ATOM      1  C1  UNL A   1      15.926  17.009  -0.207  1.00  0.00    +0.000 C 
ATOM     91  H1  UNL A   1      14.858  17.059  -0.243  1.00  0.00    +0.000 H 
ATOM     92  H2  UNL A   1      16.313  16.952  -1.203  1.00  0.00    +0.000 H 
ATOM     93  H3  UNL A   1      16.309  17.885   0.275  1.00  0.00    +0.000 H 
ENDBRANCH    2    1
ENDBRANCH    4    2
BRANCH   89   90
ATOM     90  C63 UNL A   1      17.940  17.947   2.601  1.00  0.00    +0.000 C 
ATOM    126  H36 UNL A   1      18.822  17.620   2.091  1.00  0.00    +0.000 H 
ATOM    127  H37 UNL A   1      18.213  18.387   3.538  1.00  0.00    +0.000 H 
ATOM    128  H38 UNL A   1      17.430  18.672   2.001  1.00  0.00    +0.000 H 
ENDBRANCH   89   90
ENDBRANCH    8    7
ENDBRANCH   12   11
ENDBRANCH   14   12
ENDBRANCH   15   14
ENDBRANCH   16   15
ENDBRANCH   17   16
ENDBRANCH   18   17
ENDBRANCH   19   18
ENDBRANCH   20   19
ENDBRANCH   21   20
ENDBRANCH   22   21
ENDBRANCH   24   22
ENDBRANCH   28   27
BRANCH   32   33
ATOM     33  C24 UNL A   1      21.377  12.676   4.301  1.00  0.00    +0.000 C 
ATOM     34  C25 UNL A   1      22.715  12.564   3.872  1.00  0.00    +0.000 C 
ATOM     35  F1  UNL A   1      23.667  13.357   4.389  1.00  0.00    +0.000 F 
ATOM     36  C26 UNL A   1      23.091  11.699   2.842  1.00  0.00    +0.000 C 
ATOM     37  F2  UNL A   1      24.351  11.719   2.384  1.00  0.00    +0.000 F 
ATOM     38  C27 UNL A   1      22.160  10.870   2.246  1.00  0.00    +0.000 C 
ATOM     39  F3  UNL A   1      22.505  10.086   1.218  1.00  0.00    +0.000 F 
ATOM     40  C28 UNL A   1      20.855  10.893   2.691  1.00  0.00    +0.000 C 
ATOM     41  F4  UNL A   1      19.934  10.107   2.117  1.00  0.00    +0.000 F 
ATOM     42  C29 UNL A   1      20.466  11.793   3.681  1.00  0.00    +0.000 C 
ATOM     43  F5  UNL A   1      19.151  11.835   3.924  1.00  0.00    +0.000 F 
ENDBRANCH   32   33
BRANCH   49   50
ATOM     50  C35 UNL A   1      23.189  16.177   9.920  1.00  0.00    +0.000 C 
ATOM     51  C36 UNL A   1      22.612  17.459   9.891  1.00  0.00    +0.000 C 
ATOM     52  F6  UNL A   1      22.199  17.998   8.738  1.00  0.00    +0.000 F 
ATOM     53  C37 UNL A   1      22.394  18.188  11.060  1.00  0.00    +0.000 C 
ATOM     54  F7  UNL A   1      21.847  19.411  10.999  1.00  0.00    +0.000 F 
ATOM     55  C38 UNL A   1      22.706  17.633  12.289  1.00  0.00    +0.000 C 
ATOM     56  F8  UNL A   1      22.458  18.312  13.417  1.00  0.00    +0.000 F 
ATOM     57  C39 UNL A   1      23.250  16.360  12.348  1.00  0.00    +0.000 C 
ATOM     58  F9  UNL A   1      23.507  15.798  13.536  1.00  0.00    +0.000 F 
ATOM     59  C40 UNL A   1      23.500  15.646  11.178  1.00  0.00    +0.000 C 
ATOM     60  F10 UNL A   1      24.000  14.405  11.276  1.00  0.00    +0.000 F 
ENDBRANCH   49   50
BRANCH   64   65
ATOM     65  C44 UNL A   1      28.020  17.971   6.275  1.00  0.00    +0.000 C 
ATOM     66  C45 UNL A   1      29.078  18.063   7.194  1.00  0.00    +0.000 C 
ATOM     67  F11 UNL A   1      28.821  18.136   8.507  1.00  0.00    +0.000 F 
ATOM     68  C46 UNL A   1      30.414  18.012   6.781  1.00  0.00    +0.000 C 
ATOM     69  F12 UNL A   1      31.397  18.048   7.691  1.00  0.00    +0.000 F 
ATOM     70  C47 UNL A   1      30.728  17.868   5.439  1.00  0.00    +0.000 C 
ATOM     71  F13 UNL A   1      32.006  17.756   5.049  1.00  0.00    +0.000 F 
ATOM     72  C48 UNL A   1      29.711  17.797   4.507  1.00  0.00    +0.000 C 
ATOM     73  F14 UNL A   1      29.999  17.616   3.210  1.00  0.00    +0.000 F 
ATOM     74  C49 UNL A   1      28.377  17.847   4.918  1.00  0.00    +0.000 C 
ATOM     75  F15 UNL A   1      27.438  17.678   3.975  1.00  0.00    +0.000 F 
ENDBRANCH   64   65
TORSDOF 19
ENDMDL
