MODEL 1
REMARK VINA RESULT:     -11.5      0.000      0.000
ROOT
ATOM    136  H36 UNL A   1      19.405  15.602   7.809  1.00  0.00    +0.000 H 
ATOM    137  H37 UNL A   1      20.896  16.352   9.884  1.00  0.00    +0.000 H 
ATOM    138  H38 UNL A   1      22.914  13.625   7.729  1.00  0.00    +0.000 H 
ATOM    139  H39 UNL A   1      27.463  20.323   5.852  1.00  0.00    +0.000 H 
ATOM    140  H40 UNL A   1      25.192  21.168   5.063  1.00  0.00    +0.000 H 
ATOM    141  H41 UNL A   1      24.672  17.256   6.367  1.00  0.00    +0.000 H 
ATOM    142  H42 UNL A   1      26.845  14.826   5.939  1.00  0.00    +0.000 H 
ATOM    143  H43 UNL A   1      24.807  13.927   7.232  1.00  0.00    +0.000 H 
ATOM    144  H44 UNL A   1      21.222  15.457   2.878  1.00  0.00    +0.000 H 
ATOM    145  H45 UNL A   1      22.346  17.725   2.440  1.00  0.00    +0.000 H 
ATOM     42  C30 UNL A   1      23.227  19.046   4.815  1.00  0.00    +0.000 C 
ATOM     43  C31 UNL A   1      22.515  17.734   4.702  1.00  0.00    +0.000 C 
ATOM     44  N9  UNL A   1      22.116  16.939   5.647  1.00  0.00    +0.000 N 
ATOM     45  C32 UNL A   1      21.619  15.799   5.013  1.00  0.00    +0.000 C 
ATOM     46  C33 UNL A   1      21.364  14.629   5.661  1.00  0.00    +0.000 C 
ATOM     58  C40 UNL A   1      21.278  14.789   7.083  1.00  0.00    +0.000 C 
ATOM     59  C41 UNL A   1      20.415  15.439   7.941  1.00  0.00    +0.000 C 
ATOM     60  C42 UNL A   1      21.217  15.837   9.050  1.00  0.00    +0.000 C 
ATOM     61  C43 UNL A   1      22.519  15.401   8.796  1.00  0.00    +0.000 C 
ATOM     62  N10 UNL A   1      22.358  14.428   7.844  1.00  0.00    +0.000 N 
ATOM     63  C44 UNL A   1      23.802  15.909   9.216  1.00  0.00    +0.000 C 
ATOM     75  C51 UNL A   1      24.972  15.686   8.550  1.00  0.00    +0.000 C 
ATOM     76  N11 UNL A   1      26.013  16.599   8.618  1.00  0.00    +0.000 N 
ATOM     77  C52 UNL A   1      26.656  16.458   7.491  1.00  0.00    +0.000 C 
ATOM     78  C53 UNL A   1      27.365  17.557   6.794  1.00  0.00    +0.000 C 
ATOM     90  C60 UNL A   1      26.433  18.421   6.329  1.00  0.00    +0.000 C 
ATOM     91  C61 UNL A   1      26.587  19.777   5.846  1.00  0.00    +0.000 C 
ATOM     92  C62 UNL A   1      25.395  20.209   5.387  1.00  0.00    +0.000 C 
ATOM     93  C63 UNL A   1      24.432  19.105   5.419  1.00  0.00    +0.000 C 
ATOM     94  N12 UNL A   1      25.094  18.101   6.089  1.00  0.00    +0.000 N 
ATOM     95  C64 UNL A   1      26.370  15.236   6.758  1.00  0.00    +0.000 C 
ATOM     96  C65 UNL A   1      25.317  14.797   7.450  1.00  0.00    +0.000 C 
ATOM     97  C66 UNL A   1      21.614  16.084   3.599  1.00  0.00    +0.000 C 
ATOM     98  C67 UNL A   1      22.182  17.263   3.348  1.00  0.00    +0.000 C 
ENDROOT
BRANCH   42   41
ATOM     99  C68 UNL A   1      23.376  20.836   3.083  1.00  0.00    +0.000 C 
ATOM    100  C69 UNL A   1      22.845  21.976   2.486  1.00  0.00    +0.000 C 
ATOM     38  C26 UNL A   1      21.583  22.471   2.861  1.00  0.00    +0.000 C 
ATOM     39  C27 UNL A   1      20.840  21.752   3.797  1.00  0.00    +0.000 C 
ATOM    134  H34 UNL A   1      19.880  22.053   4.029  1.00  0.00    +0.000 H 
ATOM     40  C28 UNL A   1      21.380  20.628   4.424  1.00  0.00    +0.000 C 
ATOM    135  H35 UNL A   1      20.829  20.119   5.133  1.00  0.00    +0.000 H 
ATOM     41  C29 UNL A   1      22.665  20.192   4.095  1.00  0.00    +0.000 C 
ATOM    146  H46 UNL A   1      24.290  20.470   2.778  1.00  0.00    +0.000 H 
ATOM    147  H47 UNL A   1      23.386  22.466   1.756  1.00  0.00    +0.000 H 
BRANCH   38   36
ATOM     36  C25 UNL A   1      21.172  23.745   2.204  1.00  0.00    +0.000 C 
ATOM     37  O3  UNL A   1      20.227  24.368   2.670  1.00  0.00    +0.000 O 
BRANCH   36   35
ATOM     35  N8  UNL A   1      21.744  24.258   1.071  1.00  0.00    +0.000 N 
ATOM    133  H33 UNL A   1      22.270  23.586   0.580  1.00  0.00    +0.000 H 
BRANCH   35   34
ATOM     34  C24 UNL A   1      21.761  25.550   0.421  1.00  0.00    +0.000 C 
ATOM    131  H31 UNL A   1      22.167  25.423  -0.561  1.00  0.00    +0.000 H 
ATOM    132  H32 UNL A   1      20.750  25.898   0.420  1.00  0.00    +0.000 H 
BRANCH   34   33
ATOM     33  C23 UNL A   1      22.581  26.623   1.137  1.00  0.00    +0.000 C 
ATOM    130  H30 UNL A   1      23.146  27.116   0.374  1.00  0.00    +0.000 H 
ATOM    129  H29 UNL A   1      23.183  26.138   1.877  1.00  0.00    +0.000 H 
BRANCH   33   32
ATOM    128  H28 UNL A   1      21.581  27.351   2.820  1.00  0.00    +0.000 H 
ATOM    127  H27 UNL A   1      20.895  27.903   1.247  1.00  0.00    +0.000 H 
ATOM     32  C22 UNL A   1      21.772  27.723   1.834  1.00  0.00    +0.000 C 
BRANCH   32   31
ATOM    125  H25 UNL A   1      22.062  29.528   2.918  1.00  0.00    +0.000 H 
ATOM    126  H26 UNL A   1      23.519  28.847   2.126  1.00  0.00    +0.000 H 
ATOM     31  C21 UNL A   1      22.477  29.071   2.043  1.00  0.00    +0.000 C 
BRANCH   31   30
ATOM    123  H23 UNL A   1      21.384  29.949   0.444  1.00  0.00    +0.000 H 
ATOM    124  H24 UNL A   1      22.501  31.041   1.304  1.00  0.00    +0.000 H 
ATOM     30  C20 UNL A   1      22.352  30.069   0.886  1.00  0.00    +0.000 C 
BRANCH   30   29
ATOM    121  H21 UNL A   1      23.574  30.850  -0.675  1.00  0.00    +0.000 H 
ATOM    122  H22 UNL A   1      24.294  29.521   0.243  1.00  0.00    +0.000 H 
ATOM     29  C19 UNL A   1      23.403  29.900  -0.213  1.00  0.00    +0.000 C 
BRANCH   29   28
ATOM     28  N7  UNL A   1      22.990  28.955  -1.230  1.00  0.00    +0.000 N 
ATOM    120  H20 UNL A   1      23.690  28.297  -1.443  1.00  0.00    +0.000 H 
BRANCH   28   26
ATOM     26  C18 UNL A   1      21.864  28.769  -1.956  1.00  0.00    +0.000 C 
ATOM     27  O2  UNL A   1      21.907  27.800  -2.734  1.00  0.00    +0.000 O 
BRANCH   26    2
ATOM      2  C1  UNL A   1      20.537  29.569  -1.872  1.00  0.00    +0.000 C 
ATOM    104  H4  UNL A   1      20.519  29.819  -0.832  1.00  0.00    +0.000 H 
BRANCH    2    1
ATOM      1  N1  UNL A   1      20.612  30.779  -2.713  1.00  0.00    +0.000 N 
ATOM    101  H1  UNL A   1      20.802  30.511  -3.679  1.00  0.00    +0.000 H 
ATOM    102  H2  UNL A   1      21.360  31.384  -2.374  1.00  0.00    +0.000 H 
ATOM    103  H3  UNL A   1      19.725  31.280  -2.668  1.00  0.00    +0.000 H 
ENDBRANCH    2    1
BRANCH    2    3
ATOM    105  H5  UNL A   1      19.323  28.012  -1.186  1.00  0.00    +0.000 H 
ATOM    106  H6  UNL A   1      18.887  28.848  -2.795  1.00  0.00    +0.000 H 
ATOM      3  C2  UNL A   1      19.167  28.900  -1.763  1.00  0.00    +0.000 C 
BRANCH    3    4
ATOM      4  C3  UNL A   1      17.945  29.557  -1.174  1.00  0.00    +0.000 C 
ATOM      5  C4  UNL A   1      16.697  29.371  -1.753  1.00  0.00    +0.000 C 
ATOM      6  N2  UNL A   1      15.798  30.229  -1.178  1.00  0.00    +0.000 N 
ATOM    107  H7  UNL A   1      16.481  28.693  -2.501  1.00  0.00    +0.000 H 
ATOM     20  C12 UNL A   1      16.399  30.885  -0.122  1.00  0.00    +0.000 C 
ATOM     21  C13 UNL A   1      15.865  31.825   0.781  1.00  0.00    +0.000 C 
ATOM    116  H16 UNL A   1      14.888  32.146   0.693  1.00  0.00    +0.000 H 
ATOM     23  C15 UNL A   1      17.996  31.875   1.911  1.00  0.00    +0.000 C 
ATOM     24  C16 UNL A   1      18.519  30.947   1.001  1.00  0.00    +0.000 C 
ATOM     25  C17 UNL A   1      17.726  30.430  -0.049  1.00  0.00    +0.000 C 
ATOM    119  H19 UNL A   1      19.498  30.636   1.098  1.00  0.00    +0.000 H 
ATOM    118  H18 UNL A   1      18.592  32.237   2.672  1.00  0.00    +0.000 H 
ATOM     22  C14 UNL A   1      16.686  32.311   1.797  1.00  0.00    +0.000 C 
ATOM    117  H17 UNL A   1      16.315  33.001   2.469  1.00  0.00    +0.000 H 
BRANCH    6    7
ATOM      7  C5  UNL A   1      14.494  30.461  -1.674  1.00  0.00    +0.000 C 
ATOM      8  N3  UNL A   1      14.390  30.808  -2.952  1.00  0.00    +0.000 N 
ATOM      9  C6  UNL A   1      13.130  30.865  -3.351  1.00  0.00    +0.000 C 
ATOM     10 Cl1  UNL A   1      12.887  31.261  -4.995  1.00  0.00    +0.000 Cl
ATOM     11  N4  UNL A   1      12.038  30.692  -2.622  1.00  0.00    +0.000 N 
ATOM     12  C7  UNL A   1      12.263  30.471  -1.335  1.00  0.00    +0.000 C 
ATOM     19  N6  UNL A   1      13.476  30.279  -0.828  1.00  0.00    +0.000 N 
BRANCH   12   13
ATOM    108  H8  UNL A   1       9.112  30.587  -0.612  1.00  0.00    +0.000 H 
ATOM    109  H9  UNL A   1       9.962  30.995  -2.105  1.00  0.00    +0.000 H 
ATOM     13  N5  UNL A   1      11.183  30.597  -0.489  1.00  0.00    +0.000 N 
ATOM     14  C8  UNL A   1       9.932  31.122  -1.043  1.00  0.00    +0.000 C 
ATOM     15  C9  UNL A   1       9.756  32.614  -0.749  1.00  0.00    +0.000 C 
ATOM     17  C10 UNL A   1      11.212  32.504   1.099  1.00  0.00    +0.000 C 
ATOM     18  C11 UNL A   1      11.480  31.002   0.888  1.00  0.00    +0.000 C 
ATOM    114  H14 UNL A   1      12.510  30.800   1.097  1.00  0.00    +0.000 H 
ATOM    115  H15 UNL A   1      10.845  30.449   1.548  1.00  0.00    +0.000 H 
ATOM    110  H10 UNL A   1       8.781  32.921  -1.067  1.00  0.00    +0.000 H 
ATOM    111  H11 UNL A   1      10.511  33.157  -1.279  1.00  0.00    +0.000 H 
ATOM     16  O1  UNL A   1       9.899  32.883   0.654  1.00  0.00    +0.000 O 
ATOM    112  H12 UNL A   1      11.301  32.728   2.141  1.00  0.00    +0.000 H 
ATOM    113  H13 UNL A   1      11.927  33.052   0.523  1.00  0.00    +0.000 H 
ENDBRANCH   12   13
ENDBRANCH    6    7
ENDBRANCH    3    4
ENDBRANCH    2    3
ENDBRANCH   26    2
ENDBRANCH   28   26
ENDBRANCH   29   28
ENDBRANCH   30   29
ENDBRANCH   31   30
ENDBRANCH   32   31
ENDBRANCH   33   32
ENDBRANCH   34   33
ENDBRANCH   35   34
ENDBRANCH   36   35
ENDBRANCH   38   36
ENDBRANCH   42   41
BRANCH   46   47
ATOM     47  C34 UNL A   1      21.415  13.271   5.018  1.00  0.00    +0.000 C 
ATOM     48  C35 UNL A   1      22.650  12.683   4.678  1.00  0.00    +0.000 C 
ATOM     49  F1  UNL A   1      23.802  13.235   5.085  1.00  0.00    +0.000 F 
ATOM     50  C36 UNL A   1      22.726  11.552   3.860  1.00  0.00    +0.000 C 
ATOM     51  F2  UNL A   1      23.923  11.074   3.494  1.00  0.00    +0.000 F 
ATOM     52  C37 UNL A   1      21.574  10.951   3.383  1.00  0.00    +0.000 C 
ATOM     53  F3  UNL A   1      21.647   9.889   2.572  1.00  0.00    +0.000 F 
ATOM     54  C38 UNL A   1      20.345  11.486   3.715  1.00  0.00    +0.000 C 
ATOM     55  F4  UNL A   1      19.220  10.931   3.241  1.00  0.00    +0.000 F 
ATOM     56  C39 UNL A   1      20.268  12.641   4.493  1.00  0.00    +0.000 C 
ATOM     57  F5  UNL A   1      19.049  13.178   4.642  1.00  0.00    +0.000 F 
ENDBRANCH   46   47
BRANCH   63   64
ATOM     65  C46 UNL A   1      23.813  18.361   9.938  1.00  0.00    +0.000 C 
ATOM     66  F6  UNL A   1      23.887  18.767   8.662  1.00  0.00    +0.000 F 
ATOM     67  C47 UNL A   1      23.699  19.333  10.929  1.00  0.00    +0.000 C 
ATOM     68  F7  UNL A   1      23.738  20.634  10.604  1.00  0.00    +0.000 F 
ATOM     69  C48 UNL A   1      23.510  18.958  12.250  1.00  0.00    +0.000 C 
ATOM     70  F8  UNL A   1      23.356  19.892  13.200  1.00  0.00    +0.000 F 
ATOM     71  C49 UNL A   1      23.450  17.614  12.583  1.00  0.00    +0.000 C 
ATOM     72  F9  UNL A   1      23.216  17.249  13.851  1.00  0.00    +0.000 F 
ATOM     73  C50 UNL A   1      23.603  16.641  11.598  1.00  0.00    +0.000 C 
ATOM     74  F10 UNL A   1      23.511  15.348  11.949  1.00  0.00    +0.000 F 
ATOM     64  C45 UNL A   1      23.792  16.992  10.255  1.00  0.00    +0.000 C 
ENDBRANCH   63   64
BRANCH   78   79
ATOM     79  C54 UNL A   1      28.790  17.469   6.405  1.00  0.00    +0.000 C 
ATOM     80  C55 UNL A   1      29.162  17.202   5.079  1.00  0.00    +0.000 C 
ATOM     81  F11 UNL A   1      28.239  16.826   4.182  1.00  0.00    +0.000 F 
ATOM     82  C56 UNL A   1      30.478  17.383   4.638  1.00  0.00    +0.000 C 
ATOM     83  F12 UNL A   1      30.783  17.177   3.351  1.00  0.00    +0.000 F 
ATOM     84  C57 UNL A   1      31.456  17.825   5.514  1.00  0.00    +0.000 C 
ATOM     85  F13 UNL A   1      32.703  18.051   5.078  1.00  0.00    +0.000 F 
ATOM     86  C58 UNL A   1      31.127  18.073   6.832  1.00  0.00    +0.000 C 
ATOM     87  F14 UNL A   1      32.057  18.533   7.682  1.00  0.00    +0.000 F 
ATOM     88  C59 UNL A   1      29.814  17.905   7.270  1.00  0.00    +0.000 C 
ATOM     89  F15 UNL A   1      29.545  18.266   8.533  1.00  0.00    +0.000 F 
ENDBRANCH   78   79
TORSDOF 20
ENDMDL
MODEL 2
REMARK VINA RESULT:     -11.5     42.263     47.668
ROOT
ATOM    136  H36 UNL A   1      19.149  37.360  44.225  1.00  0.00    +0.000 H 
ATOM    137  H37 UNL A   1      18.202  38.570  46.400  1.00  0.00    +0.000 H 
ATOM    138  H38 UNL A   1      18.899  34.701  47.241  1.00  0.00    +0.000 H 
ATOM    139  H39 UNL A   1      25.060  38.080  51.681  1.00  0.00    +0.000 H 
ATOM    140  H40 UNL A   1      25.665  39.033  49.397  1.00  0.00    +0.000 H 
ATOM    141  H41 UNL A   1      22.364  36.564  48.871  1.00  0.00    +0.000 H 
ATOM    142  H42 UNL A   1      21.858  33.735  50.467  1.00  0.00    +0.000 H 
ATOM    143  H43 UNL A   1      19.878  34.183  48.883  1.00  0.00    +0.000 H 
ATOM    144  H44 UNL A   1      23.457  34.349  44.267  1.00  0.00    +0.000 H 
ATOM    145  H45 UNL A   1      25.293  35.704  45.447  1.00  0.00    +0.000 H 
ATOM     42  C30 UNL A   1      24.282  37.702  47.221  1.00  0.00    +0.000 C 
ATOM     43  C31 UNL A   1      23.503  36.758  46.358  1.00  0.00    +0.000 C 
ATOM     44  N9  UNL A   1      22.218  36.667  46.203  1.00  0.00    +0.000 N 
ATOM     45  C32 UNL A   1      22.002  35.553  45.390  1.00  0.00    +0.000 C 
ATOM     46  C33 UNL A   1      20.783  34.968  45.225  1.00  0.00    +0.000 C 
ATOM     58  C40 UNL A   1      19.701  35.812  45.636  1.00  0.00    +0.000 C 
ATOM     59  C41 UNL A   1      19.173  37.007  45.194  1.00  0.00    +0.000 C 
ATOM     60  C42 UNL A   1      18.667  37.649  46.361  1.00  0.00    +0.000 C 
ATOM     61  C43 UNL A   1      18.918  36.802  47.441  1.00  0.00    +0.000 C 
ATOM     62  N10 UNL A   1      19.123  35.579  46.857  1.00  0.00    +0.000 N 
ATOM     63  C44 UNL A   1      19.134  37.067  48.843  1.00  0.00    +0.000 C 
ATOM     75  C51 UNL A   1      19.806  36.234  49.689  1.00  0.00    +0.000 C 
ATOM     76  N11 UNL A   1      20.475  36.734  50.796  1.00  0.00    +0.000 N 
ATOM     77  C52 UNL A   1      21.450  35.892  51.005  1.00  0.00    +0.000 C 
ATOM     78  C53 UNL A   1      22.768  36.268  51.569  1.00  0.00    +0.000 C 
ATOM     90  C60 UNL A   1      23.412  37.021  50.647  1.00  0.00    +0.000 C 
ATOM     91  C61 UNL A   1      24.577  37.869  50.794  1.00  0.00    +0.000 C 
ATOM     92  C62 UNL A   1      24.924  38.338  49.579  1.00  0.00    +0.000 C 
ATOM     93  C63 UNL A   1      24.087  37.706  48.556  1.00  0.00    +0.000 C 
ATOM     94  N12 UNL A   1      23.142  37.013  49.276  1.00  0.00    +0.000 N 
ATOM     95  C64 UNL A   1      21.315  34.603  50.345  1.00  0.00    +0.000 C 
ATOM     96  C65 UNL A   1      20.286  34.868  49.538  1.00  0.00    +0.000 C 
ATOM     97  C66 UNL A   1      23.300  35.108  44.949  1.00  0.00    +0.000 C 
ATOM     98  C67 UNL A   1      24.270  35.806  45.539  1.00  0.00    +0.000 C 
ENDROOT
BRANCH   42   41
ATOM     99  C68 UNL A   1      26.591  37.866  46.288  1.00  0.00    +0.000 C 
ATOM    100  C69 UNL A   1      27.627  38.642  45.777  1.00  0.00    +0.000 C 
ATOM     38  C26 UNL A   1      27.451  40.015  45.529  1.00  0.00    +0.000 C 
ATOM     39  C27 UNL A   1      26.188  40.571  45.738  1.00  0.00    +0.000 C 
ATOM    134  H34 UNL A   1      26.016  41.557  45.488  1.00  0.00    +0.000 H 
ATOM     40  C28 UNL A   1      25.155  39.805  46.282  1.00  0.00    +0.000 C 
ATOM    135  H35 UNL A   1      24.233  40.235  46.455  1.00  0.00    +0.000 H 
ATOM     41  C29 UNL A   1      25.367  38.462  46.594  1.00  0.00    +0.000 C 
ATOM    146  H46 UNL A   1      26.727  36.855  46.439  1.00  0.00    +0.000 H 
ATOM    147  H47 UNL A   1      28.539  38.203  45.577  1.00  0.00    +0.000 H 
BRANCH   38   36
ATOM     36  C25 UNL A   1      28.665  40.744  45.062  1.00  0.00    +0.000 C 
ATOM     37  O3  UNL A   1      28.932  41.825  45.570  1.00  0.00    +0.000 O 
BRANCH   36   35
ATOM     35  N8  UNL A   1      29.492  40.319  44.057  1.00  0.00    +0.000 N 
ATOM    133  H33 UNL A   1      29.089  40.438  43.166  1.00  0.00    +0.000 H 
BRANCH   35   34
ATOM     34  C24 UNL A   1      30.814  39.737  43.989  1.00  0.00    +0.000 C 
ATOM    131  H31 UNL A   1      31.115  39.714  42.962  1.00  0.00    +0.000 H 
ATOM    132  H32 UNL A   1      31.442  40.349  44.602  1.00  0.00    +0.000 H 
BRANCH   34   33
ATOM     33  C23 UNL A   1      30.926  38.318  44.546  1.00  0.00    +0.000 C 
ATOM    130  H30 UNL A   1      29.921  37.965  44.648  1.00  0.00    +0.000 H 
ATOM    129  H29 UNL A   1      31.464  38.369  45.470  1.00  0.00    +0.000 H 
BRANCH   33   32
ATOM    128  H28 UNL A   1      31.912  36.495  44.289  1.00  0.00    +0.000 H 
ATOM    127  H27 UNL A   1      32.459  37.803  43.177  1.00  0.00    +0.000 H 
ATOM     32  C22 UNL A   1      31.636  37.303  43.643  1.00  0.00    +0.000 C 
BRANCH   32   31
ATOM    125  H25 UNL A   1      29.773  36.646  42.859  1.00  0.00    +0.000 H 
ATOM    126  H26 UNL A   1      30.958  37.253  41.658  1.00  0.00    +0.000 H 
ATOM     31  C21 UNL A   1      30.793  36.659  42.532  1.00  0.00    +0.000 C 
BRANCH   31   30
ATOM    123  H23 UNL A   1      31.102  35.132  41.086  1.00  0.00    +0.000 H 
ATOM    124  H24 UNL A   1      32.181  35.079  42.504  1.00  0.00    +0.000 H 
ATOM     30  C20 UNL A   1      31.184  35.228  42.149  1.00  0.00    +0.000 C 
BRANCH   30   29
ATOM    121  H21 UNL A   1      30.292  33.294  42.143  1.00  0.00    +0.000 H 
ATOM    122  H22 UNL A   1      30.766  33.891  43.738  1.00  0.00    +0.000 H 
ATOM     29  C19 UNL A   1      30.324  34.141  42.795  1.00  0.00    +0.000 C 
BRANCH   29   28
ATOM     28  N7  UNL A   1      28.968  34.587  43.046  1.00  0.00    +0.000 N 
ATOM    120  H20 UNL A   1      28.561  35.022  42.263  1.00  0.00    +0.000 H 
BRANCH   28   26
ATOM     26  C18 UNL A   1      28.135  34.544  44.110  1.00  0.00    +0.000 C 
ATOM     27  O2  UNL A   1      26.926  34.520  43.816  1.00  0.00    +0.000 O 
BRANCH   26    2
ATOM      2  C1  UNL A   1      28.514  34.453  45.612  1.00  0.00    +0.000 C 
ATOM    104  H4  UNL A   1      28.943  33.473  45.651  1.00  0.00    +0.000 H 
BRANCH    2    1
ATOM      1  N1  UNL A   1      29.509  35.488  45.955  1.00  0.00    +0.000 N 
ATOM    101  H1  UNL A   1      30.402  35.043  46.169  1.00  0.00    +0.000 H 
ATOM    102  H2  UNL A   1      29.187  36.012  46.769  1.00  0.00    +0.000 H 
ATOM    103  H3  UNL A   1      29.625  36.123  45.167  1.00  0.00    +0.000 H 
ENDBRANCH    2    1
BRANCH    2    3
ATOM    105  H5  UNL A   1      26.591  34.559  46.423  1.00  0.00    +0.000 H 
ATOM    106  H6  UNL A   1      28.044  34.393  47.579  1.00  0.00    +0.000 H 
ATOM      3  C2  UNL A   1      27.509  34.087  46.704  1.00  0.00    +0.000 C 
BRANCH    3    4
ATOM      4  C3  UNL A   1      27.140  32.675  47.080  1.00  0.00    +0.000 C 
ATOM      5  C4  UNL A   1      27.864  31.993  48.050  1.00  0.00    +0.000 C 
ATOM      6  N2  UNL A   1      27.481  30.678  48.058  1.00  0.00    +0.000 N 
ATOM    107  H7  UNL A   1      28.578  32.412  48.666  1.00  0.00    +0.000 H 
ATOM     20  C12 UNL A   1      26.410  30.504  47.206  1.00  0.00    +0.000 C 
ATOM     21  C13 UNL A   1      25.661  29.347  46.916  1.00  0.00    +0.000 C 
ATOM    116  H16 UNL A   1      25.903  28.440  47.348  1.00  0.00    +0.000 H 
ATOM     23  C15 UNL A   1      24.266  30.672  45.461  1.00  0.00    +0.000 C 
ATOM     24  C16 UNL A   1      25.023  31.815  45.750  1.00  0.00    +0.000 C 
ATOM     25  C17 UNL A   1      26.126  31.755  46.632  1.00  0.00    +0.000 C 
ATOM    119  H19 UNL A   1      24.774  32.715  45.310  1.00  0.00    +0.000 H 
ATOM    118  H18 UNL A   1      23.463  30.739  44.817  1.00  0.00    +0.000 H 
ATOM     22  C14 UNL A   1      24.586  29.452  46.035  1.00  0.00    +0.000 C 
ATOM    117  H17 UNL A   1      24.025  28.616  45.810  1.00  0.00    +0.000 H 
BRANCH    6    7
ATOM      7  C5  UNL A   1      28.163  29.659  48.765  1.00  0.00    +0.000 C 
ATOM      8  N3  UNL A   1      27.748  29.403  50.001  1.00  0.00    +0.000 N 
ATOM      9  C6  UNL A   1      28.353  28.348  50.520  1.00  0.00    +0.000 C 
ATOM     10 Cl1  UNL A   1      27.858  27.907  52.095  1.00  0.00    +0.000 Cl
ATOM     11  N4  UNL A   1      29.321  27.621  49.984  1.00  0.00    +0.000 N 
ATOM     12  C7  UNL A   1      29.738  28.044  48.800  1.00  0.00    +0.000 C 
ATOM     19  N6  UNL A   1      29.141  29.017  48.120  1.00  0.00    +0.000 N 
BRANCH   12   13
ATOM    108  H8  UNL A   1      32.958  27.951  48.499  1.00  0.00    +0.000 H 
ATOM    109  H9  UNL A   1      31.872  29.313  48.788  1.00  0.00    +0.000 H 
ATOM     13  N5  UNL A   1      30.932  27.529  48.345  1.00  0.00    +0.000 N 
ATOM     14  C8  UNL A   1      32.063  28.448  48.188  1.00  0.00    +0.000 C 
ATOM     15  C9  UNL A   1      32.232  28.907  46.737  1.00  0.00    +0.000 C 
ATOM     17  C10 UNL A   1      31.088  27.016  45.922  1.00  0.00    +0.000 C 
ATOM     18  C11 UNL A   1      30.841  26.467  47.339  1.00  0.00    +0.000 C 
ATOM    114  H14 UNL A   1      29.864  26.032  47.378  1.00  0.00    +0.000 H 
ATOM    115  H15 UNL A   1      31.590  25.733  47.552  1.00  0.00    +0.000 H 
ATOM    110  H10 UNL A   1      33.135  29.476  46.653  1.00  0.00    +0.000 H 
ATOM    111  H11 UNL A   1      31.386  29.504  46.467  1.00  0.00    +0.000 H 
ATOM     16  O1  UNL A   1      32.301  27.782  45.847  1.00  0.00    +0.000 O 
ATOM    112  H12 UNL A   1      31.155  26.196  45.239  1.00  0.00    +0.000 H 
ATOM    113  H13 UNL A   1      30.273  27.663  45.671  1.00  0.00    +0.000 H 
ENDBRANCH   12   13
ENDBRANCH    6    7
ENDBRANCH    3    4
ENDBRANCH    2    3
ENDBRANCH   26    2
ENDBRANCH   28   26
ENDBRANCH   29   28
ENDBRANCH   30   29
ENDBRANCH   31   30
ENDBRANCH   32   31
ENDBRANCH   33   32
ENDBRANCH   34   33
ENDBRANCH   35   34
ENDBRANCH   36   35
ENDBRANCH   38   36
ENDBRANCH   42   41
BRANCH   46   47
ATOM     47  C34 UNL A   1      20.576  33.516  44.895  1.00  0.00    +0.000 C 
ATOM     48  C35 UNL A   1      19.667  33.130  43.890  1.00  0.00    +0.000 C 
ATOM     49  F1  UNL A   1      19.109  34.047  43.086  1.00  0.00    +0.000 F 
ATOM     50  C36 UNL A   1      19.266  31.800  43.731  1.00  0.00    +0.000 C 
ATOM     51  F2  UNL A   1      18.337  31.489  42.817  1.00  0.00    +0.000 F 
ATOM     52  C37 UNL A   1      19.782  30.809  44.547  1.00  0.00    +0.000 C 
ATOM     53  F3  UNL A   1      19.372  29.541  44.419  1.00  0.00    +0.000 F 
ATOM     54  C38 UNL A   1      20.694  31.147  45.528  1.00  0.00    +0.000 C 
ATOM     55  F4  UNL A   1      21.184  30.202  46.343  1.00  0.00    +0.000 F 
ATOM     56  C39 UNL A   1      21.061  32.478  45.718  1.00  0.00    +0.000 C 
ATOM     57  F5  UNL A   1      21.830  32.738  46.784  1.00  0.00    +0.000 F 
ENDBRANCH   46   47
BRANCH   63   64
ATOM     65  C46 UNL A   1      17.780  38.830  50.105  1.00  0.00    +0.000 C 
ATOM     66  F6  UNL A   1      16.863  37.918  50.456  1.00  0.00    +0.000 F 
ATOM     67  C47 UNL A   1      17.640  40.125  50.600  1.00  0.00    +0.000 C 
ATOM     68  F7  UNL A   1      16.572  40.448  51.345  1.00  0.00    +0.000 F 
ATOM     69  C48 UNL A   1      18.620  41.072  50.354  1.00  0.00    +0.000 C 
ATOM     70  F8  UNL A   1      18.509  42.307  50.866  1.00  0.00    +0.000 F 
ATOM     71  C49 UNL A   1      19.733  40.732  49.601  1.00  0.00    +0.000 C 
ATOM     72  F9  UNL A   1      20.708  41.631  49.404  1.00  0.00    +0.000 F 
ATOM     73  C50 UNL A   1      19.856  39.449  49.073  1.00  0.00    +0.000 C 
ATOM     74  F10 UNL A   1      20.960  39.144  48.372  1.00  0.00    +0.000 F 
ATOM     64  C45 UNL A   1      18.881  38.472  49.310  1.00  0.00    +0.000 C 
ENDBRANCH   63   64
BRANCH   78   79
ATOM     79  C54 UNL A   1      23.345  35.609  52.762  1.00  0.00    +0.000 C 
ATOM     80  C55 UNL A   1      22.677  35.635  53.995  1.00  0.00    +0.000 C 
ATOM     81  F11 UNL A   1      21.606  36.423  54.166  1.00  0.00    +0.000 F 
ATOM     82  C56 UNL A   1      23.060  34.801  55.051  1.00  0.00    +0.000 C 
ATOM     83  F12 UNL A   1      22.361  34.809  56.194  1.00  0.00    +0.000 F 
ATOM     84  C57 UNL A   1      24.126  33.928  54.904  1.00  0.00    +0.000 C 
ATOM     85  F13 UNL A   1      24.457  33.091  55.897  1.00  0.00    +0.000 F 
ATOM     86  C58 UNL A   1      24.819  33.897  53.710  1.00  0.00    +0.000 C 
ATOM     87  F14 UNL A   1      25.832  33.033  53.544  1.00  0.00    +0.000 F 
ATOM     88  C59 UNL A   1      24.431  34.718  52.653  1.00  0.00    +0.000 C 
ATOM     89  F15 UNL A   1      25.080  34.558  51.491  1.00  0.00    +0.000 F 
ENDBRANCH   78   79
TORSDOF 20
ENDMDL
MODEL 3
REMARK VINA RESULT:     -11.3     10.118     19.669
ROOT
ATOM    136  H36 UNL A   1       6.515  29.891  -5.168  1.00  0.00    +0.000 H 
ATOM    137  H37 UNL A   1       8.827  28.701  -5.739  1.00  0.00    +0.000 H 
ATOM    138  H38 UNL A   1       9.482  32.614  -5.095  1.00  0.00    +0.000 H 
ATOM    139  H39 UNL A   1      13.048  29.596   1.780  1.00  0.00    +0.000 H 
ATOM    140  H40 UNL A   1      10.719  28.609   2.090  1.00  0.00    +0.000 H 
ATOM    141  H41 UNL A   1      10.629  30.932  -1.355  1.00  0.00    +0.000 H 
ATOM    142  H42 UNL A   1      12.227  33.779  -1.746  1.00  0.00    +0.000 H 
ATOM    143  H43 UNL A   1      10.954  33.212  -3.913  1.00  0.00    +0.000 H 
ATOM    144  H44 UNL A   1       5.873  33.071  -1.031  1.00  0.00    +0.000 H 
ATOM    145  H45 UNL A   1       6.801  31.820   1.011  1.00  0.00    +0.000 H 
ATOM     42  C30 UNL A   1       8.741  29.829   0.352  1.00  0.00    +0.000 C 
ATOM     43  C31 UNL A   1       7.982  30.719  -0.582  1.00  0.00    +0.000 C 
ATOM     44  N9  UNL A   1       8.013  30.756  -1.879  1.00  0.00    +0.000 N 
ATOM     45  C32 UNL A   1       7.218  31.839  -2.257  1.00  0.00    +0.000 C 
ATOM     46  C33 UNL A   1       7.220  32.371  -3.511  1.00  0.00    +0.000 C 
ATOM     58  C40 UNL A   1       7.800  31.496  -4.485  1.00  0.00    +0.000 C 
ATOM     59  C41 UNL A   1       7.462  30.270  -5.020  1.00  0.00    +0.000 C 
ATOM     60  C42 UNL A   1       8.703  29.638  -5.325  1.00  0.00    +0.000 C 
ATOM     61  C43 UNL A   1       9.719  30.522  -4.958  1.00  0.00    +0.000 C 
ATOM     62  N10 UNL A   1       9.087  31.736  -4.891  1.00  0.00    +0.000 N 
ATOM     63  C44 UNL A   1      11.079  30.301  -4.531  1.00  0.00    +0.000 C 
ATOM     75  C51 UNL A   1      11.802  31.182  -3.781  1.00  0.00    +0.000 C 
ATOM     76  N11 UNL A   1      12.810  30.737  -2.938  1.00  0.00    +0.000 N 
ATOM     77  C52 UNL A   1      12.859  31.622  -1.980  1.00  0.00    +0.000 C 
ATOM     78  C53 UNL A   1      13.233  31.312  -0.580  1.00  0.00    +0.000 C 
ATOM     90  C60 UNL A   1      12.243  30.562  -0.043  1.00  0.00    +0.000 C 
ATOM     91  C61 UNL A   1      12.236  29.765   1.165  1.00  0.00    +0.000 C 
ATOM     92  C62 UNL A   1      10.993  29.279   1.354  1.00  0.00    +0.000 C 
ATOM     93  C63 UNL A   1      10.090  29.851   0.352  1.00  0.00    +0.000 C 
ATOM     94  N12 UNL A   1      10.925  30.525  -0.509  1.00  0.00    +0.000 N 
ATOM     95  C64 UNL A   1      12.201  32.887  -2.264  1.00  0.00    +0.000 C 
ATOM     96  C65 UNL A   1      11.556  32.562  -3.385  1.00  0.00    +0.000 C 
ATOM     97  C66 UNL A   1       6.585  32.324  -1.056  1.00  0.00    +0.000 C 
ATOM     98  C67 UNL A   1       7.042  31.680   0.018  1.00  0.00    +0.000 C 
ENDROOT
BRANCH   42   41
ATOM     99  C68 UNL A   1       7.425  27.845   1.101  1.00  0.00    +0.000 C 
ATOM    100  C69 UNL A   1       6.631  27.224   2.060  1.00  0.00    +0.000 C 
ATOM     38  C26 UNL A   1       6.403  27.822   3.312  1.00  0.00    +0.000 C 
ATOM     39  C27 UNL A   1       7.052  29.023   3.602  1.00  0.00    +0.000 C 
ATOM    134  H34 UNL A   1       6.963  29.438   4.542  1.00  0.00    +0.000 H 
ATOM     40  C28 UNL A   1       7.823  29.667   2.632  1.00  0.00    +0.000 C 
ATOM    135  H35 UNL A   1       8.277  30.567   2.851  1.00  0.00    +0.000 H 
ATOM     41  C29 UNL A   1       7.978  29.097   1.368  1.00  0.00    +0.000 C 
ATOM    146  H46 UNL A   1       7.605  27.381   0.197  1.00  0.00    +0.000 H 
ATOM    147  H47 UNL A   1       6.202  26.309   1.849  1.00  0.00    +0.000 H 
BRANCH   38   36
ATOM     36  C25 UNL A   1       5.467  27.091   4.213  1.00  0.00    +0.000 C 
ATOM     37  O3  UNL A   1       4.270  27.111   3.957  1.00  0.00    +0.000 O 
BRANCH   36   35
ATOM     35  N8  UNL A   1       5.838  26.429   5.353  1.00  0.00    +0.000 N 
ATOM    133  H33 UNL A   1       5.620  26.936   6.168  1.00  0.00    +0.000 H 
BRANCH   35   34
ATOM     34  C24 UNL A   1       6.474  25.163   5.647  1.00  0.00    +0.000 C 
ATOM    131  H31 UNL A   1       6.486  25.037   6.710  1.00  0.00    +0.000 H 
ATOM    132  H32 UNL A   1       5.903  24.416   5.137  1.00  0.00    +0.000 H 
BRANCH   34   33
ATOM     33  C23 UNL A   1       7.908  25.026   5.137  1.00  0.00    +0.000 C 
ATOM    130  H30 UNL A   1       7.885  25.341   4.115  1.00  0.00    +0.000 H 
ATOM    129  H29 UNL A   1       8.209  24.008   5.272  1.00  0.00    +0.000 H 
BRANCH   33   32
ATOM    128  H28 UNL A   1       9.235  25.387   6.710  1.00  0.00    +0.000 H 
ATOM    127  H27 UNL A   1       8.489  26.870   6.008  1.00  0.00    +0.000 H 
ATOM     32  C22 UNL A   1       8.947  25.920   5.827  1.00  0.00    +0.000 C 
BRANCH   32   31
ATOM    125  H25 UNL A   1      10.864  26.821   5.659  1.00  0.00    +0.000 H 
ATOM    126  H26 UNL A   1      10.688  25.207   4.898  1.00  0.00    +0.000 H 
ATOM     31  C21 UNL A   1      10.255  26.171   5.064  1.00  0.00    +0.000 C 
BRANCH   31   30
ATOM    123  H23 UNL A   1       9.122  27.235   3.613  1.00  0.00    +0.000 H 
ATOM    124  H24 UNL A   1      10.880  27.534   3.587  1.00  0.00    +0.000 H 
ATOM     30  C20 UNL A   1      10.101  26.807   3.677  1.00  0.00    +0.000 C 
BRANCH   30   29
ATOM    121  H21 UNL A   1       9.568  25.038   2.618  1.00  0.00    +0.000 H 
ATOM    122  H22 UNL A   1      10.115  26.378   1.603  1.00  0.00    +0.000 H 
ATOM     29  C19 UNL A   1      10.275  25.833   2.510  1.00  0.00    +0.000 C 
BRANCH   29   28
ATOM     28  N7  UNL A   1      11.608  25.268   2.457  1.00  0.00    +0.000 N 
ATOM    120  H20 UNL A   1      12.309  25.931   2.654  1.00  0.00    +0.000 H 
BRANCH   28   26
ATOM     26  C18 UNL A   1      12.111  24.041   2.199  1.00  0.00    +0.000 C 
ATOM     27  O2  UNL A   1      12.692  23.509   3.162  1.00  0.00    +0.000 O 
BRANCH   26    2
ATOM      2  C1  UNL A   1      11.984  23.217   0.890  1.00  0.00    +0.000 C 
ATOM    104  H4  UNL A   1      12.853  22.597   0.958  1.00  0.00    +0.000 H 
BRANCH    2    1
ATOM      1  N1  UNL A   1      10.748  22.411   0.908  1.00  0.00    +0.000 N 
ATOM    101  H1  UNL A   1      10.277  22.530   1.805  1.00  0.00    +0.000 H 
ATOM    102  H2  UNL A   1      10.982  21.426   0.776  1.00  0.00    +0.000 H 
ATOM    103  H3  UNL A   1      10.131  22.716   0.156  1.00  0.00    +0.000 H 
ENDBRANCH    2    1
BRANCH    2    3
ATOM    105  H5  UNL A   1      12.362  24.810  -0.409  1.00  0.00    +0.000 H 
ATOM    106  H6  UNL A   1      11.792  23.185  -1.124  1.00  0.00    +0.000 H 
ATOM      3  C2  UNL A   1      12.432  23.744  -0.473  1.00  0.00    +0.000 C 
BRANCH    3    4
ATOM      4  C3  UNL A   1      13.777  23.462  -1.092  1.00  0.00    +0.000 C 
ATOM      5  C4  UNL A   1      14.907  24.146  -0.663  1.00  0.00    +0.000 C 
ATOM      6  N2  UNL A   1      15.948  23.877  -1.513  1.00  0.00    +0.000 N 
ATOM    107  H7  UNL A   1      14.954  24.759   0.165  1.00  0.00    +0.000 H 
ATOM     20  C12 UNL A   1      15.564  22.911  -2.420  1.00  0.00    +0.000 C 
ATOM     21  C13 UNL A   1      16.300  22.295  -3.451  1.00  0.00    +0.000 C 
ATOM    116  H16 UNL A   1      17.276  22.570  -3.641  1.00  0.00    +0.000 H 
ATOM     23  C15 UNL A   1      14.369  20.937  -3.950  1.00  0.00    +0.000 C 
ATOM     24  C16 UNL A   1      13.644  21.563  -2.927  1.00  0.00    +0.000 C 
ATOM     25  C17 UNL A   1      14.229  22.577  -2.136  1.00  0.00    +0.000 C 
ATOM    119  H19 UNL A   1      12.667  21.281  -2.750  1.00  0.00    +0.000 H 
ATOM    118  H18 UNL A   1      13.923  20.196  -4.513  1.00  0.00    +0.000 H 
ATOM     22  C14 UNL A   1      15.679  21.303  -4.210  1.00  0.00    +0.000 C 
ATOM    117  H17 UNL A   1      16.200  20.840  -4.971  1.00  0.00    +0.000 H 
BRANCH    6    7
ATOM      7  C5  UNL A   1      17.180  24.573  -1.500  1.00  0.00    +0.000 C 
ATOM      8  N3  UNL A   1      17.323  25.557  -2.382  1.00  0.00    +0.000 N 
ATOM      9  C6  UNL A   1      18.448  26.229  -2.197  1.00  0.00    +0.000 C 
ATOM     10 Cl1  UNL A   1      18.708  27.547  -3.253  1.00  0.00    +0.000 Cl
ATOM     11  N4  UNL A   1      19.409  25.979  -1.322  1.00  0.00    +0.000 N 
ATOM     12  C7  UNL A   1      19.213  24.901  -0.578  1.00  0.00    +0.000 C 
ATOM     19  N6  UNL A   1      18.080  24.206  -0.585  1.00  0.00    +0.000 N 
BRANCH   12   13
ATOM    108  H8  UNL A   1      21.786  22.991  -0.134  1.00  0.00    +0.000 H 
ATOM    109  H9  UNL A   1      20.312  22.730  -1.070  1.00  0.00    +0.000 H 
ATOM     13  N5  UNL A   1      20.303  24.421   0.114  1.00  0.00    +0.000 N 
ATOM     14  C8  UNL A   1      20.717  23.036  -0.129  1.00  0.00    +0.000 C 
ATOM     15  C9  UNL A   1      20.188  22.082   0.946  1.00  0.00    +0.000 C 
ATOM     17  C10 UNL A   1      19.953  23.835   2.500  1.00  0.00    +0.000 C 
ATOM     18  C11 UNL A   1      20.453  24.889   1.495  1.00  0.00    +0.000 C 
ATOM    114  H14 UNL A   1      19.886  25.788   1.622  1.00  0.00    +0.000 H 
ATOM    115  H15 UNL A   1      21.491  25.067   1.681  1.00  0.00    +0.000 H 
ATOM    110  H10 UNL A   1      20.613  21.111   0.793  1.00  0.00    +0.000 H 
ATOM    111  H11 UNL A   1      19.122  22.040   0.869  1.00  0.00    +0.000 H 
ATOM     16  O1  UNL A   1      20.535  22.544   2.260  1.00  0.00    +0.000 O 
ATOM    112  H12 UNL A   1      20.209  24.152   3.490  1.00  0.00    +0.000 H 
ATOM    113  H13 UNL A   1      18.893  23.746   2.386  1.00  0.00    +0.000 H 
ENDBRANCH   12   13
ENDBRANCH    6    7
ENDBRANCH    3    4
ENDBRANCH    2    3
ENDBRANCH   26    2
ENDBRANCH   28   26
ENDBRANCH   29   28
ENDBRANCH   30   29
ENDBRANCH   31   30
ENDBRANCH   32   31
ENDBRANCH   33   32
ENDBRANCH   34   33
ENDBRANCH   35   34
ENDBRANCH   36   35
ENDBRANCH   38   36
ENDBRANCH   42   41
BRANCH   46   47
ATOM     47  C34 UNL A   1       6.895  33.805  -3.826  1.00  0.00    +0.000 C 
ATOM     48  C35 UNL A   1       5.745  34.135  -4.569  1.00  0.00    +0.000 C 
ATOM     49  F1  UNL A   1       4.825  33.201  -4.853  1.00  0.00    +0.000 F 
ATOM     50  C36 UNL A   1       5.549  35.417  -5.091  1.00  0.00    +0.000 C 
ATOM     51  F2  UNL A   1       4.482  35.667  -5.863  1.00  0.00    +0.000 F 
ATOM     52  C37 UNL A   1       6.475  36.419  -4.859  1.00  0.00    +0.000 C 
ATOM     53  F3  UNL A   1       6.305  37.638  -5.387  1.00  0.00    +0.000 F 
ATOM     54  C38 UNL A   1       7.603  36.138  -4.113  1.00  0.00    +0.000 C 
ATOM     55  F4  UNL A   1       8.522  37.091  -3.901  1.00  0.00    +0.000 F 
ATOM     56  C39 UNL A   1       7.824  34.849  -3.631  1.00  0.00    +0.000 C 
ATOM     57  F5  UNL A   1       9.010  34.626  -3.050  1.00  0.00    +0.000 F 
ENDBRANCH   46   47
BRANCH   63   64
ATOM     65  C46 UNL A   1      11.317  27.888  -3.723  1.00  0.00    +0.000 C 
ATOM     66  F6  UNL A   1      10.576  28.147  -2.636  1.00  0.00    +0.000 F 
ATOM     67  C47 UNL A   1      11.742  26.577  -3.930  1.00  0.00    +0.000 C 
ATOM     68  F7  UNL A   1      11.469  25.630  -3.019  1.00  0.00    +0.000 F 
ATOM     69  C48 UNL A   1      12.416  26.241  -5.092  1.00  0.00    +0.000 C 
ATOM     70  F8  UNL A   1      12.787  24.971  -5.313  1.00  0.00    +0.000 F 
ATOM     71  C49 UNL A   1      12.680  27.216  -6.042  1.00  0.00    +0.000 C 
ATOM     72  F9  UNL A   1      13.287  26.884  -7.190  1.00  0.00    +0.000 F 
ATOM     73  C50 UNL A   1      12.291  28.534  -5.819  1.00  0.00    +0.000 C 
ATOM     74  F10 UNL A   1      12.536  29.448  -6.771  1.00  0.00    +0.000 F 
ATOM     64  C45 UNL A   1      11.605  28.900  -4.654  1.00  0.00    +0.000 C 
ENDBRANCH   63   64
BRANCH   78   79
ATOM     79  C54 UNL A   1      14.317  32.024   0.134  1.00  0.00    +0.000 C 
ATOM     80  C55 UNL A   1      14.037  33.118   0.966  1.00  0.00    +0.000 C 
ATOM     81  F11 UNL A   1      12.813  33.663   0.975  1.00  0.00    +0.000 F 
ATOM     82  C56 UNL A   1      14.994  33.626   1.851  1.00  0.00    +0.000 C 
ATOM     83  F12 UNL A   1      14.672  34.632   2.675  1.00  0.00    +0.000 F 
ATOM     84  C57 UNL A   1      16.256  33.061   1.920  1.00  0.00    +0.000 C 
ATOM     85  F13 UNL A   1      17.153  33.512   2.807  1.00  0.00    +0.000 F 
ATOM     86  C58 UNL A   1      16.571  31.998   1.096  1.00  0.00    +0.000 C 
ATOM     87  F14 UNL A   1      17.779  31.420   1.176  1.00  0.00    +0.000 F 
ATOM     88  C59 UNL A   1      15.616  31.482   0.222  1.00  0.00    +0.000 C 
ATOM     89  F15 UNL A   1      15.955  30.385  -0.470  1.00  0.00    +0.000 F 
ENDBRANCH   78   79
TORSDOF 20
ENDMDL
MODEL 4
REMARK VINA RESULT:     -11.3      6.301     11.417
ROOT
ATOM    136  H36 UNL A   1      24.979  20.556   9.550  1.00  0.00    +0.000 H 
ATOM    137  H37 UNL A   1      26.771  19.590   7.834  1.00  0.00    +0.000 H 
ATOM    138  H38 UNL A   1      25.371  16.586  10.108  1.00  0.00    +0.000 H 
ATOM    139  H39 UNL A   1      21.770  14.497   2.914  1.00  0.00    +0.000 H 
ATOM    140  H40 UNL A   1      20.817  16.848   3.152  1.00  0.00    +0.000 H 
ATOM    141  H41 UNL A   1      23.095  16.087   6.544  1.00  0.00    +0.000 H 
ATOM    142  H42 UNL A   1      23.284  13.182   8.069  1.00  0.00    +0.000 H 
ATOM    143  H43 UNL A   1      24.790  14.881   9.286  1.00  0.00    +0.000 H 
ATOM    144  H44 UNL A   1      20.232  18.408  10.248  1.00  0.00    +0.000 H 
ATOM    145  H45 UNL A   1      19.209  18.106   7.912  1.00  0.00    +0.000 H 
ATOM     42  C30 UNL A   1      21.150  17.931   5.823  1.00  0.00    +0.000 C 
ATOM     43  C31 UNL A   1      21.389  18.135   7.287  1.00  0.00    +0.000 C 
ATOM     44  N9  UNL A   1      22.512  18.309   7.914  1.00  0.00    +0.000 N 
ATOM     45  C32 UNL A   1      22.201  18.328   9.274  1.00  0.00    +0.000 C 
ATOM     46  C33 UNL A   1      23.133  18.215  10.261  1.00  0.00    +0.000 C 
ATOM     58  C40 UNL A   1      24.465  18.466   9.797  1.00  0.00    +0.000 C 
ATOM     59  C41 UNL A   1      25.137  19.566   9.306  1.00  0.00    +0.000 C 
ATOM     60  C42 UNL A   1      26.095  19.044   8.389  1.00  0.00    +0.000 C 
ATOM     61  C43 UNL A   1      25.947  17.656   8.383  1.00  0.00    +0.000 C 
ATOM     62  N10 UNL A   1      25.281  17.393   9.552  1.00  0.00    +0.000 N 
ATOM     63  C44 UNL A   1      26.205  16.665   7.367  1.00  0.00    +0.000 C 
ATOM     75  C51 UNL A   1      25.606  15.441   7.316  1.00  0.00    +0.000 C 
ATOM     76  N11 UNL A   1      25.423  14.789   6.106  1.00  0.00    +0.000 N 
ATOM     77  C52 UNL A   1      24.363  14.048   6.283  1.00  0.00    +0.000 C 
ATOM     78  C53 UNL A   1      23.397  13.709   5.212  1.00  0.00    +0.000 C 
ATOM     90  C60 UNL A   1      22.736  14.841   4.877  1.00  0.00    +0.000 C 
ATOM     91  C61 UNL A   1      21.916  15.127   3.718  1.00  0.00    +0.000 C 
ATOM     92  C62 UNL A   1      21.376  16.353   3.865  1.00  0.00    +0.000 C 
ATOM     93  C63 UNL A   1      21.704  16.874   5.194  1.00  0.00    +0.000 C 
ATOM     94  N12 UNL A   1      22.602  15.963   5.700  1.00  0.00    +0.000 N 
ATOM     95  C64 UNL A   1      23.975  13.834   7.667  1.00  0.00    +0.000 C 
ATOM     96  C65 UNL A   1      24.769  14.722   8.267  1.00  0.00    +0.000 C 
ATOM     97  C66 UNL A   1      20.762  18.317   9.367  1.00  0.00    +0.000 C 
ATOM     98  C67 UNL A   1      20.207  18.173   8.163  1.00  0.00    +0.000 C 
ENDROOT
BRANCH   42   41
ATOM     99  C68 UNL A   1      18.817  18.442   5.099  1.00  0.00    +0.000 C 
ATOM    100  C69 UNL A   1      17.930  19.244   4.388  1.00  0.00    +0.000 C 
ATOM     38  C26 UNL A   1      18.361  20.428   3.764  1.00  0.00    +0.000 C 
ATOM     39  C27 UNL A   1      19.689  20.822   3.934  1.00  0.00    +0.000 C 
ATOM    134  H34 UNL A   1      20.007  21.726   3.552  1.00  0.00    +0.000 H 
ATOM     40  C28 UNL A   1      20.592  20.005   4.617  1.00  0.00    +0.000 C 
ATOM    135  H35 UNL A   1      21.577  20.296   4.714  1.00  0.00    +0.000 H 
ATOM     41  C29 UNL A   1      20.165  18.795   5.167  1.00  0.00    +0.000 C 
ATOM    146  H46 UNL A   1      18.481  17.591   5.574  1.00  0.00    +0.000 H 
ATOM    147  H47 UNL A   1      16.939  18.965   4.318  1.00  0.00    +0.000 H 
BRANCH   38   36
ATOM     36  C25 UNL A   1      17.328  21.147   2.966  1.00  0.00    +0.000 C 
ATOM     37  O3  UNL A   1      16.918  20.632   1.934  1.00  0.00    +0.000 O 
BRANCH   36   35
ATOM     35  N8  UNL A   1      16.827  22.385   3.273  1.00  0.00    +0.000 N 
ATOM    133  H33 UNL A   1      16.983  23.040   2.554  1.00  0.00    +0.000 H 
BRANCH   35   34
ATOM     34  C24 UNL A   1      16.125  22.961   4.398  1.00  0.00    +0.000 C 
ATOM    131  H31 UNL A   1      15.718  23.902   4.091  1.00  0.00    +0.000 H 
ATOM    132  H32 UNL A   1      15.379  22.248   4.681  1.00  0.00    +0.000 H 
BRANCH   34   33
ATOM     33  C23 UNL A   1      16.981  23.199   5.642  1.00  0.00    +0.000 C 
ATOM    130  H30 UNL A   1      16.869  24.236   5.879  1.00  0.00    +0.000 H 
ATOM    129  H29 UNL A   1      17.986  22.913   5.409  1.00  0.00    +0.000 H 
BRANCH   33   32
ATOM    128  H28 UNL A   1      17.209  22.775   7.674  1.00  0.00    +0.000 H 
ATOM    127  H27 UNL A   1      16.624  21.388   6.684  1.00  0.00    +0.000 H 
ATOM     32  C22 UNL A   1      16.553  22.433   6.900  1.00  0.00    +0.000 C 
BRANCH   32   31
ATOM    125  H25 UNL A   1      14.931  23.748   7.294  1.00  0.00    +0.000 H 
ATOM    126  H26 UNL A   1      14.488  22.065   6.863  1.00  0.00    +0.000 H 
ATOM     31  C21 UNL A   1      15.136  22.705   7.424  1.00  0.00    +0.000 C 
BRANCH   31   30
ATOM    123  H23 UNL A   1      14.571  23.243   9.402  1.00  0.00    +0.000 H 
ATOM    124  H24 UNL A   1      14.168  21.577   8.913  1.00  0.00    +0.000 H 
ATOM     30  C20 UNL A   1      14.898  22.357   8.898  1.00  0.00    +0.000 C 
BRANCH   30   29
ATOM    121  H21 UNL A   1      16.917  21.680   8.919  1.00  0.00    +0.000 H 
ATOM    122  H22 UNL A   1      16.401  22.532  10.380  1.00  0.00    +0.000 H 
ATOM     29  C19 UNL A   1      16.129  21.819   9.629  1.00  0.00    +0.000 C 
BRANCH   29   28
ATOM     28  N7  UNL A   1      15.869  20.556  10.291  1.00  0.00    +0.000 N 
ATOM    120  H20 UNL A   1      15.509  20.671  11.199  1.00  0.00    +0.000 H 
BRANCH   28   26
ATOM     26  C18 UNL A   1      16.009  19.256   9.948  1.00  0.00    +0.000 C 
ATOM     27  O2  UNL A   1      17.174  18.826  10.022  1.00  0.00    +0.000 O 
BRANCH   26    2
ATOM      2  C1  UNL A   1      14.895  18.252   9.551  1.00  0.00    +0.000 C 
ATOM    104  H4  UNL A   1      14.559  17.933  10.516  1.00  0.00    +0.000 H 
BRANCH    2    1
ATOM      1  N1  UNL A   1      13.820  18.942   8.812  1.00  0.00    +0.000 N 
ATOM    101  H1  UNL A   1      14.177  19.262   7.912  1.00  0.00    +0.000 H 
ATOM    102  H2  UNL A   1      13.495  19.745   9.353  1.00  0.00    +0.000 H 
ATOM    103  H3  UNL A   1      13.043  18.299   8.661  1.00  0.00    +0.000 H 
ENDBRANCH    2    1
BRANCH    2    3
ATOM    105  H5  UNL A   1      14.230  16.319   9.118  1.00  0.00    +0.000 H 
ATOM    106  H6  UNL A   1      15.924  16.539   9.865  1.00  0.00    +0.000 H 
ATOM      3  C2  UNL A   1      15.181  16.808   9.143  1.00  0.00    +0.000 C 
BRANCH    3    4
ATOM      4  C3  UNL A   1      15.875  16.407   7.866  1.00  0.00    +0.000 C 
ATOM      5  C4  UNL A   1      15.270  16.628   6.636  1.00  0.00    +0.000 C 
ATOM      6  N2  UNL A   1      15.987  15.992   5.658  1.00  0.00    +0.000 N 
ATOM    107  H7  UNL A   1      14.415  17.185   6.484  1.00  0.00    +0.000 H 
ATOM     20  C12 UNL A   1      17.142  15.467   6.201  1.00  0.00    +0.000 C 
ATOM     21  C13 UNL A   1      18.197  14.767   5.582  1.00  0.00    +0.000 C 
ATOM    116  H16 UNL A   1      18.165  14.548   4.574  1.00  0.00    +0.000 H 
ATOM     23  C15 UNL A   1      19.321  14.675   7.715  1.00  0.00    +0.000 C 
ATOM     24  C16 UNL A   1      18.262  15.365   8.321  1.00  0.00    +0.000 C 
ATOM     25  C17 UNL A   1      17.137  15.775   7.572  1.00  0.00    +0.000 C 
ATOM    119  H19 UNL A   1      18.304  15.575   9.331  1.00  0.00    +0.000 H 
ATOM    118  H18 UNL A   1      20.135  14.388   8.281  1.00  0.00    +0.000 H 
ATOM     22  C14 UNL A   1      19.284  14.377   6.362  1.00  0.00    +0.000 C 
ATOM    117  H17 UNL A   1      20.067  13.863   5.929  1.00  0.00    +0.000 H 
BRANCH    6    7
ATOM      7  C5  UNL A   1      15.537  15.826   4.327  1.00  0.00    +0.000 C 
ATOM      8  N3  UNL A   1      14.371  15.212   4.159  1.00  0.00    +0.000 N 
ATOM      9  C6  UNL A   1      13.977  15.231   2.896  1.00  0.00    +0.000 C 
ATOM     10 Cl1  UNL A   1      12.463  14.506   2.578  1.00  0.00    +0.000 Cl
ATOM     11  N4  UNL A   1      14.631  15.707   1.848  1.00  0.00    +0.000 N 
ATOM     12  C7  UNL A   1      15.837  16.185   2.119  1.00  0.00    +0.000 C 
ATOM     19  N6  UNL A   1      16.304  16.327   3.355  1.00  0.00    +0.000 N 
BRANCH   12   13
ATOM    108  H8  UNL A   1      16.576  16.339  -1.026  1.00  0.00    +0.000 H 
ATOM    109  H9  UNL A   1      15.363  15.376  -0.179  1.00  0.00    +0.000 H 
ATOM     13  N5  UNL A   1      16.673  16.398   1.046  1.00  0.00    +0.000 N 
ATOM     14  C8  UNL A   1      16.387  15.684  -0.202  1.00  0.00    +0.000 C 
ATOM     15  C9  UNL A   1      17.254  14.432  -0.358  1.00  0.00    +0.000 C 
ATOM     17  C10 UNL A   1      18.890  15.285   1.106  1.00  0.00    +0.000 C 
ATOM     18  C11 UNL A   1      18.094  16.580   1.355  1.00  0.00    +0.000 C 
ATOM    114  H14 UNL A   1      18.195  16.857   2.383  1.00  0.00    +0.000 H 
ATOM    115  H15 UNL A   1      18.485  17.344   0.716  1.00  0.00    +0.000 H 
ATOM    110  H10 UNL A   1      17.095  14.014  -1.331  1.00  0.00    +0.000 H 
ATOM    111  H11 UNL A   1      16.978  13.729   0.401  1.00  0.00    +0.000 H 
ATOM     16  O1  UNL A   1      18.646  14.748  -0.204  1.00  0.00    +0.000 O 
ATOM    112  H12 UNL A   1      19.934  15.496   1.204  1.00  0.00    +0.000 H 
ATOM    113  H13 UNL A   1      18.574  14.559   1.825  1.00  0.00    +0.000 H 
ENDBRANCH   12   13
ENDBRANCH    6    7
ENDBRANCH    3    4
ENDBRANCH    2    3
ENDBRANCH   26    2
ENDBRANCH   28   26
ENDBRANCH   29   28
ENDBRANCH   30   29
ENDBRANCH   31   30
ENDBRANCH   32   31
ENDBRANCH   33   32
ENDBRANCH   34   33
ENDBRANCH   35   34
ENDBRANCH   36   35
ENDBRANCH   38   36
ENDBRANCH   42   41
BRANCH   46   47
ATOM     47  C34 UNL A   1      22.862  17.645  11.625  1.00  0.00    +0.000 C 
ATOM     48  C35 UNL A   1      22.504  18.487  12.697  1.00  0.00    +0.000 C 
ATOM     49  F1  UNL A   1      22.221  19.780  12.484  1.00  0.00    +0.000 F 
ATOM     50  C36 UNL A   1      22.492  18.030  14.019  1.00  0.00    +0.000 C 
ATOM     51  F2  UNL A   1      22.227  18.884  15.017  1.00  0.00    +0.000 F 
ATOM     52  C37 UNL A   1      22.803  16.713  14.310  1.00  0.00    +0.000 C 
ATOM     53  F3  UNL A   1      22.826  16.284  15.578  1.00  0.00    +0.000 F 
ATOM     54  C38 UNL A   1      23.136  15.853  13.281  1.00  0.00    +0.000 C 
ATOM     55  F4  UNL A   1      23.464  14.581  13.549  1.00  0.00    +0.000 F 
ATOM     56  C39 UNL A   1      23.192  16.318  11.968  1.00  0.00    +0.000 C 
ATOM     57  F5  UNL A   1      23.668  15.461  11.054  1.00  0.00    +0.000 F 
ENDBRANCH   46   47
BRANCH   63   64
ATOM     65  C46 UNL A   1      28.276  16.831   5.876  1.00  0.00    +0.000 C 
ATOM     66  F6  UNL A   1      29.002  16.127   6.756  1.00  0.00    +0.000 F 
ATOM     67  C47 UNL A   1      28.878  17.200   4.675  1.00  0.00    +0.000 C 
ATOM     68  F7  UNL A   1      30.170  16.914   4.454  1.00  0.00    +0.000 F 
ATOM     69  C48 UNL A   1      28.134  17.833   3.692  1.00  0.00    +0.000 C 
ATOM     70  F8  UNL A   1      28.700  18.149   2.518  1.00  0.00    +0.000 F 
ATOM     71  C49 UNL A   1      26.795  18.110   3.912  1.00  0.00    +0.000 C 
ATOM     72  F9  UNL A   1      26.060  18.675   2.944  1.00  0.00    +0.000 F 
ATOM     73  C50 UNL A   1      26.201  17.777   5.127  1.00  0.00    +0.000 C 
ATOM     74  F10 UNL A   1      24.894  18.034   5.298  1.00  0.00    +0.000 F 
ATOM     64  C45 UNL A   1      26.929  17.134   6.137  1.00  0.00    +0.000 C 
ENDBRANCH   63   64
BRANCH   78   79
ATOM     79  C54 UNL A   1      23.026  12.314   4.881  1.00  0.00    +0.000 C 
ATOM     80  C55 UNL A   1      22.016  11.648   5.589  1.00  0.00    +0.000 C 
ATOM     81  F11 UNL A   1      21.504  12.189   6.704  1.00  0.00    +0.000 F 
ATOM     82  C56 UNL A   1      21.468  10.447   5.124  1.00  0.00    +0.000 C 
ATOM     83  F12 UNL A   1      20.461   9.871   5.794  1.00  0.00    +0.000 F 
ATOM     84  C57 UNL A   1      21.923   9.878   3.947  1.00  0.00    +0.000 C 
ATOM     85  F13 UNL A   1      21.360   8.757   3.474  1.00  0.00    +0.000 F 
ATOM     86  C58 UNL A   1      22.936  10.497   3.239  1.00  0.00    +0.000 C 
ATOM     87  F14 UNL A   1      23.364   9.973   2.081  1.00  0.00    +0.000 F 
ATOM     88  C59 UNL A   1      23.474  11.699   3.694  1.00  0.00    +0.000 C 
ATOM     89  F15 UNL A   1      24.377  12.297   2.904  1.00  0.00    +0.000 F 
ENDBRANCH   78   79
TORSDOF 20
ENDMDL
MODEL 5
REMARK VINA RESULT:     -11.3     42.255     47.901
ROOT
ATOM    136  H36 UNL A   1      19.129  37.431  44.364  1.00  0.00    +0.000 H 
ATOM    137  H37 UNL A   1      18.230  38.607  46.577  1.00  0.00    +0.000 H 
ATOM    138  H38 UNL A   1      18.923  34.721  47.337  1.00  0.00    +0.000 H 
ATOM    139  H39 UNL A   1      25.186  37.993  51.715  1.00  0.00    +0.000 H 
ATOM    140  H40 UNL A   1      25.752  38.983  49.436  1.00  0.00    +0.000 H 
ATOM    141  H41 UNL A   1      22.428  36.539  48.932  1.00  0.00    +0.000 H 
ATOM    142  H42 UNL A   1      21.939  33.685  50.489  1.00  0.00    +0.000 H 
ATOM    143  H43 UNL A   1      19.931  34.170  48.951  1.00  0.00    +0.000 H 
ATOM    144  H44 UNL A   1      23.421  34.398  44.270  1.00  0.00    +0.000 H 
ATOM    145  H45 UNL A   1      25.286  35.724  45.437  1.00  0.00    +0.000 H 
ATOM     42  C30 UNL A   1      24.320  37.696  47.264  1.00  0.00    +0.000 C 
ATOM     43  C31 UNL A   1      23.520  36.771  46.401  1.00  0.00    +0.000 C 
ATOM     44  N9  UNL A   1      22.231  36.688  46.270  1.00  0.00    +0.000 N 
ATOM     45  C32 UNL A   1      21.994  35.590  45.441  1.00  0.00    +0.000 C 
ATOM     46  C33 UNL A   1      20.769  35.013  45.290  1.00  0.00    +0.000 C 
ATOM     58  C40 UNL A   1      19.700  35.856  45.737  1.00  0.00    +0.000 C 
ATOM     59  C41 UNL A   1      19.169  37.061  45.325  1.00  0.00    +0.000 C 
ATOM     60  C42 UNL A   1      18.689  37.685  46.513  1.00  0.00    +0.000 C 
ATOM     61  C43 UNL A   1      18.957  36.818  47.573  1.00  0.00    +0.000 C 
ATOM     62  N10 UNL A   1      19.144  35.605  46.964  1.00  0.00    +0.000 N 
ATOM     63  C44 UNL A   1      19.201  37.058  48.975  1.00  0.00    +0.000 C 
ATOM     75  C51 UNL A   1      19.885  36.207  49.793  1.00  0.00    +0.000 C 
ATOM     76  N11 UNL A   1      20.578  36.684  50.895  1.00  0.00    +0.000 N 
ATOM     77  C52 UNL A   1      21.552  35.834  51.071  1.00  0.00    +0.000 C 
ATOM     78  C53 UNL A   1      22.883  36.194  51.615  1.00  0.00    +0.000 C 
ATOM     90  C60 UNL A   1      23.513  36.960  50.695  1.00  0.00    +0.000 C 
ATOM     91  C61 UNL A   1      24.685  37.800  50.834  1.00  0.00    +0.000 C 
ATOM     92  C62 UNL A   1      25.011  38.288  49.620  1.00  0.00    +0.000 C 
ATOM     93  C63 UNL A   1      24.151  37.678  48.603  1.00  0.00    +0.000 C 
ATOM     94  N12 UNL A   1      23.216  36.977  49.329  1.00  0.00    +0.000 N 
ATOM     95  C64 UNL A   1      21.398  34.558  50.392  1.00  0.00    +0.000 C 
ATOM     96  C65 UNL A   1      20.356  34.841  49.609  1.00  0.00    +0.000 C 
ATOM     97  C66 UNL A   1      23.282  35.146  44.968  1.00  0.00    +0.000 C 
ATOM     98  C67 UNL A   1      24.266  35.829  45.551  1.00  0.00    +0.000 C 
ENDROOT
BRANCH   42   41
ATOM     99  C68 UNL A   1      26.623  37.872  46.319  1.00  0.00    +0.000 C 
ATOM    100  C69 UNL A   1      27.651  38.654  45.801  1.00  0.00    +0.000 C 
ATOM     38  C26 UNL A   1      27.464  40.025  45.549  1.00  0.00    +0.000 C 
ATOM     39  C27 UNL A   1      26.199  40.573  45.763  1.00  0.00    +0.000 C 
ATOM    134  H34 UNL A   1      26.019  41.557  45.511  1.00  0.00    +0.000 H 
ATOM     40  C28 UNL A   1      25.174  39.802  46.315  1.00  0.00    +0.000 C 
ATOM    135  H35 UNL A   1      24.250  40.226  46.491  1.00  0.00    +0.000 H 
ATOM     41  C29 UNL A   1      25.397  38.461  46.629  1.00  0.00    +0.000 C 
ATOM    146  H46 UNL A   1      26.767  36.863  46.473  1.00  0.00    +0.000 H 
ATOM    147  H47 UNL A   1      28.565  38.220  45.598  1.00  0.00    +0.000 H 
BRANCH   38   36
ATOM     36  C25 UNL A   1      28.671  40.761  45.074  1.00  0.00    +0.000 C 
ATOM     37  O3  UNL A   1      28.983  41.803  45.636  1.00  0.00    +0.000 O 
BRANCH   36   35
ATOM     35  N8  UNL A   1      29.443  40.386  44.007  1.00  0.00    +0.000 N 
ATOM    133  H33 UNL A   1      28.992  40.542  43.146  1.00  0.00    +0.000 H 
BRANCH   35   34
ATOM     34  C24 UNL A   1      30.763  39.817  43.841  1.00  0.00    +0.000 C 
ATOM    131  H31 UNL A   1      30.951  39.714  42.793  1.00  0.00    +0.000 H 
ATOM    132  H32 UNL A   1      31.440  40.485  44.331  1.00  0.00    +0.000 H 
BRANCH   34   33
ATOM     33  C23 UNL A   1      30.964  38.450  44.495  1.00  0.00    +0.000 C 
ATOM    130  H30 UNL A   1      29.984  38.098  44.741  1.00  0.00    +0.000 H 
ATOM    129  H29 UNL A   1      31.604  38.582  45.342  1.00  0.00    +0.000 H 
BRANCH   33   32
ATOM    128  H28 UNL A   1      32.024  36.664  44.273  1.00  0.00    +0.000 H 
ATOM    127  H27 UNL A   1      32.276  37.852  42.942  1.00  0.00    +0.000 H 
ATOM     32  C22 UNL A   1      31.584  37.370  43.599  1.00  0.00    +0.000 C 
BRANCH   32   31
ATOM    125  H25 UNL A   1      29.707  36.423  43.289  1.00  0.00    +0.000 H 
ATOM    126  H26 UNL A   1      30.492  37.103  41.828  1.00  0.00    +0.000 H 
ATOM     31  C21 UNL A   1      30.614  36.550  42.735  1.00  0.00    +0.000 C 
BRANCH   31   30
ATOM    123  H23 UNL A   1      31.156  35.130  41.249  1.00  0.00    +0.000 H 
ATOM    124  H24 UNL A   1      32.067  35.029  42.779  1.00  0.00    +0.000 H 
ATOM     30  C20 UNL A   1      31.112  35.162  42.318  1.00  0.00    +0.000 C 
BRANCH   30   29
ATOM    121  H21 UNL A   1      30.218  33.249  42.037  1.00  0.00    +0.000 H 
ATOM    122  H22 UNL A   1      30.649  33.632  43.709  1.00  0.00    +0.000 H 
ATOM     29  C19 UNL A   1      30.233  34.004  42.795  1.00  0.00    +0.000 C 
BRANCH   29   28
ATOM     28  N7  UNL A   1      28.872  34.420  43.065  1.00  0.00    +0.000 N 
ATOM    120  H20 UNL A   1      28.413  34.760  42.264  1.00  0.00    +0.000 H 
BRANCH   28   26
ATOM     26  C18 UNL A   1      28.087  34.449  44.166  1.00  0.00    +0.000 C 
ATOM     27  O2  UNL A   1      26.866  34.438  43.928  1.00  0.00    +0.000 O 
BRANCH   26    2
ATOM      2  C1  UNL A   1      28.533  34.424  45.652  1.00  0.00    +0.000 C 
ATOM    104  H4  UNL A   1      29.008  33.466  45.702  1.00  0.00    +0.000 H 
BRANCH    2    1
ATOM      1  N1  UNL A   1      29.492  35.512  45.920  1.00  0.00    +0.000 N 
ATOM    101  H1  UNL A   1      30.358  35.337  45.410  1.00  0.00    +0.000 H 
ATOM    102  H2  UNL A   1      29.690  35.553  46.920  1.00  0.00    +0.000 H 
ATOM    103  H3  UNL A   1      29.093  36.400  45.618  1.00  0.00    +0.000 H 
ENDBRANCH    2    1
BRANCH    2    3
ATOM    105  H5  UNL A   1      26.693  34.601  46.626  1.00  0.00    +0.000 H 
ATOM    106  H6  UNL A   1      28.217  34.252  47.643  1.00  0.00    +0.000 H 
ATOM      3  C2  UNL A   1      27.593  34.048  46.797  1.00  0.00    +0.000 C 
BRANCH    3    4
ATOM      4  C3  UNL A   1      27.151  32.641  47.107  1.00  0.00    +0.000 C 
ATOM      5  C4  UNL A   1      27.830  31.882  48.051  1.00  0.00    +0.000 C 
ATOM      6  N2  UNL A   1      27.383  30.588  47.998  1.00  0.00    +0.000 N 
ATOM    107  H7  UNL A   1      28.556  32.237  48.692  1.00  0.00    +0.000 H 
ATOM     20  C12 UNL A   1      26.314  30.505  47.129  1.00  0.00    +0.000 C 
ATOM     21  C13 UNL A   1      25.512  29.400  46.782  1.00  0.00    +0.000 C 
ATOM    116  H16 UNL A   1      25.705  28.465  47.174  1.00  0.00    +0.000 H 
ATOM     23  C15 UNL A   1      24.200  30.856  45.375  1.00  0.00    +0.000 C 
ATOM     24  C16 UNL A   1      25.009  31.946  45.721  1.00  0.00    +0.000 C 
ATOM     25  C17 UNL A   1      26.098  31.793  46.609  1.00  0.00    +0.000 C 
ATOM    119  H19 UNL A   1      24.809  32.876  45.319  1.00  0.00    +0.000 H 
ATOM    118  H18 UNL A   1      23.408  30.992  44.727  1.00  0.00    +0.000 H 
ATOM     22  C14 UNL A   1      24.454  29.598  45.897  1.00  0.00    +0.000 C 
ATOM    117  H17 UNL A   1      23.855  28.801  45.629  1.00  0.00    +0.000 H 
BRANCH    6    7
ATOM      7  C5  UNL A   1      28.006  29.506  48.664  1.00  0.00    +0.000 C 
ATOM      8  N3  UNL A   1      29.044  28.943  48.056  1.00  0.00    +0.000 N 
ATOM      9  C6  UNL A   1      29.637  28.039  48.818  1.00  0.00    +0.000 C 
ATOM     10 Cl1  UNL A   1      31.014  27.285  48.144  1.00  0.00    +0.000 Cl
ATOM     11  N4  UNL A   1      29.269  27.623  50.020  1.00  0.00    +0.000 N 
ATOM     12  C7  UNL A   1      28.149  28.167  50.474  1.00  0.00    +0.000 C 
ATOM     19  N6  UNL A   1      27.521  29.164  49.861  1.00  0.00    +0.000 N 
BRANCH   12   13
ATOM    108  H8  UNL A   1      25.780  27.666  52.620  1.00  0.00    +0.000 H 
ATOM    109  H9  UNL A   1      26.222  29.118  51.717  1.00  0.00    +0.000 H 
ATOM     13  N5  UNL A   1      27.559  27.553  51.557  1.00  0.00    +0.000 N 
ATOM     14  C8  UNL A   1      26.578  28.319  52.332  1.00  0.00    +0.000 C 
ATOM     15  C9  UNL A   1      27.195  28.930  53.593  1.00  0.00    +0.000 C 
ATOM     17  C10 UNL A   1      28.929  27.337  53.615  1.00  0.00    +0.000 C 
ATOM     18  C11 UNL A   1      28.411  26.651  52.337  1.00  0.00    +0.000 C 
ATOM    114  H14 UNL A   1      29.247  26.355  51.738  1.00  0.00    +0.000 H 
ATOM    115  H15 UNL A   1      27.830  25.799  52.623  1.00  0.00    +0.000 H 
ATOM    110  H10 UNL A   1      26.419  29.374  54.182  1.00  0.00    +0.000 H 
ATOM    111  H11 UNL A   1      27.911  29.668  53.299  1.00  0.00    +0.000 H 
ATOM     16  O1  UNL A   1      27.864  27.929  54.376  1.00  0.00    +0.000 O 
ATOM    112  H12 UNL A   1      29.424  26.608  54.223  1.00  0.00    +0.000 H 
ATOM    113  H13 UNL A   1      29.600  28.116  53.323  1.00  0.00    +0.000 H 
ENDBRANCH   12   13
ENDBRANCH    6    7
ENDBRANCH    3    4
ENDBRANCH    2    3
ENDBRANCH   26    2
ENDBRANCH   28   26
ENDBRANCH   29   28
ENDBRANCH   30   29
ENDBRANCH   31   30
ENDBRANCH   32   31
ENDBRANCH   33   32
ENDBRANCH   34   33
ENDBRANCH   35   34
ENDBRANCH   36   35
ENDBRANCH   38   36
ENDBRANCH   42   41
BRANCH   46   47
ATOM     47  C34 UNL A   1      20.548  33.568  44.939  1.00  0.00    +0.000 C 
ATOM     48  C35 UNL A   1      19.643  33.206  43.923  1.00  0.00    +0.000 C 
ATOM     49  F1  UNL A   1      19.101  34.140  43.127  1.00  0.00    +0.000 F 
ATOM     50  C36 UNL A   1      19.227  31.883  43.744  1.00  0.00    +0.000 C 
ATOM     51  F2  UNL A   1      18.301  31.594  42.819  1.00  0.00    +0.000 F 
ATOM     52  C37 UNL A   1      19.727  30.875  44.550  1.00  0.00    +0.000 C 
ATOM     53  F3  UNL A   1      19.304  29.613  44.402  1.00  0.00    +0.000 F 
ATOM     54  C38 UNL A   1      20.635  31.190  45.542  1.00  0.00    +0.000 C 
ATOM     55  F4  UNL A   1      21.109  30.229  46.348  1.00  0.00    +0.000 F 
ATOM     56  C39 UNL A   1      21.016  32.514  45.752  1.00  0.00    +0.000 C 
ATOM     57  F5  UNL A   1      21.780  32.751  46.827  1.00  0.00    +0.000 F 
ENDBRANCH   46   47
BRANCH   63   64
ATOM     65  C46 UNL A   1      19.845  39.520  49.216  1.00  0.00    +0.000 C 
ATOM     66  F6  UNL A   1      20.984  39.319  48.538  1.00  0.00    +0.000 F 
ATOM     67  C47 UNL A   1      19.536  40.821  49.607  1.00  0.00    +0.000 C 
ATOM     68  F7  UNL A   1      20.400  41.818  49.368  1.00  0.00    +0.000 F 
ATOM     69  C48 UNL A   1      18.321  41.092  50.214  1.00  0.00    +0.000 C 
ATOM     70  F8  UNL A   1      18.003  42.351  50.552  1.00  0.00    +0.000 F 
ATOM     71  C49 UNL A   1      17.420  40.064  50.444  1.00  0.00    +0.000 C 
ATOM     72  F9  UNL A   1      16.222  40.332  50.983  1.00  0.00    +0.000 F 
ATOM     73  C50 UNL A   1      17.744  38.757  50.088  1.00  0.00    +0.000 C 
ATOM     74  F10 UNL A   1      16.838  37.789  50.298  1.00  0.00    +0.000 F 
ATOM     64  C45 UNL A   1      18.965  38.455  49.470  1.00  0.00    +0.000 C 
ENDBRANCH   63   64
BRANCH   78   79
ATOM     79  C54 UNL A   1      23.479  35.512  52.786  1.00  0.00    +0.000 C 
ATOM     80  C55 UNL A   1      22.815  35.482  54.020  1.00  0.00    +0.000 C 
ATOM     81  F11 UNL A   1      21.725  36.237  54.218  1.00  0.00    +0.000 F 
ATOM     82  C56 UNL A   1      23.221  34.625  55.048  1.00  0.00    +0.000 C 
ATOM     83  F12 UNL A   1      22.525  34.578  56.192  1.00  0.00    +0.000 F 
ATOM     84  C57 UNL A   1      24.308  33.784  54.872  1.00  0.00    +0.000 C 
ATOM     85  F13 UNL A   1      24.662  32.924  55.836  1.00  0.00    +0.000 F 
ATOM     86  C58 UNL A   1      24.999  33.808  53.676  1.00  0.00    +0.000 C 
ATOM     87  F14 UNL A   1      26.032  32.975  53.480  1.00  0.00    +0.000 F 
ATOM     88  C59 UNL A   1      24.588  34.652  52.646  1.00  0.00    +0.000 C 
ATOM     89  F15 UNL A   1      25.237  34.546  51.478  1.00  0.00    +0.000 F 
ENDBRANCH   78   79
TORSDOF 20
ENDMDL
MODEL 6
REMARK VINA RESULT:     -11.3      8.125     14.173
ROOT
ATOM    136  H36 UNL A   1      21.317  17.152   8.530  1.00  0.00    +0.000 H 
ATOM    137  H37 UNL A   1      19.803  18.340   6.690  1.00  0.00    +0.000 H 
ATOM    138  H38 UNL A   1      23.407  20.119   6.782  1.00  0.00    +0.000 H 
ATOM    139  H39 UNL A   1      24.091  16.278  -0.557  1.00  0.00    +0.000 H 
ATOM    140  H40 UNL A   1      23.620  14.241   0.900  1.00  0.00    +0.000 H 
ATOM    141  H41 UNL A   1      23.815  17.543   3.416  1.00  0.00    +0.000 H 
ATOM    142  H42 UNL A   1      25.891  20.066   3.050  1.00  0.00    +0.000 H 
ATOM    143  H43 UNL A   1      24.398  20.484   5.107  1.00  0.00    +0.000 H 
ATOM    144  H44 UNL A   1      26.224  15.518   7.587  1.00  0.00    +0.000 H 
ATOM    145  H45 UNL A   1      26.137  14.135   5.425  1.00  0.00    +0.000 H 
ATOM     42  C30 UNL A   1      23.931  14.789   3.732  1.00  0.00    +0.000 C 
ATOM     43  C31 UNL A   1      24.270  15.372   5.069  1.00  0.00    +0.000 C 
ATOM     44  N9  UNL A   1      23.625  16.264   5.756  1.00  0.00    +0.000 N 
ATOM     45  C32 UNL A   1      24.421  16.548   6.868  1.00  0.00    +0.000 C 
ATOM     46  C33 UNL A   1      24.223  17.625   7.678  1.00  0.00    +0.000 C 
ATOM     58  C40 UNL A   1      22.921  18.204   7.524  1.00  0.00    +0.000 C 
ATOM     59  C41 UNL A   1      21.631  17.789   7.783  1.00  0.00    +0.000 C 
ATOM     60  C42 UNL A   1      20.826  18.428   6.796  1.00  0.00    +0.000 C 
ATOM     61  C43 UNL A   1      21.678  19.195   6.000  1.00  0.00    +0.000 C 
ATOM     62  N10 UNL A   1      22.801  19.343   6.772  1.00  0.00    +0.000 N 
ATOM     63  C44 UNL A   1      21.591  19.613   4.622  1.00  0.00    +0.000 C 
ATOM     75  C51 UNL A   1      22.665  19.953   3.852  1.00  0.00    +0.000 C 
ATOM     76  N11 UNL A   1      22.634  19.784   2.476  1.00  0.00    +0.000 N 
ATOM     77  C52 UNL A   1      23.879  19.591   2.136  1.00  0.00    +0.000 C 
ATOM     78  C53 UNL A   1      24.310  18.743   0.999  1.00  0.00    +0.000 C 
ATOM     90  C60 UNL A   1      24.039  17.456   1.317  1.00  0.00    +0.000 C 
ATOM     91  C61 UNL A   1      23.988  16.283   0.469  1.00  0.00    +0.000 C 
ATOM     92  C62 UNL A   1      23.784  15.200   1.245  1.00  0.00    +0.000 C 
ATOM     93  C63 UNL A   1      23.830  15.595   2.655  1.00  0.00    +0.000 C 
ATOM     94  N12 UNL A   1      23.882  16.969   2.618  1.00  0.00    +0.000 N 
ATOM     95  C64 UNL A   1      24.866  19.979   3.130  1.00  0.00    +0.000 C 
ATOM     96  C65 UNL A   1      24.065  20.188   4.176  1.00  0.00    +0.000 C 
ATOM     97  C66 UNL A   1      25.513  15.607   6.844  1.00  0.00    +0.000 C 
ATOM     98  C67 UNL A   1      25.482  14.869   5.735  1.00  0.00    +0.000 C 
ENDROOT
BRANCH   42   41
ATOM     99  C68 UNL A   1      24.132  12.693   2.393  1.00  0.00    +0.000 C 
ATOM    100  C69 UNL A   1      24.007  11.310   2.301  1.00  0.00    +0.000 C 
ATOM     38  C26 UNL A   1      23.688  10.534   3.430  1.00  0.00    +0.000 C 
ATOM     39  C27 UNL A   1      23.569  11.175   4.664  1.00  0.00    +0.000 C 
ATOM    134  H34 UNL A   1      23.414  10.616   5.518  1.00  0.00    +0.000 H 
ATOM     40  C28 UNL A   1      23.660  12.565   4.756  1.00  0.00    +0.000 C 
ATOM    135  H35 UNL A   1      23.546  13.029   5.670  1.00  0.00    +0.000 H 
ATOM     41  C29 UNL A   1      23.903  13.328   3.613  1.00  0.00    +0.000 C 
ATOM    146  H46 UNL A   1      24.393  13.245   1.562  1.00  0.00    +0.000 H 
ATOM    147  H47 UNL A   1      24.151  10.846   1.391  1.00  0.00    +0.000 H 
BRANCH   38   36
ATOM     36  C25 UNL A   1      23.502   9.077   3.176  1.00  0.00    +0.000 C 
ATOM     37  O3  UNL A   1      22.649   8.725   2.372  1.00  0.00    +0.000 O 
BRANCH   36   35
ATOM     35  N8  UNL A   1      24.185   8.079   3.821  1.00  0.00    +0.000 N 
ATOM    133  H33 UNL A   1      24.935   7.734   3.286  1.00  0.00    +0.000 H 
BRANCH   35   34
ATOM     34  C24 UNL A   1      24.068   7.412   5.099  1.00  0.00    +0.000 C 
ATOM    131  H31 UNL A   1      24.064   6.357   4.924  1.00  0.00    +0.000 H 
ATOM    132  H32 UNL A   1      24.899   7.742   5.685  1.00  0.00    +0.000 H 
BRANCH   34   33
ATOM     33  C23 UNL A   1      22.814   7.764   5.900  1.00  0.00    +0.000 C 
ATOM    130  H30 UNL A   1      22.463   6.842   6.311  1.00  0.00    +0.000 H 
ATOM    129  H29 UNL A   1      22.120   8.235   5.234  1.00  0.00    +0.000 H 
BRANCH   33   32
ATOM    128  H28 UNL A   1      22.452   9.575   6.876  1.00  0.00    +0.000 H 
ATOM    127  H27 UNL A   1      24.082   8.872   7.187  1.00  0.00    +0.000 H 
ATOM     32  C22 UNL A   1      23.030   8.701   7.095  1.00  0.00    +0.000 C 
BRANCH   32   31
ATOM    125  H25 UNL A   1      22.251   7.178   8.356  1.00  0.00    +0.000 H 
ATOM    126  H26 UNL A   1      23.313   8.386   9.150  1.00  0.00    +0.000 H 
ATOM     31  C21 UNL A   1      22.518   8.211   8.456  1.00  0.00    +0.000 C 
BRANCH   31   30
ATOM    123  H23 UNL A   1      21.575   9.383   9.958  1.00  0.00    +0.000 H 
ATOM    124  H24 UNL A   1      21.038   9.697   8.287  1.00  0.00    +0.000 H 
ATOM     30  C20 UNL A   1      21.302   8.960   9.014  1.00  0.00    +0.000 C 
BRANCH   30   29
ATOM    121  H21 UNL A   1      20.375   7.081   9.402  1.00  0.00    +0.000 H 
ATOM    122  H22 UNL A   1      19.520   8.484  10.057  1.00  0.00    +0.000 H 
ATOM     29  C19 UNL A   1      20.061   8.088   9.222  1.00  0.00    +0.000 C 
BRANCH   29   28
ATOM     28  N7  UNL A   1      19.178   8.104   8.074  1.00  0.00    +0.000 N 
ATOM    120  H20 UNL A   1      18.387   8.673   8.212  1.00  0.00    +0.000 H 
BRANCH   28   26
ATOM     26  C18 UNL A   1      19.189   7.515   6.858  1.00  0.00    +0.000 C 
ATOM     27  O2  UNL A   1      19.670   6.368   6.844  1.00  0.00    +0.000 O 
BRANCH   26    2
ATOM      2  C1  UNL A   1      18.617   8.072   5.527  1.00  0.00    +0.000 C 
ATOM    104  H4  UNL A   1      18.609   7.187   4.925  1.00  0.00    +0.000 H 
BRANCH    2    1
ATOM      1  N1  UNL A   1      17.250   8.591   5.732  1.00  0.00    +0.000 N 
ATOM    101  H1  UNL A   1      16.593   8.053   5.166  1.00  0.00    +0.000 H 
ATOM    102  H2  UNL A   1      17.213   9.572   5.454  1.00  0.00    +0.000 H 
ATOM    103  H3  UNL A   1      16.998   8.508   6.716  1.00  0.00    +0.000 H 
ENDBRANCH    2    1
BRANCH    2    3
ATOM    105  H5  UNL A   1      18.950   8.703   3.563  1.00  0.00    +0.000 H 
ATOM    106  H6  UNL A   1      20.420   8.329   4.648  1.00  0.00    +0.000 H 
ATOM      3  C2  UNL A   1      19.473   8.801   4.492  1.00  0.00    +0.000 C 
BRANCH    3    4
ATOM      4  C3  UNL A   1      19.865  10.253   4.585  1.00  0.00    +0.000 C 
ATOM      5  C4  UNL A   1      20.116  10.838   5.819  1.00  0.00    +0.000 C 
ATOM      6  N2  UNL A   1      20.237  12.193   5.662  1.00  0.00    +0.000 N 
ATOM    107  H7  UNL A   1      20.198  10.330   6.714  1.00  0.00    +0.000 H 
ATOM     20  C12 UNL A   1      20.213  12.505   4.318  1.00  0.00    +0.000 C 
ATOM     21  C13 UNL A   1      20.340  13.752   3.676  1.00  0.00    +0.000 C 
ATOM    116  H16 UNL A   1      20.446  14.620   4.225  1.00  0.00    +0.000 H 
ATOM     23  C15 UNL A   1      20.181  12.619   1.552  1.00  0.00    +0.000 C 
ATOM     24  C16 UNL A   1      20.046  11.385   2.202  1.00  0.00    +0.000 C 
ATOM     25  C17 UNL A   1      20.053  11.301   3.613  1.00  0.00    +0.000 C 
ATOM    119  H19 UNL A   1      19.938  10.525   1.642  1.00  0.00    +0.000 H 
ATOM    118  H18 UNL A   1      20.176  12.657   0.521  1.00  0.00    +0.000 H 
ATOM     22  C14 UNL A   1      20.322  13.788   2.282  1.00  0.00    +0.000 C 
ATOM    117  H17 UNL A   1      20.413  14.691   1.792  1.00  0.00    +0.000 H 
BRANCH    6    7
ATOM      7  C5  UNL A   1      20.278  13.114   6.735  1.00  0.00    +0.000 C 
ATOM      8  N3  UNL A   1      21.418  13.201   7.411  1.00  0.00    +0.000 N 
ATOM      9  C6  UNL A   1      21.398  14.183   8.298  1.00  0.00    +0.000 C 
ATOM     10 Cl1  UNL A   1      22.836  14.408   9.191  1.00  0.00    +0.000 Cl
ATOM     11  N4  UNL A   1      20.387  14.981   8.602  1.00  0.00    +0.000 N 
ATOM     12  C7  UNL A   1      19.263  14.722   7.950  1.00  0.00    +0.000 C 
ATOM     19  N6  UNL A   1      19.180  13.843   6.958  1.00  0.00    +0.000 N 
BRANCH   12   13
ATOM    108  H8  UNL A   1      16.825  15.054  10.050  1.00  0.00    +0.000 H 
ATOM    109  H9  UNL A   1      17.770  13.631   9.607  1.00  0.00    +0.000 H 
ATOM     13  N5  UNL A   1      18.115  15.302   8.444  1.00  0.00    +0.000 N 
ATOM     14  C8  UNL A   1      17.212  14.468   9.244  1.00  0.00    +0.000 C 
ATOM     15  C9  UNL A   1      16.041  13.933   8.415  1.00  0.00    +0.000 C 
ATOM     17  C10 UNL A   1      16.258  15.669   6.839  1.00  0.00    +0.000 C 
ATOM     18  C11 UNL A   1      17.459  16.287   7.579  1.00  0.00    +0.000 C 
ATOM    114  H14 UNL A   1      18.166  16.642   6.858  1.00  0.00    +0.000 H 
ATOM    115  H15 UNL A   1      17.104  17.090   8.189  1.00  0.00    +0.000 H 
ATOM    110  H10 UNL A   1      15.352  13.434   9.065  1.00  0.00    +0.000 H 
ATOM    111  H11 UNL A   1      16.424  13.254   7.683  1.00  0.00    +0.000 H 
ATOM     16  O1  UNL A   1      15.359  15.000   7.738  1.00  0.00    +0.000 O 
ATOM    112  H12 UNL A   1      15.725  16.448   6.334  1.00  0.00    +0.000 H 
ATOM    113  H13 UNL A   1      16.632  14.945   6.146  1.00  0.00    +0.000 H 
ENDBRANCH   12   13
ENDBRANCH    6    7
ENDBRANCH    3    4
ENDBRANCH    2    3
ENDBRANCH   26    2
ENDBRANCH   28   26
ENDBRANCH   29   28
ENDBRANCH   30   29
ENDBRANCH   31   30
ENDBRANCH   32   31
ENDBRANCH   33   32
ENDBRANCH   34   33
ENDBRANCH   35   34
ENDBRANCH   36   35
ENDBRANCH   38   36
ENDBRANCH   42   41
BRANCH   46   47
ATOM     47  C34 UNL A   1      25.307  18.308   8.465  1.00  0.00    +0.000 C 
ATOM     48  C35 UNL A   1      25.275  18.321   9.873  1.00  0.00    +0.000 C 
ATOM     49  F1  UNL A   1      24.384  17.574  10.541  1.00  0.00    +0.000 F 
ATOM     50  C36 UNL A   1      26.116  19.150  10.621  1.00  0.00    +0.000 C 
ATOM     51  F2  UNL A   1      25.995  19.192  11.955  1.00  0.00    +0.000 F 
ATOM     52  C37 UNL A   1      27.038  19.967   9.991  1.00  0.00    +0.000 C 
ATOM     53  F3  UNL A   1      27.820  20.787  10.705  1.00  0.00    +0.000 F 
ATOM     54  C38 UNL A   1      27.115  19.963   8.612  1.00  0.00    +0.000 C 
ATOM     55  F4  UNL A   1      27.986  20.767   7.985  1.00  0.00    +0.000 F 
ATOM     56  C39 UNL A   1      26.246  19.171   7.862  1.00  0.00    +0.000 C 
ATOM     57  F5  UNL A   1      26.285  19.340   6.533  1.00  0.00    +0.000 F 
ENDBRANCH   46   47
BRANCH   63   64
ATOM     65  C46 UNL A   1      19.944  18.103   3.380  1.00  0.00    +0.000 C 
ATOM     66  F6  UNL A   1      20.801  17.073   3.435  1.00  0.00    +0.000 F 
ATOM     67  C47 UNL A   1      18.685  17.879   2.828  1.00  0.00    +0.000 C 
ATOM     68  F7  UNL A   1      18.384  16.681   2.304  1.00  0.00    +0.000 F 
ATOM     69  C48 UNL A   1      17.730  18.882   2.849  1.00  0.00    +0.000 C 
ATOM     70  F8  UNL A   1      16.503  18.654   2.358  1.00  0.00    +0.000 F 
ATOM     71  C49 UNL A   1      18.035  20.112   3.408  1.00  0.00    +0.000 C 
ATOM     72  F9  UNL A   1      17.097  21.068   3.477  1.00  0.00    +0.000 F 
ATOM     73  C50 UNL A   1      19.306  20.351   3.926  1.00  0.00    +0.000 C 
ATOM     74  F10 UNL A   1      19.560  21.544   4.486  1.00  0.00    +0.000 F 
ATOM     64  C45 UNL A   1      20.290  19.353   3.920  1.00  0.00    +0.000 C 
ENDBRANCH   63   64
BRANCH   78   79
ATOM     79  C54 UNL A   1      25.189  19.241  -0.083  1.00  0.00    +0.000 C 
ATOM     80  C55 UNL A   1      26.578  19.324   0.096  1.00  0.00    +0.000 C 
ATOM     81  F11 UNL A   1      27.113  19.143   1.311  1.00  0.00    +0.000 F 
ATOM     82  C56 UNL A   1      27.443  19.528  -0.985  1.00  0.00    +0.000 C 
ATOM     83  F12 UNL A   1      28.767  19.539  -0.785  1.00  0.00    +0.000 F 
ATOM     84  C57 UNL A   1      26.941  19.664  -2.268  1.00  0.00    +0.000 C 
ATOM     85  F13 UNL A   1      27.773  19.803  -3.310  1.00  0.00    +0.000 F 
ATOM     86  C58 UNL A   1      25.576  19.612  -2.474  1.00  0.00    +0.000 C 
ATOM     87  F14 UNL A   1      25.079  19.709  -3.716  1.00  0.00    +0.000 F 
ATOM     88  C59 UNL A   1      24.713  19.397  -1.400  1.00  0.00    +0.000 C 
ATOM     89  F15 UNL A   1      23.412  19.251  -1.687  1.00  0.00    +0.000 F 
ENDBRANCH   78   79
TORSDOF 20
ENDMDL
MODEL 7
REMARK VINA RESULT:     -11.3      7.063     11.616
ROOT
ATOM    136  H36 UNL A   1      25.058  20.905   9.326  1.00  0.00    +0.000 H 
ATOM    137  H37 UNL A   1      26.777  19.983   7.513  1.00  0.00    +0.000 H 
ATOM    138  H38 UNL A   1      25.790  17.006  10.027  1.00  0.00    +0.000 H 
ATOM    139  H39 UNL A   1      21.800  14.304   3.254  1.00  0.00    +0.000 H 
ATOM    140  H40 UNL A   1      20.695  16.591   3.464  1.00  0.00    +0.000 H 
ATOM    141  H41 UNL A   1      23.283  16.167   6.688  1.00  0.00    +0.000 H 
ATOM    142  H42 UNL A   1      23.810  13.363   8.321  1.00  0.00    +0.000 H 
ATOM    143  H43 UNL A   1      25.275  15.224   9.332  1.00  0.00    +0.000 H 
ATOM    144  H44 UNL A   1      20.556  18.463  10.508  1.00  0.00    +0.000 H 
ATOM    145  H45 UNL A   1      19.377  17.970   8.280  1.00  0.00    +0.000 H 
ATOM     42  C30 UNL A   1      21.155  17.829   6.048  1.00  0.00    +0.000 C 
ATOM     43  C31 UNL A   1      21.493  18.122   7.477  1.00  0.00    +0.000 C 
ATOM     44  N9  UNL A   1      22.646  18.408   8.000  1.00  0.00    +0.000 N 
ATOM     45  C32 UNL A   1      22.442  18.473   9.380  1.00  0.00    +0.000 C 
ATOM     46  C33 UNL A   1      23.455  18.477  10.290  1.00  0.00    +0.000 C 
ATOM     58  C40 UNL A   1      24.724  18.799   9.708  1.00  0.00    +0.000 C 
ATOM     59  C41 UNL A   1      25.270  19.918   9.115  1.00  0.00    +0.000 C 
ATOM     60  C42 UNL A   1      26.189  19.419   8.146  1.00  0.00    +0.000 C 
ATOM     61  C43 UNL A   1      26.146  18.026   8.214  1.00  0.00    +0.000 C 
ATOM     62  N10 UNL A   1      25.596  17.775   9.444  1.00  0.00    +0.000 N 
ATOM     63  C44 UNL A   1      26.397  17.006   7.225  1.00  0.00    +0.000 C 
ATOM     75  C51 UNL A   1      25.890  15.741   7.279  1.00  0.00    +0.000 C 
ATOM     76  N11 UNL A   1      25.661  15.017   6.119  1.00  0.00    +0.000 N 
ATOM     77  C52 UNL A   1      24.677  14.212   6.415  1.00  0.00    +0.000 C 
ATOM     78  C53 UNL A   1      23.657  13.751   5.443  1.00  0.00    +0.000 C 
ATOM     90  C60 UNL A   1      22.889  14.815   5.114  1.00  0.00    +0.000 C 
ATOM     91  C61 UNL A   1      21.961  14.983   4.015  1.00  0.00    +0.000 C 
ATOM     92  C62 UNL A   1      21.343  16.173   4.151  1.00  0.00    +0.000 C 
ATOM     93  C63 UNL A   1      21.736  16.783   5.424  1.00  0.00    +0.000 C 
ATOM     94  N12 UNL A   1      22.737  15.965   5.894  1.00  0.00    +0.000 N 
ATOM     95  C64 UNL A   1      24.417  14.041   7.835  1.00  0.00    +0.000 C 
ATOM     96  C65 UNL A   1      25.187  15.013   8.326  1.00  0.00    +0.000 C 
ATOM     97  C66 UNL A   1      21.020  18.365   9.591  1.00  0.00    +0.000 C 
ATOM     98  C67 UNL A   1      20.384  18.121   8.445  1.00  0.00    +0.000 C 
ENDROOT
BRANCH   42   41
ATOM     99  C68 UNL A   1      18.745  18.121   5.473  1.00  0.00    +0.000 C 
ATOM    100  C69 UNL A   1      17.747  18.823   4.803  1.00  0.00    +0.000 C 
ATOM     38  C26 UNL A   1      18.035  20.016   4.117  1.00  0.00    +0.000 C 
ATOM     39  C27 UNL A   1      19.333  20.523   4.183  1.00  0.00    +0.000 C 
ATOM    134  H34 UNL A   1      19.548  21.437   3.754  1.00  0.00    +0.000 H 
ATOM     40  C28 UNL A   1      20.346  19.807   4.825  1.00  0.00    +0.000 C 
ATOM    135  H35 UNL A   1      21.307  20.180   4.845  1.00  0.00    +0.000 H 
ATOM     41  C29 UNL A   1      20.060  18.586   5.437  1.00  0.00    +0.000 C 
ATOM    146  H46 UNL A   1      18.513  17.262   5.994  1.00  0.00    +0.000 H 
ATOM    147  H47 UNL A   1      16.781  18.462   4.810  1.00  0.00    +0.000 H 
BRANCH   38   36
ATOM     36  C25 UNL A   1      16.894  20.620   3.372  1.00  0.00    +0.000 C 
ATOM     37  O3  UNL A   1      16.099  21.322   3.983  1.00  0.00    +0.000 O 
BRANCH   36   35
ATOM     35  N8  UNL A   1      16.628  20.408   2.045  1.00  0.00    +0.000 N 
ATOM    133  H33 UNL A   1      17.354  20.729   1.463  1.00  0.00    +0.000 H 
BRANCH   35   34
ATOM     34  C24 UNL A   1      15.538  19.824   1.295  1.00  0.00    +0.000 C 
ATOM    131  H31 UNL A   1      15.031  19.129   1.931  1.00  0.00    +0.000 H 
ATOM    132  H32 UNL A   1      14.922  20.639   0.979  1.00  0.00    +0.000 H 
BRANCH   34   33
ATOM     33  C23 UNL A   1      15.953  19.084   0.022  1.00  0.00    +0.000 C 
ATOM    130  H30 UNL A   1      16.988  19.312  -0.123  1.00  0.00    +0.000 H 
ATOM    129  H29 UNL A   1      15.319  19.418  -0.773  1.00  0.00    +0.000 H 
BRANCH   33   32
ATOM    128  H28 UNL A   1      16.122  17.218  -0.899  1.00  0.00    +0.000 H 
ATOM    127  H27 UNL A   1      14.877  17.298   0.401  1.00  0.00    +0.000 H 
ATOM     32  C22 UNL A   1      15.866  17.555   0.084  1.00  0.00    +0.000 C 
BRANCH   32   31
ATOM    125  H25 UNL A   1      17.570  17.568   1.355  1.00  0.00    +0.000 H 
ATOM    126  H26 UNL A   1      16.262  16.429   1.810  1.00  0.00    +0.000 H 
ATOM     31  C21 UNL A   1      16.854  16.845   1.022  1.00  0.00    +0.000 C 
BRANCH   31   30
ATOM    123  H23 UNL A   1      16.927  14.875   0.227  1.00  0.00    +0.000 H 
ATOM    124  H24 UNL A   1      18.075  16.036  -0.488  1.00  0.00    +0.000 H 
ATOM     30  C20 UNL A   1      17.621  15.669   0.407  1.00  0.00    +0.000 C 
BRANCH   30   29
ATOM    121  H21 UNL A   1      19.403  14.532   0.672  1.00  0.00    +0.000 H 
ATOM    122  H22 UNL A   1      19.271  15.962   1.703  1.00  0.00    +0.000 H 
ATOM     29  C19 UNL A   1      18.754  15.126   1.281  1.00  0.00    +0.000 C 
BRANCH   29   28
ATOM     28  N7  UNL A   1      18.264  14.310   2.374  1.00  0.00    +0.000 N 
ATOM    120  H20 UNL A   1      18.876  14.302   3.144  1.00  0.00    +0.000 H 
BRANCH   28   26
ATOM     26  C18 UNL A   1      17.160  13.557   2.578  1.00  0.00    +0.000 C 
ATOM     27  O2  UNL A   1      17.230  12.404   2.117  1.00  0.00    +0.000 O 
BRANCH   26    2
ATOM      2  C1  UNL A   1      15.881  13.941   3.367  1.00  0.00    +0.000 C 
ATOM    104  H4  UNL A   1      15.310  14.425   2.601  1.00  0.00    +0.000 H 
BRANCH    2    1
ATOM      1  N1  UNL A   1      15.197  12.730   3.860  1.00  0.00    +0.000 N 
ATOM    101  H1  UNL A   1      15.607  12.446   4.750  1.00  0.00    +0.000 H 
ATOM    102  H2  UNL A   1      15.307  11.977   3.180  1.00  0.00    +0.000 H 
ATOM    103  H3  UNL A   1      14.205  12.927   3.990  1.00  0.00    +0.000 H 
ENDBRANCH    2    1
BRANCH    2    3
ATOM    105  H5  UNL A   1      14.745  15.392   4.353  1.00  0.00    +0.000 H 
ATOM    106  H6  UNL A   1      16.443  15.850   3.734  1.00  0.00    +0.000 H 
ATOM      3  C2  UNL A   1      15.790  15.182   4.255  1.00  0.00    +0.000 C 
BRANCH    3    4
ATOM      4  C3  UNL A   1      16.353  15.271   5.650  1.00  0.00    +0.000 C 
ATOM      5  C4  UNL A   1      15.650  15.926   6.653  1.00  0.00    +0.000 C 
ATOM      6  N2  UNL A   1      16.453  16.060   7.755  1.00  0.00    +0.000 N 
ATOM    107  H7  UNL A   1      14.677  16.259   6.579  1.00  0.00    +0.000 H 
ATOM     20  C12 UNL A   1      17.634  15.377   7.551  1.00  0.00    +0.000 C 
ATOM     21  C13 UNL A   1      18.738  15.200   8.407  1.00  0.00    +0.000 C 
ATOM    116  H16 UNL A   1      18.757  15.639   9.341  1.00  0.00    +0.000 H 
ATOM     23  C15 UNL A   1      19.772  13.830   6.712  1.00  0.00    +0.000 C 
ATOM     24  C16 UNL A   1      18.673  14.020   5.864  1.00  0.00    +0.000 C 
ATOM     25  C17 UNL A   1      17.571  14.809   6.267  1.00  0.00    +0.000 C 
ATOM    119  H19 UNL A   1      18.667  13.578   4.932  1.00  0.00    +0.000 H 
ATOM    118  H18 UNL A   1      20.564  13.247   6.399  1.00  0.00    +0.000 H 
ATOM     22  C14 UNL A   1      19.805  14.418   7.966  1.00  0.00    +0.000 C 
ATOM    117  H17 UNL A   1      20.623  14.276   8.578  1.00  0.00    +0.000 H 
BRANCH    6    7
ATOM      7  C5  UNL A   1      16.135  16.866   8.874  1.00  0.00    +0.000 C 
ATOM      8  N3  UNL A   1      15.829  16.235  10.002  1.00  0.00    +0.000 N 
ATOM      9  C6  UNL A   1      15.685  17.071  11.016  1.00  0.00    +0.000 C 
ATOM     10 Cl1  UNL A   1      15.333  16.355  12.527  1.00  0.00    +0.000 Cl
ATOM     11  N4  UNL A   1      15.740  18.393  10.993  1.00  0.00    +0.000 N 
ATOM     12  C7  UNL A   1      15.930  18.917   9.791  1.00  0.00    +0.000 C 
ATOM     19  N6  UNL A   1      16.201  18.190   8.712  1.00  0.00    +0.000 N 
BRANCH   12   13
ATOM    108  H8  UNL A   1      14.106  21.585   9.926  1.00  0.00    +0.000 H 
ATOM    109  H9  UNL A   1      13.654  19.899   9.661  1.00  0.00    +0.000 H 
ATOM     13  N5  UNL A   1      15.685  20.267   9.659  1.00  0.00    +0.000 N 
ATOM     14  C8  UNL A   1      14.312  20.692   9.374  1.00  0.00    +0.000 C 
ATOM     15  C9  UNL A   1      14.095  20.971   7.884  1.00  0.00    +0.000 C 
ATOM     17  C10 UNL A   1      16.395  21.338   7.536  1.00  0.00    +0.000 C 
ATOM     18  C11 UNL A   1      16.735  21.058   9.012  1.00  0.00    +0.000 C 
ATOM    114  H14 UNL A   1      17.658  20.518   9.058  1.00  0.00    +0.000 H 
ATOM    115  H15 UNL A   1      16.818  21.994   9.523  1.00  0.00    +0.000 H 
ATOM    110  H10 UNL A   1      13.120  21.390   7.745  1.00  0.00    +0.000 H 
ATOM    111  H11 UNL A   1      14.186  20.049   7.348  1.00  0.00    +0.000 H 
ATOM     16  O1  UNL A   1      15.077  21.891   7.385  1.00  0.00    +0.000 O 
ATOM    112  H12 UNL A   1      17.108  22.032   7.142  1.00  0.00    +0.000 H 
ATOM    113  H13 UNL A   1      16.426  20.409   7.007  1.00  0.00    +0.000 H 
ENDBRANCH   12   13
ENDBRANCH    6    7
ENDBRANCH    3    4
ENDBRANCH    2    3
ENDBRANCH   26    2
ENDBRANCH   28   26
ENDBRANCH   29   28
ENDBRANCH   30   29
ENDBRANCH   31   30
ENDBRANCH   32   31
ENDBRANCH   33   32
ENDBRANCH   34   33
ENDBRANCH   35   34
ENDBRANCH   36   35
ENDBRANCH   38   36
ENDBRANCH   42   41
BRANCH   46   47
ATOM     47  C34 UNL A   1      23.336  17.959  11.697  1.00  0.00    +0.000 C 
ATOM     48  C35 UNL A   1      23.459  16.583  11.969  1.00  0.00    +0.000 C 
ATOM     49  F1  UNL A   1      23.865  15.733  11.014  1.00  0.00    +0.000 F 
ATOM     50  C36 UNL A   1      23.107  16.043  13.210  1.00  0.00    +0.000 C 
ATOM     51  F2  UNL A   1      23.161  14.718  13.400  1.00  0.00    +0.000 F 
ATOM     52  C37 UNL A   1      22.654  16.862  14.228  1.00  0.00    +0.000 C 
ATOM     53  F3  UNL A   1      22.283  16.342  15.406  1.00  0.00    +0.000 F 
ATOM     54  C38 UNL A   1      22.542  18.221  14.006  1.00  0.00    +0.000 C 
ATOM     55  F4  UNL A   1      22.081  19.025  14.974  1.00  0.00    +0.000 F 
ATOM     56  C39 UNL A   1      22.849  18.755  12.755  1.00  0.00    +0.000 C 
ATOM     57  F5  UNL A   1      22.571  20.054  12.578  1.00  0.00    +0.000 F 
ENDBRANCH   46   47
BRANCH   63   64
ATOM     65  C46 UNL A   1      28.324  17.240   5.562  1.00  0.00    +0.000 C 
ATOM     66  F6  UNL A   1      29.168  16.633   6.408  1.00  0.00    +0.000 F 
ATOM     67  C47 UNL A   1      28.800  17.590   4.300  1.00  0.00    +0.000 C 
ATOM     68  F7  UNL A   1      30.088  17.384   3.986  1.00  0.00    +0.000 F 
ATOM     69  C48 UNL A   1      27.936  18.121   3.356  1.00  0.00    +0.000 C 
ATOM     70  F8  UNL A   1      28.383  18.417   2.126  1.00  0.00    +0.000 F 
ATOM     71  C49 UNL A   1      26.602  18.316   3.674  1.00  0.00    +0.000 C 
ATOM     72  F9  UNL A   1      25.753  18.780   2.746  1.00  0.00    +0.000 F 
ATOM     73  C50 UNL A   1      26.133  18.003   4.948  1.00  0.00    +0.000 C 
ATOM     74  F10 UNL A   1      24.829  18.177   5.215  1.00  0.00    +0.000 F 
ATOM     64  C45 UNL A   1      26.984  17.462   5.921  1.00  0.00    +0.000 C 
ENDBRANCH   63   64
BRANCH   78   79
ATOM     79  C54 UNL A   1      23.368  12.319   5.207  1.00  0.00    +0.000 C 
ATOM     80  C55 UNL A   1      22.581  11.583   6.105  1.00  0.00    +0.000 C 
ATOM     81  F11 UNL A   1      22.242  12.108   7.291  1.00  0.00    +0.000 F 
ATOM     82  C56 UNL A   1      22.074  10.323   5.769  1.00  0.00    +0.000 C 
ATOM     83  F12 UNL A   1      21.274   9.676   6.627  1.00  0.00    +0.000 F 
ATOM     84  C57 UNL A   1      22.349   9.763   4.533  1.00  0.00    +0.000 C 
ATOM     85  F13 UNL A   1      21.817   8.582   4.191  1.00  0.00    +0.000 F 
ATOM     86  C58 UNL A   1      23.142  10.452   3.635  1.00  0.00    +0.000 C 
ATOM     87  F14 UNL A   1      23.389   9.936   2.422  1.00  0.00    +0.000 F 
ATOM     88  C59 UNL A   1      23.638  11.713   3.963  1.00  0.00    +0.000 C 
ATOM     89  F15 UNL A   1      24.310  12.368   3.006  1.00  0.00    +0.000 F 
ENDBRANCH   78   79
TORSDOF 20
ENDMDL
MODEL 8
REMARK VINA RESULT:     -11.2     13.237     20.758
ROOT
ATOM    136  H36 UNL A   1       6.196  29.997  -5.174  1.00  0.00    +0.000 H 
ATOM    137  H37 UNL A   1       8.486  28.741  -5.689  1.00  0.00    +0.000 H 
ATOM    138  H38 UNL A   1       9.222  32.655  -5.146  1.00  0.00    +0.000 H 
ATOM    139  H39 UNL A   1      12.654  29.751   1.845  1.00  0.00    +0.000 H 
ATOM    140  H40 UNL A   1      10.301  28.825   2.159  1.00  0.00    +0.000 H 
ATOM    141  H41 UNL A   1      10.296  31.053  -1.349  1.00  0.00    +0.000 H 
ATOM    142  H42 UNL A   1      11.960  33.852  -1.803  1.00  0.00    +0.000 H 
ATOM    143  H43 UNL A   1      10.696  33.253  -3.966  1.00  0.00    +0.000 H 
ATOM    144  H44 UNL A   1       5.585  33.304  -1.133  1.00  0.00    +0.000 H 
ATOM    145  H45 UNL A   1       6.465  32.089   0.952  1.00  0.00    +0.000 H 
ATOM     42  C30 UNL A   1       8.367  30.039   0.368  1.00  0.00    +0.000 C 
ATOM     43  C31 UNL A   1       7.637  30.920  -0.598  1.00  0.00    +0.000 C 
ATOM     44  N9  UNL A   1       7.682  30.919  -1.895  1.00  0.00    +0.000 N 
ATOM     45  C32 UNL A   1       6.914  32.009  -2.311  1.00  0.00    +0.000 C 
ATOM     46  C33 UNL A   1       6.940  32.506  -3.579  1.00  0.00    +0.000 C 
ATOM     58  C40 UNL A   1       7.510  31.591  -4.523  1.00  0.00    +0.000 C 
ATOM     59  C41 UNL A   1       7.150  30.359  -5.027  1.00  0.00    +0.000 C 
ATOM     60  C42 UNL A   1       8.379  29.692  -5.302  1.00  0.00    +0.000 C 
ATOM     61  C43 UNL A   1       9.411  30.563  -4.949  1.00  0.00    +0.000 C 
ATOM     62  N10 UNL A   1       8.805  31.792  -4.922  1.00  0.00    +0.000 N 
ATOM     63  C44 UNL A   1      10.762  30.324  -4.502  1.00  0.00    +0.000 C 
ATOM     75  C51 UNL A   1      11.497  31.209  -3.769  1.00  0.00    +0.000 C 
ATOM     76  N11 UNL A   1      12.487  30.766  -2.905  1.00  0.00    +0.000 N 
ATOM     77  C52 UNL A   1      12.546  31.675  -1.971  1.00  0.00    +0.000 C 
ATOM     78  C53 UNL A   1      12.900  31.397  -0.559  1.00  0.00    +0.000 C 
ATOM     90  C60 UNL A   1      11.888  30.684  -0.012  1.00  0.00    +0.000 C 
ATOM     91  C61 UNL A   1      11.852  29.921   1.218  1.00  0.00    +0.000 C 
ATOM     92  C62 UNL A   1      10.597  29.468   1.408  1.00  0.00    +0.000 C 
ATOM     93  C63 UNL A   1       9.716  30.031   0.381  1.00  0.00    +0.000 C 
ATOM     94  N12 UNL A   1      10.575  30.663  -0.489  1.00  0.00    +0.000 N 
ATOM     95  C64 UNL A   1      11.920  32.946  -2.296  1.00  0.00    +0.000 C 
ATOM     96  C65 UNL A   1      11.278  32.604  -3.414  1.00  0.00    +0.000 C 
ATOM     97  C66 UNL A   1       6.281  32.541  -1.130  1.00  0.00    +0.000 C 
ATOM     98  C67 UNL A   1       6.713  31.917  -0.034  1.00  0.00    +0.000 C 
ENDROOT
BRANCH   42   41
ATOM     99  C68 UNL A   1       7.413  29.896   2.670  1.00  0.00    +0.000 C 
ATOM    100  C69 UNL A   1       6.734  29.171   3.645  1.00  0.00    +0.000 C 
ATOM     38  C26 UNL A   1       6.178  27.911   3.357  1.00  0.00    +0.000 C 
ATOM     39  C27 UNL A   1       6.259  27.433   2.049  1.00  0.00    +0.000 C 
ATOM    134  H34 UNL A   1       5.790  26.549   1.798  1.00  0.00    +0.000 H 
ATOM     40  C28 UNL A   1       6.968  28.139   1.075  1.00  0.00    +0.000 C 
ATOM    135  H35 UNL A   1       7.041  27.763   0.118  1.00  0.00    +0.000 H 
ATOM     41  C29 UNL A   1       7.578  29.353   1.395  1.00  0.00    +0.000 C 
ATOM    146  H46 UNL A   1       7.792  30.829   2.888  1.00  0.00    +0.000 H 
ATOM    147  H47 UNL A   1       6.637  29.564   4.594  1.00  0.00    +0.000 H 
BRANCH   38   36
ATOM     36  C25 UNL A   1       5.552  27.206   4.512  1.00  0.00    +0.000 C 
ATOM     37  O3  UNL A   1       4.455  27.580   4.905  1.00  0.00    +0.000 O 
BRANCH   36   35
ATOM     35  N8  UNL A   1       6.140  26.189   5.216  1.00  0.00    +0.000 N 
ATOM    133  H33 UNL A   1       5.627  25.946   6.021  1.00  0.00    +0.000 H 
BRANCH   35   34
ATOM     34  C24 UNL A   1       7.332  25.385   5.061  1.00  0.00    +0.000 C 
ATOM    131  H31 UNL A   1       7.280  24.574   5.757  1.00  0.00    +0.000 H 
ATOM    132  H32 UNL A   1       7.348  25.068   4.040  1.00  0.00    +0.000 H 
BRANCH   34   33
ATOM     33  C23 UNL A   1       8.648  26.128   5.298  1.00  0.00    +0.000 C 
ATOM    130  H30 UNL A   1       9.301  25.420   5.764  1.00  0.00    +0.000 H 
ATOM    129  H29 UNL A   1       8.436  26.986   5.902  1.00  0.00    +0.000 H 
BRANCH   33   32
ATOM    128  H28 UNL A   1       9.765  27.572   4.286  1.00  0.00    +0.000 H 
ATOM    127  H27 UNL A   1       8.672  26.600   3.233  1.00  0.00    +0.000 H 
ATOM     32  C22 UNL A   1       9.377  26.606   4.037  1.00  0.00    +0.000 C 
BRANCH   32   31
ATOM    125  H25 UNL A   1      10.244  24.960   3.009  1.00  0.00    +0.000 H 
ATOM    126  H26 UNL A   1      11.224  26.462   3.050  1.00  0.00    +0.000 H 
ATOM     31  C21 UNL A   1      10.597  25.786   3.593  1.00  0.00    +0.000 C 
BRANCH   31   30
ATOM    123  H23 UNL A   1      12.473  25.548   4.565  1.00  0.00    +0.000 H 
ATOM    124  H24 UNL A   1      11.050  25.594   5.639  1.00  0.00    +0.000 H 
ATOM     30  C20 UNL A   1      11.465  25.225   4.726  1.00  0.00    +0.000 C 
BRANCH   30   29
ATOM    121  H21 UNL A   1      10.842  23.302   4.055  1.00  0.00    +0.000 H 
ATOM    122  H22 UNL A   1      12.475  23.363   4.731  1.00  0.00    +0.000 H 
ATOM     29  C19 UNL A   1      11.463  23.699   4.830  1.00  0.00    +0.000 C 
BRANCH   29   28
ATOM     28  N7  UNL A   1      10.967  23.234   6.109  1.00  0.00    +0.000 N 
ATOM    120  H20 UNL A   1      10.098  22.778   6.036  1.00  0.00    +0.000 H 
BRANCH   28   26
ATOM     26  C18 UNL A   1      11.423  23.284   7.381  1.00  0.00    +0.000 C 
ATOM     27  O2  UNL A   1      11.736  22.179   7.860  1.00  0.00    +0.000 O 
BRANCH   26    2
ATOM      2  C1  UNL A   1      11.659  24.542   8.258  1.00  0.00    +0.000 C 
ATOM    104  H4  UNL A   1      11.344  24.181   9.216  1.00  0.00    +0.000 H 
BRANCH    2    1
ATOM      1  N1  UNL A   1      13.090  24.903   8.266  1.00  0.00    +0.000 N 
ATOM    101  H1  UNL A   1      13.201  25.863   7.940  1.00  0.00    +0.000 H 
ATOM    102  H2  UNL A   1      13.603  24.273   7.648  1.00  0.00    +0.000 H 
ATOM    103  H3  UNL A   1      13.457  24.821   9.214  1.00  0.00    +0.000 H 
ENDBRANCH    2    1
BRANCH    2    3
ATOM    105  H5  UNL A   1      10.496  26.007   7.327  1.00  0.00    +0.000 H 
ATOM    106  H6  UNL A   1      11.162  26.342   9.036  1.00  0.00    +0.000 H 
ATOM      3  C2  UNL A   1      10.665  25.701   8.338  1.00  0.00    +0.000 C 
BRANCH    3    4
ATOM      4  C3  UNL A   1       9.299  25.607   8.967  1.00  0.00    +0.000 C 
ATOM      5  C4  UNL A   1       8.891  26.544   9.907  1.00  0.00    +0.000 C 
ATOM      6  N2  UNL A   1       7.719  26.127  10.482  1.00  0.00    +0.000 N 
ATOM    107  H7  UNL A   1       9.392  27.416  10.136  1.00  0.00    +0.000 H 
ATOM     20  C12 UNL A   1       7.266  24.995   9.836  1.00  0.00    +0.000 C 
ATOM     21  C13 UNL A   1       6.097  24.238  10.048  1.00  0.00    +0.000 C 
ATOM    116  H16 UNL A   1       5.437  24.487  10.801  1.00  0.00    +0.000 H 
ATOM     23  C15 UNL A   1       6.741  22.819   8.206  1.00  0.00    +0.000 C 
ATOM     24  C16 UNL A   1       7.905  23.574   8.010  1.00  0.00    +0.000 C 
ATOM     25  C17 UNL A   1       8.199  24.686   8.832  1.00  0.00    +0.000 C 
ATOM    119  H19 UNL A   1       8.559  23.314   7.255  1.00  0.00    +0.000 H 
ATOM    118  H18 UNL A   1       6.544  22.013   7.592  1.00  0.00    +0.000 H 
ATOM     22  C14 UNL A   1       5.851  23.146   9.217  1.00  0.00    +0.000 C 
ATOM    117  H17 UNL A   1       5.001  22.579   9.356  1.00  0.00    +0.000 H 
BRANCH    6    7
ATOM      7  C5  UNL A   1       7.141  26.726  11.626  1.00  0.00    +0.000 C 
ATOM      8  N3  UNL A   1       6.115  27.546  11.422  1.00  0.00    +0.000 N 
ATOM      9  C6  UNL A   1       5.562  27.942  12.556  1.00  0.00    +0.000 C 
ATOM     10 Cl1  UNL A   1       4.203  28.966  12.403  1.00  0.00    +0.000 Cl
ATOM     11  N4  UNL A   1       5.958  27.673  13.790  1.00  0.00    +0.000 N 
ATOM     12  C7  UNL A   1       7.064  26.947  13.870  1.00  0.00    +0.000 C 
ATOM     19  N6  UNL A   1       7.651  26.393  12.815  1.00  0.00    +0.000 N 
BRANCH   12   13
ATOM    108  H8  UNL A   1       7.501  25.879  16.892  1.00  0.00    +0.000 H 
ATOM    109  H9  UNL A   1       6.041  25.952  15.902  1.00  0.00    +0.000 H 
ATOM     13  N5  UNL A   1       7.687  26.904  15.098  1.00  0.00    +0.000 N 
ATOM     14  C8  UNL A   1       6.893  26.491  16.258  1.00  0.00    +0.000 C 
ATOM     15  C9  UNL A   1       6.391  27.691  17.066  1.00  0.00    +0.000 C 
ATOM     17  C10 UNL A   1       8.103  29.074  16.227  1.00  0.00    +0.000 C 
ATOM     18  C11 UNL A   1       8.686  27.945  15.357  1.00  0.00    +0.000 C 
ATOM    114  H14 UNL A   1       9.010  28.358  14.424  1.00  0.00    +0.000 H 
ATOM    115  H15 UNL A   1       9.507  27.504  15.881  1.00  0.00    +0.000 H 
ATOM    110  H10 UNL A   1       5.922  27.339  17.962  1.00  0.00    +0.000 H 
ATOM    111  H11 UNL A   1       5.691  28.236  16.467  1.00  0.00    +0.000 H 
ATOM     16  O1  UNL A   1       7.474  28.566  17.415  1.00  0.00    +0.000 O 
ATOM    112  H12 UNL A   1       8.894  29.736  16.511  1.00  0.00    +0.000 H 
ATOM    113  H13 UNL A   1       7.359  29.585  15.652  1.00  0.00    +0.000 H 
ENDBRANCH   12   13
ENDBRANCH    6    7
ENDBRANCH    3    4
ENDBRANCH    2    3
ENDBRANCH   26    2
ENDBRANCH   28   26
ENDBRANCH   29   28
ENDBRANCH   30   29
ENDBRANCH   31   30
ENDBRANCH   32   31
ENDBRANCH   33   32
ENDBRANCH   34   33
ENDBRANCH   35   34
ENDBRANCH   36   35
ENDBRANCH   38   36
ENDBRANCH   42   41
BRANCH   46   47
ATOM     47  C34 UNL A   1       6.650  33.937  -3.936  1.00  0.00    +0.000 C 
ATOM     48  C35 UNL A   1       5.541  34.267  -4.739  1.00  0.00    +0.000 C 
ATOM     49  F1  UNL A   1       4.622  33.340  -5.046  1.00  0.00    +0.000 F 
ATOM     50  C36 UNL A   1       5.386  35.541  -5.294  1.00  0.00    +0.000 C 
ATOM     51  F2  UNL A   1       4.360  35.789  -6.119  1.00  0.00    +0.000 F 
ATOM     52  C37 UNL A   1       6.315  36.535  -5.039  1.00  0.00    +0.000 C 
ATOM     53  F3  UNL A   1       6.187  37.745  -5.598  1.00  0.00    +0.000 F 
ATOM     54  C38 UNL A   1       7.404  36.255  -4.237  1.00  0.00    +0.000 C 
ATOM     55  F4  UNL A   1       8.325  37.200  -4.000  1.00  0.00    +0.000 F 
ATOM     56  C39 UNL A   1       7.584  34.973  -3.719  1.00  0.00    +0.000 C 
ATOM     57  F5  UNL A   1       8.739  34.746  -3.080  1.00  0.00    +0.000 F 
ENDBRANCH   46   47
BRANCH   63   64
ATOM     65  C46 UNL A   1      12.136  28.457  -5.579  1.00  0.00    +0.000 C 
ATOM     66  F6  UNL A   1      12.547  29.281  -6.553  1.00  0.00    +0.000 F 
ATOM     67  C47 UNL A   1      12.650  27.163  -5.555  1.00  0.00    +0.000 C 
ATOM     68  F7  UNL A   1      13.475  26.748  -6.529  1.00  0.00    +0.000 F 
ATOM     69  C48 UNL A   1      12.338  26.311  -4.507  1.00  0.00    +0.000 C 
ATOM     70  F8  UNL A   1      12.867  25.080  -4.459  1.00  0.00    +0.000 F 
ATOM     71  C49 UNL A   1      11.502  26.746  -3.492  1.00  0.00    +0.000 C 
ATOM     72  F9  UNL A   1      11.239  25.944  -2.451  1.00  0.00    +0.000 F 
ATOM     73  C50 UNL A   1      10.956  28.027  -3.534  1.00  0.00    +0.000 C 
ATOM     74  F10 UNL A   1      10.172  28.428  -2.521  1.00  0.00    +0.000 F 
ATOM     64  C45 UNL A   1      11.257  28.909  -4.581  1.00  0.00    +0.000 C 
ENDBRANCH   63   64
BRANCH   78   79
ATOM     79  C54 UNL A   1      13.993  32.104   0.146  1.00  0.00    +0.000 C 
ATOM     80  C55 UNL A   1      13.721  33.175   1.010  1.00  0.00    +0.000 C 
ATOM     81  F11 UNL A   1      12.491  33.706   1.059  1.00  0.00    +0.000 F 
ATOM     82  C56 UNL A   1      14.692  33.674   1.884  1.00  0.00    +0.000 C 
ATOM     83  F12 UNL A   1      14.379  34.657   2.738  1.00  0.00    +0.000 F 
ATOM     84  C57 UNL A   1      15.962  33.121   1.911  1.00  0.00    +0.000 C 
ATOM     85  F13 UNL A   1      16.874  33.562   2.787  1.00  0.00    +0.000 F 
ATOM     86  C58 UNL A   1      16.269  32.081   1.055  1.00  0.00    +0.000 C 
ATOM     87  F14 UNL A   1      17.484  31.515   1.093  1.00  0.00    +0.000 F 
ATOM     88  C59 UNL A   1      15.298  31.575   0.192  1.00  0.00    +0.000 C 
ATOM     89  F15 UNL A   1      15.633  30.498  -0.533  1.00  0.00    +0.000 F 
ENDBRANCH   78   79
TORSDOF 20
ENDMDL
MODEL 9
REMARK VINA RESULT:     -11.0     13.183     18.145
ROOT
ATOM    136  H36 UNL A   1       7.890  25.845  -3.412  1.00  0.00    +0.000 H 
ATOM    137  H37 UNL A   1       7.194  27.636  -1.569  1.00  0.00    +0.000 H 
ATOM    138  H38 UNL A   1      10.673  25.930  -0.500  1.00  0.00    +0.000 H 
ATOM    139  H39 UNL A   1      13.533  33.482  -2.468  1.00  0.00    +0.000 H 
ATOM    140  H40 UNL A   1      12.437  32.894  -4.692  1.00  0.00    +0.000 H 
ATOM    141  H41 UNL A   1      12.011  29.599  -2.195  1.00  0.00    +0.000 H 
ATOM    142  H42 UNL A   1      14.273  28.563  -0.046  1.00  0.00    +0.000 H 
ATOM    143  H43 UNL A   1      12.202  27.038   0.096  1.00  0.00    +0.000 H 
ATOM    144  H44 UNL A   1      12.684  25.661  -5.563  1.00  0.00    +0.000 H 
ATOM    145  H45 UNL A   1      13.237  28.048  -6.334  1.00  0.00    +0.000 H 
ATOM     42  C30 UNL A   1      11.800  30.072  -4.921  1.00  0.00    +0.000 C 
ATOM     43  C31 UNL A   1      11.705  28.588  -4.752  1.00  0.00    +0.000 C 
ATOM     44  N9  UNL A   1      10.934  27.905  -3.962  1.00  0.00    +0.000 N 
ATOM     45  C32 UNL A   1      11.320  26.571  -4.099  1.00  0.00    +0.000 C 
ATOM     46  C33 UNL A   1      10.939  25.586  -3.238  1.00  0.00    +0.000 C 
ATOM     58  C40 UNL A   1       9.818  25.959  -2.428  1.00  0.00    +0.000 C 
ATOM     59  C41 UNL A   1       8.489  26.241  -2.672  1.00  0.00    +0.000 C 
ATOM     60  C42 UNL A   1       8.122  27.200  -1.683  1.00  0.00    +0.000 C 
ATOM     61  C43 UNL A   1       9.251  27.437  -0.897  1.00  0.00    +0.000 C 
ATOM     62  N10 UNL A   1      10.050  26.349  -1.136  1.00  0.00    +0.000 N 
ATOM     63  C44 UNL A   1       9.673  28.593  -0.144  1.00  0.00    +0.000 C 
ATOM     75  C51 UNL A   1      10.968  28.862   0.190  1.00  0.00    +0.000 C 
ATOM     76  N11 UNL A   1      11.398  30.167   0.374  1.00  0.00    +0.000 N 
ATOM     77  C52 UNL A   1      12.665  30.149   0.065  1.00  0.00    +0.000 C 
ATOM     78  C53 UNL A   1      13.393  31.292  -0.536  1.00  0.00    +0.000 C 
ATOM     90  C60 UNL A   1      12.932  31.458  -1.797  1.00  0.00    +0.000 C 
ATOM     91  C61 UNL A   1      13.085  32.581  -2.699  1.00  0.00    +0.000 C 
ATOM     92  C62 UNL A   1      12.545  32.254  -3.890  1.00  0.00    +0.000 C 
ATOM     93  C63 UNL A   1      12.136  30.847  -3.869  1.00  0.00    +0.000 C 
ATOM     94  N12 UNL A   1      12.302  30.468  -2.557  1.00  0.00    +0.000 N 
ATOM     95  C64 UNL A   1      13.278  28.831   0.023  1.00  0.00    +0.000 C 
ATOM     96  C65 UNL A   1      12.186  28.069   0.099  1.00  0.00    +0.000 C 
ATOM     97  C66 UNL A   1      12.279  26.528  -5.175  1.00  0.00    +0.000 C 
ATOM     98  C67 UNL A   1      12.573  27.756  -5.600  1.00  0.00    +0.000 C 
ENDROOT
BRANCH   42   41
ATOM     99  C68 UNL A   1      12.797  30.600  -7.147  1.00  0.00    +0.000 C 
ATOM    100  C69 UNL A   1      12.691  31.203  -8.397  1.00  0.00    +0.000 C 
ATOM     38  C26 UNL A   1      11.486  31.794  -8.819  1.00  0.00    +0.000 C 
ATOM     39  C27 UNL A   1      10.373  31.699  -7.983  1.00  0.00    +0.000 C 
ATOM    134  H34 UNL A   1       9.459  32.055  -8.306  1.00  0.00    +0.000 H 
ATOM     40  C28 UNL A   1      10.481  31.126  -6.715  1.00  0.00    +0.000 C 
ATOM    135  H35 UNL A   1       9.656  31.084  -6.097  1.00  0.00    +0.000 H 
ATOM     41  C29 UNL A   1      11.704  30.611  -6.281  1.00  0.00    +0.000 C 
ATOM    146  H46 UNL A   1      13.679  30.148  -6.863  1.00  0.00    +0.000 H 
ATOM    147  H47 UNL A   1      13.510  31.217  -9.025  1.00  0.00    +0.000 H 
BRANCH   38   36
ATOM     36  C25 UNL A   1      11.535  32.477 -10.143  1.00  0.00    +0.000 C 
ATOM     37  O3  UNL A   1      11.827  31.820 -11.133  1.00  0.00    +0.000 O 
BRANCH   36   35
ATOM     35  N8  UNL A   1      11.325  33.817 -10.337  1.00  0.00    +0.000 N 
ATOM    133  H33 UNL A   1      12.162  34.306 -10.507  1.00  0.00    +0.000 H 
BRANCH   35   34
ATOM     34  C24 UNL A   1      10.169  34.685 -10.353  1.00  0.00    +0.000 C 
ATOM    131  H31 UNL A   1      10.260  35.345 -11.190  1.00  0.00    +0.000 H 
ATOM    132  H32 UNL A   1       9.314  34.045 -10.409  1.00  0.00    +0.000 H 
BRANCH   34   33
ATOM     33  C23 UNL A   1       9.982  35.537  -9.097  1.00  0.00    +0.000 C 
ATOM    130  H30 UNL A   1       9.614  36.481  -9.438  1.00  0.00    +0.000 H 
ATOM    129  H29 UNL A   1      10.926  35.594  -8.596  1.00  0.00    +0.000 H 
BRANCH   33   32
ATOM    128  H28 UNL A   1       9.376  35.194  -7.128  1.00  0.00    +0.000 H 
ATOM    127  H27 UNL A   1       8.757  33.992  -8.319  1.00  0.00    +0.000 H 
ATOM     32  C22 UNL A   1       8.945  35.021  -8.093  1.00  0.00    +0.000 C 
BRANCH   32   31
ATOM    125  H25 UNL A   1       7.025  35.354  -7.245  1.00  0.00    +0.000 H 
ATOM    126  H26 UNL A   1       7.818  36.787  -7.974  1.00  0.00    +0.000 H 
ATOM     31  C21 UNL A   1       7.591  35.745  -8.065  1.00  0.00    +0.000 C 
BRANCH   31   30
ATOM    123  H23 UNL A   1       7.402  35.559 -10.174  1.00  0.00    +0.000 H 
ATOM    124  H24 UNL A   1       6.153  34.724  -9.213  1.00  0.00    +0.000 H 
ATOM     30  C20 UNL A   1       6.741  35.609  -9.334  1.00  0.00    +0.000 C 
BRANCH   30   29
ATOM    121  H21 UNL A   1       6.229  37.675  -9.276  1.00  0.00    +0.000 H 
ATOM    122  H22 UNL A   1       5.500  36.763 -10.604  1.00  0.00    +0.000 H 
ATOM     29  C19 UNL A   1       5.759  36.759  -9.565  1.00  0.00    +0.000 C 
BRANCH   29   28
ATOM     28  N7  UNL A   1       4.536  36.601  -8.804  1.00  0.00    +0.000 N 
ATOM    120  H20 UNL A   1       4.115  35.722  -8.941  1.00  0.00    +0.000 H 
BRANCH   28   26
ATOM     26  C18 UNL A   1       3.840  37.384  -7.950  1.00  0.00    +0.000 C 
ATOM     27  O2  UNL A   1       4.161  38.585  -7.974  1.00  0.00    +0.000 O 
BRANCH   26    2
ATOM      2  C1  UNL A   1       2.668  36.970  -7.022  1.00  0.00    +0.000 C 
ATOM    104  H4  UNL A   1       2.484  37.891  -6.508  1.00  0.00    +0.000 H 
BRANCH    2    1
ATOM      1  N1  UNL A   1       1.497  36.560  -7.822  1.00  0.00    +0.000 N 
ATOM    101  H1  UNL A   1       0.697  36.415  -7.206  1.00  0.00    +0.000 H 
ATOM    102  H2  UNL A   1       1.708  35.692  -8.315  1.00  0.00    +0.000 H 
ATOM    103  H3  UNL A   1       1.276  37.289  -8.500  1.00  0.00    +0.000 H 
ENDBRANCH    2    1
BRANCH    2    3
ATOM    105  H5  UNL A   1       2.053  35.557  -5.610  1.00  0.00    +0.000 H 
ATOM    106  H6  UNL A   1       2.978  37.067  -5.025  1.00  0.00    +0.000 H 
ATOM      3  C2  UNL A   1       2.873  36.239  -5.695  1.00  0.00    +0.000 C 
BRANCH    3    4
ATOM      4  C3  UNL A   1       4.102  35.439  -5.347  1.00  0.00    +0.000 C 
ATOM      5  C4  UNL A   1       4.041  34.054  -5.264  1.00  0.00    +0.000 C 
ATOM      6  N2  UNL A   1       5.210  33.581  -4.729  1.00  0.00    +0.000 N 
ATOM    107  H7  UNL A   1       3.240  33.474  -5.559  1.00  0.00    +0.000 H 
ATOM     20  C12 UNL A   1       6.106  34.621  -4.587  1.00  0.00    +0.000 C 
ATOM     21  C13 UNL A   1       7.434  34.614  -4.119  1.00  0.00    +0.000 C 
ATOM    116  H16 UNL A   1       7.872  33.740  -3.787  1.00  0.00    +0.000 H 
ATOM     23  C15 UNL A   1       7.552  36.982  -4.562  1.00  0.00    +0.000 C 
ATOM     24  C16 UNL A   1       6.226  36.979  -5.017  1.00  0.00    +0.000 C 
ATOM     25  C17 UNL A   1       5.465  35.788  -5.035  1.00  0.00    +0.000 C 
ATOM    119  H19 UNL A   1       5.798  37.860  -5.344  1.00  0.00    +0.000 H 
ATOM    118  H18 UNL A   1       8.090  37.863  -4.562  1.00  0.00    +0.000 H 
ATOM     22  C14 UNL A   1       8.145  35.813  -4.115  1.00  0.00    +0.000 C 
ATOM    117  H17 UNL A   1       9.119  35.829  -3.775  1.00  0.00    +0.000 H 
BRANCH    6    7
ATOM      7  C5  UNL A   1       5.403  32.246  -4.303  1.00  0.00    +0.000 C 
ATOM      8  N3  UNL A   1       6.382  31.564  -4.888  1.00  0.00    +0.000 N 
ATOM      9  C6  UNL A   1       6.568  30.381  -4.326  1.00  0.00    +0.000 C 
ATOM     10 Cl1  UNL A   1       7.837  29.440  -4.976  1.00  0.00    +0.000 Cl
ATOM     11  N4  UNL A   1       5.867  29.825  -3.351  1.00  0.00    +0.000 N 
ATOM     12  C7  UNL A   1       4.838  30.547  -2.929  1.00  0.00    +0.000 C 
ATOM     19  N6  UNL A   1       4.609  31.793  -3.329  1.00  0.00    +0.000 N 
BRANCH   12   13
ATOM    108  H8  UNL A   1       2.046  30.290  -1.316  1.00  0.00    +0.000 H 
ATOM    109  H9  UNL A   1       3.028  31.708  -1.689  1.00  0.00    +0.000 H 
ATOM     13  N5  UNL A   1       3.904  29.897  -2.153  1.00  0.00    +0.000 N 
ATOM     14  C8  UNL A   1       3.030  30.711  -1.303  1.00  0.00    +0.000 C 
ATOM     15  C9  UNL A   1       3.525  30.765   0.145  1.00  0.00    +0.000 C 
ATOM     17  C10 UNL A   1       4.732  28.759  -0.110  1.00  0.00    +0.000 C 
ATOM     18  C11 UNL A   1       4.313  28.610  -1.584  1.00  0.00    +0.000 C 
ATOM    114  H14 UNL A   1       5.141  28.229  -2.144  1.00  0.00    +0.000 H 
ATOM    115  H15 UNL A   1       3.482  27.938  -1.633  1.00  0.00    +0.000 H 
ATOM    110  H10 UNL A   1       2.795  31.267   0.746  1.00  0.00    +0.000 H 
ATOM    111  H11 UNL A   1       4.456  31.293   0.167  1.00  0.00    +0.000 H 
ATOM     16  O1  UNL A   1       3.735  29.443   0.666  1.00  0.00    +0.000 O 
ATOM    112  H12 UNL A   1       4.885  27.785   0.306  1.00  0.00    +0.000 H 
ATOM    113  H13 UNL A   1       5.631  29.337  -0.078  1.00  0.00    +0.000 H 
ENDBRANCH   12   13
ENDBRANCH    6    7
ENDBRANCH    3    4
ENDBRANCH    2    3
ENDBRANCH   26    2
ENDBRANCH   28   26
ENDBRANCH   29   28
ENDBRANCH   30   29
ENDBRANCH   31   30
ENDBRANCH   32   31
ENDBRANCH   33   32
ENDBRANCH   34   33
ENDBRANCH   35   34
ENDBRANCH   36   35
ENDBRANCH   38   36
ENDBRANCH   42   41
BRANCH   46   47
ATOM     47  C34 UNL A   1      11.738  24.342  -2.963  1.00  0.00    +0.000 C 
ATOM     48  C35 UNL A   1      12.936  24.406  -2.224  1.00  0.00    +0.000 C 
ATOM     49  F1  UNL A   1      13.292  25.538  -1.599  1.00  0.00    +0.000 F 
ATOM     50  C36 UNL A   1      13.823  23.327  -2.166  1.00  0.00    +0.000 C 
ATOM     51  F2  UNL A   1      14.991  23.458  -1.522  1.00  0.00    +0.000 F 
ATOM     52  C37 UNL A   1      13.528  22.140  -2.813  1.00  0.00    +0.000 C 
ATOM     53  F3  UNL A   1      14.393  21.118  -2.787  1.00  0.00    +0.000 F 
ATOM     54  C38 UNL A   1      12.351  22.033  -3.527  1.00  0.00    +0.000 C 
ATOM     55  F4  UNL A   1      12.062  20.898  -4.181  1.00  0.00    +0.000 F 
ATOM     56  C39 UNL A   1      11.486  23.122  -3.625  1.00  0.00    +0.000 C 
ATOM     57  F5  UNL A   1      10.446  22.984  -4.457  1.00  0.00    +0.000 F 
ENDBRANCH   46   47
BRANCH   63   64
ATOM     65  C46 UNL A   1       7.967  29.953   1.188  1.00  0.00    +0.000 C 
ATOM     66  F6  UNL A   1       8.126  29.161   2.258  1.00  0.00    +0.000 F 
ATOM     67  C47 UNL A   1       7.126  31.057   1.309  1.00  0.00    +0.000 C 
ATOM     68  F7  UNL A   1       6.448  31.264   2.448  1.00  0.00    +0.000 F 
ATOM     69  C48 UNL A   1       7.015  31.963   0.267  1.00  0.00    +0.000 C 
ATOM     70  F8  UNL A   1       6.241  33.050   0.398  1.00  0.00    +0.000 F 
ATOM     71  C49 UNL A   1       7.731  31.759  -0.902  1.00  0.00    +0.000 C 
ATOM     72  F9  UNL A   1       7.667  32.660  -1.893  1.00  0.00    +0.000 F 
ATOM     73  C50 UNL A   1       8.542  30.635  -1.040  1.00  0.00    +0.000 C 
ATOM     74  F10 UNL A   1       9.245  30.481  -2.173  1.00  0.00    +0.000 F 
ATOM     64  C45 UNL A   1       8.675  29.705   0.000  1.00  0.00    +0.000 C 
ENDBRANCH   63   64
BRANCH   78   79
ATOM     79  C54 UNL A   1      14.624  31.858   0.059  1.00  0.00    +0.000 C 
ATOM     80  C55 UNL A   1      14.566  32.941   0.947  1.00  0.00    +0.000 C 
ATOM     81  F11 UNL A   1      13.417  33.610   1.120  1.00  0.00    +0.000 F 
ATOM     82  C56 UNL A   1      15.670  33.311   1.722  1.00  0.00    +0.000 C 
ATOM     83  F12 UNL A   1      15.559  34.312   2.606  1.00  0.00    +0.000 F 
ATOM     84  C57 UNL A   1      16.863  32.615   1.621  1.00  0.00    +0.000 C 
ATOM     85  F13 UNL A   1      17.903  32.935   2.403  1.00  0.00    +0.000 F 
ATOM     86  C58 UNL A   1      16.960  31.559   0.736  1.00  0.00    +0.000 C 
ATOM     87  F14 UNL A   1      18.099  30.855   0.652  1.00  0.00    +0.000 F 
ATOM     88  C59 UNL A   1      15.858  31.180  -0.028  1.00  0.00    +0.000 C 
ATOM     89  F15 UNL A   1      15.991  30.082  -0.785  1.00  0.00    +0.000 F 
ENDBRANCH   78   79
TORSDOF 20
ENDMDL
MODEL 10
REMARK VINA RESULT:     -11.0      3.387      5.491
ROOT
ATOM    136  H36 UNL A   1      20.040  16.594   8.495  1.00  0.00    +0.000 H 
ATOM    137  H37 UNL A   1      21.752  17.562  10.289  1.00  0.00    +0.000 H 
ATOM    138  H38 UNL A   1      23.518  14.575   8.260  1.00  0.00    +0.000 H 
ATOM    139  H39 UNL A   1      27.829  20.948   5.116  1.00  0.00    +0.000 H 
ATOM    140  H40 UNL A   1      25.484  21.724   4.489  1.00  0.00    +0.000 H 
ATOM    141  H41 UNL A   1      25.113  17.999   6.294  1.00  0.00    +0.000 H 
ATOM    142  H42 UNL A   1      27.225  15.508   5.918  1.00  0.00    +0.000 H 
ATOM    143  H43 UNL A   1      25.344  14.793   7.525  1.00  0.00    +0.000 H 
ATOM    144  H44 UNL A   1      21.296  15.850   3.445  1.00  0.00    +0.000 H 
ATOM    145  H45 UNL A   1      22.364  18.036   2.621  1.00  0.00    +0.000 H 
ATOM     42  C30 UNL A   1      23.504  19.614   4.712  1.00  0.00    +0.000 C 
ATOM     43  C31 UNL A   1      22.784  18.307   4.833  1.00  0.00    +0.000 C 
ATOM     44  N9  UNL A   1      22.493  17.634   5.904  1.00  0.00    +0.000 N 
ATOM     45  C32 UNL A   1      21.929  16.434   5.467  1.00  0.00    +0.000 C 
ATOM     46  C33 UNL A   1      21.747  15.351   6.273  1.00  0.00    +0.000 C 
ATOM     58  C40 UNL A   1      21.819  15.678   7.666  1.00  0.00    +0.000 C 
ATOM     59  C41 UNL A   1      21.058  16.434   8.533  1.00  0.00    +0.000 C 
ATOM     60  C42 UNL A   1      21.979  16.949   9.491  1.00  0.00    +0.000 C 
ATOM     61  C43 UNL A   1      23.244  16.470   9.148  1.00  0.00    +0.000 C 
ATOM     62  N10 UNL A   1      22.978  15.395   8.341  1.00  0.00    +0.000 N 
ATOM     63  C44 UNL A   1      24.566  17.006   9.360  1.00  0.00    +0.000 C 
ATOM     75  C51 UNL A   1      25.655  16.692   8.601  1.00  0.00    +0.000 C 
ATOM     76  N11 UNL A   1      26.697  17.593   8.445  1.00  0.00    +0.000 N 
ATOM     77  C52 UNL A   1      27.210  17.313   7.278  1.00  0.00    +0.000 C 
ATOM     78  C53 UNL A   1      27.837  18.313   6.382  1.00  0.00    +0.000 C 
ATOM     90  C60 UNL A   1      26.859  19.129   5.925  1.00  0.00    +0.000 C 
ATOM     91  C61 UNL A   1      26.958  20.417   5.271  1.00  0.00    +0.000 C 
ATOM     92  C62 UNL A   1      25.722  20.807   4.899  1.00  0.00    +0.000 C 
ATOM     93  C63 UNL A   1      24.769  19.727   5.168  1.00  0.00    +0.000 C 
ATOM     94  N12 UNL A   1      25.501  18.800   5.873  1.00  0.00    +0.000 N 
ATOM     95  C64 UNL A   1      26.844  16.017   6.731  1.00  0.00    +0.000 C 
ATOM     96  C65 UNL A   1      25.875  15.675   7.581  1.00  0.00    +0.000 C 
ATOM     97  C66 UNL A   1      21.766  16.551   4.039  1.00  0.00    +0.000 C 
ATOM     98  C67 UNL A   1      22.302  17.685   3.590  1.00  0.00    +0.000 C 
ENDROOT
BRANCH   42   41
ATOM     99  C68 UNL A   1      23.539  21.323   2.893  1.00  0.00    +0.000 C 
ATOM    100  C69 UNL A   1      22.930  22.386   2.234  1.00  0.00    +0.000 C 
ATOM     38  C26 UNL A   1      21.627  22.799   2.569  1.00  0.00    +0.000 C 
ATOM     39  C27 UNL A   1      20.928  22.070   3.532  1.00  0.00    +0.000 C 
ATOM    134  H34 UNL A   1      19.944  22.305   3.737  1.00  0.00    +0.000 H 
ATOM     40  C28 UNL A   1      21.546  21.024   4.221  1.00  0.00    +0.000 C 
ATOM    135  H35 UNL A   1      21.025  20.509   4.948  1.00  0.00    +0.000 H 
ATOM     41  C29 UNL A   1      22.865  20.675   3.929  1.00  0.00    +0.000 C 
ATOM    146  H46 UNL A   1      24.484  21.015   2.618  1.00  0.00    +0.000 H 
ATOM    147  H47 UNL A   1      23.442  22.880   1.486  1.00  0.00    +0.000 H 
BRANCH   38   36
ATOM     36  C25 UNL A   1      21.128  24.002   1.844  1.00  0.00    +0.000 C 
ATOM     37  O3  UNL A   1      21.692  25.073   2.024  1.00  0.00    +0.000 O 
BRANCH   36   35
ATOM     35  N8  UNL A   1      20.036  24.016   1.017  1.00  0.00    +0.000 N 
ATOM    133  H33 UNL A   1      20.284  23.924   0.069  1.00  0.00    +0.000 H 
BRANCH   35   34
ATOM     34  C24 UNL A   1      18.607  24.135   1.203  1.00  0.00    +0.000 C 
ATOM    131  H31 UNL A   1      18.433  24.734   2.072  1.00  0.00    +0.000 H 
ATOM    132  H32 UNL A   1      18.223  24.570   0.304  1.00  0.00    +0.000 H 
BRANCH   34   33
ATOM     33  C23 UNL A   1      17.866  22.810   1.384  1.00  0.00    +0.000 C 
ATOM    130  H30 UNL A   1      17.243  22.940   2.244  1.00  0.00    +0.000 H 
ATOM    129  H29 UNL A   1      18.598  22.036   1.492  1.00  0.00    +0.000 H 
BRANCH   33   32
ATOM    128  H28 UNL A   1      16.904  23.259  -0.414  1.00  0.00    +0.000 H 
ATOM    127  H27 UNL A   1      15.980  22.157   0.672  1.00  0.00    +0.000 H 
ATOM     32  C22 UNL A   1      16.925  22.412   0.240  1.00  0.00    +0.000 C 
BRANCH   32   31
ATOM    125  H25 UNL A   1      18.435  21.163  -0.581  1.00  0.00    +0.000 H 
ATOM    126  H26 UNL A   1      16.856  20.376  -0.260  1.00  0.00    +0.000 H 
ATOM     31  C21 UNL A   1      17.368  21.235  -0.640  1.00  0.00    +0.000 C 
BRANCH   31   30
ATOM    123  H23 UNL A   1      17.052  20.356  -2.550  1.00  0.00    +0.000 H 
ATOM    124  H24 UNL A   1      15.992  21.733  -2.151  1.00  0.00    +0.000 H 
ATOM     30  C20 UNL A   1      16.983  21.334  -2.120  1.00  0.00    +0.000 C 
BRANCH   30   29
ATOM    121  H21 UNL A   1      17.817  21.984  -3.969  1.00  0.00    +0.000 H 
ATOM    122  H22 UNL A   1      17.487  23.274  -2.805  1.00  0.00    +0.000 H 
ATOM     29  C19 UNL A   1      17.860  22.280  -2.942  1.00  0.00    +0.000 C 
BRANCH   29   28
ATOM     28  N7  UNL A   1      19.243  22.263  -2.510  1.00  0.00    +0.000 N 
ATOM    120  H20 UNL A   1      19.498  21.413  -2.085  1.00  0.00    +0.000 H 
BRANCH   28   26
ATOM     26  C18 UNL A   1      20.264  23.148  -2.556  1.00  0.00    +0.000 C 
ATOM     27  O2  UNL A   1      19.955  24.309  -2.233  1.00  0.00    +0.000 O 
BRANCH   26    2
ATOM      2  C1  UNL A   1      21.753  22.865  -2.887  1.00  0.00    +0.000 C 
ATOM    104  H4  UNL A   1      22.238  23.603  -2.282  1.00  0.00    +0.000 H 
BRANCH    2    1
ATOM      1  N1  UNL A   1      22.124  21.500  -2.465  1.00  0.00    +0.000 N 
ATOM    101  H1  UNL A   1      21.716  20.822  -3.108  1.00  0.00    +0.000 H 
ATOM    102  H2  UNL A   1      21.773  21.328  -1.522  1.00  0.00    +0.000 H 
ATOM    103  H3  UNL A   1      23.139  21.406  -2.471  1.00  0.00    +0.000 H 
ENDBRANCH    2    1
BRANCH    2    3
ATOM    105  H5  UNL A   1      21.886  23.012  -4.967  1.00  0.00    +0.000 H 
ATOM    106  H6  UNL A   1      23.453  23.091  -3.961  1.00  0.00    +0.000 H 
ATOM      3  C2  UNL A   1      22.444  23.400  -4.141  1.00  0.00    +0.000 C 
BRANCH    3    4
ATOM      4  C3  UNL A   1      22.648  24.862  -4.441  1.00  0.00    +0.000 C 
ATOM      5  C4  UNL A   1      22.859  25.770  -3.411  1.00  0.00    +0.000 C 
ATOM      6  N2  UNL A   1      22.799  27.044  -3.911  1.00  0.00    +0.000 N 
ATOM    107  H7  UNL A   1      23.033  25.522  -2.425  1.00  0.00    +0.000 H 
ATOM     20  C12 UNL A   1      22.693  26.995  -5.286  1.00  0.00    +0.000 C 
ATOM     21  C13 UNL A   1      22.639  28.040  -6.228  1.00  0.00    +0.000 C 
ATOM    116  H16 UNL A   1      22.648  29.026  -5.923  1.00  0.00    +0.000 H 
ATOM     23  C15 UNL A   1      22.563  26.389  -7.985  1.00  0.00    +0.000 C 
ATOM     24  C16 UNL A   1      22.608  25.356  -7.038  1.00  0.00    +0.000 C 
ATOM     25  C17 UNL A   1      22.670  25.639  -5.655  1.00  0.00    +0.000 C 
ATOM    119  H19 UNL A   1      22.595  24.375  -7.356  1.00  0.00    +0.000 H 
ATOM    118  H18 UNL A   1      22.522  26.160  -8.990  1.00  0.00    +0.000 H 
ATOM     22  C14 UNL A   1      22.573  27.714  -7.582  1.00  0.00    +0.000 C 
ATOM    117  H17 UNL A   1      22.532  28.466  -8.288  1.00  0.00    +0.000 H 
BRANCH    6    7
ATOM      7  C5  UNL A   1      22.753  28.208  -3.109  1.00  0.00    +0.000 C 
ATOM      8  N3  UNL A   1      23.885  28.579  -2.521  1.00  0.00    +0.000 N 
ATOM      9  C6  UNL A   1      23.770  29.748  -1.912  1.00  0.00    +0.000 C 
ATOM     10 Cl1  UNL A   1      25.186  30.338  -1.160  1.00  0.00    +0.000 Cl
ATOM     11  N4  UNL A   1      22.682  30.491  -1.781  1.00  0.00    +0.000 N 
ATOM     12  C7  UNL A   1      21.585  29.963  -2.303  1.00  0.00    +0.000 C 
ATOM     19  N6  UNL A   1      21.586  28.855  -3.036  1.00  0.00    +0.000 N 
BRANCH   12   13
ATOM    108  H8  UNL A   1      19.711  32.304  -1.090  1.00  0.00    +0.000 H 
ATOM    109  H9  UNL A   1      21.400  31.904  -0.766  1.00  0.00    +0.000 H 
ATOM     13  N5  UNL A   1      20.387  30.531  -1.928  1.00  0.00    +0.000 N 
ATOM     14  C8  UNL A   1      20.404  31.524  -0.851  1.00  0.00    +0.000 C 
ATOM     15  C9  UNL A   1      20.014  30.914   0.499  1.00  0.00    +0.000 C 
ATOM     17  C10 UNL A   1      18.866  29.142  -0.544  1.00  0.00    +0.000 C 
ATOM     18  C11 UNL A   1      19.214  29.652  -1.955  1.00  0.00    +0.000 C 
ATOM    114  H14 UNL A   1      19.421  28.813  -2.586  1.00  0.00    +0.000 H 
ATOM    115  H15 UNL A   1      18.381  30.210  -2.328  1.00  0.00    +0.000 H 
ATOM    110  H10 UNL A   1      19.925  31.696   1.224  1.00  0.00    +0.000 H 
ATOM    111  H11 UNL A   1      20.773  30.218   0.789  1.00  0.00    +0.000 H 
ATOM     16  O1  UNL A   1      18.763  30.215   0.405  1.00  0.00    +0.000 O 
ATOM    112  H12 UNL A   1      17.929  28.626  -0.584  1.00  0.00    +0.000 H 
ATOM    113  H13 UNL A   1      19.652  28.491  -0.224  1.00  0.00    +0.000 H 
ENDBRANCH   12   13
ENDBRANCH    6    7
ENDBRANCH    3    4
ENDBRANCH    2    3
ENDBRANCH   26    2
ENDBRANCH   28   26
ENDBRANCH   29   28
ENDBRANCH   30   29
ENDBRANCH   31   30
ENDBRANCH   32   31
ENDBRANCH   33   32
ENDBRANCH   34   33
ENDBRANCH   35   34
ENDBRANCH   36   35
ENDBRANCH   38   36
ENDBRANCH   42   41
BRANCH   46   47
ATOM     47  C34 UNL A   1      21.726  13.927   5.792  1.00  0.00    +0.000 C 
ATOM     48  C35 UNL A   1      22.897  13.318   5.300  1.00  0.00    +0.000 C 
ATOM     49  F1  UNL A   1      24.086  13.928   5.420  1.00  0.00    +0.000 F 
ATOM     50  C36 UNL A   1      22.862  12.098   4.618  1.00  0.00    +0.000 C 
ATOM     51  F2  UNL A   1      23.988  11.594   4.094  1.00  0.00    +0.000 F 
ATOM     52  C37 UNL A   1      21.663  11.430   4.436  1.00  0.00    +0.000 C 
ATOM     53  F3  UNL A   1      21.623  10.279   3.753  1.00  0.00    +0.000 F 
ATOM     54  C38 UNL A   1      20.498  11.986   4.926  1.00  0.00    +0.000 C 
ATOM     55  F4  UNL A   1      19.325  11.364   4.735  1.00  0.00    +0.000 F 
ATOM     56  C39 UNL A   1      20.525  13.224   5.565  1.00  0.00    +0.000 C 
ATOM     57  F5  UNL A   1      19.336  13.760   5.874  1.00  0.00    +0.000 F 
ENDBRANCH   46   47
BRANCH   63   64
ATOM     65  C46 UNL A   1      24.825  19.515   9.778  1.00  0.00    +0.000 C 
ATOM     66  F6  UNL A   1      24.928  19.753   8.463  1.00  0.00    +0.000 F 
ATOM     67  C47 UNL A   1      24.815  20.607  10.643  1.00  0.00    +0.000 C 
ATOM     68  F7  UNL A   1      24.980  21.848  10.161  1.00  0.00    +0.000 F 
ATOM     69  C48 UNL A   1      24.602  20.416  11.998  1.00  0.00    +0.000 C 
ATOM     70  F8  UNL A   1      24.548  21.469  12.827  1.00  0.00    +0.000 F 
ATOM     71  C49 UNL A   1      24.412  19.135  12.493  1.00  0.00    +0.000 C 
ATOM     72  F9  UNL A   1      24.154  18.952  13.795  1.00  0.00    +0.000 F 
ATOM     73  C50 UNL A   1      24.460  18.039  11.635  1.00  0.00    +0.000 C 
ATOM     74  F10 UNL A   1      24.244  16.815  12.141  1.00  0.00    +0.000 F 
ATOM     64  C45 UNL A   1      24.671  18.204  10.259  1.00  0.00    +0.000 C 
ENDBRANCH   63   64
BRANCH   78   79
ATOM     79  C54 UNL A   1      29.210  18.162   5.851  1.00  0.00    +0.000 C 
ATOM     80  C55 UNL A   1      30.329  18.397   6.663  1.00  0.00    +0.000 C 
ATOM     81  F11 UNL A   1      30.178  18.954   7.874  1.00  0.00    +0.000 F 
ATOM     82  C56 UNL A   1      31.612  18.002   6.272  1.00  0.00    +0.000 C 
ATOM     83  F12 UNL A   1      32.648  18.188   7.100  1.00  0.00    +0.000 F 
ATOM     84  C57 UNL A   1      31.811  17.371   5.055  1.00  0.00    +0.000 C 
ATOM     85  F13 UNL A   1      33.032  16.944   4.705  1.00  0.00    +0.000 F 
ATOM     86  C58 UNL A   1      30.733  17.148   4.221  1.00  0.00    +0.000 C 
ATOM     87  F14 UNL A   1      30.907  16.508   3.055  1.00  0.00    +0.000 F 
ATOM     88  C59 UNL A   1      29.452  17.529   4.615  1.00  0.00    +0.000 C 
ATOM     89  F15 UNL A   1      28.440  17.186   3.805  1.00  0.00    +0.000 F 
ENDBRANCH   78   79
TORSDOF 20
ENDMDL
