MODEL 1
REMARK VINA RESULT:     -12.1      0.000      0.000
ROOT
ATOM     28  C19 UNL A   1      25.920  35.821  45.425  1.00  0.00    +0.000 C 
ATOM     29  C20 UNL A   1      27.239  35.762  44.706  1.00  0.00    +0.000 C 
ATOM     30  N5  UNL A   1      28.296  36.521  44.853  1.00  0.00    +0.000 N 
ATOM     31  C21 UNL A   1      29.252  36.014  43.982  1.00  0.00    +0.000 C 
ATOM     32  C22 UNL A   1      30.494  36.486  43.721  1.00  0.00    +0.000 C 
ATOM     44  C29 UNL A   1      31.058  37.663  44.331  1.00  0.00    +0.000 C 
ATOM     45  C30 UNL A   1      32.278  38.265  44.077  1.00  0.00    +0.000 C 
ATOM     46  C31 UNL A   1      32.419  39.352  44.945  1.00  0.00    +0.000 C 
ATOM     47  C32 UNL A   1      31.264  39.460  45.704  1.00  0.00    +0.000 C 
ATOM     48  N6  UNL A   1      30.440  38.413  45.320  1.00  0.00    +0.000 N 
ATOM     49  C33 UNL A   1      30.936  40.442  46.705  1.00  0.00    +0.000 C 
ATOM     61  C40 UNL A   1      29.773  40.482  47.400  1.00  0.00    +0.000 C 
ATOM     62  N7  UNL A   1      28.676  39.635  47.319  1.00  0.00    +0.000 N 
ATOM     63  C41 UNL A   1      27.815  40.075  48.202  1.00  0.00    +0.000 C 
ATOM     64  C42 UNL A   1      26.438  39.560  48.525  1.00  0.00    +0.000 C 
ATOM     76  C49 UNL A   1      25.947  38.516  47.830  1.00  0.00    +0.000 C 
ATOM     77  C50 UNL A   1      24.627  37.922  48.016  1.00  0.00    +0.000 C 
ATOM     78  C51 UNL A   1      24.494  36.881  47.179  1.00  0.00    +0.000 C 
ATOM     79  C52 UNL A   1      25.709  36.756  46.372  1.00  0.00    +0.000 C 
ATOM     80  N8  UNL A   1      26.515  37.770  46.825  1.00  0.00    +0.000 N 
ATOM     81  C53 UNL A   1      28.281  41.241  48.965  1.00  0.00    +0.000 C 
ATOM     82  C54 UNL A   1      29.460  41.475  48.407  1.00  0.00    +0.000 C 
ATOM     83  C55 UNL A   1      28.668  34.852  43.345  1.00  0.00    +0.000 C 
ATOM     84  C56 UNL A   1      27.404  34.692  43.710  1.00  0.00    +0.000 C 
ATOM    117  H22 UNL A   1      32.965  37.964  43.369  1.00  0.00    +0.000 H 
ATOM    118  H23 UNL A   1      33.243  39.971  45.010  1.00  0.00    +0.000 H 
ATOM    119  H24 UNL A   1      29.548  38.230  45.694  1.00  0.00    +0.000 H 
ATOM    120  H25 UNL A   1      23.911  38.249  48.682  1.00  0.00    +0.000 H 
ATOM    121  H26 UNL A   1      23.667  36.268  47.113  1.00  0.00    +0.000 H 
ATOM    122  H27 UNL A   1      27.413  37.947  46.465  1.00  0.00    +0.000 H 
ATOM    123  H28 UNL A   1      27.813  41.746  49.734  1.00  0.00    +0.000 H 
ATOM    124  H29 UNL A   1      30.076  42.263  48.658  1.00  0.00    +0.000 H 
ATOM    125  H30 UNL A   1      29.171  34.231  42.693  1.00  0.00    +0.000 H 
ATOM    126  H31 UNL A   1      26.715  33.998  43.381  1.00  0.00    +0.000 H 
ENDROOT
BRANCH   28   27
ATOM    115  H20 UNL A   1      22.094  34.362  43.285  1.00  0.00    +0.000 H 
ATOM    116  H21 UNL A   1      23.888  35.955  43.645  1.00  0.00    +0.000 H 
ATOM     85  C57 UNL A   1      24.850  33.594  45.827  1.00  0.00    +0.000 C 
ATOM     86  C58 UNL A   1      23.866  32.645  45.557  1.00  0.00    +0.000 C 
ATOM     24  C15 UNL A   1      22.828  32.946  44.671  1.00  0.00    +0.000 C 
ATOM     25  C16 UNL A   1      22.840  34.154  43.966  1.00  0.00    +0.000 C 
ATOM     26  C17 UNL A   1      23.864  35.077  44.186  1.00  0.00    +0.000 C 
ATOM     27  C18 UNL A   1      24.862  34.818  45.139  1.00  0.00    +0.000 C 
ATOM    127  H32 UNL A   1      25.574  33.396  46.536  1.00  0.00    +0.000 H 
ATOM    128  H33 UNL A   1      23.905  31.718  46.010  1.00  0.00    +0.000 H 
BRANCH   24   22
ATOM     22  C14 UNL A   1      21.718  31.997  44.428  1.00  0.00    +0.000 C 
ATOM     23  O4  UNL A   1      21.893  30.797  44.614  1.00  0.00    +0.000 O 
BRANCH   22   21
ATOM    114  H19 UNL A   1      20.383  33.426  44.005  1.00  0.00    +0.000 H 
ATOM     21  N4  UNL A   1      20.501  32.449  43.983  1.00  0.00    +0.000 N 
BRANCH   21   20
ATOM    113  H18 UNL A   1      19.706  30.720  43.223  1.00  0.00    +0.000 H 
ATOM     20  C13 UNL A   1      19.362  31.699  43.486  1.00  0.00    +0.000 C 
ATOM    112  H17 UNL A   1      18.956  32.212  42.640  1.00  0.00    +0.000 H 
BRANCH   20   19
ATOM     19  C12 UNL A   1      18.267  31.541  44.536  1.00  0.00    +0.000 C 
ATOM    110  H15 UNL A   1      18.737  31.335  45.476  1.00  0.00    +0.000 H 
ATOM    111  H16 UNL A   1      17.713  32.456  44.526  1.00  0.00    +0.000 H 
BRANCH   19   18
ATOM     18  C11 UNL A   1      17.252  30.427  44.261  1.00  0.00    +0.000 C 
ATOM    108  H13 UNL A   1      16.669  30.288  45.147  1.00  0.00    +0.000 H 
ATOM    109  H14 UNL A   1      16.684  30.754  43.415  1.00  0.00    +0.000 H 
BRANCH   18   17
ATOM     17  C10 UNL A   1      17.846  29.071  43.868  1.00  0.00    +0.000 C 
ATOM    106  H11 UNL A   1      18.206  29.148  42.863  1.00  0.00    +0.000 H 
ATOM    107  H12 UNL A   1      18.612  28.866  44.585  1.00  0.00    +0.000 H 
BRANCH   17   16
ATOM    105  H10 UNL A   1      16.829  27.596  44.962  1.00  0.00    +0.000 H 
ATOM    104  H9  UNL A   1      17.253  27.117  43.292  1.00  0.00    +0.000 H 
ATOM     16  C9  UNL A   1      16.879  27.888  43.932  1.00  0.00    +0.000 C 
BRANCH   16   15
ATOM    103  H8  UNL A   1      15.427  29.186  43.084  1.00  0.00    +0.000 H 
ATOM    102  H7  UNL A   1      14.808  28.151  44.365  1.00  0.00    +0.000 H 
ATOM     15  C8  UNL A   1      15.447  28.203  43.508  1.00  0.00    +0.000 C 
BRANCH   15   14
ATOM    101  H6  UNL A   1      14.439  26.535  42.894  1.00  0.00    +0.000 H 
ATOM     14  N3  UNL A   1      14.979  27.263  42.510  1.00  0.00    +0.000 N 
BRANCH   14   12
ATOM     12  C7  UNL A   1      15.120  27.161  41.149  1.00  0.00    +0.000 C 
ATOM     13  O3  UNL A   1      15.424  28.181  40.534  1.00  0.00    +0.000 O 
BRANCH   12   11
ATOM    129  H34 UNL A   1      15.476  26.257  38.354  1.00  0.00    +0.000 H 
ATOM    130  H35 UNL A   1      13.807  26.426  38.560  1.00  0.00    +0.000 H 
ATOM    131  H36 UNL A   1      13.538  24.066  38.296  1.00  0.00    +0.000 H 
ATOM      9  N1  UNL A   1      14.777  23.761  39.984  1.00  0.00    +0.000 N 
ATOM     10  N2  UNL A   1      14.844  24.730  40.953  1.00  0.00    +0.000 N 
ATOM     11  C6  UNL A   1      14.873  25.884  40.359  1.00  0.00    +0.000 C 
ATOM     87  C59 UNL A   1      14.645  25.849  38.890  1.00  0.00    +0.000 C 
ATOM     88  C60 UNL A   1      14.508  24.343  38.653  1.00  0.00    +0.000 C 
BRANCH    9    8
ATOM     99  H4  UNL A   1      13.371  20.387  42.742  1.00  0.00    +0.000 H 
ATOM    100  H5  UNL A   1      14.773  22.308  42.245  1.00  0.00    +0.000 H 
ATOM      5  C2  UNL A   1      12.458  20.344  40.835  1.00  0.00    +0.000 C 
ATOM      6  C3  UNL A   1      13.321  20.840  41.816  1.00  0.00    +0.000 C 
ATOM      7  C4  UNL A   1      14.118  21.954  41.531  1.00  0.00    +0.000 C 
ATOM    136  H41 UNL A   1      11.748  20.579  38.860  1.00  0.00    +0.000 H 
ATOM    135  H40 UNL A   1      13.122  22.517  38.387  1.00  0.00    +0.000 H 
ATOM      8  C5  UNL A   1      14.039  22.598  40.286  1.00  0.00    +0.000 C 
ATOM     94  C65 UNL A   1      13.174  22.070  39.316  1.00  0.00    +0.000 C 
ATOM     95  C66 UNL A   1      12.383  20.952  39.582  1.00  0.00    +0.000 C 
BRANCH    5    2
ATOM      2  S1  UNL A   1      11.425  18.945  41.193  1.00  0.00    +0.000 S 
ATOM      3  O1  UNL A   1      10.131  19.450  41.617  1.00  0.00    +0.000 O 
ATOM      4  O2  UNL A   1      12.194  18.064  42.049  1.00  0.00    +0.000 O 
BRANCH    2    1
ATOM      1  C1  UNL A   1      11.191  18.148  39.628  1.00  0.00    +0.000 C 
ATOM     98  H3  UNL A   1      10.286  18.500  39.179  1.00  0.00    +0.000 H 
ATOM     97  H2  UNL A   1      12.018  18.373  38.987  1.00  0.00    +0.000 H 
ATOM     96  H1  UNL A   1      11.130  17.089  39.772  1.00  0.00    +0.000 H 
ENDBRANCH    2    1
ENDBRANCH    5    2
ENDBRANCH    9    8
BRANCH   88   89
ATOM    132  H37 UNL A   1      16.620  22.382  38.483  1.00  0.00    +0.000 H 
ATOM    133  H38 UNL A   1      17.743  21.893  36.222  1.00  0.00    +0.000 H 
ATOM    134  H39 UNL A   1      16.690  23.214  34.336  1.00  0.00    +0.000 H 
ATOM     89  C61 UNL A   1      15.360  23.808  37.511  1.00  0.00    +0.000 C 
ATOM     90  C62 UNL A   1      16.355  22.847  37.601  1.00  0.00    +0.000 C 
ATOM     91  C63 UNL A   1      16.973  22.567  36.348  1.00  0.00    +0.000 C 
ATOM     92  C64 UNL A   1      16.418  23.304  35.328  1.00  0.00    +0.000 C 
ATOM     93  S2  UNL A   1      15.230  24.386  35.896  1.00  0.00    +0.000 S 
ENDBRANCH   88   89
ENDBRANCH   12   11
ENDBRANCH   14   12
ENDBRANCH   15   14
ENDBRANCH   16   15
ENDBRANCH   17   16
ENDBRANCH   18   17
ENDBRANCH   19   18
ENDBRANCH   20   19
ENDBRANCH   21   20
ENDBRANCH   22   21
ENDBRANCH   24   22
ENDBRANCH   28   27
BRANCH   32   33
ATOM     33  C23 UNL A   1      31.333  35.736  42.728  1.00  0.00    +0.000 C 
ATOM     34  C24 UNL A   1      32.062  34.593  43.093  1.00  0.00    +0.000 C 
ATOM     35  F1  UNL A   1      32.073  34.178  44.368  1.00  0.00    +0.000 F 
ATOM     36  C25 UNL A   1      32.810  33.890  42.153  1.00  0.00    +0.000 C 
ATOM     37  F2  UNL A   1      33.533  32.828  42.533  1.00  0.00    +0.000 F 
ATOM     38  C26 UNL A   1      32.818  34.293  40.826  1.00  0.00    +0.000 C 
ATOM     39  F3  UNL A   1      33.530  33.609  39.920  1.00  0.00    +0.000 F 
ATOM     40  C27 UNL A   1      32.091  35.409  40.438  1.00  0.00    +0.000 C 
ATOM     41  F4  UNL A   1      32.087  35.793  39.154  1.00  0.00    +0.000 F 
ATOM     42  C28 UNL A   1      31.365  36.132  41.382  1.00  0.00    +0.000 C 
ATOM     43  F5  UNL A   1      30.681  37.213  40.978  1.00  0.00    +0.000 F 
ENDBRANCH   32   33
BRANCH   49   50
ATOM     50  C34 UNL A   1      31.943  41.518  46.988  1.00  0.00    +0.000 C 
ATOM     51  C35 UNL A   1      31.746  42.840  46.562  1.00  0.00    +0.000 C 
ATOM     52  F6  UNL A   1      30.660  43.164  45.845  1.00  0.00    +0.000 F 
ATOM     53  C36 UNL A   1      32.689  43.827  46.835  1.00  0.00    +0.000 C 
ATOM     54  F7  UNL A   1      32.507  45.072  46.374  1.00  0.00    +0.000 F 
ATOM     55  C37 UNL A   1      33.827  43.521  47.569  1.00  0.00    +0.000 C 
ATOM     56  F8  UNL A   1      34.731  44.474  47.835  1.00  0.00    +0.000 F 
ATOM     57  C38 UNL A   1      34.030  42.225  48.019  1.00  0.00    +0.000 C 
ATOM     58  F9  UNL A   1      35.120  41.931  48.740  1.00  0.00    +0.000 F 
ATOM     59  C39 UNL A   1      33.104  41.230  47.721  1.00  0.00    +0.000 C 
ATOM     60  F10 UNL A   1      33.336  39.983  48.158  1.00  0.00    +0.000 F 
ENDBRANCH   49   50
BRANCH   64   65
ATOM     65  C43 UNL A   1      25.615  40.200  49.584  1.00  0.00    +0.000 C 
ATOM     66  C44 UNL A   1      25.648  39.733  50.906  1.00  0.00    +0.000 C 
ATOM     67  F11 UNL A   1      26.423  38.687  51.225  1.00  0.00    +0.000 F 
ATOM     68  C45 UNL A   1      24.852  40.309  51.893  1.00  0.00    +0.000 C 
ATOM     69  F12 UNL A   1      24.865  39.810  53.136  1.00  0.00    +0.000 F 
ATOM     70  C46 UNL A   1      24.031  41.384  51.585  1.00  0.00    +0.000 C 
ATOM     71  F13 UNL A   1      23.266  41.939  52.536  1.00  0.00    +0.000 F 
ATOM     72  C47 UNL A   1      23.999  41.878  50.290  1.00  0.00    +0.000 C 
ATOM     73  F14 UNL A   1      23.219  42.927  49.993  1.00  0.00    +0.000 F 
ATOM     74  C48 UNL A   1      24.773  41.284  49.296  1.00  0.00    +0.000 C 
ATOM     75  F15 UNL A   1      24.709  41.773  48.049  1.00  0.00    +0.000 F 
ENDBRANCH   64   65
TORSDOF 19
ENDMDL
MODEL 2
REMARK VINA RESULT:     -11.7     39.816     46.696
ROOT
ATOM     28  C19 UNL A   1      53.188  20.044  11.581  1.00  0.00    +0.000 C 
ATOM     29  C20 UNL A   1      52.936  20.655  12.932  1.00  0.00    +0.000 C 
ATOM     30  N5  UNL A   1      53.759  20.801  13.941  1.00  0.00    +0.000 N 
ATOM     31  C21 UNL A   1      53.038  21.463  14.926  1.00  0.00    +0.000 C 
ATOM     32  C22 UNL A   1      53.427  21.795  16.180  1.00  0.00    +0.000 C 
ATOM     44  C29 UNL A   1      54.722  21.492  16.733  1.00  0.00    +0.000 C 
ATOM     45  C30 UNL A   1      55.185  21.719  18.018  1.00  0.00    +0.000 C 
ATOM     46  C31 UNL A   1      56.520  21.307  18.081  1.00  0.00    +0.000 C 
ATOM     47  C32 UNL A   1      56.873  20.774  16.851  1.00  0.00    +0.000 C 
ATOM     48  N6  UNL A   1      55.761  20.899  16.033  1.00  0.00    +0.000 N 
ATOM     49  C33 UNL A   1      58.129  20.195  16.452  1.00  0.00    +0.000 C 
ATOM     61  C40 UNL A   1      58.392  19.684  15.224  1.00  0.00    +0.000 C 
ATOM     62  N7  UNL A   1      57.560  19.599  14.116  1.00  0.00    +0.000 N 
ATOM     63  C41 UNL A   1      58.276  19.046  13.168  1.00  0.00    +0.000 C 
ATOM     64  C42 UNL A   1      57.876  18.684  11.764  1.00  0.00    +0.000 C 
ATOM     76  C49 UNL A   1      56.610  18.907  11.362  1.00  0.00    +0.000 C 
ATOM     77  C50 UNL A   1      56.072  18.591  10.043  1.00  0.00    +0.000 C 
ATOM     78  C51 UNL A   1      54.791  18.985   9.987  1.00  0.00    +0.000 C 
ATOM     79  C52 UNL A   1      54.406  19.553  11.280  1.00  0.00    +0.000 C 
ATOM     80  N8  UNL A   1      55.548  19.462  12.036  1.00  0.00    +0.000 N 
ATOM     81  C53 UNL A   1      59.658  18.741  13.562  1.00  0.00    +0.000 C 
ATOM     82  C54 UNL A   1      59.663  19.109  14.835  1.00  0.00    +0.000 C 
ATOM     83  C55 UNL A   1      51.726  21.735  14.377  1.00  0.00    +0.000 C 
ATOM     84  C56 UNL A   1      51.591  21.199  13.173  1.00  0.00    +0.000 C 
ATOM    117  H22 UNL A   1      54.639  22.122  18.795  1.00  0.00    +0.000 H 
ATOM    118  H23 UNL A   1      57.138  21.385  18.904  1.00  0.00    +0.000 H 
ATOM    119  H24 UNL A   1      55.716  20.609  15.093  1.00  0.00    +0.000 H 
ATOM    120  H25 UNL A   1      56.594  18.138   9.277  1.00  0.00    +0.000 H 
ATOM    121  H26 UNL A   1      54.175  18.901   9.163  1.00  0.00    +0.000 H 
ATOM    122  H27 UNL A   1      55.601  19.764  12.971  1.00  0.00    +0.000 H 
ATOM    123  H28 UNL A   1      60.425  18.344  12.997  1.00  0.00    +0.000 H 
ATOM    124  H29 UNL A   1      60.469  18.999  15.469  1.00  0.00    +0.000 H 
ATOM    125  H30 UNL A   1      50.992  22.276  14.862  1.00  0.00    +0.000 H 
ATOM    126  H31 UNL A   1      50.759  21.171  12.563  1.00  0.00    +0.000 H 
ENDROOT
BRANCH   28   27
ATOM    115  H20 UNL A   1      50.686  21.964   8.205  1.00  0.00    +0.000 H 
ATOM    116  H21 UNL A   1      52.522  21.958   9.791  1.00  0.00    +0.000 H 
ATOM     85  C57 UNL A   1      51.302  18.894  10.405  1.00  0.00    +0.000 C 
ATOM     86  C58 UNL A   1      50.301  18.868   9.435  1.00  0.00    +0.000 C 
ATOM     24  C15 UNL A   1      50.039  20.008   8.670  1.00  0.00    +0.000 C 
ATOM     25  C16 UNL A   1      50.856  21.135   8.795  1.00  0.00    +0.000 C 
ATOM     26  C17 UNL A   1      51.902  21.137   9.719  1.00  0.00    +0.000 C 
ATOM     27  C18 UNL A   1      52.117  20.027  10.552  1.00  0.00    +0.000 C 
ATOM    127  H32 UNL A   1      51.445  18.075  11.018  1.00  0.00    +0.000 H 
ATOM    128  H33 UNL A   1      49.754  18.005   9.281  1.00  0.00    +0.000 H 
BRANCH   24   22
ATOM     22  C14 UNL A   1      48.926  20.046   7.695  1.00  0.00    +0.000 C 
ATOM     23  O4  UNL A   1      48.395  21.118   7.420  1.00  0.00    +0.000 O 
BRANCH   22   21
ATOM    114  H19 UNL A   1      47.559  18.626   7.354  1.00  0.00    +0.000 H 
ATOM     21  N4  UNL A   1      48.475  18.890   7.109  1.00  0.00    +0.000 N 
BRANCH   21   20
ATOM    113  H18 UNL A   1      49.439  17.124   6.724  1.00  0.00    +0.000 H 
ATOM     20  C13 UNL A   1      49.149  18.000   6.182  1.00  0.00    +0.000 C 
ATOM    112  H17 UNL A   1      49.998  18.507   5.775  1.00  0.00    +0.000 H 
BRANCH   20   19
ATOM     19  C12 UNL A   1      48.244  17.561   5.035  1.00  0.00    +0.000 C 
ATOM    110  H15 UNL A   1      48.850  17.449   4.160  1.00  0.00    +0.000 H 
ATOM    111  H16 UNL A   1      47.783  16.650   5.354  1.00  0.00    +0.000 H 
BRANCH   19   18
ATOM     18  C11 UNL A   1      47.100  18.521   4.699  1.00  0.00    +0.000 C 
ATOM    108  H13 UNL A   1      46.307  18.344   5.394  1.00  0.00    +0.000 H 
ATOM    109  H14 UNL A   1      47.519  19.505   4.760  1.00  0.00    +0.000 H 
BRANCH   18   17
ATOM     17  C10 UNL A   1      46.525  18.399   3.285  1.00  0.00    +0.000 C 
ATOM    106  H11 UNL A   1      46.759  19.298   2.754  1.00  0.00    +0.000 H 
ATOM    107  H12 UNL A   1      46.968  17.522   2.861  1.00  0.00    +0.000 H 
BRANCH   17   16
ATOM    105  H10 UNL A   1      44.688  17.966   4.204  1.00  0.00    +0.000 H 
ATOM    104  H9  UNL A   1      44.822  17.394   2.514  1.00  0.00    +0.000 H 
ATOM     16  C9  UNL A   1      45.012  18.187   3.207  1.00  0.00    +0.000 C 
BRANCH   16   15
ATOM    103  H8  UNL A   1      44.700  19.837   1.907  1.00  0.00    +0.000 H 
ATOM    102  H7  UNL A   1      44.174  20.115   3.563  1.00  0.00    +0.000 H 
ATOM     15  C8  UNL A   1      44.214  19.409   2.759  1.00  0.00    +0.000 C 
BRANCH   15   14
ATOM    101  H6  UNL A   1      42.722  19.052   1.410  1.00  0.00    +0.000 H 
ATOM     14  N3  UNL A   1      42.865  19.042   2.383  1.00  0.00    +0.000 N 
BRANCH   14   12
ATOM     12  C7  UNL A   1      41.740  18.681   3.082  1.00  0.00    +0.000 C 
ATOM     13  O3  UNL A   1      41.864  17.814   3.945  1.00  0.00    +0.000 O 
BRANCH   12   11
ATOM    129  H34 UNL A   1      39.121  18.688   4.460  1.00  0.00    +0.000 H 
ATOM    130  H35 UNL A   1      38.927  17.656   3.135  1.00  0.00    +0.000 H 
ATOM    131  H36 UNL A   1      37.365  19.189   2.173  1.00  0.00    +0.000 H 
ATOM      9  N1  UNL A   1      38.878  20.668   2.136  1.00  0.00    +0.000 N 
ATOM     10  N2  UNL A   1      40.193  20.284   2.053  1.00  0.00    +0.000 N 
ATOM     11  C6  UNL A   1      40.352  19.248   2.819  1.00  0.00    +0.000 C 
ATOM     87  C59 UNL A   1      39.103  18.680   3.389  1.00  0.00    +0.000 C 
ATOM     88  C60 UNL A   1      38.061  19.656   2.838  1.00  0.00    +0.000 C 
BRANCH    9    8
ATOM     99  H4  UNL A   1      38.810  23.365  -1.564  1.00  0.00    +0.000 H 
ATOM    100  H5  UNL A   1      39.823  22.580   0.501  1.00  0.00    +0.000 H 
ATOM      5  C2  UNL A   1      37.088  22.152  -1.382  1.00  0.00    +0.000 C 
ATOM      6  C3  UNL A   1      38.331  22.656  -0.987  1.00  0.00    +0.000 C 
ATOM      7  C4  UNL A   1      38.917  22.193   0.196  1.00  0.00    +0.000 C 
ATOM    136  H41 UNL A   1      35.515  20.826  -0.903  1.00  0.00    +0.000 H 
ATOM    135  H40 UNL A   1      36.551  20.022   1.134  1.00  0.00    +0.000 H 
ATOM      8  C5  UNL A   1      38.289  21.208   0.974  1.00  0.00    +0.000 C 
ATOM     94  C65 UNL A   1      37.037  20.730   0.560  1.00  0.00    +0.000 C 
ATOM     95  C66 UNL A   1      36.435  21.191  -0.610  1.00  0.00    +0.000 C 
BRANCH    5    2
ATOM      2  S1  UNL A   1      36.346  22.716  -2.893  1.00  0.00    +0.000 S 
ATOM      3  O1  UNL A   1      36.835  21.868  -3.967  1.00  0.00    +0.000 O 
ATOM      4  O2  UNL A   1      36.529  24.152  -2.939  1.00  0.00    +0.000 O 
BRANCH    2    1
ATOM      1  C1  UNL A   1      34.618  22.373  -2.698  1.00  0.00    +0.000 C 
ATOM     98  H3  UNL A   1      34.279  21.771  -3.515  1.00  0.00    +0.000 H 
ATOM     97  H2  UNL A   1      34.460  21.848  -1.779  1.00  0.00    +0.000 H 
ATOM     96  H1  UNL A   1      34.071  23.293  -2.681  1.00  0.00    +0.000 H 
ENDBRANCH    2    1
ENDBRANCH    5    2
ENDBRANCH    9    8
BRANCH   88   89
ATOM    132  H37 UNL A   1      37.361  22.309   3.736  1.00  0.00    +0.000 H 
ATOM    133  H38 UNL A   1      35.619  22.618   5.603  1.00  0.00    +0.000 H 
ATOM    134  H39 UNL A   1      34.635  20.410   6.355  1.00  0.00    +0.000 H 
ATOM     89  C61 UNL A   1      37.092  20.195   3.881  1.00  0.00    +0.000 C 
ATOM     90  C62 UNL A   1      36.872  21.526   4.197  1.00  0.00    +0.000 C 
ATOM     91  C63 UNL A   1      35.901  21.701   5.225  1.00  0.00    +0.000 C 
ATOM     92  C64 UNL A   1      35.385  20.500   5.651  1.00  0.00    +0.000 C 
ATOM     93  S2  UNL A   1      36.135  19.176   4.882  1.00  0.00    +0.000 S 
ENDBRANCH   88   89
ENDBRANCH   12   11
ENDBRANCH   14   12
ENDBRANCH   15   14
ENDBRANCH   16   15
ENDBRANCH   17   16
ENDBRANCH   18   17
ENDBRANCH   19   18
ENDBRANCH   20   19
ENDBRANCH   21   20
ENDBRANCH   22   21
ENDBRANCH   24   22
ENDBRANCH   28   27
BRANCH   32   33
ATOM     33  C23 UNL A   1      52.442  22.522  17.048  1.00  0.00    +0.000 C 
ATOM     34  C24 UNL A   1      51.697  21.856  18.034  1.00  0.00    +0.000 C 
ATOM     35  F1  UNL A   1      51.806  20.527  18.181  1.00  0.00    +0.000 F 
ATOM     36  C25 UNL A   1      50.809  22.550  18.852  1.00  0.00    +0.000 C 
ATOM     37  F2  UNL A   1      50.077  21.886  19.757  1.00  0.00    +0.000 F 
ATOM     38  C26 UNL A   1      50.674  23.924  18.727  1.00  0.00    +0.000 C 
ATOM     39  F3  UNL A   1      49.829  24.592  19.523  1.00  0.00    +0.000 F 
ATOM     40  C27 UNL A   1      51.414  24.606  17.772  1.00  0.00    +0.000 C 
ATOM     41  F4  UNL A   1      51.295  25.936  17.657  1.00  0.00    +0.000 F 
ATOM     42  C28 UNL A   1      52.280  23.911  16.932  1.00  0.00    +0.000 C 
ATOM     43  F5  UNL A   1      52.973  24.597  16.011  1.00  0.00    +0.000 F 
ENDBRANCH   32   33
BRANCH   49   50
ATOM     50  C34 UNL A   1      59.226  20.127  17.473  1.00  0.00    +0.000 C 
ATOM     51  C35 UNL A   1      60.016  21.244  17.781  1.00  0.00    +0.000 C 
ATOM     52  F6  UNL A   1      59.832  22.402  17.128  1.00  0.00    +0.000 F 
ATOM     53  C36 UNL A   1      61.028  21.164  18.734  1.00  0.00    +0.000 C 
ATOM     54  F7  UNL A   1      61.804  22.229  18.975  1.00  0.00    +0.000 F 
ATOM     55  C37 UNL A   1      61.246  19.979  19.421  1.00  0.00    +0.000 C 
ATOM     56  F8  UNL A   1      62.218  19.906  20.341  1.00  0.00    +0.000 F 
ATOM     57  C38 UNL A   1      60.463  18.868  19.148  1.00  0.00    +0.000 C 
ATOM     58  F9  UNL A   1      60.663  17.727  19.821  1.00  0.00    +0.000 F 
ATOM     59  C39 UNL A   1      59.471  18.936  18.174  1.00  0.00    +0.000 C 
ATOM     60  F10 UNL A   1      58.739  17.840  17.923  1.00  0.00    +0.000 F 
ENDBRANCH   49   50
BRANCH   64   65
ATOM     65  C43 UNL A   1      58.854  18.068  10.829  1.00  0.00    +0.000 C 
ATOM     66  C44 UNL A   1      59.635  18.860   9.976  1.00  0.00    +0.000 C 
ATOM     67  F11 UNL A   1      59.496  20.193   9.989  1.00  0.00    +0.000 F 
ATOM     68  C45 UNL A   1      60.527  18.284   9.074  1.00  0.00    +0.000 C 
ATOM     69  F12 UNL A   1      61.222  19.062   8.235  1.00  0.00    +0.000 F 
ATOM     70  C46 UNL A   1      60.679  16.906   9.031  1.00  0.00    +0.000 C 
ATOM     71  F13 UNL A   1      61.539  16.352   8.164  1.00  0.00    +0.000 F 
ATOM     72  C47 UNL A   1      59.935  16.103   9.881  1.00  0.00    +0.000 C 
ATOM     73  F14 UNL A   1      60.091  14.773   9.853  1.00  0.00    +0.000 F 
ATOM     74  C48 UNL A   1      59.021  16.677  10.763  1.00  0.00    +0.000 C 
ATOM     75  F15 UNL A   1      58.303  15.874  11.562  1.00  0.00    +0.000 F 
ENDBRANCH   64   65
TORSDOF 19
ENDMDL
MODEL 3
REMARK VINA RESULT:     -11.7     40.715     46.748
ROOT
ATOM     28  C19 UNL A   1      53.898  18.877  11.299  1.00  0.00    +0.000 C 
ATOM     29  C20 UNL A   1      55.227  18.174  11.249  1.00  0.00    +0.000 C 
ATOM     30  N5  UNL A   1      56.222  18.223  12.100  1.00  0.00    +0.000 N 
ATOM     31  C21 UNL A   1      57.187  17.355  11.605  1.00  0.00    +0.000 C 
ATOM     32  C22 UNL A   1      58.423  17.098  12.094  1.00  0.00    +0.000 C 
ATOM     44  C29 UNL A   1      58.977  17.724  13.268  1.00  0.00    +0.000 C 
ATOM     45  C30 UNL A   1      60.247  17.587  13.800  1.00  0.00    +0.000 C 
ATOM     46  C31 UNL A   1      60.314  18.346  14.973  1.00  0.00    +0.000 C 
ATOM     47  C32 UNL A   1      59.103  18.997  15.144  1.00  0.00    +0.000 C 
ATOM     48  N6  UNL A   1      58.290  18.602  14.093  1.00  0.00    +0.000 N 
ATOM     49  C33 UNL A   1      58.715  19.911  16.187  1.00  0.00    +0.000 C 
ATOM     61  C40 UNL A   1      57.505  20.516  16.277  1.00  0.00    +0.000 C 
ATOM     62  N7  UNL A   1      56.409  20.410  15.432  1.00  0.00    +0.000 N 
ATOM     63  C41 UNL A   1      55.477  21.169  15.952  1.00  0.00    +0.000 C 
ATOM     64  C42 UNL A   1      54.091  21.458  15.442  1.00  0.00    +0.000 C 
ATOM     76  C49 UNL A   1      53.693  20.911  14.277  1.00  0.00    +0.000 C 
ATOM     77  C50 UNL A   1      52.391  21.114  13.649  1.00  0.00    +0.000 C 
ATOM     78  C51 UNL A   1      52.332  20.388  12.522  1.00  0.00    +0.000 C 
ATOM     79  C52 UNL A   1      53.606  19.692  12.331  1.00  0.00    +0.000 C 
ATOM     80  N8  UNL A   1      54.354  20.065  13.419  1.00  0.00    +0.000 N 
ATOM     81  C53 UNL A   1      55.870  21.826  17.207  1.00  0.00    +0.000 C 
ATOM     82  C54 UNL A   1      57.128  21.430  17.336  1.00  0.00    +0.000 C 
ATOM     83  C55 UNL A   1      56.640  16.754  10.407  1.00  0.00    +0.000 C 
ATOM     84  C56 UNL A   1      55.458  17.275  10.108  1.00  0.00    +0.000 C 
ATOM    117  H22 UNL A   1      61.013  17.024  13.400  1.00  0.00    +0.000 H 
ATOM    118  H23 UNL A   1      61.128  18.410  15.605  1.00  0.00    +0.000 H 
ATOM    119  H24 UNL A   1      57.362  18.901  13.952  1.00  0.00    +0.000 H 
ATOM    120  H25 UNL A   1      51.639  21.719  14.012  1.00  0.00    +0.000 H 
ATOM    121  H26 UNL A   1      51.518  20.329  11.890  1.00  0.00    +0.000 H 
ATOM    122  H27 UNL A   1      55.276  19.757  13.571  1.00  0.00    +0.000 H 
ATOM    123  H28 UNL A   1      55.314  22.437  17.825  1.00  0.00    +0.000 H 
ATOM    124  H29 UNL A   1      57.759  21.733  18.093  1.00  0.00    +0.000 H 
ATOM    125  H30 UNL A   1      57.110  16.017   9.858  1.00  0.00    +0.000 H 
ATOM    126  H31 UNL A   1      54.858  17.096   9.288  1.00  0.00    +0.000 H 
ENDROOT
BRANCH   28   27
ATOM    115  H20 UNL A   1      50.328  16.592   9.461  1.00  0.00    +0.000 H 
ATOM    116  H21 UNL A   1      51.900  17.055  11.251  1.00  0.00    +0.000 H 
ATOM     85  C57 UNL A   1      52.867  19.431   9.087  1.00  0.00    +0.000 C 
ATOM     86  C58 UNL A   1      51.909  19.217   8.098  1.00  0.00    +0.000 C 
ATOM     24  C15 UNL A   1      51.018  18.145   8.207  1.00  0.00    +0.000 C 
ATOM     25  C16 UNL A   1      51.010  17.360   9.364  1.00  0.00    +0.000 C 
ATOM     26  C17 UNL A   1      51.925  17.617  10.386  1.00  0.00    +0.000 C 
ATOM     27  C18 UNL A   1      52.880  18.637  10.244  1.00  0.00    +0.000 C 
ATOM    127  H32 UNL A   1      53.570  20.177   8.968  1.00  0.00    +0.000 H 
ATOM    128  H33 UNL A   1      51.857  19.851   7.284  1.00  0.00    +0.000 H 
BRANCH   24   22
ATOM     22  C14 UNL A   1      50.047  17.834   7.134  1.00  0.00    +0.000 C 
ATOM     23  O4  UNL A   1      50.373  17.085   6.218  1.00  0.00    +0.000 O 
BRANCH   22   21
ATOM    114  H19 UNL A   1      48.496  18.734   8.022  1.00  0.00    +0.000 H 
ATOM     21  N4  UNL A   1      48.792  18.388   7.149  1.00  0.00    +0.000 N 
BRANCH   21   20
ATOM    113  H18 UNL A   1      46.855  18.475   6.488  1.00  0.00    +0.000 H 
ATOM     20  C13 UNL A   1      47.836  18.540   6.068  1.00  0.00    +0.000 C 
ATOM    112  H17 UNL A   1      48.006  17.767   5.349  1.00  0.00    +0.000 H 
BRANCH   20   19
ATOM     19  C12 UNL A   1      47.956  19.893   5.372  1.00  0.00    +0.000 C 
ATOM    110  H15 UNL A   1      48.244  20.618   6.104  1.00  0.00    +0.000 H 
ATOM    111  H16 UNL A   1      48.678  19.762   4.593  1.00  0.00    +0.000 H 
BRANCH   19   18
ATOM     18  C11 UNL A   1      46.680  20.392   4.688  1.00  0.00    +0.000 C 
ATOM    108  H13 UNL A   1      46.145  20.995   5.391  1.00  0.00    +0.000 H 
ATOM    109  H14 UNL A   1      47.006  20.926   3.818  1.00  0.00    +0.000 H 
BRANCH   18   17
ATOM     17  C10 UNL A   1      45.731  19.304   4.179  1.00  0.00    +0.000 C 
ATOM    106  H11 UNL A   1      46.201  18.356   4.337  1.00  0.00    +0.000 H 
ATOM    107  H12 UNL A   1      44.820  19.428   4.725  1.00  0.00    +0.000 H 
BRANCH   17   16
ATOM    105  H10 UNL A   1      45.187  18.397   2.366  1.00  0.00    +0.000 H 
ATOM    104  H9  UNL A   1      46.152  19.892   2.184  1.00  0.00    +0.000 H 
ATOM     16  C9  UNL A   1      45.353  19.401   2.700  1.00  0.00    +0.000 C 
BRANCH   16   15
ATOM    103  H8  UNL A   1      44.209  20.759   1.534  1.00  0.00    +0.000 H 
ATOM    102  H7  UNL A   1      43.833  20.789   3.253  1.00  0.00    +0.000 H 
ATOM     15  C8  UNL A   1      44.063  20.166   2.414  1.00  0.00    +0.000 C 
BRANCH   15   14
ATOM    101  H6  UNL A   1      42.999  18.828   1.296  1.00  0.00    +0.000 H 
ATOM     14  N3  UNL A   1      42.959  19.259   2.180  1.00  0.00    +0.000 N 
BRANCH   14   12
ATOM     12  C7  UNL A   1      41.871  18.865   2.916  1.00  0.00    +0.000 C 
ATOM     13  O3  UNL A   1      42.057  18.031   3.799  1.00  0.00    +0.000 O 
BRANCH   12   11
ATOM    129  H34 UNL A   1      39.267  18.707   4.314  1.00  0.00    +0.000 H 
ATOM    130  H35 UNL A   1      39.120  17.683   2.977  1.00  0.00    +0.000 H 
ATOM    131  H36 UNL A   1      37.466  19.138   2.048  1.00  0.00    +0.000 H 
ATOM      9  N1  UNL A   1      38.893  20.700   2.018  1.00  0.00    +0.000 N 
ATOM     10  N2  UNL A   1      40.227  20.391   1.920  1.00  0.00    +0.000 N 
ATOM     11  C6  UNL A   1      40.451  19.356   2.671  1.00  0.00    +0.000 C 
ATOM     87  C59 UNL A   1      39.240  18.712   3.244  1.00  0.00    +0.000 C 
ATOM     88  C60 UNL A   1      38.140  19.635   2.713  1.00  0.00    +0.000 C 
BRANCH    9    8
ATOM     99  H4  UNL A   1      38.857  22.352  -2.252  1.00  0.00    +0.000 H 
ATOM    100  H5  UNL A   1      40.015  21.593  -0.255  1.00  0.00    +0.000 H 
ATOM      5  C2  UNL A   1      36.925  22.150  -1.417  1.00  0.00    +0.000 C 
ATOM      6  C3  UNL A   1      38.320  22.076  -1.414  1.00  0.00    +0.000 C 
ATOM      7  C4  UNL A   1      38.983  21.627  -0.267  1.00  0.00    +0.000 C 
ATOM    136  H41 UNL A   1      35.163  21.838  -0.295  1.00  0.00    +0.000 H 
ATOM    135  H40 UNL A   1      36.325  21.046   1.678  1.00  0.00    +0.000 H 
ATOM      8  C5  UNL A   1      38.265  21.220   0.868  1.00  0.00    +0.000 C 
ATOM     94  C65 UNL A   1      36.866  21.318   0.842  1.00  0.00    +0.000 C 
ATOM     95  C66 UNL A   1      36.193  21.776  -0.290  1.00  0.00    +0.000 C 
BRANCH    5    2
ATOM      2  S1  UNL A   1      36.072  22.697  -2.875  1.00  0.00    +0.000 S 
ATOM      3  O1  UNL A   1      36.419  21.789  -3.954  1.00  0.00    +0.000 O 
ATOM      4  O2  UNL A   1      36.317  24.120  -2.995  1.00  0.00    +0.000 O 
BRANCH    2    1
ATOM      1  C1  UNL A   1      34.356  22.449  -2.509  1.00  0.00    +0.000 C 
ATOM     98  H3  UNL A   1      34.122  22.903  -1.569  1.00  0.00    +0.000 H 
ATOM     97  H2  UNL A   1      33.759  22.894  -3.279  1.00  0.00    +0.000 H 
ATOM     96  H1  UNL A   1      34.149  21.400  -2.461  1.00  0.00    +0.000 H 
ENDBRANCH    2    1
ENDBRANCH    5    2
ENDBRANCH    9    8
BRANCH   88   89
ATOM    132  H37 UNL A   1      37.578  22.192   3.931  1.00  0.00    +0.000 H 
ATOM    133  H38 UNL A   1      35.755  22.386   5.734  1.00  0.00    +0.000 H 
ATOM    134  H39 UNL A   1      34.573  20.182   6.126  1.00  0.00    +0.000 H 
ATOM     89  C61 UNL A   1      37.151  20.105   3.771  1.00  0.00    +0.000 C 
ATOM     90  C62 UNL A   1      37.009  21.395   4.255  1.00  0.00    +0.000 C 
ATOM     91  C63 UNL A   1      35.993  21.508   5.248  1.00  0.00    +0.000 C 
ATOM     92  C64 UNL A   1      35.368  20.305   5.480  1.00  0.00    +0.000 C 
ATOM     93  S2  UNL A   1      36.066  19.040   4.575  1.00  0.00    +0.000 S 
ENDBRANCH   88   89
ENDBRANCH   12   11
ENDBRANCH   14   12
ENDBRANCH   15   14
ENDBRANCH   16   15
ENDBRANCH   17   16
ENDBRANCH   18   17
ENDBRANCH   19   18
ENDBRANCH   20   19
ENDBRANCH   21   20
ENDBRANCH   22   21
ENDBRANCH   24   22
ENDBRANCH   28   27
BRANCH   32   33
ATOM     33  C23 UNL A   1      59.272  16.101  11.361  1.00  0.00    +0.000 C 
ATOM     34  C24 UNL A   1      60.052  16.469  10.254  1.00  0.00    +0.000 C 
ATOM     35  F1  UNL A   1      60.006  17.724   9.783  1.00  0.00    +0.000 F 
ATOM     36  C25 UNL A   1      60.857  15.538   9.603  1.00  0.00    +0.000 C 
ATOM     37  F2  UNL A   1      61.560  15.902   8.522  1.00  0.00    +0.000 F 
ATOM     38  C26 UNL A   1      60.927  14.233  10.066  1.00  0.00    +0.000 C 
ATOM     39  F3  UNL A   1      61.712  13.341   9.446  1.00  0.00    +0.000 F 
ATOM     40  C27 UNL A   1      60.179  13.850  11.170  1.00  0.00    +0.000 C 
ATOM     41  F4  UNL A   1      60.256  12.593  11.627  1.00  0.00    +0.000 F 
ATOM     42  C28 UNL A   1      59.350  14.772  11.805  1.00  0.00    +0.000 C 
ATOM     43  F5  UNL A   1      58.631  14.368  12.863  1.00  0.00    +0.000 F 
ENDBRANCH   32   33
BRANCH   49   50
ATOM     50  C34 UNL A   1      59.728  20.240  17.244  1.00  0.00    +0.000 C 
ATOM     51  C35 UNL A   1      59.828  19.493  18.426  1.00  0.00    +0.000 C 
ATOM     52  F6  UNL A   1      58.978  18.481  18.660  1.00  0.00    +0.000 F 
ATOM     53  C36 UNL A   1      60.776  19.811  19.395  1.00  0.00    +0.000 C 
ATOM     54  F7  UNL A   1      60.819  19.117  20.541  1.00  0.00    +0.000 F 
ATOM     55  C37 UNL A   1      61.665  20.855  19.185  1.00  0.00    +0.000 C 
ATOM     56  F8  UNL A   1      62.579  21.157  20.118  1.00  0.00    +0.000 F 
ATOM     57  C38 UNL A   1      61.598  21.593  18.013  1.00  0.00    +0.000 C 
ATOM     58  F9  UNL A   1      62.464  22.594  17.802  1.00  0.00    +0.000 F 
ATOM     59  C39 UNL A   1      60.631  21.298  17.057  1.00  0.00    +0.000 C 
ATOM     60  F10 UNL A   1      60.583  22.039  15.939  1.00  0.00    +0.000 F 
ENDBRANCH   49   50
BRANCH   64   65
ATOM     65  C43 UNL A   1      53.172  22.349  16.197  1.00  0.00    +0.000 C 
ATOM     66  C44 UNL A   1      53.027  23.699  15.847  1.00  0.00    +0.000 C 
ATOM     67  F11 UNL A   1      53.733  24.204  14.825  1.00  0.00    +0.000 F 
ATOM     68  C45 UNL A   1      52.194  24.546  16.574  1.00  0.00    +0.000 C 
ATOM     69  F12 UNL A   1      52.113  25.843  16.250  1.00  0.00    +0.000 F 
ATOM     70  C46 UNL A   1      51.463  24.052  17.645  1.00  0.00    +0.000 C 
ATOM     71  F13 UNL A   1      50.659  24.866  18.343  1.00  0.00    +0.000 F 
ATOM     72  C47 UNL A   1      51.572  22.714  17.995  1.00  0.00    +0.000 C 
ATOM     73  F14 UNL A   1      50.856  22.230  19.018  1.00  0.00    +0.000 F 
ATOM     74  C48 UNL A   1      52.428  21.874  17.286  1.00  0.00    +0.000 C 
ATOM     75  F15 UNL A   1      52.526  20.589  17.658  1.00  0.00    +0.000 F 
ENDBRANCH   64   65
TORSDOF 19
ENDMDL
MODEL 4
REMARK VINA RESULT:     -11.5      4.737      9.659
ROOT
ATOM     28  C19 UNL A   1      21.105  38.508  49.508  1.00  0.00    +0.000 C 
ATOM     29  C20 UNL A   1      21.922  39.766  49.607  1.00  0.00    +0.000 C 
ATOM     30  N5  UNL A   1      23.093  40.035  49.088  1.00  0.00    +0.000 N 
ATOM     31  C21 UNL A   1      23.374  41.348  49.444  1.00  0.00    +0.000 C 
ATOM     32  C22 UNL A   1      24.493  42.070  49.197  1.00  0.00    +0.000 C 
ATOM     44  C29 UNL A   1      25.644  41.567  48.492  1.00  0.00    +0.000 C 
ATOM     45  C30 UNL A   1      26.854  42.196  48.258  1.00  0.00    +0.000 C 
ATOM     46  C31 UNL A   1      27.650  41.341  47.488  1.00  0.00    +0.000 C 
ATOM     47  C32 UNL A   1      26.956  40.158  47.288  1.00  0.00    +0.000 C 
ATOM     48  N6  UNL A   1      25.724  40.313  47.906  1.00  0.00    +0.000 N 
ATOM     49  C33 UNL A   1      27.382  38.975  46.586  1.00  0.00    +0.000 C 
ATOM     61  C40 UNL A   1      26.641  37.849  46.443  1.00  0.00    +0.000 C 
ATOM     62  N7  UNL A   1      25.364  37.577  46.913  1.00  0.00    +0.000 N 
ATOM     63  C41 UNL A   1      25.077  36.367  46.502  1.00  0.00    +0.000 C 
ATOM     64  C42 UNL A   1      23.838  35.549  46.745  1.00  0.00    +0.000 C 
ATOM     76  C49 UNL A   1      22.852  36.060  47.506  1.00  0.00    +0.000 C 
ATOM     77  C50 UNL A   1      21.606  35.380  47.845  1.00  0.00    +0.000 C 
ATOM     78  C51 UNL A   1      20.846  36.202  48.586  1.00  0.00    +0.000 C 
ATOM     79  C52 UNL A   1      21.568  37.457  48.802  1.00  0.00    +0.000 C 
ATOM     80  N8  UNL A   1      22.750  37.281  48.129  1.00  0.00    +0.000 N 
ATOM     81  C53 UNL A   1      26.136  35.741  45.698  1.00  0.00    +0.000 C 
ATOM     82  C54 UNL A   1      27.083  36.668  45.730  1.00  0.00    +0.000 C 
ATOM     83  C55 UNL A   1      22.230  41.839  50.182  1.00  0.00    +0.000 C 
ATOM     84  C56 UNL A   1      21.333  40.880  50.366  1.00  0.00    +0.000 C 
ATOM    117  H22 UNL A   1      27.124  43.133  48.593  1.00  0.00    +0.000 H 
ATOM    118  H23 UNL A   1      28.594  41.554  47.130  1.00  0.00    +0.000 H 
ATOM    119  H24 UNL A   1      25.012  39.633  47.925  1.00  0.00    +0.000 H 
ATOM    120  H25 UNL A   1      21.350  34.422  47.561  1.00  0.00    +0.000 H 
ATOM    121  H26 UNL A   1      19.904  35.984  48.946  1.00  0.00    +0.000 H 
ATOM    122  H27 UNL A   1      23.458  37.964  48.094  1.00  0.00    +0.000 H 
ATOM    123  H28 UNL A   1      26.143  34.821  45.231  1.00  0.00    +0.000 H 
ATOM    124  H29 UNL A   1      28.015  36.563  45.302  1.00  0.00    +0.000 H 
ATOM    125  H30 UNL A   1      22.127  42.808  50.521  1.00  0.00    +0.000 H 
ATOM    126  H31 UNL A   1      20.452  40.908  50.903  1.00  0.00    +0.000 H 
ENDROOT
BRANCH   28   27
ATOM    115  H20 UNL A   1      18.191  37.255  52.868  1.00  0.00    +0.000 H 
ATOM    116  H21 UNL A   1      20.410  37.487  51.915  1.00  0.00    +0.000 H 
ATOM     85  C57 UNL A   1      18.643  38.955  49.469  1.00  0.00    +0.000 C 
ATOM     86  C58 UNL A   1      17.380  38.895  50.057  1.00  0.00    +0.000 C 
ATOM     24  C15 UNL A   1      17.206  38.225  51.271  1.00  0.00    +0.000 C 
ATOM     25  C16 UNL A   1      18.315  37.718  51.954  1.00  0.00    +0.000 C 
ATOM     26  C17 UNL A   1      19.589  37.837  51.397  1.00  0.00    +0.000 C 
ATOM     27  C18 UNL A   1      19.761  38.432  50.137  1.00  0.00    +0.000 C 
ATOM    127  H32 UNL A   1      18.756  39.386  48.538  1.00  0.00    +0.000 H 
ATOM    128  H33 UNL A   1      16.575  39.348  49.596  1.00  0.00    +0.000 H 
BRANCH   24   22
ATOM     22  C14 UNL A   1      15.866  38.065  51.880  1.00  0.00    +0.000 C 
ATOM     23  O4  UNL A   1      15.557  38.743  52.856  1.00  0.00    +0.000 O 
BRANCH   22   21
ATOM    114  H19 UNL A   1      15.270  36.216  51.403  1.00  0.00    +0.000 H 
ATOM     21  N4  UNL A   1      14.975  37.155  51.371  1.00  0.00    +0.000 N 
BRANCH   21   20
ATOM    113  H18 UNL A   1      13.345  38.357  51.063  1.00  0.00    +0.000 H 
ATOM     20  C13 UNL A   1      13.662  37.371  50.793  1.00  0.00    +0.000 C 
ATOM    112  H17 UNL A   1      12.993  36.628  51.172  1.00  0.00    +0.000 H 
BRANCH   20   19
ATOM     19  C12 UNL A   1      13.676  37.288  49.270  1.00  0.00    +0.000 C 
ATOM    110  H15 UNL A   1      12.679  37.079  48.940  1.00  0.00    +0.000 H 
ATOM    111  H16 UNL A   1      14.052  38.228  48.925  1.00  0.00    +0.000 H 
BRANCH   19   18
ATOM     18  C11 UNL A   1      14.602  36.220  48.681  1.00  0.00    +0.000 C 
ATOM    108  H13 UNL A   1      15.234  35.863  49.467  1.00  0.00    +0.000 H 
ATOM    109  H14 UNL A   1      13.958  35.471  48.269  1.00  0.00    +0.000 H 
BRANCH   18   17
ATOM     17  C10 UNL A   1      15.498  36.681  47.528  1.00  0.00    +0.000 C 
ATOM    106  H11 UNL A   1      15.068  36.328  46.614  1.00  0.00    +0.000 H 
ATOM    107  H12 UNL A   1      15.543  37.747  47.598  1.00  0.00    +0.000 H 
BRANCH   17   16
ATOM    105  H10 UNL A   1      16.914  35.135  47.425  1.00  0.00    +0.000 H 
ATOM    104  H9  UNL A   1      17.351  36.463  48.540  1.00  0.00    +0.000 H 
ATOM     16  C9  UNL A   1      16.947  36.193  47.587  1.00  0.00    +0.000 C 
BRANCH   16   15
ATOM    103  H8  UNL A   1      18.846  36.864  46.913  1.00  0.00    +0.000 H 
ATOM    102  H7  UNL A   1      17.485  37.715  46.194  1.00  0.00    +0.000 H 
ATOM     15  C8  UNL A   1      17.862  36.763  46.505  1.00  0.00    +0.000 C 
BRANCH   15   14
ATOM    101  H6  UNL A   1      17.742  36.342  44.510  1.00  0.00    +0.000 H 
ATOM     14  N3  UNL A   1      17.927  35.881  45.359  1.00  0.00    +0.000 N 
BRANCH   14   12
ATOM     12  C7  UNL A   1      18.190  34.545  45.192  1.00  0.00    +0.000 C 
ATOM     13  O3  UNL A   1      19.124  34.068  45.833  1.00  0.00    +0.000 O 
BRANCH   12   11
ATOM    129  H34 UNL A   1      16.577  34.884  42.734  1.00  0.00    +0.000 H 
ATOM    130  H35 UNL A   1      15.468  34.486  43.945  1.00  0.00    +0.000 H 
ATOM    131  H36 UNL A   1      15.002  32.420  42.836  1.00  0.00    +0.000 H 
ATOM      9  N1  UNL A   1      17.035  31.873  43.055  1.00  0.00    +0.000 N 
ATOM     10  N2  UNL A   1      17.761  32.389  44.098  1.00  0.00    +0.000 N 
ATOM     11  C6  UNL A   1      17.435  33.639  44.229  1.00  0.00    +0.000 C 
ATOM     87  C59 UNL A   1      16.292  34.089  43.391  1.00  0.00    +0.000 C 
ATOM     88  C60 UNL A   1      15.976  32.807  42.618  1.00  0.00    +0.000 C 
BRANCH    9    8
ATOM     99  H4  UNL A   1      13.979  28.467  42.876  1.00  0.00    +0.000 H 
ATOM    100  H5  UNL A   1      14.571  30.824  42.831  1.00  0.00    +0.000 H 
ATOM      5  C2  UNL A   1      15.950  27.804  43.261  1.00  0.00    +0.000 C 
ATOM      6  C3  UNL A   1      14.959  28.760  43.022  1.00  0.00    +0.000 C 
ATOM      7  C4  UNL A   1      15.304  30.115  42.984  1.00  0.00    +0.000 C 
ATOM    136  H41 UNL A   1      18.003  27.481  43.638  1.00  0.00    +0.000 H 
ATOM    135  H40 UNL A   1      18.588  29.830  43.553  1.00  0.00    +0.000 H 
ATOM      8  C5  UNL A   1      16.636  30.524  43.152  1.00  0.00    +0.000 C 
ATOM     94  C65 UNL A   1      17.608  29.544  43.404  1.00  0.00    +0.000 C 
ATOM     95  C66 UNL A   1      17.275  28.191  43.456  1.00  0.00    +0.000 C 
BRANCH    5    2
ATOM      2  S1  UNL A   1      15.526  26.080  43.288  1.00  0.00    +0.000 S 
ATOM      3  O1  UNL A   1      16.407  25.425  44.239  1.00  0.00    +0.000 O 
ATOM      4  O2  UNL A   1      15.467  25.641  41.908  1.00  0.00    +0.000 O 
BRANCH    2    1
ATOM      1  C1  UNL A   1      13.890  26.031  43.966  1.00  0.00    +0.000 C 
ATOM     98  H3  UNL A   1      13.392  25.144  43.634  1.00  0.00    +0.000 H 
ATOM     97  H2  UNL A   1      13.946  26.030  45.034  1.00  0.00    +0.000 H 
ATOM     96  H1  UNL A   1      13.342  26.891  43.639  1.00  0.00    +0.000 H 
ENDBRANCH    2    1
ENDBRANCH    5    2
ENDBRANCH    9    8
BRANCH   88   89
ATOM    132  H37 UNL A   1      16.533  31.135  40.331  1.00  0.00    +0.000 H 
ATOM    133  H38 UNL A   1      16.118  32.025  37.954  1.00  0.00    +0.000 H 
ATOM    134  H39 UNL A   1      15.119  34.351  37.975  1.00  0.00    +0.000 H 
ATOM     89  C61 UNL A   1      15.841  32.998  41.114  1.00  0.00    +0.000 C 
ATOM     90  C62 UNL A   1      16.161  32.076  40.130  1.00  0.00    +0.000 C 
ATOM     91  C63 UNL A   1      15.924  32.563  38.813  1.00  0.00    +0.000 C 
ATOM     92  C64 UNL A   1      15.406  33.837  38.823  1.00  0.00    +0.000 C 
ATOM     93  S2  UNL A   1      15.295  34.467  40.403  1.00  0.00    +0.000 S 
ENDBRANCH   88   89
ENDBRANCH   12   11
ENDBRANCH   14   12
ENDBRANCH   15   14
ENDBRANCH   16   15
ENDBRANCH   17   16
ENDBRANCH   18   17
ENDBRANCH   19   18
ENDBRANCH   20   19
ENDBRANCH   21   20
ENDBRANCH   22   21
ENDBRANCH   24   22
ENDBRANCH   28   27
BRANCH   32   33
ATOM     33  C23 UNL A   1      24.535  43.486  49.696  1.00  0.00    +0.000 C 
ATOM     34  C24 UNL A   1      24.104  44.560  48.902  1.00  0.00    +0.000 C 
ATOM     35  F1  UNL A   1      23.698  44.348  47.641  1.00  0.00    +0.000 F 
ATOM     36  C25 UNL A   1      24.121  45.864  49.391  1.00  0.00    +0.000 C 
ATOM     37  F2  UNL A   1      23.746  46.878  48.600  1.00  0.00    +0.000 F 
ATOM     38  C26 UNL A   1      24.534  46.116  50.690  1.00  0.00    +0.000 C 
ATOM     39  F3  UNL A   1      24.538  47.369  51.162  1.00  0.00    +0.000 F 
ATOM     40  C27 UNL A   1      24.947  45.068  51.499  1.00  0.00    +0.000 C 
ATOM     41  F4  UNL A   1      25.334  45.307  52.760  1.00  0.00    +0.000 F 
ATOM     42  C28 UNL A   1      24.960  43.766  51.004  1.00  0.00    +0.000 C 
ATOM     43  F5  UNL A   1      25.375  42.775  51.807  1.00  0.00    +0.000 F 
ENDBRANCH   32   33
BRANCH   49   50
ATOM     50  C34 UNL A   1      28.758  38.973  45.987  1.00  0.00    +0.000 C 
ATOM     51  C35 UNL A   1      29.837  38.343  46.624  1.00  0.00    +0.000 C 
ATOM     52  F6  UNL A   1      29.669  37.760  47.821  1.00  0.00    +0.000 F 
ATOM     53  C36 UNL A   1      31.107  38.348  46.053  1.00  0.00    +0.000 C 
ATOM     54  F7  UNL A   1      32.134  37.786  46.703  1.00  0.00    +0.000 F 
ATOM     55  C37 UNL A   1      31.314  38.949  44.819  1.00  0.00    +0.000 C 
ATOM     56  F8  UNL A   1      32.536  38.949  44.269  1.00  0.00    +0.000 F 
ATOM     57  C38 UNL A   1      30.256  39.558  44.162  1.00  0.00    +0.000 C 
ATOM     58  F9  UNL A   1      30.451  40.127  42.964  1.00  0.00    +0.000 F 
ATOM     59  C39 UNL A   1      28.992  39.582  44.745  1.00  0.00    +0.000 C 
ATOM     60  F10 UNL A   1      27.992  40.191  44.090  1.00  0.00    +0.000 F 
ENDBRANCH   49   50
BRANCH   64   65
ATOM     65  C43 UNL A   1      23.703  34.184  46.173  1.00  0.00    +0.000 C 
ATOM     66  C44 UNL A   1      24.345  33.086  46.763  1.00  0.00    +0.000 C 
ATOM     67  F11 UNL A   1      25.102  33.263  47.855  1.00  0.00    +0.000 F 
ATOM     68  C45 UNL A   1      24.248  31.812  46.209  1.00  0.00    +0.000 C 
ATOM     69  F12 UNL A   1      24.913  30.791  46.765  1.00  0.00    +0.000 F 
ATOM     70  C46 UNL A   1      23.482  31.604  45.072  1.00  0.00    +0.000 C 
ATOM     71  F13 UNL A   1      23.388  30.377  44.540  1.00  0.00    +0.000 F 
ATOM     72  C47 UNL A   1      22.819  32.670  44.484  1.00  0.00    +0.000 C 
ATOM     73  F14 UNL A   1      22.065  32.470  43.394  1.00  0.00    +0.000 F 
ATOM     74  C48 UNL A   1      22.938  33.950  45.020  1.00  0.00    +0.000 C 
ATOM     75  F15 UNL A   1      22.299  34.965  44.420  1.00  0.00    +0.000 F 
ENDBRANCH   64   65
TORSDOF 19
ENDMDL
MODEL 5
REMARK VINA RESULT:     -11.4     18.027     23.068
ROOT
ATOM     28  C19 UNL A   1      38.502  30.362  29.891  1.00  0.00    +0.000 C 
ATOM     29  C20 UNL A   1      39.668  29.606  29.315  1.00  0.00    +0.000 C 
ATOM     30  N5  UNL A   1      40.831  29.342  29.856  1.00  0.00    +0.000 N 
ATOM     31  C21 UNL A   1      41.520  28.580  28.921  1.00  0.00    +0.000 C 
ATOM     32  C22 UNL A   1      42.787  28.107  28.984  1.00  0.00    +0.000 C 
ATOM     44  C29 UNL A   1      43.683  28.335  30.088  1.00  0.00    +0.000 C 
ATOM     45  C30 UNL A   1      45.011  27.963  30.213  1.00  0.00    +0.000 C 
ATOM     46  C31 UNL A   1      45.458  28.354  31.479  1.00  0.00    +0.000 C 
ATOM     47  C32 UNL A   1      44.426  29.017  32.123  1.00  0.00    +0.000 C 
ATOM     48  N6  UNL A   1      43.342  28.994  31.260  1.00  0.00    +0.000 N 
ATOM     49  C33 UNL A   1      44.428  29.627  33.428  1.00  0.00    +0.000 C 
ATOM     61  C40 UNL A   1      43.372  30.269  33.985  1.00  0.00    +0.000 C 
ATOM     62  N7  UNL A   1      42.104  30.485  33.461  1.00  0.00    +0.000 N 
ATOM     63  C41 UNL A   1      41.438  31.133  34.384  1.00  0.00    +0.000 C 
ATOM     64  C42 UNL A   1      40.026  31.654  34.348  1.00  0.00    +0.000 C 
ATOM     76  C49 UNL A   1      39.293  31.487  33.232  1.00  0.00    +0.000 C 
ATOM     77  C50 UNL A   1      37.922  31.953  33.042  1.00  0.00    +0.000 C 
ATOM     78  C51 UNL A   1      37.497  31.579  31.826  1.00  0.00    +0.000 C 
ATOM     79  C52 UNL A   1      38.579  30.873  31.135  1.00  0.00    +0.000 C 
ATOM     80  N8  UNL A   1      39.606  30.870  32.044  1.00  0.00    +0.000 N 
ATOM     81  C53 UNL A   1      42.204  31.381  35.614  1.00  0.00    +0.000 C 
ATOM     82  C54 UNL A   1      43.387  30.873  35.301  1.00  0.00    +0.000 C 
ATOM     83  C55 UNL A   1      40.627  28.381  27.798  1.00  0.00    +0.000 C 
ATOM     84  C56 UNL A   1      39.495  29.050  27.965  1.00  0.00    +0.000 C 
ATOM    117  H22 UNL A   1      45.573  27.480  29.496  1.00  0.00    +0.000 H 
ATOM    118  H23 UNL A   1      46.399  28.179  31.868  1.00  0.00    +0.000 H 
ATOM    119  H24 UNL A   1      42.459  29.387  31.450  1.00  0.00    +0.000 H 
ATOM    120  H25 UNL A   1      37.370  32.484  33.732  1.00  0.00    +0.000 H 
ATOM    121  H26 UNL A   1      36.558  31.759  31.438  1.00  0.00    +0.000 H 
ATOM    122  H27 UNL A   1      40.485  30.465  31.864  1.00  0.00    +0.000 H 
ATOM    123  H28 UNL A   1      41.900  31.832  36.490  1.00  0.00    +0.000 H 
ATOM    124  H29 UNL A   1      44.215  30.905  35.916  1.00  0.00    +0.000 H 
ATOM    125  H30 UNL A   1      40.846  27.796  26.977  1.00  0.00    +0.000 H 
ATOM    126  H31 UNL A   1      38.700  29.153  27.315  1.00  0.00    +0.000 H 
ENDROOT
BRANCH   28   27
ATOM    115  H20 UNL A   1      35.415  32.777  27.444  1.00  0.00    +0.000 H 
ATOM    116  H21 UNL A   1      37.539  32.530  28.591  1.00  0.00    +0.000 H 
ATOM     85  C57 UNL A   1      36.380  29.404  28.974  1.00  0.00    +0.000 C 
ATOM     86  C58 UNL A   1      35.200  29.526  28.242  1.00  0.00    +0.000 C 
ATOM     24  C15 UNL A   1      34.820  30.770  27.731  1.00  0.00    +0.000 C 
ATOM     25  C16 UNL A   1      35.679  31.867  27.852  1.00  0.00    +0.000 C 
ATOM     26  C17 UNL A   1      36.893  31.728  28.526  1.00  0.00    +0.000 C 
ATOM     27  C18 UNL A   1      37.242  30.503  29.118  1.00  0.00    +0.000 C 
ATOM    127  H32 UNL A   1      36.622  28.501  29.412  1.00  0.00    +0.000 H 
ATOM    128  H33 UNL A   1      34.608  28.697  28.077  1.00  0.00    +0.000 H 
BRANCH   24   22
ATOM     22  C14 UNL A   1      33.531  30.956  27.027  1.00  0.00    +0.000 C 
ATOM     23  O4  UNL A   1      32.820  31.918  27.305  1.00  0.00    +0.000 O 
BRANCH   22   21
ATOM    114  H19 UNL A   1      33.736  29.932  25.321  1.00  0.00    +0.000 H 
ATOM     21  N4  UNL A   1      33.120  30.054  26.079  1.00  0.00    +0.000 N 
BRANCH   21   20
ATOM    113  H18 UNL A   1      31.551  29.270  25.020  1.00  0.00    +0.000 H 
ATOM     20  C13 UNL A   1      31.910  29.254  26.028  1.00  0.00    +0.000 C 
ATOM    112  H17 UNL A   1      31.195  29.669  26.706  1.00  0.00    +0.000 H 
BRANCH   20   19
ATOM     19  C12 UNL A   1      32.160  27.798  26.409  1.00  0.00    +0.000 C 
ATOM    110  H15 UNL A   1      31.869  27.669  27.432  1.00  0.00    +0.000 H 
ATOM    111  H16 UNL A   1      31.585  27.210  25.725  1.00  0.00    +0.000 H 
BRANCH   19   18
ATOM     18  C11 UNL A   1      33.608  27.322  26.266  1.00  0.00    +0.000 C 
ATOM    108  H13 UNL A   1      34.221  28.182  26.094  1.00  0.00    +0.000 H 
ATOM    109  H14 UNL A   1      33.835  26.802  27.174  1.00  0.00    +0.000 H 
BRANCH   18   17
ATOM     17  C10 UNL A   1      33.869  26.322  25.136  1.00  0.00    +0.000 C 
ATOM    106  H11 UNL A   1      34.886  25.998  25.211  1.00  0.00    +0.000 H 
ATOM    107  H12 UNL A   1      33.156  25.536  25.267  1.00  0.00    +0.000 H 
BRANCH   17   16
ATOM    105  H10 UNL A   1      34.598  26.798  23.226  1.00  0.00    +0.000 H 
ATOM    104  H9  UNL A   1      33.277  27.859  23.798  1.00  0.00    +0.000 H 
ATOM     16  C9  UNL A   1      33.650  26.859  23.721  1.00  0.00    +0.000 C 
BRANCH   16   15
ATOM    103  H8  UNL A   1      33.229  25.497  22.146  1.00  0.00    +0.000 H 
ATOM    102  H7  UNL A   1      31.991  26.724  22.388  1.00  0.00    +0.000 H 
ATOM     15  C8  UNL A   1      32.671  26.052  22.871  1.00  0.00    +0.000 C 
BRANCH   15   14
ATOM    101  H6  UNL A   1      31.471  25.553  24.447  1.00  0.00    +0.000 H 
ATOM     14  N3  UNL A   1      31.918  25.121  23.685  1.00  0.00    +0.000 N 
BRANCH   14   12
ATOM     12  C7  UNL A   1      31.688  23.769  23.629  1.00  0.00    +0.000 C 
ATOM     13  O3  UNL A   1      30.585  23.399  23.234  1.00  0.00    +0.000 O 
BRANCH   12   11
ATOM    129  H34 UNL A   1      31.673  20.846  24.094  1.00  0.00    +0.000 H 
ATOM    130  H35 UNL A   1      31.758  21.543  25.632  1.00  0.00    +0.000 H 
ATOM    131  H36 UNL A   1      33.947  20.629  25.924  1.00  0.00    +0.000 H 
ATOM      9  N1  UNL A   1      34.603  21.727  24.238  1.00  0.00    +0.000 N 
ATOM     10  N2  UNL A   1      33.965  22.896  23.906  1.00  0.00    +0.000 N 
ATOM     11  C6  UNL A   1      32.691  22.713  24.074  1.00  0.00    +0.000 C 
ATOM     87  C59 UNL A   1      32.312  21.431  24.724  1.00  0.00    +0.000 C 
ATOM     88  C60 UNL A   1      33.684  20.776  24.897  1.00  0.00    +0.000 C 
BRANCH    9    8
ATOM     99  H4  UNL A   1      38.780  20.186  25.309  1.00  0.00    +0.000 H 
ATOM    100  H5  UNL A   1      36.554  19.884  24.383  1.00  0.00    +0.000 H 
ATOM      5  C2  UNL A   1      38.429  22.169  25.954  1.00  0.00    +0.000 C 
ATOM      6  C3  UNL A   1      38.091  20.954  25.351  1.00  0.00    +0.000 C 
ATOM      7  C4  UNL A   1      36.813  20.787  24.808  1.00  0.00    +0.000 C 
ATOM    136  H41 UNL A   1      37.758  24.105  26.464  1.00  0.00    +0.000 H 
ATOM    135  H40 UNL A   1      35.553  23.807  25.504  1.00  0.00    +0.000 H 
ATOM      8  C5  UNL A   1      35.877  21.833  24.833  1.00  0.00    +0.000 C 
ATOM     94  C65 UNL A   1      36.239  23.036  25.456  1.00  0.00    +0.000 C 
ATOM     95  C66 UNL A   1      37.505  23.212  26.013  1.00  0.00    +0.000 C 
BRANCH    5    2
ATOM      2  S1  UNL A   1      40.056  22.399  26.626  1.00  0.00    +0.000 S 
ATOM      3  O1  UNL A   1      40.932  22.788  25.535  1.00  0.00    +0.000 O 
ATOM      4  O2  UNL A   1      40.347  21.229  27.430  1.00  0.00    +0.000 O 
BRANCH    2    1
ATOM      1  C1  UNL A   1      39.902  23.799  27.702  1.00  0.00    +0.000 C 
ATOM     98  H3  UNL A   1      39.264  24.529  27.249  1.00  0.00    +0.000 H 
ATOM     97  H2  UNL A   1      39.481  23.487  28.635  1.00  0.00    +0.000 H 
ATOM     96  H1  UNL A   1      40.869  24.226  27.873  1.00  0.00    +0.000 H 
ENDBRANCH    2    1
ENDBRANCH    5    2
ENDBRANCH    9    8
BRANCH   88   89
ATOM    132  H37 UNL A   1      35.526  18.600  25.353  1.00  0.00    +0.000 H 
ATOM    133  H38 UNL A   1      35.145  16.329  24.208  1.00  0.00    +0.000 H 
ATOM    134  H39 UNL A   1      33.014  16.304  22.842  1.00  0.00    +0.000 H 
ATOM     89  C61 UNL A   1      33.757  19.336  24.408  1.00  0.00    +0.000 C 
ATOM     90  C62 UNL A   1      34.730  18.402  24.727  1.00  0.00    +0.000 C 
ATOM     91  C63 UNL A   1      34.517  17.141  24.101  1.00  0.00    +0.000 C 
ATOM     92  C64 UNL A   1      33.373  17.134  23.338  1.00  0.00    +0.000 C 
ATOM     93  S2  UNL A   1      32.620  18.663  23.307  1.00  0.00    +0.000 S 
ENDBRANCH   88   89
ENDBRANCH   12   11
ENDBRANCH   14   12
ENDBRANCH   15   14
ENDBRANCH   16   15
ENDBRANCH   17   16
ENDBRANCH   18   17
ENDBRANCH   19   18
ENDBRANCH   20   19
ENDBRANCH   21   20
ENDBRANCH   22   21
ENDBRANCH   24   22
ENDBRANCH   28   27
BRANCH   32   33
ATOM     33  C23 UNL A   1      43.289  27.296  27.825  1.00  0.00    +0.000 C 
ATOM     34  C24 UNL A   1      43.933  27.895  26.731  1.00  0.00    +0.000 C 
ATOM     35  F1  UNL A   1      44.059  29.229  26.669  1.00  0.00    +0.000 F 
ATOM     36  C25 UNL A   1      44.420  27.126  25.677  1.00  0.00    +0.000 C 
ATOM     37  F2  UNL A   1      44.992  27.723  24.623  1.00  0.00    +0.000 F 
ATOM     38  C26 UNL A   1      44.307  25.744  25.712  1.00  0.00    +0.000 C 
ATOM     39  F3  UNL A   1      44.787  25.005  24.704  1.00  0.00    +0.000 F 
ATOM     40  C27 UNL A   1      43.691  25.129  26.792  1.00  0.00    +0.000 C 
ATOM     41  F4  UNL A   1      43.592  23.793  26.835  1.00  0.00    +0.000 F 
ATOM     42  C28 UNL A   1      43.176  25.897  27.833  1.00  0.00    +0.000 C 
ATOM     43  F5  UNL A   1      42.576  25.274  28.858  1.00  0.00    +0.000 F 
ENDBRANCH   32   33
BRANCH   49   50
ATOM     50  C34 UNL A   1      45.697  29.571  34.226  1.00  0.00    +0.000 C 
ATOM     51  C35 UNL A   1      45.943  28.542  35.146  1.00  0.00    +0.000 C 
ATOM     52  F6  UNL A   1      45.017  27.596  35.366  1.00  0.00    +0.000 F 
ATOM     53  C36 UNL A   1      47.128  28.504  35.877  1.00  0.00    +0.000 C 
ATOM     54  F7  UNL A   1      47.320  27.540  36.788  1.00  0.00    +0.000 F 
ATOM     55  C37 UNL A   1      48.102  29.471  35.677  1.00  0.00    +0.000 C 
ATOM     56  F8  UNL A   1      49.243  29.430  36.378  1.00  0.00    +0.000 F 
ATOM     57  C38 UNL A   1      47.888  30.486  34.756  1.00  0.00    +0.000 C 
ATOM     58  F9  UNL A   1      48.833  31.413  34.551  1.00  0.00    +0.000 F 
ATOM     59  C39 UNL A   1      46.692  30.544  34.047  1.00  0.00    +0.000 C 
ATOM     60  F10 UNL A   1      46.509  31.546  33.173  1.00  0.00    +0.000 F 
ENDBRANCH   49   50
BRANCH   64   65
ATOM     65  C43 UNL A   1      39.447  32.362  35.519  1.00  0.00    +0.000 C 
ATOM     66  C44 UNL A   1      39.663  33.733  35.714  1.00  0.00    +0.000 C 
ATOM     67  F11 UNL A   1      40.412  34.422  34.840  1.00  0.00    +0.000 F 
ATOM     68  C45 UNL A   1      39.150  34.393  36.828  1.00  0.00    +0.000 C 
ATOM     69  F12 UNL A   1      39.415  35.692  37.015  1.00  0.00    +0.000 F 
ATOM     70  C46 UNL A   1      38.383  33.701  37.754  1.00  0.00    +0.000 C 
ATOM     71  F13 UNL A   1      37.889  34.335  38.826  1.00  0.00    +0.000 F 
ATOM     72  C47 UNL A   1      38.136  32.349  37.571  1.00  0.00    +0.000 C 
ATOM     73  F14 UNL A   1      37.383  31.680  38.455  1.00  0.00    +0.000 F 
ATOM     74  C48 UNL A   1      38.673  31.682  36.472  1.00  0.00    +0.000 C 
ATOM     75  F15 UNL A   1      38.431  30.371  36.329  1.00  0.00    +0.000 F 
ENDBRANCH   64   65
TORSDOF 19
ENDMDL
MODEL 6
REMARK VINA RESULT:     -11.4     43.254     49.840
ROOT
ATOM     28  C19 UNL A   1      54.466  17.965   9.836  1.00  0.00    +0.000 C 
ATOM     29  C20 UNL A   1      54.926  18.280  11.233  1.00  0.00    +0.000 C 
ATOM     30  N5  UNL A   1      55.995  17.865  11.866  1.00  0.00    +0.000 N 
ATOM     31  C21 UNL A   1      55.967  18.487  13.107  1.00  0.00    +0.000 C 
ATOM     32  C22 UNL A   1      56.822  18.338  14.147  1.00  0.00    +0.000 C 
ATOM     44  C29 UNL A   1      57.961  17.457  14.140  1.00  0.00    +0.000 C 
ATOM     45  C30 UNL A   1      58.843  17.180  15.170  1.00  0.00    +0.000 C 
ATOM     46  C31 UNL A   1      59.820  16.304  14.686  1.00  0.00    +0.000 C 
ATOM     47  C32 UNL A   1      59.517  15.993  13.370  1.00  0.00    +0.000 C 
ATOM     48  N6  UNL A   1      58.376  16.711  13.047  1.00  0.00    +0.000 N 
ATOM     49  C33 UNL A   1      60.215  15.108  12.474  1.00  0.00    +0.000 C 
ATOM     61  C40 UNL A   1      59.845  14.849  11.196  1.00  0.00    +0.000 C 
ATOM     62  N7  UNL A   1      58.763  15.346  10.481  1.00  0.00    +0.000 N 
ATOM     63  C41 UNL A   1      58.846  14.816   9.286  1.00  0.00    +0.000 C 
ATOM     64  C42 UNL A   1      57.923  14.977   8.109  1.00  0.00    +0.000 C 
ATOM     76  C49 UNL A   1      56.821  15.740   8.237  1.00  0.00    +0.000 C 
ATOM     77  C50 UNL A   1      55.826  15.972   7.195  1.00  0.00    +0.000 C 
ATOM     78  C51 UNL A   1      54.889  16.811   7.663  1.00  0.00    +0.000 C 
ATOM     79  C52 UNL A   1      55.199  17.149   9.053  1.00  0.00    +0.000 C 
ATOM     80  N8  UNL A   1      56.361  16.465   9.310  1.00  0.00    +0.000 N 
ATOM     81  C53 UNL A   1      60.010  13.939   9.099  1.00  0.00    +0.000 C 
ATOM     82  C54 UNL A   1      60.560  13.959  10.305  1.00  0.00    +0.000 C 
ATOM     83  C55 UNL A   1      54.802  19.346  13.123  1.00  0.00    +0.000 C 
ATOM     84  C56 UNL A   1      54.090  19.205  12.013  1.00  0.00    +0.000 C 
ATOM    117  H22 UNL A   1      58.789  17.555  16.130  1.00  0.00    +0.000 H 
ATOM    118  H23 UNL A   1      60.630  15.948  15.219  1.00  0.00    +0.000 H 
ATOM    119  H24 UNL A   1      57.927  16.695  12.171  1.00  0.00    +0.000 H 
ATOM    120  H25 UNL A   1      55.841  15.559   6.250  1.00  0.00    +0.000 H 
ATOM    121  H26 UNL A   1      54.078  17.161   7.129  1.00  0.00    +0.000 H 
ATOM    122  H27 UNL A   1      56.821  16.491  10.180  1.00  0.00    +0.000 H 
ATOM    123  H28 UNL A   1      60.319  13.437   8.252  1.00  0.00    +0.000 H 
ATOM    124  H29 UNL A   1      61.391  13.411  10.574  1.00  0.00    +0.000 H 
ATOM    125  H30 UNL A   1      54.558  19.983  13.896  1.00  0.00    +0.000 H 
ATOM    126  H31 UNL A   1      53.185  19.632  11.763  1.00  0.00    +0.000 H 
ENDROOT
BRANCH   28   27
ATOM    115  H20 UNL A   1      52.164  21.369   7.726  1.00  0.00    +0.000 H 
ATOM    116  H21 UNL A   1      54.200  20.298   8.495  1.00  0.00    +0.000 H 
ATOM     85  C57 UNL A   1      51.998  17.945   9.427  1.00  0.00    +0.000 C 
ATOM     86  C58 UNL A   1      50.840  18.524   8.909  1.00  0.00    +0.000 C 
ATOM     24  C15 UNL A   1      50.891  19.799   8.338  1.00  0.00    +0.000 C 
ATOM     25  C16 UNL A   1      52.121  20.444   8.180  1.00  0.00    +0.000 C 
ATOM     26  C17 UNL A   1      53.290  19.834   8.637  1.00  0.00    +0.000 C 
ATOM     27  C18 UNL A   1      53.236  18.592   9.290  1.00  0.00    +0.000 C 
ATOM    127  H32 UNL A   1      51.945  17.036   9.913  1.00  0.00    +0.000 H 
ATOM    128  H33 UNL A   1      49.945  18.009   8.946  1.00  0.00    +0.000 H 
BRANCH   24   22
ATOM     22  C14 UNL A   1      49.668  20.481   7.860  1.00  0.00    +0.000 C 
ATOM     23  O4  UNL A   1      48.793  20.794   8.662  1.00  0.00    +0.000 O 
BRANCH   22   21
ATOM    114  H19 UNL A   1      49.527  21.705   6.284  1.00  0.00    +0.000 H 
ATOM     21  N4  UNL A   1      49.498  20.751   6.525  1.00  0.00    +0.000 N 
BRANCH   21   20
ATOM    113  H18 UNL A   1      50.197  19.308   5.250  1.00  0.00    +0.000 H 
ATOM     20  C13 UNL A   1      49.283  19.839   5.418  1.00  0.00    +0.000 C 
ATOM    112  H17 UNL A   1      48.996  20.406   4.557  1.00  0.00    +0.000 H 
BRANCH   20   19
ATOM     19  C12 UNL A   1      48.194  18.812   5.713  1.00  0.00    +0.000 C 
ATOM    110  H15 UNL A   1      48.669  17.917   6.058  1.00  0.00    +0.000 H 
ATOM    111  H16 UNL A   1      47.552  19.262   6.441  1.00  0.00    +0.000 H 
BRANCH   19   18
ATOM     18  C11 UNL A   1      47.300  18.446   4.526  1.00  0.00    +0.000 C 
ATOM    108  H13 UNL A   1      47.911  18.424   3.648  1.00  0.00    +0.000 H 
ATOM    109  H14 UNL A   1      46.860  17.501   4.773  1.00  0.00    +0.000 H 
BRANCH   18   17
ATOM     17  C10 UNL A   1      46.128  19.395   4.261  1.00  0.00    +0.000 C 
ATOM    106  H11 UNL A   1      45.650  19.599   5.197  1.00  0.00    +0.000 H 
ATOM    107  H12 UNL A   1      46.549  20.261   3.795  1.00  0.00    +0.000 H 
BRANCH   17   16
ATOM    105  H10 UNL A   1      44.542  18.094   3.815  1.00  0.00    +0.000 H 
ATOM    104  H9  UNL A   1      45.558  18.531   2.409  1.00  0.00    +0.000 H 
ATOM     16  C9  UNL A   1      45.064  18.871   3.295  1.00  0.00    +0.000 C 
BRANCH   16   15
ATOM    103  H8  UNL A   1      44.407  20.496   2.094  1.00  0.00    +0.000 H 
ATOM    102  H7  UNL A   1      43.761  20.501   3.731  1.00  0.00    +0.000 H 
ATOM     15  C8  UNL A   1      44.007  19.895   2.884  1.00  0.00    +0.000 C 
BRANCH   15   14
ATOM    101  H6  UNL A   1      42.798  19.130   1.426  1.00  0.00    +0.000 H 
ATOM     14  N3  UNL A   1      42.808  19.242   2.404  1.00  0.00    +0.000 N 
BRANCH   14   12
ATOM     12  C7  UNL A   1      41.681  18.744   3.007  1.00  0.00    +0.000 C 
ATOM     13  O3  UNL A   1      41.822  17.788   3.767  1.00  0.00    +0.000 O 
BRANCH   12   11
ATOM    129  H34 UNL A   1      39.112  18.813   4.476  1.00  0.00    +0.000 H 
ATOM    130  H35 UNL A   1      38.891  17.680   3.241  1.00  0.00    +0.000 H 
ATOM    131  H36 UNL A   1      37.267  19.110   2.225  1.00  0.00    +0.000 H 
ATOM      9  N1  UNL A   1      38.749  20.606   2.020  1.00  0.00    +0.000 N 
ATOM     10  N2  UNL A   1      40.067  20.238   1.918  1.00  0.00    +0.000 N 
ATOM     11  C6  UNL A   1      40.274  19.266   2.753  1.00  0.00    +0.000 C 
ATOM     87  C59 UNL A   1      39.056  18.723   3.411  1.00  0.00    +0.000 C 
ATOM     88  C60 UNL A   1      37.977  19.637   2.826  1.00  0.00    +0.000 C 
BRANCH    9    8
ATOM     99  H4  UNL A   1      35.084  21.565  -0.551  1.00  0.00    +0.000 H 
ATOM    100  H5  UNL A   1      36.123  20.664   1.452  1.00  0.00    +0.000 H 
ATOM      5  C2  UNL A   1      36.915  22.036  -1.497  1.00  0.00    +0.000 C 
ATOM      6  C3  UNL A   1      36.112  21.551  -0.461  1.00  0.00    +0.000 C 
ATOM      7  C4  UNL A   1      36.713  21.044   0.696  1.00  0.00    +0.000 C 
ATOM    136  H41 UNL A   1      38.894  22.378  -2.151  1.00  0.00    +0.000 H 
ATOM    135  H40 UNL A   1      39.919  21.513  -0.134  1.00  0.00    +0.000 H 
ATOM      8  C5  UNL A   1      38.109  21.046   0.844  1.00  0.00    +0.000 C 
ATOM     94  C65 UNL A   1      38.891  21.527  -0.217  1.00  0.00    +0.000 C 
ATOM     95  C66 UNL A   1      38.305  22.024  -1.382  1.00  0.00    +0.000 C 
BRANCH    5    2
ATOM      2  S1  UNL A   1      36.163  22.702  -2.961  1.00  0.00    +0.000 S 
ATOM      3  O1  UNL A   1      36.616  21.908  -4.089  1.00  0.00    +0.000 O 
ATOM      4  O2  UNL A   1      36.378  24.135  -2.927  1.00  0.00    +0.000 O 
BRANCH    2    1
ATOM      1  C1  UNL A   1      34.431  22.387  -2.757  1.00  0.00    +0.000 C 
ATOM     98  H3  UNL A   1      34.099  22.803  -1.829  1.00  0.00    +0.000 H 
ATOM     97  H2  UNL A   1      33.889  22.837  -3.563  1.00  0.00    +0.000 H 
ATOM     96  H1  UNL A   1      34.257  21.331  -2.757  1.00  0.00    +0.000 H 
ENDBRANCH    2    1
ENDBRANCH    5    2
ENDBRANCH    9    8
BRANCH   88   89
ATOM    132  H37 UNL A   1      37.427  22.332   3.705  1.00  0.00    +0.000 H 
ATOM    133  H38 UNL A   1      35.697  22.753   5.561  1.00  0.00    +0.000 H 
ATOM    134  H39 UNL A   1      34.583  20.611   6.320  1.00  0.00    +0.000 H 
ATOM     89  C61 UNL A   1      37.035  20.238   3.861  1.00  0.00    +0.000 C 
ATOM     90  C62 UNL A   1      36.892  21.582   4.168  1.00  0.00    +0.000 C 
ATOM     91  C63 UNL A   1      35.928  21.819   5.189  1.00  0.00    +0.000 C 
ATOM     92  C64 UNL A   1      35.341  20.652   5.620  1.00  0.00    +0.000 C 
ATOM     93  S2  UNL A   1      36.016  19.282   4.863  1.00  0.00    +0.000 S 
ENDBRANCH   88   89
ENDBRANCH   12   11
ENDBRANCH   14   12
ENDBRANCH   15   14
ENDBRANCH   16   15
ENDBRANCH   17   16
ENDBRANCH   18   17
ENDBRANCH   19   18
ENDBRANCH   20   19
ENDBRANCH   21   20
ENDBRANCH   22   21
ENDBRANCH   24   22
ENDBRANCH   28   27
BRANCH   32   33
ATOM     33  C23 UNL A   1      56.561  19.143  15.387  1.00  0.00    +0.000 C 
ATOM     34  C24 UNL A   1      55.780  18.642  16.440  1.00  0.00    +0.000 C 
ATOM     35  F1  UNL A   1      55.192  17.441  16.333  1.00  0.00    +0.000 F 
ATOM     36  C25 UNL A   1      55.573  19.389  17.597  1.00  0.00    +0.000 C 
ATOM     37  F2  UNL A   1      54.789  18.908  18.571  1.00  0.00    +0.000 F 
ATOM     38  C26 UNL A   1      56.169  20.633  17.739  1.00  0.00    +0.000 C 
ATOM     39  F3  UNL A   1      55.978  21.345  18.858  1.00  0.00    +0.000 F 
ATOM     40  C27 UNL A   1      56.959  21.141  16.719  1.00  0.00    +0.000 C 
ATOM     41  F4  UNL A   1      57.546  22.337  16.860  1.00  0.00    +0.000 F 
ATOM     42  C28 UNL A   1      57.144  20.409  15.549  1.00  0.00    +0.000 C 
ATOM     43  F5  UNL A   1      57.905  20.933  14.576  1.00  0.00    +0.000 F 
ENDBRANCH   32   33
BRANCH   49   50
ATOM     50  C34 UNL A   1      61.429  14.396  12.995  1.00  0.00    +0.000 C 
ATOM     51  C35 UNL A   1      61.331  13.171  13.670  1.00  0.00    +0.000 C 
ATOM     52  F6  UNL A   1      60.128  12.623  13.906  1.00  0.00    +0.000 F 
ATOM     53  C36 UNL A   1      62.468  12.523  14.144  1.00  0.00    +0.000 C 
ATOM     54  F7  UNL A   1      62.347  11.379  14.832  1.00  0.00    +0.000 F 
ATOM     55  C37 UNL A   1      63.725  13.066  13.922  1.00  0.00    +0.000 C 
ATOM     56  F8  UNL A   1      64.818  12.438  14.375  1.00  0.00    +0.000 F 
ATOM     57  C38 UNL A   1      63.846  14.266  13.237  1.00  0.00    +0.000 C 
ATOM     58  F9  UNL A   1      65.060  14.786  13.009  1.00  0.00    +0.000 F 
ATOM     59  C39 UNL A   1      62.709  14.932  12.789  1.00  0.00    +0.000 C 
ATOM     60  F10 UNL A   1      62.859  16.098  12.142  1.00  0.00    +0.000 F 
ENDBRANCH   49   50
BRANCH   64   65
ATOM     65  C43 UNL A   1      58.205  14.290   6.821  1.00  0.00    +0.000 C 
ATOM     66  C44 UNL A   1      57.792  12.968   6.602  1.00  0.00    +0.000 C 
ATOM     67  F11 UNL A   1      57.142  12.303   7.567  1.00  0.00    +0.000 F 
ATOM     68  C45 UNL A   1      58.085  12.311   5.409  1.00  0.00    +0.000 C 
ATOM     69  F12 UNL A   1      57.723  11.032   5.247  1.00  0.00    +0.000 F 
ATOM     70  C46 UNL A   1      58.768  12.972   4.400  1.00  0.00    +0.000 C 
ATOM     71  F13 UNL A   1      59.049  12.340   3.252  1.00  0.00    +0.000 F 
ATOM     72  C47 UNL A   1      59.166  14.287   4.584  1.00  0.00    +0.000 C 
ATOM     73  F14 UNL A   1      59.813  14.935   3.605  1.00  0.00    +0.000 F 
ATOM     74  C48 UNL A   1      58.899  14.937   5.788  1.00  0.00    +0.000 C 
ATOM     75  F15 UNL A   1      59.311  16.203   5.944  1.00  0.00    +0.000 F 
ENDBRANCH   64   65
TORSDOF 19
ENDMDL
MODEL 7
REMARK VINA RESULT:     -11.4     19.764     25.655
ROOT
ATOM     28  C19 UNL A   1      40.931  30.611  29.910  1.00  0.00    +0.000 C 
ATOM     29  C20 UNL A   1      42.095  31.511  29.596  1.00  0.00    +0.000 C 
ATOM     30  N5  UNL A   1      43.191  31.245  28.930  1.00  0.00    +0.000 N 
ATOM     31  C21 UNL A   1      43.909  32.433  28.892  1.00  0.00    +0.000 C 
ATOM     32  C22 UNL A   1      45.137  32.662  28.368  1.00  0.00    +0.000 C 
ATOM     44  C29 UNL A   1      45.949  31.655  27.736  1.00  0.00    +0.000 C 
ATOM     45  C30 UNL A   1      47.237  31.770  27.242  1.00  0.00    +0.000 C 
ATOM     46  C31 UNL A   1      47.599  30.545  26.674  1.00  0.00    +0.000 C 
ATOM     47  C32 UNL A   1      46.558  29.650  26.860  1.00  0.00    +0.000 C 
ATOM     48  N6  UNL A   1      45.550  30.346  27.509  1.00  0.00    +0.000 N 
ATOM     49  C33 UNL A   1      46.486  28.264  26.475  1.00  0.00    +0.000 C 
ATOM     61  C40 UNL A   1      45.427  27.450  26.705  1.00  0.00    +0.000 C 
ATOM     62  N7  UNL A   1      44.223  27.737  27.333  1.00  0.00    +0.000 N 
ATOM     63  C41 UNL A   1      43.521  26.632  27.291  1.00  0.00    +0.000 C 
ATOM     64  C42 UNL A   1      42.151  26.354  27.848  1.00  0.00    +0.000 C 
ATOM     76  C49 UNL A   1      41.505  27.327  28.518  1.00  0.00    +0.000 C 
ATOM     77  C50 UNL A   1      40.185  27.201  29.128  1.00  0.00    +0.000 C 
ATOM     78  C51 UNL A   1      39.842  28.377  29.676  1.00  0.00    +0.000 C 
ATOM     79  C52 UNL A   1      40.934  29.333  29.483  1.00  0.00    +0.000 C 
ATOM     80  N8  UNL A   1      41.880  28.621  28.790  1.00  0.00    +0.000 N 
ATOM     81  C53 UNL A   1      44.195  25.520  26.606  1.00  0.00    +0.000 C 
ATOM     82  C54 UNL A   1      45.368  26.058  26.308  1.00  0.00    +0.000 C 
ATOM     83  C55 UNL A   1      43.103  33.435  29.558  1.00  0.00    +0.000 C 
ATOM     84  C56 UNL A   1      42.003  32.901  30.068  1.00  0.00    +0.000 C 
ATOM    117  H22 UNL A   1      47.828  32.615  27.286  1.00  0.00    +0.000 H 
ATOM    118  H23 UNL A   1      48.492  30.341  26.196  1.00  0.00    +0.000 H 
ATOM    119  H24 UNL A   1      44.680  29.968  27.770  1.00  0.00    +0.000 H 
ATOM    120  H25 UNL A   1      39.609  26.345  29.138  1.00  0.00    +0.000 H 
ATOM    121  H26 UNL A   1      38.950  28.576  30.156  1.00  0.00    +0.000 H 
ATOM    122  H27 UNL A   1      42.745  29.000  28.513  1.00  0.00    +0.000 H 
ATOM    123  H28 UNL A   1      43.846  24.569  26.409  1.00  0.00    +0.000 H 
ATOM    124  H29 UNL A   1      46.142  25.551  25.851  1.00  0.00    +0.000 H 
ATOM    125  H30 UNL A   1      43.355  34.434  29.626  1.00  0.00    +0.000 H 
ATOM    126  H31 UNL A   1      41.272  33.346  30.645  1.00  0.00    +0.000 H 
ENDROOT
BRANCH   28   27
ATOM    115  H20 UNL A   1      38.441  31.341  33.733  1.00  0.00    +0.000 H 
ATOM    116  H21 UNL A   1      40.435  30.596  32.569  1.00  0.00    +0.000 H 
ATOM     85  C57 UNL A   1      38.709  31.760  29.938  1.00  0.00    +0.000 C 
ATOM     86  C58 UNL A   1      37.601  32.263  30.619  1.00  0.00    +0.000 C 
ATOM     24  C15 UNL A   1      37.477  32.061  31.997  1.00  0.00    +0.000 C 
ATOM     25  C16 UNL A   1      38.517  31.458  32.711  1.00  0.00    +0.000 C 
ATOM     26  C17 UNL A   1      39.656  31.015  32.038  1.00  0.00    +0.000 C 
ATOM     27  C18 UNL A   1      39.750  31.136  30.642  1.00  0.00    +0.000 C 
ATOM    127  H32 UNL A   1      38.763  31.847  28.911  1.00  0.00    +0.000 H 
ATOM    128  H33 UNL A   1      36.874  32.787  30.106  1.00  0.00    +0.000 H 
BRANCH   24   22
ATOM     22  C14 UNL A   1      36.274  32.502  32.738  1.00  0.00    +0.000 C 
ATOM     23  O4  UNL A   1      35.322  31.737  32.863  1.00  0.00    +0.000 O 
BRANCH   22   21
ATOM    114  H19 UNL A   1      36.369  33.819  34.241  1.00  0.00    +0.000 H 
ATOM     21  N4  UNL A   1      36.209  33.765  33.271  1.00  0.00    +0.000 N 
BRANCH   21   20
ATOM    113  H18 UNL A   1      36.194  34.925  31.582  1.00  0.00    +0.000 H 
ATOM     20  C13 UNL A   1      35.939  35.032  32.616  1.00  0.00    +0.000 C 
ATOM    112  H17 UNL A   1      36.525  35.793  33.087  1.00  0.00    +0.000 H 
BRANCH   20   19
ATOM     19  C12 UNL A   1      34.467  35.425  32.695  1.00  0.00    +0.000 C 
ATOM    110  H15 UNL A   1      34.051  34.974  33.572  1.00  0.00    +0.000 H 
ATOM    111  H16 UNL A   1      34.448  36.495  32.715  1.00  0.00    +0.000 H 
BRANCH   19   18
ATOM     18  C11 UNL A   1      33.613  35.007  31.496  1.00  0.00    +0.000 C 
ATOM    108  H13 UNL A   1      33.075  34.123  31.767  1.00  0.00    +0.000 H 
ATOM    109  H14 UNL A   1      32.984  35.847  31.279  1.00  0.00    +0.000 H 
BRANCH   18   17
ATOM     17  C10 UNL A   1      34.381  34.715  30.203  1.00  0.00    +0.000 C 
ATOM    106  H11 UNL A   1      33.965  35.324  29.428  1.00  0.00    +0.000 H 
ATOM    107  H12 UNL A   1      35.407  34.929  30.415  1.00  0.00    +0.000 H 
BRANCH   17   16
ATOM    105  H10 UNL A   1      33.387  32.875  30.025  1.00  0.00    +0.000 H 
ATOM    104  H9  UNL A   1      35.163  32.743  30.179  1.00  0.00    +0.000 H 
ATOM     16  C9  UNL A   1      34.341  33.261  29.731  1.00  0.00    +0.000 C 
BRANCH   16   15
ATOM    103  H8  UNL A   1      35.464  33.041  27.941  1.00  0.00    +0.000 H 
ATOM    102  H7  UNL A   1      33.938  33.891  27.735  1.00  0.00    +0.000 H 
ATOM     15  C8  UNL A   1      34.431  33.073  28.218  1.00  0.00    +0.000 C 
BRANCH   15   14
ATOM    101  H6  UNL A   1      32.864  31.948  27.545  1.00  0.00    +0.000 H 
ATOM     14  N3  UNL A   1      33.806  31.833  27.808  1.00  0.00    +0.000 N 
BRANCH   14   12
ATOM     12  C7  UNL A   1      34.233  30.533  27.704  1.00  0.00    +0.000 C 
ATOM     13  O3  UNL A   1      35.325  30.256  28.194  1.00  0.00    +0.000 O 
BRANCH   12   11
ATOM    129  H34 UNL A   1      31.807  30.360  26.017  1.00  0.00    +0.000 H 
ATOM    130  H35 UNL A   1      31.378  29.653  27.491  1.00  0.00    +0.000 H 
ATOM    131  H36 UNL A   1      31.140  27.537  26.406  1.00  0.00    +0.000 H 
ATOM      9  N1  UNL A   1      33.178  27.626  25.840  1.00  0.00    +0.000 N 
ATOM     10  N2  UNL A   1      34.059  28.343  26.610  1.00  0.00    +0.000 N 
ATOM     11  C6  UNL A   1      33.465  29.437  26.978  1.00  0.00    +0.000 C 
ATOM     87  C59 UNL A   1      32.019  29.519  26.645  1.00  0.00    +0.000 C 
ATOM     88  C60 UNL A   1      31.816  28.197  25.902  1.00  0.00    +0.000 C 
BRANCH    9    8
ATOM     99  H4  UNL A   1      31.449  23.487  26.758  1.00  0.00    +0.000 H 
ATOM    100  H5  UNL A   1      31.323  25.914  26.763  1.00  0.00    +0.000 H 
ATOM      5  C2  UNL A   1      33.411  23.419  25.974  1.00  0.00    +0.000 C 
ATOM      6  C3  UNL A   1      32.247  24.049  26.421  1.00  0.00    +0.000 C 
ATOM      7  C4  UNL A   1      32.173  25.446  26.411  1.00  0.00    +0.000 C 
ATOM    136  H41 UNL A   1      35.352  23.700  25.190  1.00  0.00    +0.000 H 
ATOM    135  H40 UNL A   1      35.203  26.118  25.163  1.00  0.00    +0.000 H 
ATOM      8  C5  UNL A   1      33.239  26.221  25.928  1.00  0.00    +0.000 C 
ATOM     94  C65 UNL A   1      34.400  25.562  25.498  1.00  0.00    +0.000 C 
ATOM     95  C66 UNL A   1      34.492  24.170  25.514  1.00  0.00    +0.000 C 
BRANCH    5    2
ATOM      2  S1  UNL A   1      33.507  21.646  25.961  1.00  0.00    +0.000 S 
ATOM      3  O1  UNL A   1      32.288  21.143  25.351  1.00  0.00    +0.000 O 
ATOM      4  O2  UNL A   1      33.891  21.237  27.297  1.00  0.00    +0.000 O 
BRANCH    2    1
ATOM      1  C1  UNL A   1      34.840  21.277  24.853  1.00  0.00    +0.000 C 
ATOM     98  H3  UNL A   1      34.472  20.698  24.031  1.00  0.00    +0.000 H 
ATOM     97  H2  UNL A   1      35.261  22.190  24.486  1.00  0.00    +0.000 H 
ATOM     96  H1  UNL A   1      35.593  20.722  25.372  1.00  0.00    +0.000 H 
ENDBRANCH    2    1
ENDBRANCH    5    2
ENDBRANCH    9    8
BRANCH   88   89
ATOM    132  H37 UNL A   1      31.739  30.241  23.865  1.00  0.00    +0.000 H 
ATOM    133  H38 UNL A   1      30.276  29.921  21.774  1.00  0.00    +0.000 H 
ATOM    134  H39 UNL A   1      29.124  27.666  21.761  1.00  0.00    +0.000 H 
ATOM     89  C61 UNL A   1      31.092  28.331  24.570  1.00  0.00    +0.000 C 
ATOM     90  C62 UNL A   1      31.164  29.402  23.693  1.00  0.00    +0.000 C 
ATOM     91  C63 UNL A   1      30.361  29.223  22.530  1.00  0.00    +0.000 C 
ATOM     92  C64 UNL A   1      29.715  28.009  22.535  1.00  0.00    +0.000 C 
ATOM     93  S2  UNL A   1      30.005  27.140  23.972  1.00  0.00    +0.000 S 
ENDBRANCH   88   89
ENDBRANCH   12   11
ENDBRANCH   14   12
ENDBRANCH   15   14
ENDBRANCH   16   15
ENDBRANCH   17   16
ENDBRANCH   18   17
ENDBRANCH   19   18
ENDBRANCH   20   19
ENDBRANCH   21   20
ENDBRANCH   22   21
ENDBRANCH   24   22
ENDBRANCH   28   27
BRANCH   32   33
ATOM     33  C23 UNL A   1      45.685  34.057  28.456  1.00  0.00    +0.000 C 
ATOM     34  C24 UNL A   1      46.460  34.476  29.549  1.00  0.00    +0.000 C 
ATOM     35  F1  UNL A   1      46.677  33.646  30.581  1.00  0.00    +0.000 F 
ATOM     36  C25 UNL A   1      46.987  35.764  29.601  1.00  0.00    +0.000 C 
ATOM     37  F2  UNL A   1      47.688  36.156  30.675  1.00  0.00    +0.000 F 
ATOM     38  C26 UNL A   1      46.782  36.644  28.550  1.00  0.00    +0.000 C 
ATOM     39  F3  UNL A   1      47.300  37.879  28.597  1.00  0.00    +0.000 F 
ATOM     40  C27 UNL A   1      46.034  36.246  27.452  1.00  0.00    +0.000 C 
ATOM     41  F4  UNL A   1      45.845  37.091  26.429  1.00  0.00    +0.000 F 
ATOM     42  C28 UNL A   1      45.481  34.969  27.409  1.00  0.00    +0.000 C 
ATOM     43  F5  UNL A   1      44.753  34.617  26.339  1.00  0.00    +0.000 F 
ENDBRANCH   32   33
BRANCH   49   50
ATOM     50  C34 UNL A   1      47.679  27.664  25.791  1.00  0.00    +0.000 C 
ATOM     51  C35 UNL A   1      47.752  27.565  24.393  1.00  0.00    +0.000 C 
ATOM     52  F6  UNL A   1      46.725  27.970  23.632  1.00  0.00    +0.000 F 
ATOM     53  C36 UNL A   1      48.867  27.007  23.774  1.00  0.00    +0.000 C 
ATOM     54  F7  UNL A   1      48.895  26.874  22.441  1.00  0.00    +0.000 F 
ATOM     55  C37 UNL A   1      49.944  26.573  24.534  1.00  0.00    +0.000 C 
ATOM     56  F8  UNL A   1      51.018  26.041  23.935  1.00  0.00    +0.000 F 
ATOM     57  C38 UNL A   1      49.901  26.683  25.916  1.00  0.00    +0.000 C 
ATOM     58  F9  UNL A   1      50.945  26.277  26.652  1.00  0.00    +0.000 F 
ATOM     59  C39 UNL A   1      48.775  27.211  26.540  1.00  0.00    +0.000 C 
ATOM     60  F10 UNL A   1      48.758  27.290  27.879  1.00  0.00    +0.000 F 
ENDBRANCH   49   50
BRANCH   64   65
ATOM     65  C43 UNL A   1      41.518  25.020  27.682  1.00  0.00    +0.000 C 
ATOM     66  C44 UNL A   1      42.002  23.900  28.373  1.00  0.00    +0.000 C 
ATOM     67  F11 UNL A   1      43.059  24.024  29.189  1.00  0.00    +0.000 F 
ATOM     68  C45 UNL A   1      41.434  22.641  28.193  1.00  0.00    +0.000 C 
ATOM     69  F12 UNL A   1      41.949  21.580  28.826  1.00  0.00    +0.000 F 
ATOM     70  C46 UNL A   1      40.349  22.483  27.344  1.00  0.00    +0.000 C 
ATOM     71  F13 UNL A   1      39.800  21.272  27.172  1.00  0.00    +0.000 F 
ATOM     72  C47 UNL A   1      39.837  23.580  26.667  1.00  0.00    +0.000 C 
ATOM     73  F14 UNL A   1      38.779  23.434  25.858  1.00  0.00    +0.000 F 
ATOM     74  C48 UNL A   1      40.424  24.834  26.824  1.00  0.00    +0.000 C 
ATOM     75  F15 UNL A   1      39.918  25.874  26.145  1.00  0.00    +0.000 F 
ENDBRANCH   64   65
TORSDOF 19
ENDMDL
MODEL 8
REMARK VINA RESULT:     -11.2     42.266     46.246
ROOT
ATOM     28  C19 UNL A   1      13.851  53.757   5.104  1.00  0.00    +0.000 C 
ATOM     29  C20 UNL A   1      14.804  54.204   4.030  1.00  0.00    +0.000 C 
ATOM     30  N5  UNL A   1      15.305  53.520   3.031  1.00  0.00    +0.000 N 
ATOM     31  C21 UNL A   1      16.090  54.414   2.315  1.00  0.00    +0.000 C 
ATOM     32  C22 UNL A   1      16.864  54.177   1.229  1.00  0.00    +0.000 C 
ATOM     44  C29 UNL A   1      17.016  52.887   0.607  1.00  0.00    +0.000 C 
ATOM     45  C30 UNL A   1      17.835  52.530  -0.449  1.00  0.00    +0.000 C 
ATOM     46  C31 UNL A   1      17.610  51.181  -0.741  1.00  0.00    +0.000 C 
ATOM     47  C32 UNL A   1      16.690  50.683   0.167  1.00  0.00    +0.000 C 
ATOM     48  N6  UNL A   1      16.331  51.742   0.986  1.00  0.00    +0.000 N 
ATOM     49  C33 UNL A   1      16.176  49.342   0.281  1.00  0.00    +0.000 C 
ATOM     61  C40 UNL A   1      15.279  48.932   1.211  1.00  0.00    +0.000 C 
ATOM     62  N7  UNL A   1      14.673  49.663   2.223  1.00  0.00    +0.000 N 
ATOM     63  C41 UNL A   1      13.873  48.830   2.841  1.00  0.00    +0.000 C 
ATOM     64  C42 UNL A   1      12.990  49.069   4.036  1.00  0.00    +0.000 C 
ATOM     76  C49 UNL A   1      12.990  50.282   4.620  1.00  0.00    +0.000 C 
ATOM     77  C50 UNL A   1      12.205  50.657   5.793  1.00  0.00    +0.000 C 
ATOM     78  C51 UNL A   1      12.425  51.951   6.072  1.00  0.00    +0.000 C 
ATOM     79  C52 UNL A   1      13.395  52.489   5.116  1.00  0.00    +0.000 C 
ATOM     80  N8  UNL A   1      13.677  51.427   4.295  1.00  0.00    +0.000 N 
ATOM     81  C53 UNL A   1      13.863  47.475   2.272  1.00  0.00    +0.000 C 
ATOM     82  C54 UNL A   1      14.769  47.581   1.310  1.00  0.00    +0.000 C 
ATOM     83  C55 UNL A   1      15.961  55.702   2.963  1.00  0.00    +0.000 C 
ATOM     84  C56 UNL A   1      15.230  55.611   4.065  1.00  0.00    +0.000 C 
ATOM    117  H22 UNL A   1      18.498  53.152  -0.938  1.00  0.00    +0.000 H 
ATOM    118  H23 UNL A   1      18.055  50.646  -1.505  1.00  0.00    +0.000 H 
ATOM    119  H24 UNL A   1      15.684  51.690   1.727  1.00  0.00    +0.000 H 
ATOM    120  H25 UNL A   1      11.581  50.028   6.321  1.00  0.00    +0.000 H 
ATOM    121  H26 UNL A   1      11.983  52.481   6.838  1.00  0.00    +0.000 H 
ATOM    122  H27 UNL A   1      14.311  51.480   3.544  1.00  0.00    +0.000 H 
ATOM    123  H28 UNL A   1      13.299  46.657   2.548  1.00  0.00    +0.000 H 
ATOM    124  H29 UNL A   1      15.072  46.800   0.708  1.00  0.00    +0.000 H 
ATOM    125  H30 UNL A   1      16.384  56.575   2.613  1.00  0.00    +0.000 H 
ATOM    126  H31 UNL A   1      15.016  56.339   4.765  1.00  0.00    +0.000 H 
ENDROOT
BRANCH   28   27
ATOM    115  H20 UNL A   1      11.011  57.076   6.611  1.00  0.00    +0.000 H 
ATOM    116  H21 UNL A   1      11.717  55.415   4.989  1.00  0.00    +0.000 H 
ATOM     85  C57 UNL A   1      14.027  54.840   7.353  1.00  0.00    +0.000 C 
ATOM     86  C58 UNL A   1      13.568  55.736   8.318  1.00  0.00    +0.000 C 
ATOM     24  C15 UNL A   1      12.502  56.592   8.027  1.00  0.00    +0.000 C 
ATOM     25  C16 UNL A   1      11.821  56.469   6.812  1.00  0.00    +0.000 C 
ATOM     26  C17 UNL A   1      12.238  55.524   5.873  1.00  0.00    +0.000 C 
ATOM     27  C18 UNL A   1      13.362  54.721   6.123  1.00  0.00    +0.000 C 
ATOM    127  H32 UNL A   1      14.860  54.261   7.545  1.00  0.00    +0.000 H 
ATOM    128  H33 UNL A   1      14.015  55.765   9.248  1.00  0.00    +0.000 H 
BRANCH   24   22
ATOM     22  C14 UNL A   1      12.047  57.616   8.993  1.00  0.00    +0.000 C 
ATOM     23  O4  UNL A   1      12.494  58.757   8.925  1.00  0.00    +0.000 O 
BRANCH   22   21
ATOM    114  H19 UNL A   1      11.172  57.863  10.775  1.00  0.00    +0.000 H 
ATOM     21  N4  UNL A   1      11.141  57.295   9.972  1.00  0.00    +0.000 N 
BRANCH   21   20
ATOM    113  H18 UNL A   1      10.359  55.567   9.196  1.00  0.00    +0.000 H 
ATOM     20  C13 UNL A   1      10.144  56.241   9.999  1.00  0.00    +0.000 C 
ATOM    112  H17 UNL A   1       9.175  56.681   9.891  1.00  0.00    +0.000 H 
BRANCH   20   19
ATOM     19  C12 UNL A   1      10.177  55.442  11.298  1.00  0.00    +0.000 C 
ATOM    110  H15 UNL A   1      10.598  56.065  12.059  1.00  0.00    +0.000 H 
ATOM    111  H16 UNL A   1       9.166  55.152  11.494  1.00  0.00    +0.000 H 
BRANCH   19   18
ATOM     18  C11 UNL A   1      10.988  54.144  11.248  1.00  0.00    +0.000 C 
ATOM    108  H13 UNL A   1      10.585  53.534  10.467  1.00  0.00    +0.000 H 
ATOM    109  H14 UNL A   1      12.004  54.441  11.085  1.00  0.00    +0.000 H 
BRANCH   18   17
ATOM     17  C10 UNL A   1      10.996  53.316  12.537  1.00  0.00    +0.000 C 
ATOM    106  H11 UNL A   1       9.981  53.175  12.844  1.00  0.00    +0.000 H 
ATOM    107  H12 UNL A   1      11.504  52.406  12.300  1.00  0.00    +0.000 H 
BRANCH   17   16
ATOM    105  H10 UNL A   1      11.850  53.165  14.448  1.00  0.00    +0.000 H 
ATOM    104  H9  UNL A   1      11.213  54.788  14.051  1.00  0.00    +0.000 H 
ATOM     16  C9  UNL A   1      11.760  53.934  13.709  1.00  0.00    +0.000 C 
BRANCH   16   15
ATOM    103  H8  UNL A   1      13.429  55.212  14.016  1.00  0.00    +0.000 H 
ATOM    102  H7  UNL A   1      13.233  54.669  12.354  1.00  0.00    +0.000 H 
ATOM     15  C8  UNL A   1      13.183  54.383  13.384  1.00  0.00    +0.000 C 
BRANCH   15   14
ATOM    101  H6  UNL A   1      14.248  53.119  14.585  1.00  0.00    +0.000 H 
ATOM     14  N3  UNL A   1      14.134  53.320  13.628  1.00  0.00    +0.000 N 
BRANCH   14   12
ATOM     12  C7  UNL A   1      14.913  52.528  12.822  1.00  0.00    +0.000 C 
ATOM     13  O3  UNL A   1      16.057  52.287  13.202  1.00  0.00    +0.000 O 
BRANCH   12   11
ATOM    129  H34 UNL A   1      16.071  52.270  10.111  1.00  0.00    +0.000 H 
ATOM    130  H35 UNL A   1      14.897  53.479   9.983  1.00  0.00    +0.000 H 
ATOM    131  H36 UNL A   1      13.608  52.073   8.543  1.00  0.00    +0.000 H 
ATOM      9  N1  UNL A   1      13.475  50.644  10.098  1.00  0.00    +0.000 N 
ATOM     10  N2  UNL A   1      13.549  51.061  11.403  1.00  0.00    +0.000 N 
ATOM     11  C6  UNL A   1      14.466  51.978  11.475  1.00  0.00    +0.000 C 
ATOM     87  C59 UNL A   1      15.015  52.433  10.171  1.00  0.00    +0.000 C 
ATOM     88  C60 UNL A   1      14.251  51.527   9.202  1.00  0.00    +0.000 C 
BRANCH    9    8
ATOM     99  H4  UNL A   1       9.190  51.480   8.718  1.00  0.00    +0.000 H 
ATOM    100  H5  UNL A   1      11.306  52.177   9.688  1.00  0.00    +0.000 H 
ATOM      5  C2  UNL A   1       9.744  49.447   8.543  1.00  0.00    +0.000 C 
ATOM      6  C3  UNL A   1       9.942  50.790   8.875  1.00  0.00    +0.000 C 
ATOM      7  C4  UNL A   1      11.166  51.190   9.422  1.00  0.00    +0.000 C 
ATOM    136  H41 UNL A   1      10.602  47.517   8.507  1.00  0.00    +0.000 H 
ATOM    135  H40 UNL A   1      12.722  48.229   9.440  1.00  0.00    +0.000 H 
ATOM      8  C5  UNL A   1      12.207  50.268   9.612  1.00  0.00    +0.000 C 
ATOM     94  C65 UNL A   1      11.975  48.924   9.283  1.00  0.00    +0.000 C 
ATOM     95  C66 UNL A   1      10.755  48.509   8.748  1.00  0.00    +0.000 C 
BRANCH    5    2
ATOM      2  S1  UNL A   1       8.202  48.932   7.827  1.00  0.00    +0.000 S 
ATOM      3  O1  UNL A   1       7.133  49.551   8.591  1.00  0.00    +0.000 O 
ATOM      4  O2  UNL A   1       8.270  47.492   7.678  1.00  0.00    +0.000 O 
BRANCH    2    1
ATOM      1  C1  UNL A   1       8.190  49.666   6.215  1.00  0.00    +0.000 C 
ATOM     98  H3  UNL A   1       7.673  49.023   5.533  1.00  0.00    +0.000 H 
ATOM     97  H2  UNL A   1       7.693  50.613   6.258  1.00  0.00    +0.000 H 
ATOM     96  H1  UNL A   1       9.197  49.807   5.879  1.00  0.00    +0.000 H 
ENDBRANCH    2    1
ENDBRANCH    5    2
ENDBRANCH    9    8
BRANCH   88   89
ATOM    132  H37 UNL A   1      15.973  52.449   7.075  1.00  0.00    +0.000 H 
ATOM    133  H38 UNL A   1      17.226  50.751   5.606  1.00  0.00    +0.000 H 
ATOM    134  H39 UNL A   1      16.819  48.368   6.357  1.00  0.00    +0.000 H 
ATOM     89  C61 UNL A   1      15.128  50.824   8.176  1.00  0.00    +0.000 C 
ATOM     90  C62 UNL A   1      15.908  51.427   7.201  1.00  0.00    +0.000 C 
ATOM     91  C63 UNL A   1      16.610  50.489   6.392  1.00  0.00    +0.000 C 
ATOM     92  C64 UNL A   1      16.369  49.193   6.783  1.00  0.00    +0.000 C 
ATOM     93  S2  UNL A   1      15.236  49.112   8.054  1.00  0.00    +0.000 S 
ENDBRANCH   88   89
ENDBRANCH   12   11
ENDBRANCH   14   12
ENDBRANCH   15   14
ENDBRANCH   16   15
ENDBRANCH   17   16
ENDBRANCH   18   17
ENDBRANCH   19   18
ENDBRANCH   20   19
ENDBRANCH   21   20
ENDBRANCH   22   21
ENDBRANCH   24   22
ENDBRANCH   28   27
BRANCH   32   33
ATOM     33  C23 UNL A   1      17.614  55.336   0.639  1.00  0.00    +0.000 C 
ATOM     34  C24 UNL A   1      18.892  55.695   1.095  1.00  0.00    +0.000 C 
ATOM     35  F1  UNL A   1      19.451  55.040   2.123  1.00  0.00    +0.000 F 
ATOM     36  C25 UNL A   1      19.588  56.754   0.517  1.00  0.00    +0.000 C 
ATOM     37  F2  UNL A   1      20.788  57.106   0.997  1.00  0.00    +0.000 F 
ATOM     38  C26 UNL A   1      19.037  57.451  -0.549  1.00  0.00    +0.000 C 
ATOM     39  F3  UNL A   1      19.713  58.461  -1.111  1.00  0.00    +0.000 F 
ATOM     40  C27 UNL A   1      17.783  57.102  -1.027  1.00  0.00    +0.000 C 
ATOM     41  F4  UNL A   1      17.255  57.765  -2.065  1.00  0.00    +0.000 F 
ATOM     42  C28 UNL A   1      17.072  56.063  -0.432  1.00  0.00    +0.000 C 
ATOM     43  F5  UNL A   1      15.857  55.757  -0.911  1.00  0.00    +0.000 F 
ENDBRANCH   32   33
BRANCH   49   50
ATOM     50  C34 UNL A   1      16.686  48.312  -0.683  1.00  0.00    +0.000 C 
ATOM     51  C35 UNL A   1      15.939  47.918  -1.802  1.00  0.00    +0.000 C 
ATOM     52  F6  UNL A   1      14.717  48.430  -2.014  1.00  0.00    +0.000 F 
ATOM     53  C36 UNL A   1      16.429  46.962  -2.688  1.00  0.00    +0.000 C 
ATOM     54  F7  UNL A   1      15.676  46.562  -3.723  1.00  0.00    +0.000 F 
ATOM     55  C37 UNL A   1      17.687  46.410  -2.494  1.00  0.00    +0.000 C 
ATOM     56  F8  UNL A   1      18.157  45.493  -3.351  1.00  0.00    +0.000 F 
ATOM     57  C38 UNL A   1      18.451  46.802  -1.405  1.00  0.00    +0.000 C 
ATOM     58  F9  UNL A   1      19.672  46.280  -1.224  1.00  0.00    +0.000 F 
ATOM     59  C39 UNL A   1      17.952  47.734  -0.501  1.00  0.00    +0.000 C 
ATOM     60  F10 UNL A   1      18.710  48.082   0.550  1.00  0.00    +0.000 F 
ENDBRANCH   49   50
BRANCH   64   65
ATOM     65  C43 UNL A   1      12.140  47.980   4.584  1.00  0.00    +0.000 C 
ATOM     66  C44 UNL A   1      10.805  47.835   4.182  1.00  0.00    +0.000 C 
ATOM     67  F11 UNL A   1      10.276  48.693   3.298  1.00  0.00    +0.000 F 
ATOM     68  C45 UNL A   1       9.995  46.837   4.720  1.00  0.00    +0.000 C 
ATOM     69  F12 UNL A   1       8.709  46.753   4.355  1.00  0.00    +0.000 F 
ATOM     70  C46 UNL A   1      10.514  45.945   5.646  1.00  0.00    +0.000 C 
ATOM     71  F13 UNL A   1       9.735  44.983   6.162  1.00  0.00    +0.000 F 
ATOM     72  C47 UNL A   1      11.838  46.054   6.042  1.00  0.00    +0.000 C 
ATOM     73  F14 UNL A   1      12.347  45.184   6.925  1.00  0.00    +0.000 F 
ATOM     74  C48 UNL A   1      12.640  47.070   5.526  1.00  0.00    +0.000 C 
ATOM     75  F15 UNL A   1      13.913  47.161   5.940  1.00  0.00    +0.000 F 
ENDBRANCH   64   65
TORSDOF 19
ENDMDL
MODEL 9
REMARK VINA RESULT:     -11.2     19.948     24.912
ROOT
ATOM     28  C19 UNL A   1      41.544  26.548  27.515  1.00  0.00    +0.000 C 
ATOM     29  C20 UNL A   1      42.951  26.803  27.047  1.00  0.00    +0.000 C 
ATOM     30  N5  UNL A   1      43.740  27.814  27.311  1.00  0.00    +0.000 N 
ATOM     31  C21 UNL A   1      44.940  27.537  26.669  1.00  0.00    +0.000 C 
ATOM     32  C22 UNL A   1      46.054  28.303  26.590  1.00  0.00    +0.000 C 
ATOM     44  C29 UNL A   1      46.184  29.608  27.186  1.00  0.00    +0.000 C 
ATOM     45  C30 UNL A   1      47.243  30.494  27.098  1.00  0.00    +0.000 C 
ATOM     46  C31 UNL A   1      46.943  31.614  27.880  1.00  0.00    +0.000 C 
ATOM     47  C32 UNL A   1      45.674  31.450  28.412  1.00  0.00    +0.000 C 
ATOM     48  N6  UNL A   1      45.222  30.212  27.981  1.00  0.00    +0.000 N 
ATOM     49  C33 UNL A   1      44.929  32.353  29.250  1.00  0.00    +0.000 C 
ATOM     61  C40 UNL A   1      43.680  32.120  29.724  1.00  0.00    +0.000 C 
ATOM     62  N7  UNL A   1      42.862  31.016  29.525  1.00  0.00    +0.000 N 
ATOM     63  C41 UNL A   1      41.765  31.253  30.202  1.00  0.00    +0.000 C 
ATOM     64  C42 UNL A   1      40.522  30.413  30.321  1.00  0.00    +0.000 C 
ATOM     76  C49 UNL A   1      40.446  29.252  29.643  1.00  0.00    +0.000 C 
ATOM     77  C50 UNL A   1      39.302  28.345  29.645  1.00  0.00    +0.000 C 
ATOM     78  C51 UNL A   1      39.592  27.274  28.891  1.00  0.00    +0.000 C 
ATOM     79  C52 UNL A   1      40.933  27.434  28.326  1.00  0.00    +0.000 C 
ATOM     80  N8  UNL A   1      41.361  28.639  28.823  1.00  0.00    +0.000 N 
ATOM     81  C53 UNL A   1      41.775  32.529  30.931  1.00  0.00    +0.000 C 
ATOM     82  C54 UNL A   1      42.945  33.036  30.570  1.00  0.00    +0.000 C 
ATOM     83  C55 UNL A   1      44.793  26.239  26.043  1.00  0.00    +0.000 C 
ATOM     84  C56 UNL A   1      43.562  25.773  26.192  1.00  0.00    +0.000 C 
ATOM    117  H22 UNL A   1      48.106  30.353  26.551  1.00  0.00    +0.000 H 
ATOM    118  H23 UNL A   1      47.562  32.426  28.035  1.00  0.00    +0.000 H 
ATOM    119  H24 UNL A   1      44.348  29.820  28.207  1.00  0.00    +0.000 H 
ATOM    120  H25 UNL A   1      38.413  28.503  30.145  1.00  0.00    +0.000 H 
ATOM    121  H26 UNL A   1      38.970  26.466  28.736  1.00  0.00    +0.000 H 
ATOM    122  H27 UNL A   1      42.241  29.027  28.612  1.00  0.00    +0.000 H 
ATOM    123  H28 UNL A   1      41.059  32.926  31.558  1.00  0.00    +0.000 H 
ATOM    124  H29 UNL A   1      43.288  33.966  30.855  1.00  0.00    +0.000 H 
ATOM    125  H30 UNL A   1      45.550  25.744  25.546  1.00  0.00    +0.000 H 
ATOM    126  H31 UNL A   1      43.141  24.913  25.808  1.00  0.00    +0.000 H 
ENDROOT
BRANCH   28   27
ATOM    115  H20 UNL A   1      38.329  24.164  25.208  1.00  0.00    +0.000 H 
ATOM    116  H21 UNL A   1      39.553  26.195  25.719  1.00  0.00    +0.000 H 
ATOM     85  C57 UNL A   1      41.209  24.077  27.727  1.00  0.00    +0.000 C 
ATOM     86  C58 UNL A   1      40.560  22.897  27.369  1.00  0.00    +0.000 C 
ATOM     24  C15 UNL A   1      39.471  22.936  26.492  1.00  0.00    +0.000 C 
ATOM     25  C16 UNL A   1      39.109  24.141  25.883  1.00  0.00    +0.000 C 
ATOM     26  C17 UNL A   1      39.804  25.312  26.190  1.00  0.00    +0.000 C 
ATOM     27  C18 UNL A   1      40.841  25.296  27.136  1.00  0.00    +0.000 C 
ATOM    127  H32 UNL A   1      41.964  24.055  28.430  1.00  0.00    +0.000 H 
ATOM    128  H33 UNL A   1      40.883  21.994  27.750  1.00  0.00    +0.000 H 
BRANCH   24   22
ATOM     22  C14 UNL A   1      38.702  21.716  26.160  1.00  0.00    +0.000 C 
ATOM     23  O4  UNL A   1      39.285  20.641  26.049  1.00  0.00    +0.000 O 
BRANCH   22   21
ATOM    114  H19 UNL A   1      36.836  22.210  26.684  1.00  0.00    +0.000 H 
ATOM     21  N4  UNL A   1      37.347  21.781  25.960  1.00  0.00    +0.000 N 
BRANCH   21   20
ATOM    113  H18 UNL A   1      36.791  20.278  24.682  1.00  0.00    +0.000 H 
ATOM     20  C13 UNL A   1      36.554  21.310  24.839  1.00  0.00    +0.000 C 
ATOM    112  H17 UNL A   1      36.791  21.900  23.979  1.00  0.00    +0.000 H 
BRANCH   20   19
ATOM     19  C12 UNL A   1      35.055  21.408  25.104  1.00  0.00    +0.000 C 
ATOM    110  H15 UNL A   1      34.542  20.971  24.272  1.00  0.00    +0.000 H 
ATOM    111  H16 UNL A   1      34.884  20.895  26.028  1.00  0.00    +0.000 H 
BRANCH   19   18
ATOM     18  C11 UNL A   1      34.516  22.827  25.301  1.00  0.00    +0.000 C 
ATOM    108  H13 UNL A   1      33.492  22.836  24.993  1.00  0.00    +0.000 H 
ATOM    109  H14 UNL A   1      34.659  23.052  26.338  1.00  0.00    +0.000 H 
BRANCH   18   17
ATOM     17  C10 UNL A   1      35.250  23.928  24.530  1.00  0.00    +0.000 C 
ATOM    106  H11 UNL A   1      35.568  24.668  25.234  1.00  0.00    +0.000 H 
ATOM    107  H12 UNL A   1      36.057  23.444  24.021  1.00  0.00    +0.000 H 
BRANCH   17   16
ATOM    105  H10 UNL A   1      35.135  25.080  22.779  1.00  0.00    +0.000 H 
ATOM    104  H9  UNL A   1      33.787  25.341  23.925  1.00  0.00    +0.000 H 
ATOM     16  C9  UNL A   1      34.429  24.630  23.447  1.00  0.00    +0.000 C 
BRANCH   16   15
ATOM    103  H8  UNL A   1      33.361  22.818  23.158  1.00  0.00    +0.000 H 
ATOM    102  H7  UNL A   1      34.086  23.469  21.693  1.00  0.00    +0.000 H 
ATOM     15  C8  UNL A   1      33.562  23.706  22.596  1.00  0.00    +0.000 C 
BRANCH   15   14
ATOM    101  H6  UNL A   1      32.128  24.354  21.292  1.00  0.00    +0.000 H 
ATOM     14  N3  UNL A   1      32.302  24.335  22.261  1.00  0.00    +0.000 N 
BRANCH   14   12
ATOM     12  C7  UNL A   1      31.293  24.910  22.993  1.00  0.00    +0.000 C 
ATOM     13  O3  UNL A   1      30.344  24.194  23.307  1.00  0.00    +0.000 O 
BRANCH   12   11
ATOM    129  H34 UNL A   1      29.850  27.341  22.119  1.00  0.00    +0.000 H 
ATOM    130  H35 UNL A   1      31.440  27.548  21.584  1.00  0.00    +0.000 H 
ATOM    131  H36 UNL A   1      31.705  29.387  23.088  1.00  0.00    +0.000 H 
ATOM      9  N1  UNL A   1      31.305  28.087  24.709  1.00  0.00    +0.000 N 
ATOM     10  N2  UNL A   1      31.596  26.751  24.587  1.00  0.00    +0.000 N 
ATOM     11  C6  UNL A   1      31.257  26.379  23.391  1.00  0.00    +0.000 C 
ATOM     87  C59 UNL A   1      30.851  27.476  22.474  1.00  0.00    +0.000 C 
ATOM     88  C60 UNL A   1      30.960  28.687  23.403  1.00  0.00    +0.000 C 
BRANCH    9    8
ATOM     99  H4  UNL A   1      32.269  31.572  27.517  1.00  0.00    +0.000 H 
ATOM    100  H5  UNL A   1      30.770  30.359  26.039  1.00  0.00    +0.000 H 
ATOM      5  C2  UNL A   1      33.918  30.292  27.176  1.00  0.00    +0.000 C 
ATOM      6  C3  UNL A   1      32.601  30.731  27.018  1.00  0.00    +0.000 C 
ATOM      7  C4  UNL A   1      31.736  30.024  26.175  1.00  0.00    +0.000 C 
ATOM    136  H41 UNL A   1      35.347  28.839  26.623  1.00  0.00    +0.000 H 
ATOM    135  H40 UNL A   1      33.833  27.615  25.181  1.00  0.00    +0.000 H 
ATOM      8  C5  UNL A   1      32.165  28.863  25.513  1.00  0.00    +0.000 C 
ATOM     94  C65 UNL A   1      33.496  28.453  25.680  1.00  0.00    +0.000 C 
ATOM     95  C66 UNL A   1      34.372  29.156  26.507  1.00  0.00    +0.000 C 
BRANCH    5    2
ATOM      2  S1  UNL A   1      35.017  31.169  28.261  1.00  0.00    +0.000 S 
ATOM      3  O1  UNL A   1      34.210  31.793  29.295  1.00  0.00    +0.000 O 
ATOM      4  O2  UNL A   1      35.889  31.964  27.420  1.00  0.00    +0.000 O 
BRANCH    2    1
ATOM      1  C1  UNL A   1      35.982  29.903  29.039  1.00  0.00    +0.000 C 
ATOM     98  H3  UNL A   1      36.948  30.292  29.287  1.00  0.00    +0.000 H 
ATOM     97  H2  UNL A   1      35.490  29.577  29.931  1.00  0.00    +0.000 H 
ATOM     96  H1  UNL A   1      36.092  29.075  28.370  1.00  0.00    +0.000 H 
ENDBRANCH    2    1
ENDBRANCH    5    2
ENDBRANCH    9    8
BRANCH   88   89
ATOM    132  H37 UNL A   1      30.521  31.454  24.101  1.00  0.00    +0.000 H 
ATOM    133  H38 UNL A   1      28.168  32.474  23.900  1.00  0.00    +0.000 H 
ATOM    134  H39 UNL A   1      26.497  30.822  22.961  1.00  0.00    +0.000 H 
ATOM     89  C61 UNL A   1      29.738  29.596  23.395  1.00  0.00    +0.000 C 
ATOM     90  C62 UNL A   1      29.696  30.929  23.770  1.00  0.00    +0.000 C 
ATOM     91  C63 UNL A   1      28.396  31.499  23.652  1.00  0.00    +0.000 C 
ATOM     92  C64 UNL A   1      27.482  30.594  23.166  1.00  0.00    +0.000 C 
ATOM     93  S2  UNL A   1      28.171  29.050  22.945  1.00  0.00    +0.000 S 
ENDBRANCH   88   89
ENDBRANCH   12   11
ENDBRANCH   14   12
ENDBRANCH   15   14
ENDBRANCH   16   15
ENDBRANCH   17   16
ENDBRANCH   18   17
ENDBRANCH   19   18
ENDBRANCH   20   19
ENDBRANCH   21   20
ENDBRANCH   22   21
ENDBRANCH   24   22
ENDBRANCH   28   27
BRANCH   32   33
ATOM     33  C23 UNL A   1      47.226  27.756  25.829  1.00  0.00    +0.000 C 
ATOM     34  C24 UNL A   1      47.283  27.804  24.428  1.00  0.00    +0.000 C 
ATOM     35  F1  UNL A   1      46.248  28.291  23.727  1.00  0.00    +0.000 F 
ATOM     36  C25 UNL A   1      48.392  27.320  23.738  1.00  0.00    +0.000 C 
ATOM     37  F2  UNL A   1      48.405  27.337  22.398  1.00  0.00    +0.000 F 
ATOM     38  C26 UNL A   1      49.478  26.812  24.434  1.00  0.00    +0.000 C 
ATOM     39  F3  UNL A   1      50.549  26.357  23.770  1.00  0.00    +0.000 F 
ATOM     40  C27 UNL A   1      49.452  26.771  25.820  1.00  0.00    +0.000 C 
ATOM     41  F4  UNL A   1      50.506  26.292  26.496  1.00  0.00    +0.000 F 
ATOM     42  C28 UNL A   1      48.333  27.227  26.512  1.00  0.00    +0.000 C 
ATOM     43  F5  UNL A   1      48.333  27.163  27.852  1.00  0.00    +0.000 F 
ENDBRANCH   32   33
BRANCH   49   50
ATOM     50  C34 UNL A   1      45.566  33.662  29.611  1.00  0.00    +0.000 C 
ATOM     51  C35 UNL A   1      46.369  33.801  30.753  1.00  0.00    +0.000 C 
ATOM     52  F6  UNL A   1      46.549  32.761  31.582  1.00  0.00    +0.000 F 
ATOM     53  C36 UNL A   1      46.955  35.022  31.072  1.00  0.00    +0.000 C 
ATOM     54  F7  UNL A   1      47.675  35.145  32.195  1.00  0.00    +0.000 F 
ATOM     55  C37 UNL A   1      46.782  36.118  30.238  1.00  0.00    +0.000 C 
ATOM     56  F8  UNL A   1      47.351  37.292  30.544  1.00  0.00    +0.000 F 
ATOM     57  C38 UNL A   1      46.010  35.997  29.092  1.00  0.00    +0.000 C 
ATOM     58  F9  UNL A   1      45.853  37.050  28.278  1.00  0.00    +0.000 F 
ATOM     59  C39 UNL A   1      45.397  34.786  28.787  1.00  0.00    +0.000 C 
ATOM     60  F10 UNL A   1      44.646  34.705  27.679  1.00  0.00    +0.000 F 
ENDBRANCH   49   50
BRANCH   64   65
ATOM     65  C43 UNL A   1      39.379  30.861  31.159  1.00  0.00    +0.000 C 
ATOM     66  C44 UNL A   1      39.208  30.378  32.464  1.00  0.00    +0.000 C 
ATOM     67  F11 UNL A   1      40.077  29.491  32.967  1.00  0.00    +0.000 F 
ATOM     68  C45 UNL A   1      38.118  30.769  33.239  1.00  0.00    +0.000 C 
ATOM     69  F12 UNL A   1      37.951  30.253  34.463  1.00  0.00    +0.000 F 
ATOM     70  C46 UNL A   1      37.197  31.676  32.737  1.00  0.00    +0.000 C 
ATOM     71  F13 UNL A   1      36.150  32.054  33.483  1.00  0.00    +0.000 F 
ATOM     72  C47 UNL A   1      37.358  32.186  31.458  1.00  0.00    +0.000 C 
ATOM     73  F14 UNL A   1      36.479  33.074  30.975  1.00  0.00    +0.000 F 
ATOM     74  C48 UNL A   1      38.431  31.773  30.671  1.00  0.00    +0.000 C 
ATOM     75  F15 UNL A   1      38.553  32.270  29.431  1.00  0.00    +0.000 F 
ENDBRANCH   64   65
TORSDOF 19
ENDMDL
MODEL 10
REMARK VINA RESULT:     -11.2      1.629      2.608
ROOT
ATOM     28  C19 UNL A   1      24.214  36.742  45.994  1.00  0.00    +0.000 C 
ATOM     29  C20 UNL A   1      25.622  36.423  45.572  1.00  0.00    +0.000 C 
ATOM     30  N5  UNL A   1      26.729  37.080  45.818  1.00  0.00    +0.000 N 
ATOM     31  C21 UNL A   1      27.748  36.334  45.241  1.00  0.00    +0.000 C 
ATOM     32  C22 UNL A   1      29.070  36.621  45.171  1.00  0.00    +0.000 C 
ATOM     44  C29 UNL A   1      29.669  37.817  45.704  1.00  0.00    +0.000 C 
ATOM     45  C30 UNL A   1      30.986  38.235  45.617  1.00  0.00    +0.000 C 
ATOM     46  C31 UNL A   1      31.113  39.432  46.329  1.00  0.00    +0.000 C 
ATOM     47  C32 UNL A   1      29.865  39.788  46.815  1.00  0.00    +0.000 C 
ATOM     48  N6  UNL A   1      28.990  38.785  46.428  1.00  0.00    +0.000 N 
ATOM     49  C33 UNL A   1      29.498  40.955  47.575  1.00  0.00    +0.000 C 
ATOM     61  C40 UNL A   1      28.244  41.236  48.007  1.00  0.00    +0.000 C 
ATOM     62  N7  UNL A   1      27.075  40.508  47.830  1.00  0.00    +0.000 N 
ATOM     63  C41 UNL A   1      26.135  41.180  48.448  1.00  0.00    +0.000 C 
ATOM     64  C42 UNL A   1      24.665  40.876  48.557  1.00  0.00    +0.000 C 
ATOM     76  C49 UNL A   1      24.171  39.788  47.936  1.00  0.00    +0.000 C 
ATOM     77  C50 UNL A   1      22.771  39.377  47.936  1.00  0.00    +0.000 C 
ATOM     78  C51 UNL A   1      22.651  38.230  47.250  1.00  0.00    +0.000 C 
ATOM     79  C52 UNL A   1      23.965  37.841  46.733  1.00  0.00    +0.000 C 
ATOM     80  N8  UNL A   1      24.805  38.826  47.186  1.00  0.00    +0.000 N 
ATOM     81  C53 UNL A   1      26.609  42.402  49.111  1.00  0.00    +0.000 C 
ATOM     82  C54 UNL A   1      27.891  42.412  48.775  1.00  0.00    +0.000 C 
ATOM     83  C55 UNL A   1      27.137  35.150  44.675  1.00  0.00    +0.000 C 
ATOM     84  C56 UNL A   1      25.818  35.189  44.797  1.00  0.00    +0.000 C 
ATOM    117  H22 UNL A   1      31.743  37.748  45.114  1.00  0.00    +0.000 H 
ATOM    118  H23 UNL A   1      31.988  39.962  46.468  1.00  0.00    +0.000 H 
ATOM    119  H24 UNL A   1      28.028  38.764  46.637  1.00  0.00    +0.000 H 
ATOM    120  H25 UNL A   1      21.997  39.886  48.390  1.00  0.00    +0.000 H 
ATOM    121  H26 UNL A   1      21.774  37.705  47.109  1.00  0.00    +0.000 H 
ATOM    122  H27 UNL A   1      25.770  38.844  46.993  1.00  0.00    +0.000 H 
ATOM    123  H28 UNL A   1      26.083  43.077  49.688  1.00  0.00    +0.000 H 
ATOM    124  H29 UNL A   1      28.553  43.161  49.027  1.00  0.00    +0.000 H 
ATOM    125  H30 UNL A   1      27.661  34.377  44.235  1.00  0.00    +0.000 H 
ATOM    126  H31 UNL A   1      25.112  34.526  44.439  1.00  0.00    +0.000 H 
ENDROOT
BRANCH   28   27
ATOM    115  H20 UNL A   1      21.698  32.912  46.582  1.00  0.00    +0.000 H 
ATOM    116  H21 UNL A   1      23.440  34.469  47.238  1.00  0.00    +0.000 H 
ATOM     85  C57 UNL A   1      22.270  36.107  44.553  1.00  0.00    +0.000 C 
ATOM     86  C58 UNL A   1      21.216  35.253  44.229  1.00  0.00    +0.000 C 
ATOM     24  C15 UNL A   1      21.041  34.059  44.934  1.00  0.00    +0.000 C 
ATOM     25  C16 UNL A   1      21.850  33.776  46.039  1.00  0.00    +0.000 C 
ATOM     26  C17 UNL A   1      22.862  34.664  46.405  1.00  0.00    +0.000 C 
ATOM     27  C18 UNL A   1      23.100  35.823  45.649  1.00  0.00    +0.000 C 
ATOM    127  H32 UNL A   1      22.440  36.951  43.985  1.00  0.00    +0.000 H 
ATOM    128  H33 UNL A   1      20.564  35.505  43.469  1.00  0.00    +0.000 H 
BRANCH   24   22
ATOM     22  C14 UNL A   1      19.990  33.087  44.560  1.00  0.00    +0.000 C 
ATOM     23  O4  UNL A   1      19.994  31.965  45.059  1.00  0.00    +0.000 O 
BRANCH   22   21
ATOM    114  H19 UNL A   1      19.287  33.352  42.706  1.00  0.00    +0.000 H 
ATOM     21  N4  UNL A   1      19.020  33.426  43.650  1.00  0.00    +0.000 N 
BRANCH   21   20
ATOM    113  H18 UNL A   1      17.579  34.873  43.488  1.00  0.00    +0.000 H 
ATOM     20  C13 UNL A   1      17.660  33.879  43.875  1.00  0.00    +0.000 C 
ATOM    112  H17 UNL A   1      17.458  33.850  44.925  1.00  0.00    +0.000 H 
BRANCH   20   19
ATOM     19  C12 UNL A   1      16.632  33.013  43.153  1.00  0.00    +0.000 C 
ATOM    110  H15 UNL A   1      16.054  33.649  42.514  1.00  0.00    +0.000 H 
ATOM    111  H16 UNL A   1      17.190  32.270  42.624  1.00  0.00    +0.000 H 
BRANCH   19   18
ATOM     18  C11 UNL A   1      15.664  32.251  44.062  1.00  0.00    +0.000 C 
ATOM    108  H13 UNL A   1      15.777  32.632  45.055  1.00  0.00    +0.000 H 
ATOM    109  H14 UNL A   1      14.690  32.406  43.646  1.00  0.00    +0.000 H 
BRANCH   18   17
ATOM     17  C10 UNL A   1      15.860  30.733  44.114  1.00  0.00    +0.000 C 
ATOM    106  H11 UNL A   1      16.675  30.528  44.777  1.00  0.00    +0.000 H 
ATOM    107  H12 UNL A   1      14.927  30.326  44.442  1.00  0.00    +0.000 H 
BRANCH   17   16
ATOM    105  H10 UNL A   1      16.794  30.742  42.234  1.00  0.00    +0.000 H 
ATOM    104  H9  UNL A   1      15.235  29.867  42.281  1.00  0.00    +0.000 H 
ATOM     16  C9  UNL A   1      16.164  30.063  42.773  1.00  0.00    +0.000 C 
BRANCH   16   15
ATOM    103  H8  UNL A   1      16.923  28.423  43.889  1.00  0.00    +0.000 H 
ATOM    102  H7  UNL A   1      17.941  28.909  42.539  1.00  0.00    +0.000 H 
ATOM     15  C8  UNL A   1      16.936  28.749  42.870  1.00  0.00    +0.000 C 
BRANCH   15   14
ATOM    101  H6  UNL A   1      16.836  27.533  41.232  1.00  0.00    +0.000 H 
ATOM     14  N3  UNL A   1      16.325  27.724  42.050  1.00  0.00    +0.000 N 
BRANCH   14   12
ATOM     12  C7  UNL A   1      15.192  26.958  42.161  1.00  0.00    +0.000 C 
ATOM     13  O3  UNL A   1      14.461  27.165  43.128  1.00  0.00    +0.000 O 
BRANCH   12   11
ATOM    129  H34 UNL A   1      15.146  26.576  39.227  1.00  0.00    +0.000 H 
ATOM    130  H35 UNL A   1      13.524  26.693  39.687  1.00  0.00    +0.000 H 
ATOM    131  H36 UNL A   1      13.180  24.417  39.043  1.00  0.00    +0.000 H 
ATOM      9  N1  UNL A   1      14.633  23.821  40.463  1.00  0.00    +0.000 N 
ATOM     10  N2  UNL A   1      14.849  24.600  41.571  1.00  0.00    +0.000 N 
ATOM     11  C6  UNL A   1      14.817  25.843  41.195  1.00  0.00    +0.000 C 
ATOM     87  C59 UNL A   1      14.389  26.071  39.790  1.00  0.00    +0.000 C 
ATOM     88  C60 UNL A   1      14.194  24.632  39.307  1.00  0.00    +0.000 C 
BRANCH    9    8
ATOM     99  H4  UNL A   1      13.348  20.137  42.859  1.00  0.00    +0.000 H 
ATOM    100  H5  UNL A   1      14.705  22.129  42.549  1.00  0.00    +0.000 H 
ATOM      5  C2  UNL A   1      12.394  20.285  40.978  1.00  0.00    +0.000 C 
ATOM      6  C3  UNL A   1      13.270  20.688  41.989  1.00  0.00    +0.000 C 
ATOM      7  C4  UNL A   1      14.041  21.842  41.813  1.00  0.00    +0.000 C 
ATOM    136  H41 UNL A   1      11.637  20.722  39.055  1.00  0.00    +0.000 H 
ATOM    135  H40 UNL A   1      12.966  22.727  38.772  1.00  0.00    +0.000 H 
ATOM      8  C5  UNL A   1      13.923  22.617  40.649  1.00  0.00    +0.000 C 
ATOM     94  C65 UNL A   1      13.046  22.182  39.644  1.00  0.00    +0.000 C 
ATOM     95  C66 UNL A   1      12.281  21.026  39.801  1.00  0.00    +0.000 C 
BRANCH    5    2
ATOM      2  S1  UNL A   1      11.394  18.835  41.200  1.00  0.00    +0.000 S 
ATOM      3  O1  UNL A   1      10.081  19.269  41.644  1.00  0.00    +0.000 O 
ATOM      4  O2  UNL A   1      12.175  17.906  41.991  1.00  0.00    +0.000 O 
BRANCH    2    1
ATOM      1  C1  UNL A   1      11.205  18.167  39.569  1.00  0.00    +0.000 C 
ATOM     98  H3  UNL A   1      11.687  18.809  38.862  1.00  0.00    +0.000 H 
ATOM     97  H2  UNL A   1      11.649  17.194  39.529  1.00  0.00    +0.000 H 
ATOM     96  H1  UNL A   1      10.164  18.093  39.332  1.00  0.00    +0.000 H 
ENDBRANCH    2    1
ENDBRANCH    5    2
ENDBRANCH    9    8
BRANCH   88   89
ATOM    132  H37 UNL A   1      13.836  25.578  36.603  1.00  0.00    +0.000 H 
ATOM    133  H38 UNL A   1      15.303  24.644  34.708  1.00  0.00    +0.000 H 
ATOM    134  H39 UNL A   1      17.028  23.002  35.567  1.00  0.00    +0.000 H 
ATOM     89  C61 UNL A   1      14.874  24.318  37.982  1.00  0.00    +0.000 C 
ATOM     90  C62 UNL A   1      14.574  24.871  36.747  1.00  0.00    +0.000 C 
ATOM     91  C63 UNL A   1      15.391  24.362  35.697  1.00  0.00    +0.000 C 
ATOM     92  C64 UNL A   1      16.311  23.451  36.159  1.00  0.00    +0.000 C 
ATOM     93  S2  UNL A   1      16.125  23.148  37.826  1.00  0.00    +0.000 S 
ENDBRANCH   88   89
ENDBRANCH   12   11
ENDBRANCH   14   12
ENDBRANCH   15   14
ENDBRANCH   16   15
ENDBRANCH   17   16
ENDBRANCH   18   17
ENDBRANCH   19   18
ENDBRANCH   20   19
ENDBRANCH   21   20
ENDBRANCH   22   21
ENDBRANCH   24   22
ENDBRANCH   28   27
BRANCH   32   33
ATOM     33  C23 UNL A   1      29.966  35.629  44.487  1.00  0.00    +0.000 C 
ATOM     34  C24 UNL A   1      30.378  35.802  43.157  1.00  0.00    +0.000 C 
ATOM     35  F1  UNL A   1      29.924  36.840  42.439  1.00  0.00    +0.000 F 
ATOM     36  C25 UNL A   1      31.234  34.888  42.547  1.00  0.00    +0.000 C 
ATOM     37  F2  UNL A   1      31.579  35.050  41.263  1.00  0.00    +0.000 F 
ATOM     38  C26 UNL A   1      31.722  33.805  43.263  1.00  0.00    +0.000 C 
ATOM     39  F3  UNL A   1      32.554  32.934  42.679  1.00  0.00    +0.000 F 
ATOM     40  C27 UNL A   1      31.342  33.624  44.585  1.00  0.00    +0.000 C 
ATOM     41  F4  UNL A   1      31.823  32.586  45.283  1.00  0.00    +0.000 F 
ATOM     42  C28 UNL A   1      30.463  34.520  45.189  1.00  0.00    +0.000 C 
ATOM     43  F5  UNL A   1      30.106  34.311  46.465  1.00  0.00    +0.000 F 
ENDBRANCH   32   33
BRANCH   49   50
ATOM     50  C34 UNL A   1      30.573  41.950  47.895  1.00  0.00    +0.000 C 
ATOM     51  C35 UNL A   1      30.798  43.076  47.090  1.00  0.00    +0.000 C 
ATOM     52  F6  UNL A   1      30.075  43.265  45.976  1.00  0.00    +0.000 F 
ATOM     53  C36 UNL A   1      31.799  43.992  47.403  1.00  0.00    +0.000 C 
ATOM     54  F7  UNL A   1      32.032  45.032  46.591  1.00  0.00    +0.000 F 
ATOM     55  C37 UNL A   1      32.568  43.821  48.545  1.00  0.00    +0.000 C 
ATOM     56  F8  UNL A   1      33.528  44.706  48.848  1.00  0.00    +0.000 F 
ATOM     57  C38 UNL A   1      32.348  42.726  49.368  1.00  0.00    +0.000 C 
ATOM     58  F9  UNL A   1      33.080  42.566  50.479  1.00  0.00    +0.000 F 
ATOM     59  C39 UNL A   1      31.369  41.793  49.041  1.00  0.00    +0.000 C 
ATOM     60  F10 UNL A   1      31.189  40.737  49.849  1.00  0.00    +0.000 F 
ENDBRANCH   49   50
BRANCH   64   65
ATOM     65  C43 UNL A   1      23.758  41.770  49.323  1.00  0.00    +0.000 C 
ATOM     66  C44 UNL A   1      23.170  42.890  48.720  1.00  0.00    +0.000 C 
ATOM     67  F11 UNL A   1      23.432  43.173  47.436  1.00  0.00    +0.000 F 
ATOM     68  C45 UNL A   1      22.347  43.750  49.445  1.00  0.00    +0.000 C 
ATOM     69  F12 UNL A   1      21.839  44.841  48.857  1.00  0.00    +0.000 F 
ATOM     70  C46 UNL A   1      22.070  43.488  50.778  1.00  0.00    +0.000 C 
ATOM     71  F13 UNL A   1      21.277  44.314  51.475  1.00  0.00    +0.000 F 
ATOM     72  C47 UNL A   1      22.622  42.373  51.390  1.00  0.00    +0.000 C 
ATOM     73  F14 UNL A   1      22.344  42.108  52.674  1.00  0.00    +0.000 F 
ATOM     74  C48 UNL A   1      23.468  41.529  50.674  1.00  0.00    +0.000 C 
ATOM     75  F15 UNL A   1      24.001  40.467  51.297  1.00  0.00    +0.000 F 
ENDBRANCH   64   65
TORSDOF 19
ENDMDL
