MODEL 1
REMARK VINA RESULT:     -11.8      0.000      0.000
ROOT
ATOM    129  H36 UNL A   1      39.837  27.161  26.907  1.00  0.00    +0.000 H 
ATOM    130  H37 UNL A   1      37.924  28.832  27.228  1.00  0.00    +0.000 H 
ATOM     29  C25 UNL A   1      37.897  30.062  29.797  1.00  0.00    +0.000 C 
ATOM     30  C26 UNL A   1      38.935  29.132  29.235  1.00  0.00    +0.000 C 
ATOM     31  N3  UNL A   1      40.038  28.690  29.787  1.00  0.00    +0.000 N 
ATOM     32  C27 UNL A   1      40.607  27.829  28.858  1.00  0.00    +0.000 C 
ATOM     33  C28 UNL A   1      41.784  27.164  28.932  1.00  0.00    +0.000 C 
ATOM     45  C35 UNL A   1      42.692  27.243  30.047  1.00  0.00    +0.000 C 
ATOM     46  C36 UNL A   1      43.930  26.642  30.197  1.00  0.00    +0.000 C 
ATOM     47  C37 UNL A   1      44.430  26.981  31.460  1.00  0.00    +0.000 C 
ATOM     48  C38 UNL A   1      43.523  27.825  32.079  1.00  0.00    +0.000 C 
ATOM     49  N4  UNL A   1      42.457  27.971  31.203  1.00  0.00    +0.000 N 
ATOM     50  C39 UNL A   1      43.618  28.450  33.372  1.00  0.00    +0.000 C 
ATOM     62  C46 UNL A   1      42.681  29.268  33.911  1.00  0.00    +0.000 C 
ATOM     63  N5  UNL A   1      41.473  29.687  33.370  1.00  0.00    +0.000 N 
ATOM     64  C47 UNL A   1      40.922  30.459  34.275  1.00  0.00    +0.000 C 
ATOM     65  C48 UNL A   1      39.621  31.211  34.217  1.00  0.00    +0.000 C 
ATOM     77  C55 UNL A   1      38.868  31.141  33.102  1.00  0.00    +0.000 C 
ATOM     78  C56 UNL A   1      37.590  31.815  32.899  1.00  0.00    +0.000 C 
ATOM     79  C57 UNL A   1      37.106  31.481  31.693  1.00  0.00    +0.000 C 
ATOM     80  C58 UNL A   1      38.058  30.594  31.024  1.00  0.00    +0.000 C 
ATOM     81  N6  UNL A   1      39.078  30.454  31.931  1.00  0.00    +0.000 N 
ATOM     82  C59 UNL A   1      41.709  30.591  35.510  1.00  0.00    +0.000 C 
ATOM     83  C60 UNL A   1      42.787  29.879  35.220  1.00  0.00    +0.000 C 
ATOM     84  C61 UNL A   1      39.705  27.772  27.727  1.00  0.00    +0.000 C 
ATOM     85  C62 UNL A   1      38.688  28.607  27.884  1.00  0.00    +0.000 C 
ATOM    121  H28 UNL A   1      44.403  26.048  29.499  1.00  0.00    +0.000 H 
ATOM    122  H29 UNL A   1      45.324  26.657  31.861  1.00  0.00    +0.000 H 
ATOM    123  H30 UNL A   1      41.654  28.512  31.377  1.00  0.00    +0.000 H 
ATOM    124  H31 UNL A   1      37.133  32.448  33.574  1.00  0.00    +0.000 H 
ATOM    125  H32 UNL A   1      36.206  31.798  31.300  1.00  0.00    +0.000 H 
ATOM    126  H33 UNL A   1      39.882  29.914  31.761  1.00  0.00    +0.000 H 
ATOM    127  H34 UNL A   1      41.480  31.105  36.376  1.00  0.00    +0.000 H 
ATOM    128  H35 UNL A   1      43.601  29.773  35.846  1.00  0.00    +0.000 H 
ENDROOT
BRANCH   29   28
ATOM    131  H38 UNL A   1      35.878  28.394  29.235  1.00  0.00    +0.000 H 
ATOM    132  H39 UNL A   1      33.899  28.803  27.899  1.00  0.00    +0.000 H 
ATOM    120  H27 UNL A   1      37.123  32.366  28.589  1.00  0.00    +0.000 H 
ATOM     86  C63 UNL A   1      35.715  29.330  28.833  1.00  0.00    +0.000 C 
ATOM     87  C64 UNL A   1      34.555  29.573  28.098  1.00  0.00    +0.000 C 
ATOM    119  H26 UNL A   1      35.044  32.824  27.422  1.00  0.00    +0.000 H 
ATOM     25  C21 UNL A   1      34.282  30.863  27.632  1.00  0.00    +0.000 C 
ATOM     26  C22 UNL A   1      35.227  31.881  27.801  1.00  0.00    +0.000 C 
ATOM     27  C23 UNL A   1      36.417  31.620  28.484  1.00  0.00    +0.000 C 
ATOM     28  C24 UNL A   1      36.658  30.349  29.029  1.00  0.00    +0.000 C 
BRANCH   25   23
ATOM     23  C20 UNL A   1      33.028  31.166  26.906  1.00  0.00    +0.000 C 
ATOM     24  O2  UNL A   1      32.546  32.291  26.971  1.00  0.00    +0.000 O 
BRANCH   23   22
ATOM    118  H25 UNL A   1      31.535  29.890  26.511  1.00  0.00    +0.000 H 
ATOM     22  N2  UNL A   1      32.404  30.195  26.161  1.00  0.00    +0.000 N 
BRANCH   22   21
ATOM    117  H24 UNL A   1      33.773  29.988  24.644  1.00  0.00    +0.000 H 
ATOM    116  H23 UNL A   1      32.093  29.700  24.181  1.00  0.00    +0.000 H 
ATOM     21  C19 UNL A   1      32.840  29.551  24.932  1.00  0.00    +0.000 C 
BRANCH   21   20
ATOM    114  H21 UNL A   1      33.852  27.917  25.824  1.00  0.00    +0.000 H 
ATOM    115  H22 UNL A   1      32.125  27.648  25.446  1.00  0.00    +0.000 H 
ATOM     20  C18 UNL A   1      33.060  28.051  25.117  1.00  0.00    +0.000 C 
BRANCH   20   19
ATOM    113  H20 UNL A   1      34.301  27.778  23.452  1.00  0.00    +0.000 H 
ATOM     19  C17 UNL A   1      33.430  27.291  23.839  1.00  0.00    +0.000 C 
ATOM    112  H19 UNL A   1      32.587  27.323  23.182  1.00  0.00    +0.000 H 
BRANCH   19   18
ATOM     18  C16 UNL A   1      33.825  25.820  24.030  1.00  0.00    +0.000 C 
ATOM    110  H17 UNL A   1      32.959  25.219  23.846  1.00  0.00    +0.000 H 
ATOM    111  H18 UNL A   1      34.627  25.638  23.345  1.00  0.00    +0.000 H 
BRANCH   18   17
ATOM     17  C15 UNL A   1      34.364  25.461  25.419  1.00  0.00    +0.000 C 
ATOM    108  H15 UNL A   1      35.200  26.094  25.629  1.00  0.00    +0.000 H 
ATOM    109  H16 UNL A   1      33.558  25.599  26.108  1.00  0.00    +0.000 H 
BRANCH   17   16
ATOM    106  H13 UNL A   1      34.475  23.457  24.701  1.00  0.00    +0.000 H 
ATOM    107  H14 UNL A   1      35.885  23.997  25.616  1.00  0.00    +0.000 H 
ATOM     16  C14 UNL A   1      34.818  24.005  25.553  1.00  0.00    +0.000 C 
BRANCH   16   15
ATOM    105  H12 UNL A   1      34.817  23.564  27.565  1.00  0.00    +0.000 H 
ATOM     15  N1  UNL A   1      34.295  23.381  26.751  1.00  0.00    +0.000 N 
BRANCH   15   13
ATOM     13  C13 UNL A   1      33.207  22.585  26.949  1.00  0.00    +0.000 C 
ATOM     14  O1  UNL A   1      33.028  22.177  28.103  1.00  0.00    +0.000 O 
BRANCH   13   11
ATOM     11  C11 UNL A   1      32.240  22.167  25.831  1.00  0.00    +0.000 C 
ATOM    101  H8  UNL A   1      31.511  21.540  26.301  1.00  0.00    +0.000 H 
BRANCH   11   10
ATOM     99  H6  UNL A   1      30.271  24.672  22.437  1.00  0.00    +0.000 H 
ATOM    100  H7  UNL A   1      31.406  22.719  23.267  1.00  0.00    +0.000 H 
ATOM    133  H40 UNL A   1      31.140  24.234  27.166  1.00  0.00    +0.000 H 
ATOM    134  H41 UNL A   1      29.854  26.111  26.352  1.00  0.00    +0.000 H 
ATOM      7  C7  UNL A   1      29.951  25.575  24.314  1.00  0.00    +0.000 C 
ATOM      8  C8  UNL A   1      30.431  24.576  23.452  1.00  0.00    +0.000 C 
ATOM      9  C9  UNL A   1      31.116  23.456  23.928  1.00  0.00    +0.000 C 
ATOM     10  C10 UNL A   1      31.414  23.320  25.284  1.00  0.00    +0.000 C 
ATOM     88  C65 UNL A   1      30.944  24.313  26.157  1.00  0.00    +0.000 C 
ATOM     89  C66 UNL A   1      30.209  25.411  25.682  1.00  0.00    +0.000 C 
BRANCH    7    6
ATOM     97  H4  UNL A   1      30.630  30.348  21.745  1.00  0.00    +0.000 H 
ATOM      2  C2  UNL A   1      28.558  30.925  21.852  1.00  0.00    +0.000 C 
ATOM      3  C3  UNL A   1      29.663  30.121  22.027  1.00  0.00    +0.000 C 
ATOM      4  C4  UNL A   1      29.238  28.927  22.664  1.00  0.00    +0.000 C 
ATOM      5  C5  UNL A   1      29.904  27.767  23.101  1.00  0.00    +0.000 C 
ATOM     98  H5  UNL A   1      30.916  27.668  22.929  1.00  0.00    +0.000 H 
ATOM      6  C6  UNL A   1      29.211  26.737  23.772  1.00  0.00    +0.000 C 
ATOM    136  H43 UNL A   1      26.103  28.095  23.599  1.00  0.00    +0.000 H 
ATOM    137  H44 UNL A   1      26.546  30.574  22.338  1.00  0.00    +0.000 H 
ATOM    135  H42 UNL A   1      27.297  26.132  24.412  1.00  0.00    +0.000 H 
ATOM     90  C67 UNL A   1      27.823  26.883  23.938  1.00  0.00    +0.000 C 
ATOM     91  C68 UNL A   1      27.125  28.014  23.481  1.00  0.00    +0.000 C 
ATOM     92  C69 UNL A   1      27.865  29.025  22.862  1.00  0.00    +0.000 C 
ATOM     93  N7  UNL A   1      27.473  30.240  22.348  1.00  0.00    +0.000 N 
BRANCH    2    1
ATOM      1  C1  UNL A   1      28.433  32.277  21.259  1.00  0.00    +0.000 C 
ATOM     94  H1  UNL A   1      28.022  32.949  21.983  1.00  0.00    +0.000 H 
ATOM     95  H2  UNL A   1      27.790  32.235  20.405  1.00  0.00    +0.000 H 
ATOM     96  H3  UNL A   1      29.400  32.625  20.959  1.00  0.00    +0.000 H 
ENDBRANCH    2    1
ENDBRANCH    7    6
ENDBRANCH   11   10
BRANCH   11   12
ATOM     12  C12 UNL A   1      32.854  21.231  24.789  1.00  0.00    +0.000 C 
ATOM    102  H9  UNL A   1      33.667  20.691  25.228  1.00  0.00    +0.000 H 
ATOM    103  H10 UNL A   1      33.215  21.805  23.960  1.00  0.00    +0.000 H 
ATOM    104  H11 UNL A   1      32.111  20.540  24.446  1.00  0.00    +0.000 H 
ENDBRANCH   11   12
ENDBRANCH   13   11
ENDBRANCH   15   13
ENDBRANCH   16   15
ENDBRANCH   17   16
ENDBRANCH   18   17
ENDBRANCH   19   18
ENDBRANCH   20   19
ENDBRANCH   21   20
ENDBRANCH   22   21
ENDBRANCH   23   22
ENDBRANCH   25   23
ENDBRANCH   29   28
BRANCH   33   34
ATOM     34  C29 UNL A   1      42.162  26.295  27.768  1.00  0.00    +0.000 C 
ATOM     35  C30 UNL A   1      43.061  26.737  26.787  1.00  0.00    +0.000 C 
ATOM     36  F1  UNL A   1      43.572  27.975  26.847  1.00  0.00    +0.000 F 
ATOM     37  C31 UNL A   1      43.410  25.919  25.715  1.00  0.00    +0.000 C 
ATOM     38  F2  UNL A   1      44.235  26.379  24.764  1.00  0.00    +0.000 F 
ATOM     39  C32 UNL A   1      42.896  24.635  25.622  1.00  0.00    +0.000 C 
ATOM     40  F3  UNL A   1      43.236  23.847  24.593  1.00  0.00    +0.000 F 
ATOM     41  C33 UNL A   1      42.021  24.169  26.593  1.00  0.00    +0.000 C 
ATOM     42  F4  UNL A   1      41.532  22.925  26.511  1.00  0.00    +0.000 F 
ATOM     43  C34 UNL A   1      41.648  24.994  27.652  1.00  0.00    +0.000 C 
ATOM     44  F5  UNL A   1      40.790  24.521  28.567  1.00  0.00    +0.000 F 
ENDBRANCH   33   34
BRANCH   50   51
ATOM     51  C40 UNL A   1      44.856  28.199  34.179  1.00  0.00    +0.000 C 
ATOM     52  C41 UNL A   1      44.958  27.102  35.046  1.00  0.00    +0.000 C 
ATOM     53  F6  UNL A   1      43.915  26.273  35.211  1.00  0.00    +0.000 F 
ATOM     54  C42 UNL A   1      46.121  26.875  35.778  1.00  0.00    +0.000 C 
ATOM     55  F7  UNL A   1      46.182  25.846  36.633  1.00  0.00    +0.000 F 
ATOM     56  C43 UNL A   1      47.211  27.720  35.632  1.00  0.00    +0.000 C 
ATOM     57  F8  UNL A   1      48.332  27.496  36.333  1.00  0.00    +0.000 F 
ATOM     58  C44 UNL A   1      47.138  28.801  34.766  1.00  0.00    +0.000 C 
ATOM     59  F9  UNL A   1      48.194  29.613  34.617  1.00  0.00    +0.000 F 
ATOM     60  C45 UNL A   1      45.968  29.046  34.055  1.00  0.00    +0.000 C 
ATOM     61  F10 UNL A   1      45.921  30.107  33.234  1.00  0.00    +0.000 F 
ENDBRANCH   50   51
BRANCH   65   66
ATOM     66  C49 UNL A   1      39.178  32.052  35.359  1.00  0.00    +0.000 C 
ATOM     67  C50 UNL A   1      39.519  33.410  35.423  1.00  0.00    +0.000 C 
ATOM     68  F11 UNL A   1      40.267  33.958  34.454  1.00  0.00    +0.000 F 
ATOM     69  C51 UNL A   1      39.129  34.199  36.502  1.00  0.00    +0.000 C 
ATOM     70  F12 UNL A   1      39.505  35.484  36.560  1.00  0.00    +0.000 F 
ATOM     71  C52 UNL A   1      38.367  33.653  37.523  1.00  0.00    +0.000 C 
ATOM     72  F13 UNL A   1      37.989  34.413  38.561  1.00  0.00    +0.000 F 
ATOM     73  C53 UNL A   1      38.003  32.316  37.473  1.00  0.00    +0.000 C 
ATOM     74  F14 UNL A   1      37.255  31.788  38.453  1.00  0.00    +0.000 F 
ATOM     75  C54 UNL A   1      38.414  31.518  36.407  1.00  0.00    +0.000 C 
ATOM     76  F15 UNL A   1      38.058  30.225  36.389  1.00  0.00    +0.000 F 
ENDBRANCH   65   66
TORSDOF 19
ENDMDL
MODEL 2
REMARK VINA RESULT:     -11.4      3.982      9.636
ROOT
ATOM    129  H36 UNL A   1      37.998  28.245  29.638  1.00  0.00    +0.000 H 
ATOM    130  H37 UNL A   1      38.704  26.017  28.594  1.00  0.00    +0.000 H 
ATOM     29  C25 UNL A   1      41.340  26.041  27.516  1.00  0.00    +0.000 C 
ATOM     30  C26 UNL A   1      40.657  27.129  28.297  1.00  0.00    +0.000 C 
ATOM     31  N3  UNL A   1      41.112  28.304  28.653  1.00  0.00    +0.000 N 
ATOM     32  C27 UNL A   1      40.066  28.928  29.319  1.00  0.00    +0.000 C 
ATOM     33  C28 UNL A   1      40.054  30.138  29.928  1.00  0.00    +0.000 C 
ATOM     45  C35 UNL A   1      41.185  31.026  29.992  1.00  0.00    +0.000 C 
ATOM     46  C36 UNL A   1      41.286  32.253  30.626  1.00  0.00    +0.000 C 
ATOM     47  C37 UNL A   1      42.568  32.763  30.389  1.00  0.00    +0.000 C 
ATOM     48  C38 UNL A   1      43.278  31.837  29.643  1.00  0.00    +0.000 C 
ATOM     49  N4  UNL A   1      42.415  30.778  29.400  1.00  0.00    +0.000 N 
ATOM     50  C39 UNL A   1      44.640  31.909  29.184  1.00  0.00    +0.000 C 
ATOM     62  C46 UNL A   1      45.267  30.955  28.453  1.00  0.00    +0.000 C 
ATOM     63  N5  UNL A   1      44.776  29.737  28.004  1.00  0.00    +0.000 N 
ATOM     64  C47 UNL A   1      45.755  29.178  27.335  1.00  0.00    +0.000 C 
ATOM     65  C48 UNL A   1      45.797  27.838  26.654  1.00  0.00    +0.000 C 
ATOM     77  C55 UNL A   1      44.715  27.037  26.709  1.00  0.00    +0.000 C 
ATOM     78  C56 UNL A   1      44.609  25.715  26.100  1.00  0.00    +0.000 C 
ATOM     79  C57 UNL A   1      43.375  25.231  26.319  1.00  0.00    +0.000 C 
ATOM     80  C58 UNL A   1      42.616  26.197  27.112  1.00  0.00    +0.000 C 
ATOM     81  N6  UNL A   1      43.493  27.234  27.304  1.00  0.00    +0.000 N 
ATOM     82  C59 UNL A   1      46.973  29.998  27.258  1.00  0.00    +0.000 C 
ATOM     83  C60 UNL A   1      46.635  31.051  27.988  1.00  0.00    +0.000 C 
ATOM     84  C61 UNL A   1      38.937  28.023  29.276  1.00  0.00    +0.000 C 
ATOM     85  C62 UNL A   1      39.270  26.871  28.711  1.00  0.00    +0.000 C 
ATOM    121  H28 UNL A   1      40.545  32.711  31.178  1.00  0.00    +0.000 H 
ATOM    122  H29 UNL A   1      42.923  33.675  30.715  1.00  0.00    +0.000 H 
ATOM    123  H30 UNL A   1      42.642  29.971  28.885  1.00  0.00    +0.000 H 
ATOM    124  H31 UNL A   1      45.361  25.229  25.587  1.00  0.00    +0.000 H 
ATOM    125  H32 UNL A   1      43.020  24.323  25.981  1.00  0.00    +0.000 H 
ATOM    126  H33 UNL A   1      43.269  28.043  27.819  1.00  0.00    +0.000 H 
ATOM    127  H34 UNL A   1      47.859  29.804  26.765  1.00  0.00    +0.000 H 
ATOM    128  H35 UNL A   1      47.267  31.839  28.199  1.00  0.00    +0.000 H 
ENDROOT
BRANCH   29   28
ATOM    131  H38 UNL A   1      39.154  25.857  25.979  1.00  0.00    +0.000 H 
ATOM    132  H39 UNL A   1      37.855  23.890  25.419  1.00  0.00    +0.000 H 
ATOM    120  H27 UNL A   1      41.807  23.458  28.205  1.00  0.00    +0.000 H 
ATOM     86  C63 UNL A   1      39.455  24.929  26.316  1.00  0.00    +0.000 C 
ATOM     87  C64 UNL A   1      38.728  23.794  25.959  1.00  0.00    +0.000 C 
ATOM    119  H26 UNL A   1      40.616  21.472  27.476  1.00  0.00    +0.000 H 
ATOM     25  C21 UNL A   1      39.184  22.527  26.335  1.00  0.00    +0.000 C 
ATOM     26  C22 UNL A   1      40.303  22.405  27.166  1.00  0.00    +0.000 C 
ATOM     27  C23 UNL A   1      40.995  23.548  27.574  1.00  0.00    +0.000 C 
ATOM     28  C24 UNL A   1      40.592  24.817  27.130  1.00  0.00    +0.000 C 
BRANCH   25   23
ATOM     23  C20 UNL A   1      38.469  21.300  25.915  1.00  0.00    +0.000 C 
ATOM     24  O2  UNL A   1      39.096  20.261  25.744  1.00  0.00    +0.000 O 
BRANCH   23   22
ATOM    118  H25 UNL A   1      36.566  21.143  26.520  1.00  0.00    +0.000 H 
ATOM     22  N2  UNL A   1      37.109  21.322  25.718  1.00  0.00    +0.000 N 
BRANCH   22   21
ATOM    117  H24 UNL A   1      35.723  20.722  24.326  1.00  0.00    +0.000 H 
ATOM    116  H23 UNL A   1      37.042  21.711  23.691  1.00  0.00    +0.000 H 
ATOM     21  C19 UNL A   1      36.355  21.568  24.499  1.00  0.00    +0.000 C 
BRANCH   21   20
ATOM    114  H21 UNL A   1      36.035  23.653  24.301  1.00  0.00    +0.000 H 
ATOM    115  H22 UNL A   1      34.609  22.617  24.001  1.00  0.00    +0.000 H 
ATOM     20  C18 UNL A   1      35.466  22.804  24.615  1.00  0.00    +0.000 C 
BRANCH   20   19
ATOM    113  H20 UNL A   1      35.770  23.434  26.590  1.00  0.00    +0.000 H 
ATOM     19  C17 UNL A   1      34.931  23.085  26.024  1.00  0.00    +0.000 C 
ATOM    112  H19 UNL A   1      34.502  22.179  26.399  1.00  0.00    +0.000 H 
BRANCH   19   18
ATOM     18  C16 UNL A   1      33.870  24.188  26.126  1.00  0.00    +0.000 C 
ATOM    110  H17 UNL A   1      32.982  23.838  25.642  1.00  0.00    +0.000 H 
ATOM    111  H18 UNL A   1      33.742  24.380  27.171  1.00  0.00    +0.000 H 
BRANCH   18   17
ATOM     17  C15 UNL A   1      34.256  25.530  25.493  1.00  0.00    +0.000 C 
ATOM    108  H15 UNL A   1      35.277  25.735  25.737  1.00  0.00    +0.000 H 
ATOM    109  H16 UNL A   1      34.094  25.433  24.440  1.00  0.00    +0.000 H 
BRANCH   17   16
ATOM    106  H13 UNL A   1      32.446  26.342  26.272  1.00  0.00    +0.000 H 
ATOM    107  H14 UNL A   1      33.914  27.183  26.777  1.00  0.00    +0.000 H 
ATOM     16  C14 UNL A   1      33.403  26.709  25.966  1.00  0.00    +0.000 C 
BRANCH   16   15
ATOM    105  H12 UNL A   1      34.040  28.135  24.623  1.00  0.00    +0.000 H 
ATOM     15  N1  UNL A   1      33.212  27.695  24.922  1.00  0.00    +0.000 N 
BRANCH   15   13
ATOM     13  C13 UNL A   1      32.087  28.119  24.281  1.00  0.00    +0.000 C 
ATOM     14  O1  UNL A   1      31.492  29.077  24.792  1.00  0.00    +0.000 O 
BRANCH   13   11
ATOM     11  C11 UNL A   1      31.531  27.465  23.008  1.00  0.00    +0.000 C 
ATOM    101  H8  UNL A   1      32.202  27.747  22.223  1.00  0.00    +0.000 H 
BRANCH   11   10
ATOM     99  H6  UNL A   1      30.265  23.203  24.388  1.00  0.00    +0.000 H 
ATOM    100  H7  UNL A   1      29.947  25.585  24.245  1.00  0.00    +0.000 H 
ATOM    133  H40 UNL A   1      33.303  25.871  21.748  1.00  0.00    +0.000 H 
ATOM    134  H41 UNL A   1      33.519  23.465  21.758  1.00  0.00    +0.000 H 
ATOM      7  C7  UNL A   1      31.918  23.106  23.085  1.00  0.00    +0.000 C 
ATOM      8  C8  UNL A   1      30.905  23.762  23.802  1.00  0.00    +0.000 C 
ATOM      9  C9  UNL A   1      30.737  25.147  23.744  1.00  0.00    +0.000 C 
ATOM     10  C10 UNL A   1      31.620  25.948  23.020  1.00  0.00    +0.000 C 
ATOM     88  C65 UNL A   1      32.640  25.306  22.301  1.00  0.00    +0.000 C 
ATOM     89  C66 UNL A   1      32.775  23.909  22.319  1.00  0.00    +0.000 C 
BRANCH    7    6
ATOM     97  H4  UNL A   1      32.989  19.000  26.526  1.00  0.00    +0.000 H 
ATOM      2  C2  UNL A   1      32.982  17.469  25.011  1.00  0.00    +0.000 C 
ATOM      3  C3  UNL A   1      32.863  18.737  25.536  1.00  0.00    +0.000 C 
ATOM      4  C4  UNL A   1      32.536  19.619  24.473  1.00  0.00    +0.000 C 
ATOM      5  C5  UNL A   1      32.309  21.005  24.394  1.00  0.00    +0.000 C 
ATOM     98  H5  UNL A   1      32.331  21.573  25.256  1.00  0.00    +0.000 H 
ATOM      6  C6  UNL A   1      32.052  21.633  23.157  1.00  0.00    +0.000 C 
ATOM    136  H43 UNL A   1      32.084  18.845  21.219  1.00  0.00    +0.000 H 
ATOM    137  H44 UNL A   1      32.715  16.793  23.042  1.00  0.00    +0.000 H 
ATOM    135  H42 UNL A   1      31.770  21.259  21.103  1.00  0.00    +0.000 H 
ATOM     90  C67 UNL A   1      31.973  20.819  22.014  1.00  0.00    +0.000 C 
ATOM     91  C68 UNL A   1      32.161  19.428  22.067  1.00  0.00    +0.000 C 
ATOM     92  C69 UNL A   1      32.457  18.861  23.310  1.00  0.00    +0.000 C 
ATOM     93  N7  UNL A   1      32.717  17.556  23.664  1.00  0.00    +0.000 N 
BRANCH    2    1
ATOM      1  C1  UNL A   1      33.321  16.183  25.667  1.00  0.00    +0.000 C 
ATOM     94  H1  UNL A   1      33.923  16.371  26.531  1.00  0.00    +0.000 H 
ATOM     95  H2  UNL A   1      33.863  15.565  24.982  1.00  0.00    +0.000 H 
ATOM     96  H3  UNL A   1      32.422  15.685  25.961  1.00  0.00    +0.000 H 
ENDBRANCH    2    1
ENDBRANCH    7    6
ENDBRANCH   11   10
BRANCH   11   12
ATOM     12  C12 UNL A   1      30.202  28.053  22.529  1.00  0.00    +0.000 C 
ATOM    102  H9  UNL A   1      29.816  27.458  21.728  1.00  0.00    +0.000 H 
ATOM    103  H10 UNL A   1      30.358  29.055  22.186  1.00  0.00    +0.000 H 
ATOM    104  H11 UNL A   1      29.502  28.059  23.339  1.00  0.00    +0.000 H 
ENDBRANCH   11   12
ENDBRANCH   13   11
ENDBRANCH   15   13
ENDBRANCH   16   15
ENDBRANCH   17   16
ENDBRANCH   18   17
ENDBRANCH   19   18
ENDBRANCH   20   19
ENDBRANCH   21   20
ENDBRANCH   22   21
ENDBRANCH   23   22
ENDBRANCH   25   23
ENDBRANCH   29   28
BRANCH   33   34
ATOM     34  C29 UNL A   1      38.774  30.569  30.584  1.00  0.00    +0.000 C 
ATOM     35  C30 UNL A   1      38.558  30.385  31.957  1.00  0.00    +0.000 C 
ATOM     36  F1  UNL A   1      39.483  29.774  32.711  1.00  0.00    +0.000 F 
ATOM     37  C31 UNL A   1      37.369  30.797  32.556  1.00  0.00    +0.000 C 
ATOM     38  F2  UNL A   1      37.165  30.569  33.861  1.00  0.00    +0.000 F 
ATOM     39  C32 UNL A   1      36.392  31.428  31.802  1.00  0.00    +0.000 C 
ATOM     40  F3  UNL A   1      35.251  31.828  32.381  1.00  0.00    +0.000 F 
ATOM     41  C33 UNL A   1      36.594  31.639  30.446  1.00  0.00    +0.000 C 
ATOM     42  F4  UNL A   1      35.655  32.259  29.719  1.00  0.00    +0.000 F 
ATOM     43  C34 UNL A   1      37.769  31.205  29.839  1.00  0.00    +0.000 C 
ATOM     44  F5  UNL A   1      37.930  31.410  28.523  1.00  0.00    +0.000 F 
ENDBRANCH   33   34
BRANCH   50   51
ATOM     51  C40 UNL A   1      45.439  33.121  29.558  1.00  0.00    +0.000 C 
ATOM     52  C41 UNL A   1      46.214  33.159  30.727  1.00  0.00    +0.000 C 
ATOM     53  F6  UNL A   1      46.214  32.115  31.570  1.00  0.00    +0.000 F 
ATOM     54  C42 UNL A   1      46.962  34.287  31.052  1.00  0.00    +0.000 C 
ATOM     55  F7  UNL A   1      47.661  34.319  32.195  1.00  0.00    +0.000 F 
ATOM     56  C43 UNL A   1      46.975  35.383  30.202  1.00  0.00    +0.000 C 
ATOM     57  F8  UNL A   1      47.700  36.466  30.514  1.00  0.00    +0.000 F 
ATOM     58  C44 UNL A   1      46.230  35.360  29.032  1.00  0.00    +0.000 C 
ATOM     59  F9  UNL A   1      46.249  36.415  28.205  1.00  0.00    +0.000 F 
ATOM     60  C45 UNL A   1      45.460  34.245  28.718  1.00  0.00    +0.000 C 
ATOM     61  F10 UNL A   1      44.739  34.256  27.586  1.00  0.00    +0.000 F 
ENDBRANCH   50   51
BRANCH   65   66
ATOM     66  C49 UNL A   1      47.024  27.380  25.952  1.00  0.00    +0.000 C 
ATOM     67  C50 UNL A   1      48.024  26.683  26.643  1.00  0.00    +0.000 C 
ATOM     68  F11 UNL A   1      47.886  26.438  27.955  1.00  0.00    +0.000 F 
ATOM     69  C51 UNL A   1      49.189  26.272  26.000  1.00  0.00    +0.000 C 
ATOM     70  F12 UNL A   1      50.150  25.645  26.693  1.00  0.00    +0.000 F 
ATOM     71  C52 UNL A   1      49.363  26.525  24.648  1.00  0.00    +0.000 C 
ATOM     72  F13 UNL A   1      50.483  26.127  24.027  1.00  0.00    +0.000 F 
ATOM     73  C53 UNL A   1      48.378  27.198  23.940  1.00  0.00    +0.000 C 
ATOM     74  F14 UNL A   1      48.537  27.433  22.629  1.00  0.00    +0.000 F 
ATOM     75  C54 UNL A   1      47.224  27.632  24.588  1.00  0.00    +0.000 C 
ATOM     76  F15 UNL A   1      46.293  28.292  23.883  1.00  0.00    +0.000 F 
ENDBRANCH   65   66
TORSDOF 19
ENDMDL
MODEL 3
REMARK VINA RESULT:     -11.2      4.101      9.675
ROOT
ATOM    129  H36 UNL A   1      38.133  28.394  29.677  1.00  0.00    +0.000 H 
ATOM    130  H37 UNL A   1      38.877  26.165  28.662  1.00  0.00    +0.000 H 
ATOM     29  C25 UNL A   1      41.521  26.213  27.603  1.00  0.00    +0.000 C 
ATOM     30  C26 UNL A   1      40.818  27.300  28.367  1.00  0.00    +0.000 C 
ATOM     31  N3  UNL A   1      41.254  28.485  28.714  1.00  0.00    +0.000 N 
ATOM     32  C27 UNL A   1      40.195  29.102  29.366  1.00  0.00    +0.000 C 
ATOM     33  C28 UNL A   1      40.161  30.317  29.962  1.00  0.00    +0.000 C 
ATOM     45  C35 UNL A   1      41.280  31.222  30.025  1.00  0.00    +0.000 C 
ATOM     46  C36 UNL A   1      41.359  32.456  30.646  1.00  0.00    +0.000 C 
ATOM     47  C37 UNL A   1      42.636  32.982  30.413  1.00  0.00    +0.000 C 
ATOM     48  C38 UNL A   1      43.364  32.057  29.682  1.00  0.00    +0.000 C 
ATOM     49  N4  UNL A   1      42.517  30.985  29.444  1.00  0.00    +0.000 N 
ATOM     50  C39 UNL A   1      44.728  32.144  29.232  1.00  0.00    +0.000 C 
ATOM     62  C46 UNL A   1      45.373  31.191  28.516  1.00  0.00    +0.000 C 
ATOM     63  N5  UNL A   1      44.902  29.961  28.077  1.00  0.00    +0.000 N 
ATOM     64  C47 UNL A   1      45.894  29.409  27.421  1.00  0.00    +0.000 C 
ATOM     65  C48 UNL A   1      45.959  28.063  26.754  1.00  0.00    +0.000 C 
ATOM     77  C55 UNL A   1      44.888  27.247  26.809  1.00  0.00    +0.000 C 
ATOM     78  C56 UNL A   1      44.804  25.917  26.214  1.00  0.00    +0.000 C 
ATOM     79  C57 UNL A   1      43.576  25.419  26.429  1.00  0.00    +0.000 C 
ATOM     80  C58 UNL A   1      42.797  26.383  27.206  1.00  0.00    +0.000 C 
ATOM     81  N6  UNL A   1      43.659  27.434  27.394  1.00  0.00    +0.000 N 
ATOM     82  C59 UNL A   1      47.100  30.245  27.344  1.00  0.00    +0.000 C 
ATOM     83  C60 UNL A   1      46.743  31.301  28.059  1.00  0.00    +0.000 C 
ATOM     84  C61 UNL A   1      39.079  28.180  29.324  1.00  0.00    +0.000 C 
ATOM     85  C62 UNL A   1      39.431  27.028  28.774  1.00  0.00    +0.000 C 
ATOM    121  H28 UNL A   1      40.608  32.910  31.188  1.00  0.00    +0.000 H 
ATOM    122  H29 UNL A   1      42.976  33.902  30.732  1.00  0.00    +0.000 H 
ATOM    123  H30 UNL A   1      42.758  30.175  28.939  1.00  0.00    +0.000 H 
ATOM    124  H31 UNL A   1      45.566  25.437  25.712  1.00  0.00    +0.000 H 
ATOM    125  H32 UNL A   1      43.236  24.502  26.098  1.00  0.00    +0.000 H 
ATOM    126  H33 UNL A   1      43.420  28.245  27.898  1.00  0.00    +0.000 H 
ATOM    127  H34 UNL A   1      47.993  30.057  26.859  1.00  0.00    +0.000 H 
ATOM    128  H35 UNL A   1      47.363  32.100  28.267  1.00  0.00    +0.000 H 
ENDROOT
BRANCH   29   28
ATOM    131  H38 UNL A   1      39.470  25.959  25.899  1.00  0.00    +0.000 H 
ATOM    132  H39 UNL A   1      38.198  23.973  25.343  1.00  0.00    +0.000 H 
ATOM    120  H27 UNL A   1      41.895  23.670  28.474  1.00  0.00    +0.000 H 
ATOM     86  C63 UNL A   1      39.730  25.050  26.312  1.00  0.00    +0.000 C 
ATOM     87  C64 UNL A   1      39.021  23.902  25.960  1.00  0.00    +0.000 C 
ATOM    119  H26 UNL A   1      40.744  21.656  27.760  1.00  0.00    +0.000 H 
ATOM     25  C21 UNL A   1      39.427  22.655  26.443  1.00  0.00    +0.000 C 
ATOM     26  C22 UNL A   1      40.470  22.572  27.372  1.00  0.00    +0.000 C 
ATOM     27  C23 UNL A   1      41.140  23.731  27.772  1.00  0.00    +0.000 C 
ATOM     28  C24 UNL A   1      40.792  24.976  27.225  1.00  0.00    +0.000 C 
BRANCH   25   23
ATOM     23  C20 UNL A   1      38.734  21.412  26.034  1.00  0.00    +0.000 C 
ATOM     24  O2  UNL A   1      39.341  20.347  26.048  1.00  0.00    +0.000 O 
BRANCH   23   22
ATOM    118  H25 UNL A   1      36.767  21.176  26.330  1.00  0.00    +0.000 H 
ATOM     22  N2  UNL A   1      37.418  21.447  25.642  1.00  0.00    +0.000 N 
BRANCH   22   21
ATOM    117  H24 UNL A   1      36.814  20.951  23.743  1.00  0.00    +0.000 H 
ATOM    116  H23 UNL A   1      37.454  22.588  23.922  1.00  0.00    +0.000 H 
ATOM     21  C19 UNL A   1      36.845  21.825  24.360  1.00  0.00    +0.000 C 
BRANCH   21   20
ATOM    114  H21 UNL A   1      35.323  23.218  23.883  1.00  0.00    +0.000 H 
ATOM    115  H22 UNL A   1      34.772  21.549  24.213  1.00  0.00    +0.000 H 
ATOM     20  C18 UNL A   1      35.419  22.352  24.502  1.00  0.00    +0.000 C 
BRANCH   20   19
ATOM    113  H20 UNL A   1      35.922  22.995  26.431  1.00  0.00    +0.000 H 
ATOM     19  C17 UNL A   1      35.013  22.738  25.929  1.00  0.00    +0.000 C 
ATOM    112  H19 UNL A   1      34.499  21.905  26.361  1.00  0.00    +0.000 H 
BRANCH   19   18
ATOM     18  C16 UNL A   1      34.105  23.969  26.052  1.00  0.00    +0.000 C 
ATOM    110  H17 UNL A   1      33.153  23.721  25.631  1.00  0.00    +0.000 H 
ATOM    111  H18 UNL A   1      34.066  24.204  27.095  1.00  0.00    +0.000 H 
BRANCH   18   17
ATOM     17  C15 UNL A   1      34.617  25.234  25.353  1.00  0.00    +0.000 C 
ATOM    108  H15 UNL A   1      35.638  25.384  25.635  1.00  0.00    +0.000 H 
ATOM    109  H16 UNL A   1      34.499  25.075  24.302  1.00  0.00    +0.000 H 
BRANCH   17   16
ATOM    106  H13 UNL A   1      32.904  26.216  26.154  1.00  0.00    +0.000 H 
ATOM    107  H14 UNL A   1      34.426  27.084  26.370  1.00  0.00    +0.000 H 
ATOM     16  C14 UNL A   1      33.830  26.499  25.701  1.00  0.00    +0.000 C 
BRANCH   16   15
ATOM    105  H12 UNL A   1      34.347  27.550  24.007  1.00  0.00    +0.000 H 
ATOM     15  N1  UNL A   1      33.551  27.305  24.531  1.00  0.00    +0.000 N 
BRANCH   15   13
ATOM     13  C13 UNL A   1      32.379  27.784  24.028  1.00  0.00    +0.000 C 
ATOM     14  O1  UNL A   1      32.038  28.911  24.409  1.00  0.00    +0.000 O 
BRANCH   13   11
ATOM     11  C11 UNL A   1      31.481  26.999  23.061  1.00  0.00    +0.000 C 
ATOM    101  H8  UNL A   1      31.824  27.252  22.079  1.00  0.00    +0.000 H 
BRANCH   11   10
ATOM     99  H6  UNL A   1      33.330  22.956  21.680  1.00  0.00    +0.000 H 
ATOM    100  H7  UNL A   1      33.197  25.359  21.667  1.00  0.00    +0.000 H 
ATOM    133  H40 UNL A   1      30.263  25.201  24.657  1.00  0.00    +0.000 H 
ATOM    134  H41 UNL A   1      30.519  22.802  24.787  1.00  0.00    +0.000 H 
ATOM      7  C7  UNL A   1      31.942  22.650  23.236  1.00  0.00    +0.000 C 
ATOM      8  C8  UNL A   1      32.689  23.428  22.337  1.00  0.00    +0.000 C 
ATOM      9  C9  UNL A   1      32.591  24.821  22.307  1.00  0.00    +0.000 C 
ATOM     10  C10 UNL A   1      31.688  25.495  23.129  1.00  0.00    +0.000 C 
ATOM     88  C65 UNL A   1      30.932  24.729  24.030  1.00  0.00    +0.000 C 
ATOM     89  C66 UNL A   1      31.071  23.334  24.095  1.00  0.00    +0.000 C 
BRANCH    7    6
ATOM     97  H4  UNL A   1      32.875  18.406  26.548  1.00  0.00    +0.000 H 
ATOM      2  C2  UNL A   1      32.967  16.943  24.969  1.00  0.00    +0.000 C 
ATOM      3  C3  UNL A   1      32.805  18.186  25.541  1.00  0.00    +0.000 C 
ATOM      4  C4  UNL A   1      32.525  19.111  24.502  1.00  0.00    +0.000 C 
ATOM      5  C5  UNL A   1      32.287  20.497  24.471  1.00  0.00    +0.000 C 
ATOM     98  H5  UNL A   1      32.256  21.027  25.357  1.00  0.00    +0.000 H 
ATOM      6  C6  UNL A   1      32.089  21.177  23.251  1.00  0.00    +0.000 C 
ATOM    136  H43 UNL A   1      32.257  18.477  21.197  1.00  0.00    +0.000 H 
ATOM    137  H44 UNL A   1      32.813  16.353  22.961  1.00  0.00    +0.000 H 
ATOM    135  H42 UNL A   1      31.921  20.891  21.170  1.00  0.00    +0.000 H 
ATOM     90  C67 UNL A   1      32.080  20.413  22.071  1.00  0.00    +0.000 C 
ATOM     91  C68 UNL A   1      32.282  19.023  22.073  1.00  0.00    +0.000 C 
ATOM     92  C69 UNL A   1      32.517  18.404  23.305  1.00  0.00    +0.000 C 
ATOM     93  N7  UNL A   1      32.773  17.088  23.615  1.00  0.00    +0.000 N 
BRANCH    2    1
ATOM      1  C1  UNL A   1      33.285  15.633  25.585  1.00  0.00    +0.000 C 
ATOM     94  H1  UNL A   1      32.397  15.214  26.011  1.00  0.00    +0.000 H 
ATOM     95  H2  UNL A   1      34.018  15.768  26.352  1.00  0.00    +0.000 H 
ATOM     96  H3  UNL A   1      33.668  14.971  24.838  1.00  0.00    +0.000 H 
ENDBRANCH    2    1
ENDBRANCH    7    6
ENDBRANCH   11   10
BRANCH   11   12
ATOM     12  C12 UNL A   1      30.026  27.473  23.031  1.00  0.00    +0.000 C 
ATOM    102  H9  UNL A   1      29.398  26.723  23.465  1.00  0.00    +0.000 H 
ATOM    103  H10 UNL A   1      29.727  27.645  22.018  1.00  0.00    +0.000 H 
ATOM    104  H11 UNL A   1      29.935  28.381  23.589  1.00  0.00    +0.000 H 
ENDBRANCH   11   12
ENDBRANCH   13   11
ENDBRANCH   15   13
ENDBRANCH   16   15
ENDBRANCH   17   16
ENDBRANCH   18   17
ENDBRANCH   19   18
ENDBRANCH   20   19
ENDBRANCH   21   20
ENDBRANCH   22   21
ENDBRANCH   23   22
ENDBRANCH   25   23
ENDBRANCH   29   28
BRANCH   33   34
ATOM     34  C29 UNL A   1      38.871  30.738  30.604  1.00  0.00    +0.000 C 
ATOM     35  C30 UNL A   1      37.826  31.292  29.851  1.00  0.00    +0.000 C 
ATOM     36  F1  UNL A   1      37.978  31.499  28.535  1.00  0.00    +0.000 F 
ATOM     37  C31 UNL A   1      36.631  31.673  30.456  1.00  0.00    +0.000 C 
ATOM     38  F2  UNL A   1      35.663  32.243  29.725  1.00  0.00    +0.000 F 
ATOM     39  C32 UNL A   1      36.445  31.476  31.816  1.00  0.00    +0.000 C 
ATOM     40  F3  UNL A   1      35.293  31.838  32.397  1.00  0.00    +0.000 F 
ATOM     41  C33 UNL A   1      37.458  30.910  32.577  1.00  0.00    +0.000 C 
ATOM     42  F4  UNL A   1      37.276  30.709  33.888  1.00  0.00    +0.000 F 
ATOM     43  C34 UNL A   1      38.665  30.554  31.980  1.00  0.00    +0.000 C 
ATOM     44  F5  UNL A   1      39.630  30.023  32.744  1.00  0.00    +0.000 F 
ENDBRANCH   33   34
BRANCH   50   51
ATOM     51  C40 UNL A   1      45.508  33.371  29.599  1.00  0.00    +0.000 C 
ATOM     52  C41 UNL A   1      45.502  34.516  28.789  1.00  0.00    +0.000 C 
ATOM     53  F6  UNL A   1      44.831  34.516  27.627  1.00  0.00    +0.000 F 
ATOM     54  C42 UNL A   1      46.220  35.652  29.153  1.00  0.00    +0.000 C 
ATOM     55  F7  UNL A   1      46.236  36.719  28.343  1.00  0.00    +0.000 F 
ATOM     56  C43 UNL A   1      46.927  35.676  30.345  1.00  0.00    +0.000 C 
ATOM     57  F8  UNL A   1      47.613  36.773  30.696  1.00  0.00    +0.000 F 
ATOM     58  C44 UNL A   1      46.933  34.561  31.170  1.00  0.00    +0.000 C 
ATOM     59  F9  UNL A   1      47.608  34.587  32.328  1.00  0.00    +0.000 F 
ATOM     60  C45 UNL A   1      46.239  33.415  30.796  1.00  0.00    +0.000 C 
ATOM     61  F10 UNL A   1      46.271  32.346  31.608  1.00  0.00    +0.000 F 
ENDBRANCH   50   51
BRANCH   65   66
ATOM     66  C49 UNL A   1      47.197  27.614  26.066  1.00  0.00    +0.000 C 
ATOM     67  C50 UNL A   1      47.323  27.727  24.675  1.00  0.00    +0.000 C 
ATOM     68  F11 UNL A   1      46.313  28.230  23.950  1.00  0.00    +0.000 F 
ATOM     69  C51 UNL A   1      48.470  27.286  24.019  1.00  0.00    +0.000 C 
ATOM     70  F12 UNL A   1      48.548  27.366  22.684  1.00  0.00    +0.000 F 
ATOM     71  C52 UNL A   1      49.523  26.751  24.744  1.00  0.00    +0.000 C 
ATOM     72  F13 UNL A   1      50.629  26.329  24.113  1.00  0.00    +0.000 F 
ATOM     73  C53 UNL A   1      49.428  26.645  26.124  1.00  0.00    +0.000 C 
ATOM     74  F14 UNL A   1      50.449  26.140  26.829  1.00  0.00    +0.000 F 
ATOM     75  C54 UNL A   1      48.271  27.063  26.779  1.00  0.00    +0.000 C 
ATOM     76  F15 UNL A   1      48.200  26.937  28.112  1.00  0.00    +0.000 F 
ENDBRANCH   65   66
TORSDOF 19
ENDMDL
MODEL 4
REMARK VINA RESULT:     -11.0     34.465     39.037
ROOT
ATOM    129  H36 UNL A   1      13.153   2.940  17.493  1.00  0.00    +0.000 H 
ATOM    130  H37 UNL A   1      12.363   1.623  19.541  1.00  0.00    +0.000 H 
ATOM     29  C25 UNL A   1      10.655   3.108  21.270  1.00  0.00    +0.000 C 
ATOM     30  C26 UNL A   1      11.199   3.529  19.934  1.00  0.00    +0.000 C 
ATOM     31  N3  UNL A   1      11.012   4.646  19.277  1.00  0.00    +0.000 N 
ATOM     32  C27 UNL A   1      11.773   4.538  18.121  1.00  0.00    +0.000 C 
ATOM     33  C28 UNL A   1      11.871   5.408  17.088  1.00  0.00    +0.000 C 
ATOM     45  C35 UNL A   1      11.164   6.660  17.011  1.00  0.00    +0.000 C 
ATOM     46  C36 UNL A   1      11.162   7.590  15.986  1.00  0.00    +0.000 C 
ATOM     47  C37 UNL A   1      10.351   8.664  16.372  1.00  0.00    +0.000 C 
ATOM     48  C38 UNL A   1       9.817   8.384  17.618  1.00  0.00    +0.000 C 
ATOM     49  N4  UNL A   1      10.330   7.154  18.003  1.00  0.00    +0.000 N 
ATOM     50  C39 UNL A   1       8.908   9.178  18.403  1.00  0.00    +0.000 C 
ATOM     62  C46 UNL A   1       8.428   8.833  19.623  1.00  0.00    +0.000 C 
ATOM     63  N5  UNL A   1       8.674   7.687  20.365  1.00  0.00    +0.000 N 
ATOM     64  C47 UNL A   1       7.990   7.823  21.475  1.00  0.00    +0.000 C 
ATOM     65  C48 UNL A   1       7.860   6.872  22.633  1.00  0.00    +0.000 C 
ATOM     77  C55 UNL A   1       8.498   5.687  22.588  1.00  0.00    +0.000 C 
ATOM     78  C56 UNL A   1       8.464   4.666  23.630  1.00  0.00    +0.000 C 
ATOM     79  C57 UNL A   1       9.251   3.641  23.265  1.00  0.00    +0.000 C 
ATOM     80  C58 UNL A   1       9.818   3.920  21.945  1.00  0.00    +0.000 C 
ATOM     81  N6  UNL A   1       9.310   5.152  21.617  1.00  0.00    +0.000 N 
ATOM     82  C59 UNL A   1       7.254   9.091  21.574  1.00  0.00    +0.000 C 
ATOM     83  C60 UNL A   1       7.523   9.651  20.404  1.00  0.00    +0.000 C 
ATOM     84  C61 UNL A   1      12.463   3.267  18.187  1.00  0.00    +0.000 C 
ATOM     85  C62 UNL A   1      12.094   2.578  19.258  1.00  0.00    +0.000 C 
ATOM    121  H28 UNL A   1      11.669   7.505  15.092  1.00  0.00    +0.000 H 
ATOM    122  H29 UNL A   1      10.181   9.519  15.820  1.00  0.00    +0.000 H 
ATOM    123  H30 UNL A   1      10.130   6.699  18.852  1.00  0.00    +0.000 H 
ATOM    124  H31 UNL A   1       7.922   4.722  24.506  1.00  0.00    +0.000 H 
ATOM    125  H32 UNL A   1       9.427   2.792  23.825  1.00  0.00    +0.000 H 
ATOM    126  H33 UNL A   1       9.507   5.609  20.768  1.00  0.00    +0.000 H 
ATOM    127  H34 UNL A   1       6.678   9.451  22.352  1.00  0.00    +0.000 H 
ATOM    128  H35 UNL A   1       7.136  10.554  20.089  1.00  0.00    +0.000 H 
ENDROOT
BRANCH   29   28
ATOM    131  H38 UNL A   1       9.409   0.738  21.190  1.00  0.00    +0.000 H 
ATOM    132  H39 UNL A   1      10.036  -1.341  22.263  1.00  0.00    +0.000 H 
ATOM    120  H27 UNL A   1      12.857   2.578  22.764  1.00  0.00    +0.000 H 
ATOM     86  C63 UNL A   1      10.284   0.684  21.734  1.00  0.00    +0.000 C 
ATOM     87  C64 UNL A   1      10.663  -0.524  22.317  1.00  0.00    +0.000 C 
ATOM    119  H26 UNL A   1      13.578   0.443  23.667  1.00  0.00    +0.000 H 
ATOM     25  C21 UNL A   1      11.893  -0.627  22.974  1.00  0.00    +0.000 C 
ATOM     26  C22 UNL A   1      12.689   0.510  23.148  1.00  0.00    +0.000 C 
ATOM     27  C23 UNL A   1      12.279   1.735  22.616  1.00  0.00    +0.000 C 
ATOM     28  C24 UNL A   1      11.086   1.826  21.881  1.00  0.00    +0.000 C 
BRANCH   25   23
ATOM     23  C20 UNL A   1      12.351  -1.914  23.546  1.00  0.00    +0.000 C 
ATOM     24  O2  UNL A   1      13.544  -2.192  23.535  1.00  0.00    +0.000 O 
BRANCH   23   22
ATOM    118  H25 UNL A   1      10.831  -3.215  23.443  1.00  0.00    +0.000 H 
ATOM     22  N2  UNL A   1      11.446  -2.794  24.088  1.00  0.00    +0.000 N 
BRANCH   22   21
ATOM    117  H24 UNL A   1      11.868  -4.062  25.648  1.00  0.00    +0.000 H 
ATOM    116  H23 UNL A   1      10.228  -3.407  25.638  1.00  0.00    +0.000 H 
ATOM     21  C19 UNL A   1      11.264  -3.196  25.473  1.00  0.00    +0.000 C 
BRANCH   21   20
ATOM    114  H21 UNL A   1      12.636  -2.412  26.885  1.00  0.00    +0.000 H 
ATOM    115  H22 UNL A   1      11.780  -1.205  25.880  1.00  0.00    +0.000 H 
ATOM     20  C18 UNL A   1      11.707  -2.108  26.450  1.00  0.00    +0.000 C 
BRANCH   20   19
ATOM    113  H20 UNL A   1      10.763  -0.763  27.749  1.00  0.00    +0.000 H 
ATOM     19  C17 UNL A   1      10.720  -1.820  27.587  1.00  0.00    +0.000 C 
ATOM    112  H19 UNL A   1      11.017  -2.402  28.434  1.00  0.00    +0.000 H 
BRANCH   19   18
ATOM     18  C16 UNL A   1       9.249  -2.138  27.288  1.00  0.00    +0.000 C 
ATOM    110  H17 UNL A   1       9.103  -2.061  26.231  1.00  0.00    +0.000 H 
ATOM    111  H18 UNL A   1       9.073  -3.119  27.676  1.00  0.00    +0.000 H 
BRANCH   18   17
ATOM     17  C15 UNL A   1       8.228  -1.222  27.974  1.00  0.00    +0.000 C 
ATOM    108  H15 UNL A   1       8.416  -1.240  29.027  1.00  0.00    +0.000 H 
ATOM    109  H16 UNL A   1       8.352  -0.248  27.549  1.00  0.00    +0.000 H 
BRANCH   17   16
ATOM    106  H13 UNL A   1       6.752  -2.506  27.129  1.00  0.00    +0.000 H 
ATOM    107  H14 UNL A   1       6.320  -1.807  28.691  1.00  0.00    +0.000 H 
ATOM     16  C14 UNL A   1       6.772  -1.627  27.738  1.00  0.00    +0.000 C 
BRANCH   16   15
ATOM    105  H12 UNL A   1       5.442  -0.055  27.676  1.00  0.00    +0.000 H 
ATOM     15  N1  UNL A   1       6.017  -0.583  27.076  1.00  0.00    +0.000 N 
BRANCH   15   13
ATOM     13  C13 UNL A   1       5.964  -0.203  25.769  1.00  0.00    +0.000 C 
ATOM     14  O1  UNL A   1       5.511  -1.036  24.973  1.00  0.00    +0.000 O 
BRANCH   13   11
ATOM     11  C11 UNL A   1       6.451   1.160  25.256  1.00  0.00    +0.000 C 
ATOM    101  H8  UNL A   1       5.826   1.887  25.733  1.00  0.00    +0.000 H 
BRANCH   11   10
ATOM     99  H6  UNL A   1      11.078   0.687  25.436  1.00  0.00    +0.000 H 
ATOM    100  H7  UNL A   1       8.918   0.212  24.488  1.00  0.00    +0.000 H 
ATOM    133  H40 UNL A   1       7.173   2.989  27.099  1.00  0.00    +0.000 H 
ATOM    134  H41 UNL A   1       9.362   3.586  27.931  1.00  0.00    +0.000 H 
ATOM      7  C7  UNL A   1      10.428   2.183  26.770  1.00  0.00    +0.000 C 
ATOM      8  C8  UNL A   1      10.253   1.202  25.781  1.00  0.00    +0.000 C 
ATOM      9  C9  UNL A   1       8.996   0.902  25.251  1.00  0.00    +0.000 C 
ATOM     10  C10 UNL A   1       7.846   1.525  25.737  1.00  0.00    +0.000 C 
ATOM     88  C65 UNL A   1       8.005   2.505  26.728  1.00  0.00    +0.000 C 
ATOM     89  C66 UNL A   1       9.275   2.841  27.221  1.00  0.00    +0.000 C 
BRANCH    7    6
ATOM     97  H4  UNL A   1      15.602   0.430  26.718  1.00  0.00    +0.000 H 
ATOM      2  C2  UNL A   1      16.314   1.880  28.143  1.00  0.00    +0.000 C 
ATOM      3  C3  UNL A   1      15.406   1.241  27.326  1.00  0.00    +0.000 C 
ATOM      4  C4  UNL A   1      14.156   1.896  27.468  1.00  0.00    +0.000 C 
ATOM      5  C5  UNL A   1      12.880   1.690  26.911  1.00  0.00    +0.000 C 
ATOM     98  H5  UNL A   1      12.748   0.943  26.210  1.00  0.00    +0.000 H 
ATOM      6  C6  UNL A   1      11.780   2.485  27.293  1.00  0.00    +0.000 C 
ATOM    136  H43 UNL A   1      13.434   4.560  29.411  1.00  0.00    +0.000 H 
ATOM    137  H44 UNL A   1      16.063   3.550  29.390  1.00  0.00    +0.000 H 
ATOM    135  H42 UNL A   1      11.222   4.131  28.485  1.00  0.00    +0.000 H 
ATOM     90  C67 UNL A   1      12.012   3.528  28.206  1.00  0.00    +0.000 C 
ATOM     91  C68 UNL A   1      13.281   3.780  28.754  1.00  0.00    +0.000 C 
ATOM     92  C69 UNL A   1      14.329   2.935  28.376  1.00  0.00    +0.000 C 
ATOM     93  N7  UNL A   1      15.650   2.914  28.761  1.00  0.00    +0.000 N 
BRANCH    2    1
ATOM      1  C1  UNL A   1      17.748   1.602  28.391  1.00  0.00    +0.000 C 
ATOM     94  H1  UNL A   1      17.937   1.612  29.445  1.00  0.00    +0.000 H 
ATOM     95  H2  UNL A   1      18.344   2.352  27.915  1.00  0.00    +0.000 H 
ATOM     96  H3  UNL A   1      18.000   0.642  27.993  1.00  0.00    +0.000 H 
ENDBRANCH    2    1
ENDBRANCH    7    6
ENDBRANCH   11   10
BRANCH   11   12
ATOM     12  C12 UNL A   1       6.168   1.409  23.773  1.00  0.00    +0.000 C 
ATOM    102  H9  UNL A   1       7.049   1.791  23.301  1.00  0.00    +0.000 H 
ATOM    103  H10 UNL A   1       5.374   2.121  23.675  1.00  0.00    +0.000 H 
ATOM    104  H11 UNL A   1       5.882   0.490  23.304  1.00  0.00    +0.000 H 
ENDBRANCH   11   12
ENDBRANCH   13   11
ENDBRANCH   15   13
ENDBRANCH   16   15
ENDBRANCH   17   16
ENDBRANCH   18   17
ENDBRANCH   19   18
ENDBRANCH   20   19
ENDBRANCH   21   20
ENDBRANCH   22   21
ENDBRANCH   23   22
ENDBRANCH   25   23
ENDBRANCH   29   28
BRANCH   33   34
ATOM     34  C29 UNL A   1      12.775   5.032  15.949  1.00  0.00    +0.000 C 
ATOM     35  C30 UNL A   1      12.293   4.329  14.835  1.00  0.00    +0.000 C 
ATOM     36  F1  UNL A   1      11.012   3.938  14.786  1.00  0.00    +0.000 F 
ATOM     37  C31 UNL A   1      13.139   3.992  13.781  1.00  0.00    +0.000 C 
ATOM     38  F2  UNL A   1      12.668   3.280  12.748  1.00  0.00    +0.000 F 
ATOM     39  C32 UNL A   1      14.470   4.379  13.805  1.00  0.00    +0.000 C 
ATOM     40  F3  UNL A   1      15.281   4.058  12.788  1.00  0.00    +0.000 F 
ATOM     41  C33 UNL A   1      14.963   5.093  14.888  1.00  0.00    +0.000 C 
ATOM     42  F4  UNL A   1      16.246   5.477  14.907  1.00  0.00    +0.000 F 
ATOM     43  C34 UNL A   1      14.126   5.408  15.956  1.00  0.00    +0.000 C 
ATOM     44  F5  UNL A   1      14.635   6.086  16.995  1.00  0.00    +0.000 F 
ENDBRANCH   33   34
BRANCH   50   51
ATOM     51  C40 UNL A   1       8.435  10.477  17.822  1.00  0.00    +0.000 C 
ATOM     52  C41 UNL A   1       7.266  10.554  17.049  1.00  0.00    +0.000 C 
ATOM     53  F6  UNL A   1       6.569   9.443  16.768  1.00  0.00    +0.000 F 
ATOM     54  C42 UNL A   1       6.834  11.771  16.530  1.00  0.00    +0.000 C 
ATOM     55  F7  UNL A   1       5.740  11.816  15.757  1.00  0.00    +0.000 F 
ATOM     56  C43 UNL A   1       7.540  12.934  16.798  1.00  0.00    +0.000 C 
ATOM     57  F8  UNL A   1       7.118  14.105  16.302  1.00  0.00    +0.000 F 
ATOM     58  C44 UNL A   1       8.688  12.883  17.575  1.00  0.00    +0.000 C 
ATOM     59  F9  UNL A   1       9.366  14.007  17.844  1.00  0.00    +0.000 F 
ATOM     60  C45 UNL A   1       9.138  11.664  18.073  1.00  0.00    +0.000 C 
ATOM     61  F10 UNL A   1      10.259  11.642  18.811  1.00  0.00    +0.000 F 
ENDBRANCH   50   51
BRANCH   65   66
ATOM     66  C49 UNL A   1       7.014   7.214  23.806  1.00  0.00    +0.000 C 
ATOM     67  C50 UNL A   1       5.682   6.783  23.877  1.00  0.00    +0.000 C 
ATOM     68  F11 UNL A   1       5.156   6.068  22.871  1.00  0.00    +0.000 F 
ATOM     69  C51 UNL A   1       4.874   7.120  24.960  1.00  0.00    +0.000 C 
ATOM     70  F12 UNL A   1       3.592   6.732  24.983  1.00  0.00    +0.000 F 
ATOM     71  C52 UNL A   1       5.391   7.869  26.006  1.00  0.00    +0.000 C 
ATOM     72  F13 UNL A   1       4.614   8.192  27.050  1.00  0.00    +0.000 F 
ATOM     73  C53 UNL A   1       6.711   8.292  25.966  1.00  0.00    +0.000 C 
ATOM     74  F14 UNL A   1       7.217   9.006  26.981  1.00  0.00    +0.000 F 
ATOM     75  C54 UNL A   1       7.513   7.977  24.871  1.00  0.00    +0.000 C 
ATOM     76  F15 UNL A   1       8.782   8.410  24.851  1.00  0.00    +0.000 F 
ENDBRANCH   65   66
TORSDOF 19
ENDMDL
MODEL 5
REMARK VINA RESULT:     -11.0      1.440      2.328
ROOT
ATOM    129  H36 UNL A   1      40.692  25.729  27.324  1.00  0.00    +0.000 H 
ATOM    130  H37 UNL A   1      38.995  27.632  27.559  1.00  0.00    +0.000 H 
ATOM     29  C25 UNL A   1      39.379  29.229  29.886  1.00  0.00    +0.000 C 
ATOM     30  C26 UNL A   1      40.254  28.115  29.382  1.00  0.00    +0.000 C 
ATOM     31  N3  UNL A   1      41.366  27.642  29.886  1.00  0.00    +0.000 N 
ATOM     32  C27 UNL A   1      41.741  26.594  29.056  1.00  0.00    +0.000 C 
ATOM     33  C28 UNL A   1      42.851  25.820  29.120  1.00  0.00    +0.000 C 
ATOM     45  C35 UNL A   1      43.884  25.964  30.112  1.00  0.00    +0.000 C 
ATOM     46  C36 UNL A   1      45.069  25.259  30.234  1.00  0.00    +0.000 C 
ATOM     47  C37 UNL A   1      45.741  25.725  31.370  1.00  0.00    +0.000 C 
ATOM     48  C38 UNL A   1      44.995  26.748  31.931  1.00  0.00    +0.000 C 
ATOM     49  N4  UNL A   1      43.854  26.879  31.154  1.00  0.00    +0.000 N 
ATOM     50  C39 UNL A   1      45.296  27.546  33.091  1.00  0.00    +0.000 C 
ATOM     62  C46 UNL A   1      44.509  28.534  33.581  1.00  0.00    +0.000 C 
ATOM     63  N5  UNL A   1      43.292  28.999  33.102  1.00  0.00    +0.000 N 
ATOM     64  C47 UNL A   1      42.923  29.955  33.921  1.00  0.00    +0.000 C 
ATOM     65  C48 UNL A   1      41.702  30.829  33.871  1.00  0.00    +0.000 C 
ATOM     77  C55 UNL A   1      40.822  30.677  32.862  1.00  0.00    +0.000 C 
ATOM     78  C56 UNL A   1      39.599  31.451  32.680  1.00  0.00    +0.000 C 
ATOM     79  C57 UNL A   1      38.949  30.995  31.597  1.00  0.00    +0.000 C 
ATOM     80  C58 UNL A   1      39.730  29.917  30.989  1.00  0.00    +0.000 C 
ATOM     81  N6  UNL A   1      40.830  29.803  31.802  1.00  0.00    +0.000 N 
ATOM     82  C59 UNL A   1      43.856  30.182  35.034  1.00  0.00    +0.000 C 
ATOM     83  C60 UNL A   1      44.822  29.319  34.757  1.00  0.00    +0.000 C 
ATOM     84  C61 UNL A   1      40.713  26.468  28.044  1.00  0.00    +0.000 C 
ATOM     85  C62 UNL A   1      39.805  27.425  28.164  1.00  0.00    +0.000 C 
ATOM    121  H28 UNL A   1      45.400  24.518  29.597  1.00  0.00    +0.000 H 
ATOM    122  H29 UNL A   1      46.640  25.368  31.728  1.00  0.00    +0.000 H 
ATOM    123  H30 UNL A   1      43.130  27.526  31.316  1.00  0.00    +0.000 H 
ATOM    124  H31 UNL A   1      39.284  32.225  33.286  1.00  0.00    +0.000 H 
ATOM    125  H32 UNL A   1      38.044  31.348  31.249  1.00  0.00    +0.000 H 
ATOM    126  H33 UNL A   1      41.555  29.157  31.642  1.00  0.00    +0.000 H 
ATOM    127  H34 UNL A   1      43.778  30.842  35.824  1.00  0.00    +0.000 H 
ATOM    128  H35 UNL A   1      45.688  29.219  35.309  1.00  0.00    +0.000 H 
ENDROOT
BRANCH   29   28
ATOM    131  H38 UNL A   1      36.896  28.921  30.840  1.00  0.00    +0.000 H 
ATOM    132  H39 UNL A   1      34.782  29.309  29.722  1.00  0.00    +0.000 H 
ATOM    120  H27 UNL A   1      38.945  30.192  27.386  1.00  0.00    +0.000 H 
ATOM     86  C63 UNL A   1      36.885  29.292  29.878  1.00  0.00    +0.000 C 
ATOM     87  C64 UNL A   1      35.667  29.553  29.251  1.00  0.00    +0.000 C 
ATOM    119  H26 UNL A   1      36.828  30.766  26.346  1.00  0.00    +0.000 H 
ATOM     25  C21 UNL A   1      35.646  30.144  27.985  1.00  0.00    +0.000 C 
ATOM     26  C22 UNL A   1      36.845  30.366  27.298  1.00  0.00    +0.000 C 
ATOM     27  C23 UNL A   1      38.063  30.048  27.902  1.00  0.00    +0.000 C 
ATOM     28  C24 UNL A   1      38.093  29.533  29.208  1.00  0.00    +0.000 C 
BRANCH   25   23
ATOM     23  C20 UNL A   1      34.368  30.492  27.322  1.00  0.00    +0.000 C 
ATOM     24  O2  UNL A   1      33.640  31.343  27.819  1.00  0.00    +0.000 O 
BRANCH   23   22
ATOM    118  H25 UNL A   1      34.742  29.581  25.578  1.00  0.00    +0.000 H 
ATOM     22  N2  UNL A   1      33.998  29.868  26.156  1.00  0.00    +0.000 N 
BRANCH   22   21
ATOM    117  H24 UNL A   1      32.654  29.802  24.604  1.00  0.00    +0.000 H 
ATOM    116  H23 UNL A   1      31.954  30.157  26.186  1.00  0.00    +0.000 H 
ATOM     21  C19 UNL A   1      32.668  29.570  25.649  1.00  0.00    +0.000 C 
BRANCH   21   20
ATOM    114  H21 UNL A   1      32.523  27.807  26.816  1.00  0.00    +0.000 H 
ATOM    115  H22 UNL A   1      31.277  28.004  25.548  1.00  0.00    +0.000 H 
ATOM     20  C18 UNL A   1      32.312  28.093  25.807  1.00  0.00    +0.000 C 
BRANCH   20   19
ATOM    113  H20 UNL A   1      33.832  27.735  24.411  1.00  0.00    +0.000 H 
ATOM     19  C17 UNL A   1      33.071  27.143  24.875  1.00  0.00    +0.000 C 
ATOM    112  H19 UNL A   1      32.366  26.725  24.186  1.00  0.00    +0.000 H 
BRANCH   19   18
ATOM     18  C16 UNL A   1      33.805  25.983  25.561  1.00  0.00    +0.000 C 
ATOM    110  H17 UNL A   1      34.556  26.399  26.199  1.00  0.00    +0.000 H 
ATOM    111  H18 UNL A   1      33.056  25.426  26.084  1.00  0.00    +0.000 H 
BRANCH   18   17
ATOM     17  C15 UNL A   1      34.487  24.988  24.615  1.00  0.00    +0.000 C 
ATOM    108  H15 UNL A   1      33.823  24.790  23.800  1.00  0.00    +0.000 H 
ATOM    109  H16 UNL A   1      35.404  25.440  24.299  1.00  0.00    +0.000 H 
BRANCH   17   16
ATOM    106  H13 UNL A   1      34.599  22.860  24.603  1.00  0.00    +0.000 H 
ATOM    107  H14 UNL A   1      35.903  23.666  25.479  1.00  0.00    +0.000 H 
ATOM     16  C14 UNL A   1      34.854  23.655  25.272  1.00  0.00    +0.000 C 
BRANCH   16   15
ATOM    105  H12 UNL A   1      34.453  24.042  27.255  1.00  0.00    +0.000 H 
ATOM     15  N1  UNL A   1      34.154  23.455  26.524  1.00  0.00    +0.000 N 
BRANCH   15   13
ATOM     13  C13 UNL A   1      33.152  22.598  26.866  1.00  0.00    +0.000 C 
ATOM     14  O1  UNL A   1      33.187  22.145  28.018  1.00  0.00    +0.000 O 
BRANCH   13   11
ATOM     11  C11 UNL A   1      32.032  22.165  25.908  1.00  0.00    +0.000 C 
ATOM    101  H8  UNL A   1      31.320  21.645  26.514  1.00  0.00    +0.000 H 
BRANCH   11   10
ATOM     99  H6  UNL A   1      30.390  24.855  22.483  1.00  0.00    +0.000 H 
ATOM    100  H7  UNL A   1      31.492  22.881  23.306  1.00  0.00    +0.000 H 
ATOM    133  H40 UNL A   1      30.700  24.093  27.240  1.00  0.00    +0.000 H 
ATOM    134  H41 UNL A   1      29.449  25.985  26.409  1.00  0.00    +0.000 H 
ATOM      7  C7  UNL A   1      29.811  25.606  24.365  1.00  0.00    +0.000 C 
ATOM      8  C8  UNL A   1      30.430  24.689  23.501  1.00  0.00    +0.000 C 
ATOM      9  C9  UNL A   1      31.097  23.558  23.977  1.00  0.00    +0.000 C 
ATOM     10  C10 UNL A   1      31.234  23.330  25.346  1.00  0.00    +0.000 C 
ATOM     88  C65 UNL A   1      30.623  24.241  26.222  1.00  0.00    +0.000 C 
ATOM     89  C66 UNL A   1      29.909  25.348  25.739  1.00  0.00    +0.000 C 
BRANCH    7    6
ATOM     97  H4  UNL A   1      30.593  30.343  21.759  1.00  0.00    +0.000 H 
ATOM      2  C2  UNL A   1      28.536  30.972  21.874  1.00  0.00    +0.000 C 
ATOM      3  C3  UNL A   1      29.623  30.143  22.048  1.00  0.00    +0.000 C 
ATOM      4  C4  UNL A   1      29.171  28.963  22.695  1.00  0.00    +0.000 C 
ATOM      5  C5  UNL A   1      29.811  27.790  23.137  1.00  0.00    +0.000 C 
ATOM     98  H5  UNL A   1      30.820  27.665  22.959  1.00  0.00    +0.000 H 
ATOM      6  C6  UNL A   1      29.097  26.783  23.820  1.00  0.00    +0.000 C 
ATOM    136  H43 UNL A   1      26.023  28.216  23.655  1.00  0.00    +0.000 H 
ATOM    137  H44 UNL A   1      26.519  30.674  22.374  1.00  0.00    +0.000 H 
ATOM    135  H42 UNL A   1      27.172  26.229  24.475  1.00  0.00    +0.000 H 
ATOM     90  C67 UNL A   1      27.714  26.964  23.992  1.00  0.00    +0.000 C 
ATOM     91  C68 UNL A   1      27.042  28.108  23.532  1.00  0.00    +0.000 C 
ATOM     92  C69 UNL A   1      27.803  29.097  22.901  1.00  0.00    +0.000 C 
ATOM     93  N7  UNL A   1      27.438  30.318  22.381  1.00  0.00    +0.000 N 
BRANCH    2    1
ATOM      1  C1  UNL A   1      28.442  32.323  21.272  1.00  0.00    +0.000 C 
ATOM     94  H1  UNL A   1      28.046  32.245  20.281  1.00  0.00    +0.000 H 
ATOM     95  H2  UNL A   1      29.415  32.765  21.234  1.00  0.00    +0.000 H 
ATOM     96  H3  UNL A   1      27.796  32.934  21.866  1.00  0.00    +0.000 H 
ENDBRANCH    2    1
ENDBRANCH    7    6
ENDBRANCH   11   10
BRANCH   11   12
ATOM     12  C12 UNL A   1      32.450  21.093  24.900  1.00  0.00    +0.000 C 
ATOM    102  H9  UNL A   1      31.764  20.272  24.948  1.00  0.00    +0.000 H 
ATOM    103  H10 UNL A   1      33.435  20.747  25.134  1.00  0.00    +0.000 H 
ATOM    104  H11 UNL A   1      32.442  21.507  23.913  1.00  0.00    +0.000 H 
ENDBRANCH   11   12
ENDBRANCH   13   11
ENDBRANCH   15   13
ENDBRANCH   16   15
ENDBRANCH   17   16
ENDBRANCH   18   17
ENDBRANCH   19   18
ENDBRANCH   20   19
ENDBRANCH   21   20
ENDBRANCH   22   21
ENDBRANCH   23   22
ENDBRANCH   25   23
ENDBRANCH   29   28
BRANCH   33   34
ATOM     34  C29 UNL A   1      43.009  24.749  28.080  1.00  0.00    +0.000 C 
ATOM     35  C30 UNL A   1      42.595  23.431  28.318  1.00  0.00    +0.000 C 
ATOM     36  F1  UNL A   1      42.083  23.089  29.509  1.00  0.00    +0.000 F 
ATOM     37  C31 UNL A   1      42.740  22.448  27.342  1.00  0.00    +0.000 C 
ATOM     38  F2  UNL A   1      42.381  21.184  27.608  1.00  0.00    +0.000 F 
ATOM     39  C32 UNL A   1      43.270  22.770  26.102  1.00  0.00    +0.000 C 
ATOM     40  F3  UNL A   1      43.404  21.824  25.163  1.00  0.00    +0.000 F 
ATOM     41  C33 UNL A   1      43.667  24.072  25.838  1.00  0.00    +0.000 C 
ATOM     42  F4  UNL A   1      44.168  24.387  24.636  1.00  0.00    +0.000 F 
ATOM     43  C34 UNL A   1      43.548  25.052  26.820  1.00  0.00    +0.000 C 
ATOM     44  F5  UNL A   1      43.954  26.299  26.540  1.00  0.00    +0.000 F 
ENDBRANCH   33   34
BRANCH   50   51
ATOM     51  C40 UNL A   1      46.590  27.283  33.802  1.00  0.00    +0.000 C 
ATOM     52  C41 UNL A   1      47.768  27.962  33.459  1.00  0.00    +0.000 C 
ATOM     53  F6  UNL A   1      47.772  28.834  32.439  1.00  0.00    +0.000 F 
ATOM     54  C42 UNL A   1      48.957  27.716  34.140  1.00  0.00    +0.000 C 
ATOM     55  F7  UNL A   1      50.082  28.343  33.768  1.00  0.00    +0.000 F 
ATOM     56  C43 UNL A   1      48.984  26.815  35.194  1.00  0.00    +0.000 C 
ATOM     57  F8  UNL A   1      50.128  26.585  35.851  1.00  0.00    +0.000 F 
ATOM     58  C44 UNL A   1      47.825  26.146  35.561  1.00  0.00    +0.000 C 
ATOM     59  F9  UNL A   1      47.847  25.283  36.586  1.00  0.00    +0.000 F 
ATOM     60  C45 UNL A   1      46.641  26.369  34.865  1.00  0.00    +0.000 C 
ATOM     61  F10 UNL A   1      45.539  25.698  35.234  1.00  0.00    +0.000 F 
ENDBRANCH   50   51
BRANCH   65   66
ATOM     66  C49 UNL A   1      41.474  31.876  34.901  1.00  0.00    +0.000 C 
ATOM     67  C50 UNL A   1      42.101  33.125  34.803  1.00  0.00    +0.000 C 
ATOM     68  F11 UNL A   1      42.930  33.379  33.779  1.00  0.00    +0.000 F 
ATOM     69  C51 UNL A   1      41.913  34.103  35.777  1.00  0.00    +0.000 C 
ATOM     70  F12 UNL A   1      42.559  35.273  35.682  1.00  0.00    +0.000 F 
ATOM     71  C52 UNL A   1      41.072  33.861  36.852  1.00  0.00    +0.000 C 
ATOM     72  F13 UNL A   1      40.889  34.803  37.788  1.00  0.00    +0.000 F 
ATOM     73  C53 UNL A   1      40.427  32.638  36.961  1.00  0.00    +0.000 C 
ATOM     74  F14 UNL A   1      39.603  32.405  37.992  1.00  0.00    +0.000 F 
ATOM     75  C54 UNL A   1      40.634  31.649  36.001  1.00  0.00    +0.000 C 
ATOM     76  F15 UNL A   1      40.008  30.472  36.137  1.00  0.00    +0.000 F 
ENDBRANCH   65   66
TORSDOF 19
ENDMDL
MODEL 6
REMARK VINA RESULT:     -11.0     20.017     27.824
ROOT
ATOM    129  H36 UNL A   1      24.834  43.250  48.537  1.00  0.00    +0.000 H 
ATOM    130  H37 UNL A   1      26.597  42.013  47.153  1.00  0.00    +0.000 H 
ATOM     29  C25 UNL A   1      25.904  39.314  46.563  1.00  0.00    +0.000 C 
ATOM     30  C26 UNL A   1      25.058  40.351  47.247  1.00  0.00    +0.000 C 
ATOM     31  N3  UNL A   1      23.837  40.250  47.711  1.00  0.00    +0.000 N 
ATOM     32  C27 UNL A   1      23.546  41.483  48.280  1.00  0.00    +0.000 C 
ATOM     33  C28 UNL A   1      22.388  41.901  48.844  1.00  0.00    +0.000 C 
ATOM     45  C35 UNL A   1      21.200  41.095  48.952  1.00  0.00    +0.000 C 
ATOM     46  C36 UNL A   1      19.963  41.445  49.465  1.00  0.00    +0.000 C 
ATOM     47  C37 UNL A   1      19.126  40.325  49.390  1.00  0.00    +0.000 C 
ATOM     48  C38 UNL A   1      19.830  39.292  48.793  1.00  0.00    +0.000 C 
ATOM     49  N4  UNL A   1      21.104  39.776  48.536  1.00  0.00    +0.000 N 
ATOM     50  C39 UNL A   1      19.377  37.961  48.480  1.00  0.00    +0.000 C 
ATOM     62  C46 UNL A   1      20.131  37.001  47.892  1.00  0.00    +0.000 C 
ATOM     63  N5  UNL A   1      21.448  37.068  47.461  1.00  0.00    +0.000 N 
ATOM     64  C47 UNL A   1      21.728  35.885  46.970  1.00  0.00    +0.000 C 
ATOM     65  C48 UNL A   1      23.001  35.396  46.337  1.00  0.00    +0.000 C 
ATOM     77  C55 UNL A   1      24.040  36.242  46.208  1.00  0.00    +0.000 C 
ATOM     78  C56 UNL A   1      25.332  35.913  45.614  1.00  0.00    +0.000 C 
ATOM     79  C57 UNL A   1      26.138  36.984  45.697  1.00  0.00    +0.000 C 
ATOM     80  C58 UNL A   1      25.405  38.087  46.321  1.00  0.00    +0.000 C 
ATOM     81  N6  UNL A   1      24.166  37.558  46.582  1.00  0.00    +0.000 N 
ATOM     82  C59 UNL A   1      20.622  34.921  47.065  1.00  0.00    +0.000 C 
ATOM     83  C60 UNL A   1      19.662  35.663  47.597  1.00  0.00    +0.000 C 
ATOM     84  C61 UNL A   1      24.734  42.300  48.148  1.00  0.00    +0.000 C 
ATOM     85  C62 UNL A   1      25.674  41.669  47.460  1.00  0.00    +0.000 C 
ATOM    121  H28 UNL A   1      19.702  42.370  49.838  1.00  0.00    +0.000 H 
ATOM    122  H29 UNL A   1      18.151  40.277  49.723  1.00  0.00    +0.000 H 
ATOM    123  H30 UNL A   1      21.831  39.260  48.119  1.00  0.00    +0.000 H 
ATOM    124  H31 UNL A   1      25.585  35.004  45.196  1.00  0.00    +0.000 H 
ATOM    125  H32 UNL A   1      27.117  37.024  45.373  1.00  0.00    +0.000 H 
ATOM    126  H33 UNL A   1      23.437  38.071  46.999  1.00  0.00    +0.000 H 
ATOM    127  H34 UNL A   1      20.600  33.926  46.788  1.00  0.00    +0.000 H 
ATOM    128  H35 UNL A   1      18.702  35.330  47.778  1.00  0.00    +0.000 H 
ENDROOT
BRANCH   29   28
ATOM    131  H38 UNL A   1      26.833  40.514  44.356  1.00  0.00    +0.000 H 
ATOM    132  H39 UNL A   1      29.131  40.926  43.707  1.00  0.00    +0.000 H 
ATOM    120  H27 UNL A   1      28.173  38.770  47.949  1.00  0.00    +0.000 H 
ATOM     86  C63 UNL A   1      27.602  40.250  44.991  1.00  0.00    +0.000 C 
ATOM     87  C64 UNL A   1      28.921  40.524  44.633  1.00  0.00    +0.000 C 
ATOM    119  H26 UNL A   1      30.457  39.366  47.382  1.00  0.00    +0.000 H 
ATOM     25  C21 UNL A   1      29.959  40.254  45.530  1.00  0.00    +0.000 C 
ATOM     26  C22 UNL A   1      29.686  39.602  46.738  1.00  0.00    +0.000 C 
ATOM     27  C23 UNL A   1      28.370  39.271  47.069  1.00  0.00    +0.000 C 
ATOM     28  C24 UNL A   1      27.314  39.617  46.210  1.00  0.00    +0.000 C 
BRANCH   25   23
ATOM     23  C20 UNL A   1      31.362  40.595  45.204  1.00  0.00    +0.000 C 
ATOM     24  O2  UNL A   1      31.908  41.531  45.777  1.00  0.00    +0.000 O 
BRANCH   23   22
ATOM    118  H25 UNL A   1      32.642  40.395  43.676  1.00  0.00    +0.000 H 
ATOM     22  N2  UNL A   1      32.054  39.868  44.266  1.00  0.00    +0.000 N 
BRANCH   22   21
ATOM    117  H24 UNL A   1      31.532  37.963  44.827  1.00  0.00    +0.000 H 
ATOM    116  H23 UNL A   1      33.054  38.092  43.941  1.00  0.00    +0.000 H 
ATOM     21  C19 UNL A   1      32.044  38.436  44.015  1.00  0.00    +0.000 C 
BRANCH   21   20
ATOM    114  H21 UNL A   1      30.688  38.915  42.459  1.00  0.00    +0.000 H 
ATOM    115  H22 UNL A   1      32.062  37.868  41.997  1.00  0.00    +0.000 H 
ATOM     20  C18 UNL A   1      31.307  38.084  42.725  1.00  0.00    +0.000 C 
BRANCH   20   19
ATOM    113  H20 UNL A   1      31.081  36.024  43.030  1.00  0.00    +0.000 H 
ATOM     19  C17 UNL A   1      30.421  36.836  42.807  1.00  0.00    +0.000 C 
ATOM    112  H19 UNL A   1      29.907  36.736  41.874  1.00  0.00    +0.000 H 
BRANCH   19   18
ATOM     18  C16 UNL A   1      29.371  36.839  43.927  1.00  0.00    +0.000 C 
ATOM    110  H17 UNL A   1      29.432  37.779  44.435  1.00  0.00    +0.000 H 
ATOM    111  H18 UNL A   1      28.429  36.670  43.449  1.00  0.00    +0.000 H 
BRANCH   18   17
ATOM     17  C15 UNL A   1      29.522  35.726  44.970  1.00  0.00    +0.000 C 
ATOM    108  H15 UNL A   1      30.477  35.834  45.440  1.00  0.00    +0.000 H 
ATOM    109  H16 UNL A   1      28.710  35.834  45.657  1.00  0.00    +0.000 H 
BRANCH   17   16
ATOM    106  H13 UNL A   1      29.368  34.380  43.325  1.00  0.00    +0.000 H 
ATOM    107  H14 UNL A   1      30.297  33.771  44.698  1.00  0.00    +0.000 H 
ATOM     16  C14 UNL A   1      29.427  34.313  44.391  1.00  0.00    +0.000 C 
BRANCH   16   15
ATOM    105  H12 UNL A   1      27.475  33.664  44.293  1.00  0.00    +0.000 H 
ATOM     15  N1  UNL A   1      28.263  33.602  44.879  1.00  0.00    +0.000 N 
BRANCH   15   13
ATOM     13  C13 UNL A   1      28.070  32.861  46.005  1.00  0.00    +0.000 C 
ATOM     14  O1  UNL A   1      27.417  31.817  45.870  1.00  0.00    +0.000 O 
BRANCH   13   11
ATOM     11  C11 UNL A   1      28.588  33.265  47.393  1.00  0.00    +0.000 C 
ATOM    101  H8  UNL A   1      29.521  33.760  47.219  1.00  0.00    +0.000 H 
BRANCH   11   10
ATOM     99  H6  UNL A   1      27.864  37.438  49.326  1.00  0.00    +0.000 H 
ATOM    100  H7  UNL A   1      29.187  35.863  48.075  1.00  0.00    +0.000 H 
ATOM    133  H40 UNL A   1      26.024  33.115  48.211  1.00  0.00    +0.000 H 
ATOM    134  H41 UNL A   1      24.641  34.758  49.319  1.00  0.00    +0.000 H 
ATOM      7  C7  UNL A   1      26.127  36.251  49.438  1.00  0.00    +0.000 C 
ATOM      8  C8  UNL A   1      27.454  36.525  49.071  1.00  0.00    +0.000 C 
ATOM      9  C9  UNL A   1      28.234  35.602  48.371  1.00  0.00    +0.000 C 
ATOM     10  C10 UNL A   1      27.742  34.333  48.067  1.00  0.00    +0.000 C 
ATOM     88  C65 UNL A   1      26.418  34.043  48.431  1.00  0.00    +0.000 C 
ATOM     89  C66 UNL A   1      25.619  34.992  49.088  1.00  0.00    +0.000 C 
BRANCH    7    6
ATOM     97  H4  UNL A   1      21.211  37.139  51.650  1.00  0.00    +0.000 H 
ATOM      2  C2  UNL A   1      21.591  39.199  52.151  1.00  0.00    +0.000 C 
ATOM      3  C3  UNL A   1      21.864  37.938  51.666  1.00  0.00    +0.000 C 
ATOM      4  C4  UNL A   1      23.202  37.933  51.194  1.00  0.00    +0.000 C 
ATOM      5  C5  UNL A   1      24.017  36.958  50.590  1.00  0.00    +0.000 C 
ATOM     98  H5  UNL A   1      23.651  36.001  50.459  1.00  0.00    +0.000 H 
ATOM      6  C6  UNL A   1      25.326  37.264  50.162  1.00  0.00    +0.000 C 
ATOM    136  H43 UNL A   1      25.409  40.487  51.228  1.00  0.00    +0.000 H 
ATOM    137  H44 UNL A   1      22.828  40.890  52.281  1.00  0.00    +0.000 H 
ATOM    135  H42 UNL A   1      26.770  38.798  50.118  1.00  0.00    +0.000 H 
ATOM     90  C67 UNL A   1      25.809  38.561  50.410  1.00  0.00    +0.000 C 
ATOM     91  C68 UNL A   1      25.031  39.545  51.041  1.00  0.00    +0.000 C 
ATOM     92  C69 UNL A   1      23.725  39.204  51.407  1.00  0.00    +0.000 C 
ATOM     93  N7  UNL A   1      22.733  39.950  52.002  1.00  0.00    +0.000 N 
BRANCH    2    1
ATOM      1  C1  UNL A   1      20.352  39.756  52.742  1.00  0.00    +0.000 C 
ATOM     94  H1  UNL A   1      20.303  39.497  53.780  1.00  0.00    +0.000 H 
ATOM     95  H2  UNL A   1      19.501  39.354  52.234  1.00  0.00    +0.000 H 
ATOM     96  H3  UNL A   1      20.356  40.821  52.642  1.00  0.00    +0.000 H 
ENDBRANCH    2    1
ENDBRANCH    7    6
ENDBRANCH   11   10
BRANCH   11   12
ATOM     12  C12 UNL A   1      29.003  32.086  48.275  1.00  0.00    +0.000 C 
ATOM    102  H9  UNL A   1      30.071  32.043  48.335  1.00  0.00    +0.000 H 
ATOM    103  H10 UNL A   1      28.634  31.175  47.851  1.00  0.00    +0.000 H 
ATOM    104  H11 UNL A   1      28.596  32.212  49.257  1.00  0.00    +0.000 H 
ENDBRANCH   11   12
ENDBRANCH   13   11
ENDBRANCH   15   13
ENDBRANCH   16   15
ENDBRANCH   17   16
ENDBRANCH   18   17
ENDBRANCH   19   18
ENDBRANCH   20   19
ENDBRANCH   21   20
ENDBRANCH   22   21
ENDBRANCH   23   22
ENDBRANCH   25   23
ENDBRANCH   29   28
BRANCH   33   34
ATOM     34  C29 UNL A   1      22.348  43.302  49.383  1.00  0.00    +0.000 C 
ATOM     35  C30 UNL A   1      22.841  43.609  50.660  1.00  0.00    +0.000 C 
ATOM     36  F1  UNL A   1      23.323  42.639  51.448  1.00  0.00    +0.000 F 
ATOM     37  C31 UNL A   1      22.804  44.914  51.146  1.00  0.00    +0.000 C 
ATOM     38  F2  UNL A   1      23.237  45.177  52.387  1.00  0.00    +0.000 F 
ATOM     39  C32 UNL A   1      22.307  45.938  50.355  1.00  0.00    +0.000 C 
ATOM     40  F3  UNL A   1      22.277  47.194  50.823  1.00  0.00    +0.000 F 
ATOM     41  C33 UNL A   1      21.833  45.661  49.082  1.00  0.00    +0.000 C 
ATOM     42  F4  UNL A   1      21.363  46.651  48.312  1.00  0.00    +0.000 F 
ATOM     43  C34 UNL A   1      21.843  44.353  48.602  1.00  0.00    +0.000 C 
ATOM     44  F5  UNL A   1      21.365  44.113  47.372  1.00  0.00    +0.000 F 
ENDBRANCH   33   34
BRANCH   50   51
ATOM     51  C40 UNL A   1      17.956  37.613  48.808  1.00  0.00    +0.000 C 
ATOM     52  C41 UNL A   1      17.013  37.350  47.804  1.00  0.00    +0.000 C 
ATOM     53  F6  UNL A   1      17.356  37.459  46.511  1.00  0.00    +0.000 F 
ATOM     54  C42 UNL A   1      15.701  37.014  48.127  1.00  0.00    +0.000 C 
ATOM     55  F7  UNL A   1      14.804  36.810  47.152  1.00  0.00    +0.000 F 
ATOM     56  C43 UNL A   1      15.317  36.901  49.454  1.00  0.00    +0.000 C 
ATOM     57  F8  UNL A   1      14.055  36.571  49.763  1.00  0.00    +0.000 F 
ATOM     58  C44 UNL A   1      16.239  37.139  50.464  1.00  0.00    +0.000 C 
ATOM     59  F9  UNL A   1      15.872  37.020  51.748  1.00  0.00    +0.000 F 
ATOM     60  C45 UNL A   1      17.543  37.502  50.145  1.00  0.00    +0.000 C 
ATOM     61  F10 UNL A   1      18.410  37.738  51.142  1.00  0.00    +0.000 F 
ENDBRANCH   50   51
BRANCH   65   66
ATOM     66  C49 UNL A   1      23.110  34.005  45.826  1.00  0.00    +0.000 C 
ATOM     67  C50 UNL A   1      23.273  32.929  46.710  1.00  0.00    +0.000 C 
ATOM     68  F11 UNL A   1      23.348  33.153  48.030  1.00  0.00    +0.000 F 
ATOM     69  C51 UNL A   1      23.401  31.624  46.239  1.00  0.00    +0.000 C 
ATOM     70  F12 UNL A   1      23.600  30.619  47.102  1.00  0.00    +0.000 F 
ATOM     71  C52 UNL A   1      23.340  31.368  44.878  1.00  0.00    +0.000 C 
ATOM     72  F13 UNL A   1      23.461  30.112  44.425  1.00  0.00    +0.000 F 
ATOM     73  C53 UNL A   1      23.161  32.414  43.986  1.00  0.00    +0.000 C 
ATOM     74  F14 UNL A   1      23.089  32.168  42.670  1.00  0.00    +0.000 F 
ATOM     75  C54 UNL A   1      23.058  33.723  44.454  1.00  0.00    +0.000 C 
ATOM     76  F15 UNL A   1      22.899  34.717  43.569  1.00  0.00    +0.000 F 
ENDBRANCH   65   66
TORSDOF 19
ENDMDL
MODEL 7
REMARK VINA RESULT:     -10.9      4.159      9.409
ROOT
ATOM    129  H36 UNL A   1      38.678  28.279  30.154  1.00  0.00    +0.000 H 
ATOM    130  H37 UNL A   1      39.366  26.099  29.000  1.00  0.00    +0.000 H 
ATOM     29  C25 UNL A   1      41.882  26.248  27.674  1.00  0.00    +0.000 C 
ATOM     30  C26 UNL A   1      41.237  27.294  28.540  1.00  0.00    +0.000 C 
ATOM     31  N3  UNL A   1      41.678  28.480  28.875  1.00  0.00    +0.000 N 
ATOM     32  C27 UNL A   1      40.678  29.050  29.651  1.00  0.00    +0.000 C 
ATOM     33  C28 UNL A   1      40.678  30.247  30.284  1.00  0.00    +0.000 C 
ATOM     45  C35 UNL A   1      41.775  31.180  30.258  1.00  0.00    +0.000 C 
ATOM     46  C36 UNL A   1      41.890  32.399  30.904  1.00  0.00    +0.000 C 
ATOM     47  C37 UNL A   1      43.121  32.964  30.556  1.00  0.00    +0.000 C 
ATOM     48  C38 UNL A   1      43.791  32.081  29.726  1.00  0.00    +0.000 C 
ATOM     49  N4  UNL A   1      42.950  30.993  29.545  1.00  0.00    +0.000 N 
ATOM     50  C39 UNL A   1      45.099  32.216  29.139  1.00  0.00    +0.000 C 
ATOM     62  C46 UNL A   1      45.688  31.301  28.331  1.00  0.00    +0.000 C 
ATOM     63  N5  UNL A   1      45.203  30.072  27.907  1.00  0.00    +0.000 N 
ATOM     64  C47 UNL A   1      46.134  29.564  27.135  1.00  0.00    +0.000 C 
ATOM     65  C48 UNL A   1      46.161  28.240  26.425  1.00  0.00    +0.000 C 
ATOM     77  C55 UNL A   1      45.122  27.394  26.567  1.00  0.00    +0.000 C 
ATOM     78  C56 UNL A   1      45.008  26.079  25.944  1.00  0.00    +0.000 C 
ATOM     79  C57 UNL A   1      43.822  25.542  26.270  1.00  0.00    +0.000 C 
ATOM     80  C58 UNL A   1      43.105  26.463  27.153  1.00  0.00    +0.000 C 
ATOM     81  N6  UNL A   1      43.957  27.532  27.281  1.00  0.00    +0.000 N 
ATOM     82  C59 UNL A   1      47.305  30.435  26.958  1.00  0.00    +0.000 C 
ATOM     83  C60 UNL A   1      46.999  31.461  27.739  1.00  0.00    +0.000 C 
ATOM     84  C61 UNL A   1      39.587  28.101  29.698  1.00  0.00    +0.000 C 
ATOM     85  C62 UNL A   1      39.907  26.973  29.080  1.00  0.00    +0.000 C 
ATOM    121  H28 UNL A   1      41.189  32.817  31.534  1.00  0.00    +0.000 H 
ATOM    122  H29 UNL A   1      43.471  33.885  30.865  1.00  0.00    +0.000 H 
ATOM    123  H30 UNL A   1      43.157  30.204  28.993  1.00  0.00    +0.000 H 
ATOM    124  H31 UNL A   1      45.725  25.634  25.351  1.00  0.00    +0.000 H 
ATOM    125  H32 UNL A   1      43.471  24.626  25.949  1.00  0.00    +0.000 H 
ATOM    126  H33 UNL A   1      43.753  28.322  27.832  1.00  0.00    +0.000 H 
ATOM    127  H34 UNL A   1      48.146  30.285  26.378  1.00  0.00    +0.000 H 
ATOM    128  H35 UNL A   1      47.618  32.270  27.904  1.00  0.00    +0.000 H 
ENDROOT
BRANCH   29   28
ATOM    131  H38 UNL A   1      39.770  25.963  26.052  1.00  0.00    +0.000 H 
ATOM    132  H39 UNL A   1      38.491  23.964  25.565  1.00  0.00    +0.000 H 
ATOM    120  H27 UNL A   1      42.306  23.717  28.557  1.00  0.00    +0.000 H 
ATOM     86  C63 UNL A   1      40.051  25.060  26.465  1.00  0.00    +0.000 C 
ATOM     87  C64 UNL A   1      39.337  23.904  26.151  1.00  0.00    +0.000 C 
ATOM    119  H26 UNL A   1      41.143  21.687  27.907  1.00  0.00    +0.000 H 
ATOM     25  C21 UNL A   1      39.770  22.665  26.632  1.00  0.00    +0.000 C 
ATOM     26  C22 UNL A   1      40.848  22.598  27.521  1.00  0.00    +0.000 C 
ATOM     27  C23 UNL A   1      41.525  23.765  27.883  1.00  0.00    +0.000 C 
ATOM     28  C24 UNL A   1      41.148  25.002  27.337  1.00  0.00    +0.000 C 
BRANCH   25   23
ATOM     23  C20 UNL A   1      39.070  21.413  26.262  1.00  0.00    +0.000 C 
ATOM     24  O2  UNL A   1      39.687  20.354  26.249  1.00  0.00    +0.000 O 
BRANCH   23   22
ATOM    118  H25 UNL A   1      37.128  21.683  26.670  1.00  0.00    +0.000 H 
ATOM     22  N2  UNL A   1      37.736  21.433  25.936  1.00  0.00    +0.000 N 
BRANCH   22   21
ATOM    117  H24 UNL A   1      37.683  20.410  24.156  1.00  0.00    +0.000 H 
ATOM    116  H23 UNL A   1      37.014  22.043  24.101  1.00  0.00    +0.000 H 
ATOM     21  C19 UNL A   1      37.090  21.139  24.667  1.00  0.00    +0.000 C 
BRANCH   21   20
ATOM    114  H21 UNL A   1      35.562  19.764  24.151  1.00  0.00    +0.000 H 
ATOM    115  H22 UNL A   1      35.636  20.232  25.875  1.00  0.00    +0.000 H 
ATOM     20  C18 UNL A   1      35.690  20.557  24.857  1.00  0.00    +0.000 C 
BRANCH   20   19
ATOM    113  H20 UNL A   1      33.698  21.129  25.162  1.00  0.00    +0.000 H 
ATOM     19  C17 UNL A   1      34.544  21.556  24.664  1.00  0.00    +0.000 C 
ATOM    112  H19 UNL A   1      34.404  21.696  23.612  1.00  0.00    +0.000 H 
BRANCH   19   18
ATOM     18  C16 UNL A   1      34.750  22.937  25.300  1.00  0.00    +0.000 C 
ATOM    110  H17 UNL A   1      35.764  23.232  25.129  1.00  0.00    +0.000 H 
ATOM    111  H18 UNL A   1      34.031  23.584  24.842  1.00  0.00    +0.000 H 
BRANCH   18   17
ATOM     17  C15 UNL A   1      34.485  23.010  26.808  1.00  0.00    +0.000 C 
ATOM    108  H15 UNL A   1      35.324  22.584  27.318  1.00  0.00    +0.000 H 
ATOM    109  H16 UNL A   1      34.338  24.043  27.047  1.00  0.00    +0.000 H 
BRANCH   17   16
ATOM    106  H13 UNL A   1      32.991  21.516  26.531  1.00  0.00    +0.000 H 
ATOM    107  H14 UNL A   1      33.417  21.836  28.214  1.00  0.00    +0.000 H 
ATOM     16  C14 UNL A   1      33.224  22.268  27.255  1.00  0.00    +0.000 C 
BRANCH   16   15
ATOM    105  H12 UNL A   1      32.053  23.648  28.239  1.00  0.00    +0.000 H 
ATOM     15  N1  UNL A   1      32.087  23.156  27.386  1.00  0.00    +0.000 N 
BRANCH   15   13
ATOM     13  C13 UNL A   1      31.059  23.432  26.537  1.00  0.00    +0.000 C 
ATOM     14  O1  UNL A   1      30.071  22.691  26.612  1.00  0.00    +0.000 O 
BRANCH   13   11
ATOM     11  C11 UNL A   1      31.084  24.571  25.507  1.00  0.00    +0.000 C 
ATOM    101  H8  UNL A   1      30.070  24.901  25.418  1.00  0.00    +0.000 H 
BRANCH   11   10
ATOM     99  H6  UNL A   1      31.440  28.582  27.843  1.00  0.00    +0.000 H 
ATOM    100  H7  UNL A   1      30.308  26.537  27.271  1.00  0.00    +0.000 H 
ATOM    133  H40 UNL A   1      33.568  25.413  24.887  1.00  0.00    +0.000 H 
ATOM    134  H41 UNL A   1      34.770  27.386  25.595  1.00  0.00    +0.000 H 
ATOM      7  C7  UNL A   1      33.212  28.178  26.778  1.00  0.00    +0.000 C 
ATOM      8  C8  UNL A   1      31.913  27.900  27.230  1.00  0.00    +0.000 C 
ATOM      9  C9  UNL A   1      31.242  26.727  26.875  1.00  0.00    +0.000 C 
ATOM     10  C10 UNL A   1      31.816  25.811  25.994  1.00  0.00    +0.000 C 
ATOM     88  C65 UNL A   1      33.114  26.078  25.532  1.00  0.00    +0.000 C 
ATOM     89  C66 UNL A   1      33.806  27.231  25.932  1.00  0.00    +0.000 C 
BRANCH    7    6
ATOM     97  H4  UNL A   1      32.380  33.498  27.702  1.00  0.00    +0.000 H 
ATOM      2  C2  UNL A   1      34.453  33.960  28.064  1.00  0.00    +0.000 C 
ATOM      3  C3  UNL A   1      33.356  33.173  27.786  1.00  0.00    +0.000 C 
ATOM      4  C4  UNL A   1      33.807  31.836  27.636  1.00  0.00    +0.000 C 
ATOM      5  C5  UNL A   1      33.164  30.620  27.338  1.00  0.00    +0.000 C 
ATOM     98  H5  UNL A   1      32.138  30.603  27.224  1.00  0.00    +0.000 H 
ATOM      6  C6  UNL A   1      33.898  29.424  27.192  1.00  0.00    +0.000 C 
ATOM    136  H43 UNL A   1      36.967  30.683  27.916  1.00  0.00    +0.000 H 
ATOM    137  H44 UNL A   1      36.469  33.428  28.302  1.00  0.00    +0.000 H 
ATOM    135  H42 UNL A   1      35.835  28.607  27.325  1.00  0.00    +0.000 H 
ATOM     90  C67 UNL A   1      35.285  29.476  27.412  1.00  0.00    +0.000 C 
ATOM     91  C68 UNL A   1      35.950  30.668  27.744  1.00  0.00    +0.000 C 
ATOM     92  C69 UNL A   1      35.183  31.834  27.833  1.00  0.00    +0.000 C 
ATOM     93  N7  UNL A   1      35.550  33.132  28.105  1.00  0.00    +0.000 N 
BRANCH    2    1
ATOM      1  C1  UNL A   1      34.556  35.420  28.296  1.00  0.00    +0.000 C 
ATOM     94  H1  UNL A   1      34.950  35.894  27.421  1.00  0.00    +0.000 H 
ATOM     95  H2  UNL A   1      35.206  35.605  29.125  1.00  0.00    +0.000 H 
ATOM     96  H3  UNL A   1      33.586  35.818  28.509  1.00  0.00    +0.000 H 
ENDBRANCH    2    1
ENDBRANCH    7    6
ENDBRANCH   11   10
BRANCH   11   12
ATOM     12  C12 UNL A   1      31.407  24.121  24.081  1.00  0.00    +0.000 C 
ATOM    102  H9  UNL A   1      30.827  24.690  23.386  1.00  0.00    +0.000 H 
ATOM    103  H10 UNL A   1      31.173  23.082  23.973  1.00  0.00    +0.000 H 
ATOM    104  H11 UNL A   1      32.448  24.273  23.885  1.00  0.00    +0.000 H 
ENDBRANCH   11   12
ENDBRANCH   13   11
ENDBRANCH   15   13
ENDBRANCH   16   15
ENDBRANCH   17   16
ENDBRANCH   18   17
ENDBRANCH   19   18
ENDBRANCH   20   19
ENDBRANCH   21   20
ENDBRANCH   22   21
ENDBRANCH   23   22
ENDBRANCH   25   23
ENDBRANCH   29   28
BRANCH   33   34
ATOM     34  C29 UNL A   1      39.453  30.616  31.069  1.00  0.00    +0.000 C 
ATOM     35  C30 UNL A   1      39.257  30.156  32.380  1.00  0.00    +0.000 C 
ATOM     36  F1  UNL A   1      40.152  29.333  32.947  1.00  0.00    +0.000 F 
ATOM     37  C31 UNL A   1      38.120  30.510  33.100  1.00  0.00    +0.000 C 
ATOM     38  F2  UNL A   1      37.931  30.021  34.334  1.00  0.00    +0.000 F 
ATOM     39  C32 UNL A   1      37.175  31.355  32.540  1.00  0.00    +0.000 C 
ATOM     40  F3  UNL A   1      36.083  31.699  33.236  1.00  0.00    +0.000 F 
ATOM     41  C33 UNL A   1      37.358  31.839  31.252  1.00  0.00    +0.000 C 
ATOM     42  F4  UNL A   1      36.452  32.665  30.713  1.00  0.00    +0.000 F 
ATOM     43  C34 UNL A   1      38.481  31.465  30.518  1.00  0.00    +0.000 C 
ATOM     44  F5  UNL A   1      38.623  31.937  29.271  1.00  0.00    +0.000 F 
ENDBRANCH   33   34
BRANCH   50   51
ATOM     51  C40 UNL A   1      45.883  33.453  29.460  1.00  0.00    +0.000 C 
ATOM     52  C41 UNL A   1      46.779  33.496  30.538  1.00  0.00    +0.000 C 
ATOM     53  F6  UNL A   1      46.915  32.433  31.346  1.00  0.00    +0.000 F 
ATOM     54  C42 UNL A   1      47.510  34.649  30.813  1.00  0.00    +0.000 C 
ATOM     55  F7  UNL A   1      48.328  34.683  31.874  1.00  0.00    +0.000 F 
ATOM     56  C43 UNL A   1      47.384  35.765  30.000  1.00  0.00    +0.000 C 
ATOM     57  F8  UNL A   1      48.093  36.871  30.263  1.00  0.00    +0.000 F 
ATOM     58  C44 UNL A   1      46.516  35.738  28.918  1.00  0.00    +0.000 C 
ATOM     59  F9  UNL A   1      46.401  36.812  28.124  1.00  0.00    +0.000 F 
ATOM     60  C45 UNL A   1      45.764  34.597  28.656  1.00  0.00    +0.000 C 
ATOM     61  F10 UNL A   1      44.923  34.604  27.610  1.00  0.00    +0.000 F 
ENDBRANCH   50   51
BRANCH   65   66
ATOM     66  C49 UNL A   1      47.331  27.844  25.599  1.00  0.00    +0.000 C 
ATOM     67  C50 UNL A   1      48.515  27.400  26.203  1.00  0.00    +0.000 C 
ATOM     68  F11 UNL A   1      48.605  27.345  27.540  1.00  0.00    +0.000 F 
ATOM     69  C51 UNL A   1      49.626  27.051  25.438  1.00  0.00    +0.000 C 
ATOM     70  F12 UNL A   1      50.760  26.671  26.041  1.00  0.00    +0.000 F 
ATOM     71  C52 UNL A   1      49.563  27.111  24.054  1.00  0.00    +0.000 C 
ATOM     72  F13 UNL A   1      50.631  26.773  23.317  1.00  0.00    +0.000 F 
ATOM     73  C53 UNL A   1      48.396  27.531  23.434  1.00  0.00    +0.000 C 
ATOM     74  F14 UNL A   1      48.328  27.579  22.096  1.00  0.00    +0.000 F 
ATOM     75  C54 UNL A   1      47.293  27.905  24.199  1.00  0.00    +0.000 C 
ATOM     76  F15 UNL A   1      46.181  28.319  23.574  1.00  0.00    +0.000 F 
ENDBRANCH   65   66
TORSDOF 19
ENDMDL
MODEL 8
REMARK VINA RESULT:     -10.9     21.597     28.907
ROOT
ATOM    129  H36 UNL A   1      25.400  37.707  46.671  1.00  0.00    +0.000 H 
ATOM    130  H37 UNL A   1      23.928  35.654  46.258  1.00  0.00    +0.000 H 
ATOM     29  C25 UNL A   1      21.338  35.847  47.428  1.00  0.00    +0.000 C 
ATOM     30  C26 UNL A   1      22.403  36.906  47.376  1.00  0.00    +0.000 C 
ATOM     31  N3  UNL A   1      22.380  38.129  47.843  1.00  0.00    +0.000 N 
ATOM     32  C27 UNL A   1      23.630  38.664  47.566  1.00  0.00    +0.000 C 
ATOM     33  C28 UNL A   1      24.084  39.919  47.798  1.00  0.00    +0.000 C 
ATOM     45  C35 UNL A   1      23.302  40.965  48.403  1.00  0.00    +0.000 C 
ATOM     46  C36 UNL A   1      23.656  42.283  48.640  1.00  0.00    +0.000 C 
ATOM     47  C37 UNL A   1      22.583  42.916  49.277  1.00  0.00    +0.000 C 
ATOM     48  C38 UNL A   1      21.547  42.006  49.400  1.00  0.00    +0.000 C 
ATOM     49  N4  UNL A   1      22.004  40.810  48.867  1.00  0.00    +0.000 N 
ATOM     50  C39 UNL A   1      20.237  42.209  49.963  1.00  0.00    +0.000 C 
ATOM     62  C46 UNL A   1      19.273  41.261  50.049  1.00  0.00    +0.000 C 
ATOM     63  N5  UNL A   1      19.307  39.940  49.626  1.00  0.00    +0.000 N 
ATOM     64  C47 UNL A   1      18.140  39.431  49.937  1.00  0.00    +0.000 C 
ATOM     65  C48 UNL A   1      17.610  38.046  49.688  1.00  0.00    +0.000 C 
ATOM     77  C55 UNL A   1      18.385  37.150  49.045  1.00  0.00    +0.000 C 
ATOM     78  C56 UNL A   1      18.008  35.775  48.731  1.00  0.00    +0.000 C 
ATOM     79  C57 UNL A   1      19.042  35.164  48.130  1.00  0.00    +0.000 C 
ATOM     80  C58 UNL A   1      20.143  36.117  47.987  1.00  0.00    +0.000 C 
ATOM     81  N6  UNL A   1      19.660  37.272  48.550  1.00  0.00    +0.000 N 
ATOM     82  C59 UNL A   1      17.241  40.369  50.624  1.00  0.00    +0.000 C 
ATOM     83  C60 UNL A   1      17.965  41.479  50.631  1.00  0.00    +0.000 C 
ATOM     84  C61 UNL A   1      24.407  37.618  46.934  1.00  0.00    +0.000 C 
ATOM     85  C62 UNL A   1      23.673  36.532  46.737  1.00  0.00    +0.000 C 
ATOM    121  H28 UNL A   1      24.555  42.721  48.389  1.00  0.00    +0.000 H 
ATOM    122  H29 UNL A   1      22.568  43.897  49.600  1.00  0.00    +0.000 H 
ATOM    123  H30 UNL A   1      21.484  39.976  48.823  1.00  0.00    +0.000 H 
ATOM    124  H31 UNL A   1      17.094  35.343  48.937  1.00  0.00    +0.000 H 
ATOM    125  H32 UNL A   1      19.057  34.181  47.819  1.00  0.00    +0.000 H 
ATOM    126  H33 UNL A   1      20.178  38.108  48.596  1.00  0.00    +0.000 H 
ATOM    127  H34 UNL A   1      16.294  40.206  51.001  1.00  0.00    +0.000 H 
ATOM    128  H35 UNL A   1      17.637  42.384  51.004  1.00  0.00    +0.000 H 
ENDROOT
BRANCH   29   28
ATOM    131  H38 UNL A   1      21.140  34.940  44.916  1.00  0.00    +0.000 H 
ATOM    132  H39 UNL A   1      21.493  32.692  44.083  1.00  0.00    +0.000 H 
ATOM    120  H27 UNL A   1      22.141  33.646  48.798  1.00  0.00    +0.000 H 
ATOM     86  C63 UNL A   1      21.447  34.195  45.561  1.00  0.00    +0.000 C 
ATOM     87  C64 UNL A   1      21.688  32.912  45.071  1.00  0.00    +0.000 C 
ATOM    119  H26 UNL A   1      22.685  31.449  47.921  1.00  0.00    +0.000 H 
ATOM     25  C21 UNL A   1      22.195  31.925  45.921  1.00  0.00    +0.000 C 
ATOM     26  C22 UNL A   1      22.349  32.190  47.286  1.00  0.00    +0.000 C 
ATOM     27  C23 UNL A   1      22.048  33.458  47.787  1.00  0.00    +0.000 C 
ATOM     28  C24 UNL A   1      21.620  34.479  46.923  1.00  0.00    +0.000 C 
BRANCH   25   23
ATOM     23  C20 UNL A   1      22.522  30.572  45.414  1.00  0.00    +0.000 C 
ATOM     24  O2  UNL A   1      21.643  29.721  45.343  1.00  0.00    +0.000 O 
BRANCH   23   22
ATOM    118  H25 UNL A   1      24.001  30.429  44.071  1.00  0.00    +0.000 H 
ATOM     22  N2  UNL A   1      23.803  30.268  45.023  1.00  0.00    +0.000 N 
BRANCH   22   21
ATOM    117  H24 UNL A   1      25.633  29.340  45.130  1.00  0.00    +0.000 H 
ATOM    116  H23 UNL A   1      24.538  28.993  46.471  1.00  0.00    +0.000 H 
ATOM     21  C19 UNL A   1      24.910  29.745  45.808  1.00  0.00    +0.000 C 
BRANCH   21   20
ATOM    114  H21 UNL A   1      24.855  31.300  47.246  1.00  0.00    +0.000 H 
ATOM    115  H22 UNL A   1      26.367  30.346  47.190  1.00  0.00    +0.000 H 
ATOM     20  C18 UNL A   1      25.596  30.833  46.631  1.00  0.00    +0.000 C 
BRANCH   20   19
ATOM    113  H20 UNL A   1      26.378  31.530  44.816  1.00  0.00    +0.000 H 
ATOM     19  C17 UNL A   1      26.287  31.926  45.807  1.00  0.00    +0.000 C 
ATOM    112  H19 UNL A   1      27.225  32.145  46.274  1.00  0.00    +0.000 H 
BRANCH   19   18
ATOM     18  C16 UNL A   1      25.512  33.242  45.662  1.00  0.00    +0.000 C 
ATOM    110  H17 UNL A   1      24.849  33.144  44.828  1.00  0.00    +0.000 H 
ATOM    111  H18 UNL A   1      25.010  33.394  46.594  1.00  0.00    +0.000 H 
BRANCH   18   17
ATOM     17  C15 UNL A   1      26.374  34.489  45.437  1.00  0.00    +0.000 C 
ATOM    108  H15 UNL A   1      25.938  35.061  44.646  1.00  0.00    +0.000 H 
ATOM    109  H16 UNL A   1      26.398  35.020  46.366  1.00  0.00    +0.000 H 
BRANCH   17   16
ATOM    106  H13 UNL A   1      27.931  33.128  44.920  1.00  0.00    +0.000 H 
ATOM    107  H14 UNL A   1      28.060  34.722  44.171  1.00  0.00    +0.000 H 
ATOM     16  C14 UNL A   1      27.827  34.183  45.065  1.00  0.00    +0.000 C 
BRANCH   16   15
ATOM    105  H12 UNL A   1      29.640  34.182  46.042  1.00  0.00    +0.000 H 
ATOM     15  N1  UNL A   1      28.753  34.606  46.095  1.00  0.00    +0.000 N 
BRANCH   15   13
ATOM     13  C13 UNL A   1      28.613  35.488  47.124  1.00  0.00    +0.000 C 
ATOM     14  O1  UNL A   1      28.699  36.688  46.833  1.00  0.00    +0.000 O 
BRANCH   13   11
ATOM     11  C11 UNL A   1      28.384  35.069  48.583  1.00  0.00    +0.000 C 
ATOM    101  H8  UNL A   1      29.094  35.626  49.158  1.00  0.00    +0.000 H 
BRANCH   11   10
ATOM     99  H6  UNL A   1      25.553  38.023  50.803  1.00  0.00    +0.000 H 
ATOM    100  H7  UNL A   1      27.642  37.444  49.758  1.00  0.00    +0.000 H 
ATOM    133  H40 UNL A   1      26.041  33.737  48.635  1.00  0.00    +0.000 H 
ATOM    134  H41 UNL A   1      23.896  34.386  49.537  1.00  0.00    +0.000 H 
ATOM      7  C7  UNL A   1      24.525  36.263  50.267  1.00  0.00    +0.000 C 
ATOM      8  C8  UNL A   1      25.640  37.114  50.321  1.00  0.00    +0.000 C 
ATOM      9  C9  UNL A   1      26.863  36.768  49.742  1.00  0.00    +0.000 C 
ATOM     10  C10 UNL A   1      27.045  35.523  49.140  1.00  0.00    +0.000 C 
ATOM     88  C65 UNL A   1      25.940  34.660  49.082  1.00  0.00    +0.000 C 
ATOM     89  C66 UNL A   1      24.697  35.032  49.619  1.00  0.00    +0.000 C 
BRANCH    7    6
ATOM     97  H4  UNL A   1      21.970  40.502  52.581  1.00  0.00    +0.000 H 
ATOM      2  C2  UNL A   1      20.193  39.400  53.100  1.00  0.00    +0.000 C 
ATOM      3  C3  UNL A   1      21.444  39.613  52.562  1.00  0.00    +0.000 C 
ATOM      4  C4  UNL A   1      21.881  38.396  51.978  1.00  0.00    +0.000 C 
ATOM      5  C5  UNL A   1      23.055  38.005  51.309  1.00  0.00    +0.000 C 
ATOM     98  H5  UNL A   1      23.794  38.703  51.130  1.00  0.00    +0.000 H 
ATOM      6  C6  UNL A   1      23.240  36.675  50.876  1.00  0.00    +0.000 C 
ATOM    136  H43 UNL A   1      20.222  35.459  51.851  1.00  0.00    +0.000 H 
ATOM    137  H44 UNL A   1      19.002  37.671  53.097  1.00  0.00    +0.000 H 
ATOM    135  H42 UNL A   1      22.298  34.793  50.761  1.00  0.00    +0.000 H 
ATOM     90  C67 UNL A   1      22.187  35.767  51.086  1.00  0.00    +0.000 C 
ATOM     91  C68 UNL A   1      20.990  36.137  51.720  1.00  0.00    +0.000 C 
ATOM     92  C69 UNL A   1      20.875  37.456  52.169  1.00  0.00    +0.000 C 
ATOM     93  N7  UNL A   1      19.855  38.092  52.839  1.00  0.00    +0.000 N 
BRANCH    2    1
ATOM      1  C1  UNL A   1      19.290  40.318  53.834  1.00  0.00    +0.000 C 
ATOM     94  H1  UNL A   1      19.559  40.331  54.869  1.00  0.00    +0.000 H 
ATOM     95  H2  UNL A   1      18.280  39.982  53.731  1.00  0.00    +0.000 H 
ATOM     96  H3  UNL A   1      19.380  41.304  53.430  1.00  0.00    +0.000 H 
ENDBRANCH    2    1
ENDBRANCH    7    6
ENDBRANCH   11   10
BRANCH   11   12
ATOM     12  C12 UNL A   1      28.780  33.623  48.890  1.00  0.00    +0.000 C 
ATOM    102  H9  UNL A   1      29.553  33.613  49.629  1.00  0.00    +0.000 H 
ATOM    103  H10 UNL A   1      29.136  33.153  47.996  1.00  0.00    +0.000 H 
ATOM    104  H11 UNL A   1      27.928  33.089  49.257  1.00  0.00    +0.000 H 
ENDBRANCH   11   12
ENDBRANCH   13   11
ENDBRANCH   15   13
ENDBRANCH   16   15
ENDBRANCH   17   16
ENDBRANCH   18   17
ENDBRANCH   19   18
ENDBRANCH   20   19
ENDBRANCH   21   20
ENDBRANCH   22   21
ENDBRANCH   23   22
ENDBRANCH   25   23
ENDBRANCH   29   28
BRANCH   33   34
ATOM     34  C29 UNL A   1      25.493  40.233  47.388  1.00  0.00    +0.000 C 
ATOM     35  C30 UNL A   1      26.523  40.345  48.334  1.00  0.00    +0.000 C 
ATOM     36  F1  UNL A   1      26.255  40.215  49.641  1.00  0.00    +0.000 F 
ATOM     37  C31 UNL A   1      27.828  40.629  47.941  1.00  0.00    +0.000 C 
ATOM     38  F2  UNL A   1      28.787  40.778  48.865  1.00  0.00    +0.000 F 
ATOM     39  C32 UNL A   1      28.135  40.773  46.597  1.00  0.00    +0.000 C 
ATOM     40  F3  UNL A   1      29.393  41.042  46.219  1.00  0.00    +0.000 F 
ATOM     41  C33 UNL A   1      27.137  40.645  45.642  1.00  0.00    +0.000 C 
ATOM     42  F4  UNL A   1      27.434  40.772  44.342  1.00  0.00    +0.000 F 
ATOM     43  C34 UNL A   1      25.825  40.388  46.033  1.00  0.00    +0.000 C 
ATOM     44  F5  UNL A   1      24.879  40.284  45.089  1.00  0.00    +0.000 F 
ENDBRANCH   33   34
BRANCH   50   51
ATOM     51  C40 UNL A   1      19.902  43.577  50.476  1.00  0.00    +0.000 C 
ATOM     52  C41 UNL A   1      19.288  44.538  49.660  1.00  0.00    +0.000 C 
ATOM     53  F6  UNL A   1      19.034  44.265  48.371  1.00  0.00    +0.000 F 
ATOM     54  C42 UNL A   1      18.971  45.799  50.157  1.00  0.00    +0.000 C 
ATOM     55  F7  UNL A   1      18.425  46.718  49.348  1.00  0.00    +0.000 F 
ATOM     56  C43 UNL A   1      19.229  46.111  51.483  1.00  0.00    +0.000 C 
ATOM     57  F8  UNL A   1      18.917  47.324  51.961  1.00  0.00    +0.000 F 
ATOM     58  C44 UNL A   1      19.820  45.169  52.313  1.00  0.00    +0.000 C 
ATOM     59  F9  UNL A   1      20.061  45.466  53.598  1.00  0.00    +0.000 F 
ATOM     60  C45 UNL A   1      20.164  43.917  51.812  1.00  0.00    +0.000 C 
ATOM     61  F10 UNL A   1      20.745  43.030  52.635  1.00  0.00    +0.000 F 
ENDBRANCH   50   51
BRANCH   65   66
ATOM     66  C49 UNL A   1      16.237  37.669  50.113  1.00  0.00    +0.000 C 
ATOM     67  C50 UNL A   1      15.222  37.481  49.166  1.00  0.00    +0.000 C 
ATOM     68  F11 UNL A   1      15.482  37.658  47.862  1.00  0.00    +0.000 F 
ATOM     69  C51 UNL A   1      13.926  37.153  49.556  1.00  0.00    +0.000 C 
ATOM     70  F12 UNL A   1      12.963  37.021  48.634  1.00  0.00    +0.000 F 
ATOM     71  C52 UNL A   1      13.628  36.977  50.899  1.00  0.00    +0.000 C 
ATOM     72  F13 UNL A   1      12.381  36.658  51.275  1.00  0.00    +0.000 F 
ATOM     73  C53 UNL A   1      14.622  37.140  51.853  1.00  0.00    +0.000 C 
ATOM     74  F14 UNL A   1      14.340  36.959  53.151  1.00  0.00    +0.000 F 
ATOM     75  C54 UNL A   1      15.912  37.494  51.465  1.00  0.00    +0.000 C 
ATOM     76  F15 UNL A   1      16.851  37.658  52.409  1.00  0.00    +0.000 F 
ENDBRANCH   65   66
TORSDOF 19
ENDMDL
MODEL 9
REMARK VINA RESULT:     -10.9      4.811     11.531
ROOT
ATOM    129  H36 UNL A   1      41.623  32.699  31.001  1.00  0.00    +0.000 H 
ATOM    130  H37 UNL A   1      39.603  31.386  30.136  1.00  0.00    +0.000 H 
ATOM     29  C25 UNL A   1      40.274  28.846  29.035  1.00  0.00    +0.000 C 
ATOM     30  C26 UNL A   1      41.188  29.815  29.731  1.00  0.00    +0.000 C 
ATOM     31  N3  UNL A   1      42.468  29.712  29.985  1.00  0.00    +0.000 N 
ATOM     32  C27 UNL A   1      42.828  30.899  30.608  1.00  0.00    +0.000 C 
ATOM     33  C28 UNL A   1      44.031  31.257  31.116  1.00  0.00    +0.000 C 
ATOM     45  C35 UNL A   1      45.202  30.419  31.097  1.00  0.00    +0.000 C 
ATOM     46  C36 UNL A   1      46.455  30.673  31.627  1.00  0.00    +0.000 C 
ATOM     47  C37 UNL A   1      47.282  29.582  31.336  1.00  0.00    +0.000 C 
ATOM     48  C38 UNL A   1      46.534  28.632  30.662  1.00  0.00    +0.000 C 
ATOM     49  N4  UNL A   1      45.260  29.162  30.515  1.00  0.00    +0.000 N 
ATOM     50  C39 UNL A   1      46.946  27.337  30.185  1.00  0.00    +0.000 C 
ATOM     62  C46 UNL A   1      46.149  26.460  29.529  1.00  0.00    +0.000 C 
ATOM     63  N5  UNL A   1      44.810  26.585  29.187  1.00  0.00    +0.000 N 
ATOM     64  C47 UNL A   1      44.494  25.479  28.556  1.00  0.00    +0.000 C 
ATOM     65  C48 UNL A   1      43.168  25.056  27.986  1.00  0.00    +0.000 C 
ATOM     77  C55 UNL A   1      42.104  25.872  28.117  1.00  0.00    +0.000 C 
ATOM     78  C56 UNL A   1      40.760  25.597  27.620  1.00  0.00    +0.000 C 
ATOM     79  C57 UNL A   1      39.970  26.649  27.888  1.00  0.00    +0.000 C 
ATOM     80  C58 UNL A   1      40.747  27.659  28.607  1.00  0.00    +0.000 C 
ATOM     81  N6  UNL A   1      42.000  27.109  28.706  1.00  0.00    +0.000 N 
ATOM     82  C59 UNL A   1      45.612  24.538  28.400  1.00  0.00    +0.000 C 
ATOM     83  C60 UNL A   1      46.585  25.166  29.045  1.00  0.00    +0.000 C 
ATOM     84  C61 UNL A   1      41.643  31.730  30.650  1.00  0.00    +0.000 C 
ATOM     85  C62 UNL A   1      40.588  31.081  30.177  1.00  0.00    +0.000 C 
ATOM    121  H28 UNL A   1      46.732  31.520  32.146  1.00  0.00    +0.000 H 
ATOM    122  H29 UNL A   1      48.281  29.499  31.584  1.00  0.00    +0.000 H 
ATOM    123  H30 UNL A   1      44.509  28.711  30.065  1.00  0.00    +0.000 H 
ATOM    124  H31 UNL A   1      40.464  24.732  27.141  1.00  0.00    +0.000 H 
ATOM    125  H32 UNL A   1      38.975  26.732  27.630  1.00  0.00    +0.000 H 
ATOM    126  H33 UNL A   1      42.753  27.556  29.155  1.00  0.00    +0.000 H 
ATOM    127  H34 UNL A   1      45.633  23.626  27.916  1.00  0.00    +0.000 H 
ATOM    128  H35 UNL A   1      47.533  24.782  29.184  1.00  0.00    +0.000 H 
ENDROOT
BRANCH   29   28
ATOM    131  H38 UNL A   1      38.160  28.636  30.665  1.00  0.00    +0.000 H 
ATOM    132  H39 UNL A   1      35.834  29.136  30.205  1.00  0.00    +0.000 H 
ATOM    120  H27 UNL A   1      39.184  29.864  26.768  1.00  0.00    +0.000 H 
ATOM     86  C63 UNL A   1      37.889  29.022  29.748  1.00  0.00    +0.000 C 
ATOM     87  C64 UNL A   1      36.556  29.346  29.500  1.00  0.00    +0.000 C 
ATOM    119  H26 UNL A   1      36.887  30.549  26.385  1.00  0.00    +0.000 H 
ATOM     25  C21 UNL A   1      36.199  29.956  28.293  1.00  0.00    +0.000 C 
ATOM     26  C22 UNL A   1      37.158  30.135  27.290  1.00  0.00    +0.000 C 
ATOM     27  C23 UNL A   1      38.482  29.752  27.517  1.00  0.00    +0.000 C 
ATOM     28  C24 UNL A   1      38.863  29.218  28.758  1.00  0.00    +0.000 C 
BRANCH   25   23
ATOM     23  C20 UNL A   1      34.803  30.372  28.029  1.00  0.00    +0.000 C 
ATOM     24  O2  UNL A   1      34.015  29.572  27.537  1.00  0.00    +0.000 O 
BRANCH   23   22
ATOM    118  H25 UNL A   1      33.745  32.041  27.699  1.00  0.00    +0.000 H 
ATOM     22  N2  UNL A   1      34.387  31.645  28.333  1.00  0.00    +0.000 N 
BRANCH   22   21
ATOM    117  H24 UNL A   1      35.102  31.864  30.246  1.00  0.00    +0.000 H 
ATOM    116  H23 UNL A   1      33.902  33.063  29.754  1.00  0.00    +0.000 H 
ATOM     21  C19 UNL A   1      34.757  32.495  29.453  1.00  0.00    +0.000 C 
BRANCH   21   20
ATOM    114  H21 UNL A   1      35.963  33.497  28.028  1.00  0.00    +0.000 H 
ATOM    115  H22 UNL A   1      35.632  34.399  29.537  1.00  0.00    +0.000 H 
ATOM     20  C18 UNL A   1      35.887  33.458  29.094  1.00  0.00    +0.000 C 
BRANCH   20   19
ATOM    113  H20 UNL A   1      37.955  33.769  29.222  1.00  0.00    +0.000 H 
ATOM     19  C17 UNL A   1      37.262  33.079  29.656  1.00  0.00    +0.000 C 
ATOM    112  H19 UNL A   1      37.450  32.057  29.401  1.00  0.00    +0.000 H 
BRANCH   19   18
ATOM     18  C16 UNL A   1      37.423  33.224  31.175  1.00  0.00    +0.000 C 
ATOM    110  H17 UNL A   1      38.353  33.719  31.362  1.00  0.00    +0.000 H 
ATOM    111  H18 UNL A   1      36.569  33.772  31.513  1.00  0.00    +0.000 H 
BRANCH   18   17
ATOM     17  C15 UNL A   1      37.422  31.909  31.963  1.00  0.00    +0.000 C 
ATOM    108  H15 UNL A   1      36.857  31.187  31.412  1.00  0.00    +0.000 H 
ATOM    109  H16 UNL A   1      38.445  31.623  32.090  1.00  0.00    +0.000 H 
BRANCH   17   16
ATOM    106  H13 UNL A   1      36.801  33.055  33.650  1.00  0.00    +0.000 H 
ATOM    107  H14 UNL A   1      35.828  31.616  33.332  1.00  0.00    +0.000 H 
ATOM     16  C14 UNL A   1      36.817  32.024  33.364  1.00  0.00    +0.000 C 
BRANCH   16   15
ATOM    105  H12 UNL A   1      37.430  30.306  34.319  1.00  0.00    +0.000 H 
ATOM     15  N1  UNL A   1      37.575  31.279  34.347  1.00  0.00    +0.000 N 
BRANCH   15   13
ATOM     13  C13 UNL A   1      38.455  31.688  35.304  1.00  0.00    +0.000 C 
ATOM     14  O1  UNL A   1      37.975  31.956  36.413  1.00  0.00    +0.000 O 
BRANCH   13   11
ATOM     11  C11 UNL A   1      39.963  31.849  35.064  1.00  0.00    +0.000 C 
ATOM    101  H8  UNL A   1      40.370  32.174  35.998  1.00  0.00    +0.000 H 
BRANCH   11   10
ATOM     99  H6  UNL A   1      42.749  28.299  36.206  1.00  0.00    +0.000 H 
ATOM    100  H7  UNL A   1      41.475  30.271  36.736  1.00  0.00    +0.000 H 
ATOM    133  H40 UNL A   1      40.042  30.390  32.799  1.00  0.00    +0.000 H 
ATOM    134  H41 UNL A   1      41.188  28.319  32.315  1.00  0.00    +0.000 H 
ATOM      7  C7  UNL A   1      42.087  28.118  34.213  1.00  0.00    +0.000 C 
ATOM      8  C8  UNL A   1      42.154  28.725  35.478  1.00  0.00    +0.000 C 
ATOM      9  C9  UNL A   1      41.440  29.886  35.779  1.00  0.00    +0.000 C 
ATOM     10  C10 UNL A   1      40.678  30.533  34.806  1.00  0.00    +0.000 C 
ATOM     88  C65 UNL A   1      40.605  29.940  33.536  1.00  0.00    +0.000 C 
ATOM     89  C66 UNL A   1      41.283  28.744  33.251  1.00  0.00    +0.000 C 
BRANCH    7    6
ATOM     97  H4  UNL A   1      42.981  23.066  36.089  1.00  0.00    +0.000 H 
ATOM      2  C2  UNL A   1      44.505  22.587  34.644  1.00  0.00    +0.000 C 
ATOM      3  C3  UNL A   1      43.540  23.348  35.268  1.00  0.00    +0.000 C 
ATOM      4  C4  UNL A   1      43.451  24.587  34.583  1.00  0.00    +0.000 C 
ATOM      5  C5  UNL A   1      42.672  25.745  34.764  1.00  0.00    +0.000 C 
ATOM     98  H5  UNL A   1      41.962  25.767  35.513  1.00  0.00    +0.000 H 
ATOM      6  C6  UNL A   1      42.845  26.876  33.939  1.00  0.00    +0.000 C 
ATOM    136  H43 UNL A   1      45.219  25.581  31.885  1.00  0.00    +0.000 H 
ATOM    137  H44 UNL A   1      45.678  23.017  32.958  1.00  0.00    +0.000 H 
ATOM    135  H42 UNL A   1      43.909  27.599  32.270  1.00  0.00    +0.000 H 
ATOM     90  C67 UNL A   1      43.781  26.787  32.894  1.00  0.00    +0.000 C 
ATOM     91  C68 UNL A   1      44.548  25.632  32.667  1.00  0.00    +0.000 C 
ATOM     92  C69 UNL A   1      44.370  24.555  33.540  1.00  0.00    +0.000 C 
ATOM     93  N7  UNL A   1      44.987  23.325  33.589  1.00  0.00    +0.000 N 
BRANCH    2    1
ATOM      1  C1  UNL A   1      45.010  21.228  34.953  1.00  0.00    +0.000 C 
ATOM     94  H1  UNL A   1      45.483  20.817  34.085  1.00  0.00    +0.000 H 
ATOM     95  H2  UNL A   1      44.193  20.602  35.245  1.00  0.00    +0.000 H 
ATOM     96  H3  UNL A   1      45.719  21.284  35.752  1.00  0.00    +0.000 H 
ENDBRANCH    2    1
ENDBRANCH    7    6
ENDBRANCH   11   10
BRANCH   11   12
ATOM     12  C12 UNL A   1      40.329  33.004  34.129  1.00  0.00    +0.000 C 
ATOM    102  H9  UNL A   1      39.488  33.655  34.019  1.00  0.00    +0.000 H 
ATOM    103  H10 UNL A   1      40.605  32.614  33.171  1.00  0.00    +0.000 H 
ATOM    104  H11 UNL A   1      41.152  33.551  34.541  1.00  0.00    +0.000 H 
ENDBRANCH   11   12
ENDBRANCH   13   11
ENDBRANCH   15   13
ENDBRANCH   16   15
ENDBRANCH   17   16
ENDBRANCH   18   17
ENDBRANCH   19   18
ENDBRANCH   20   19
ENDBRANCH   21   20
ENDBRANCH   22   21
ENDBRANCH   23   22
ENDBRANCH   25   23
ENDBRANCH   29   28
BRANCH   33   34
ATOM     34  C29 UNL A   1      44.140  32.615  31.747  1.00  0.00    +0.000 C 
ATOM     35  C30 UNL A   1      44.472  33.748  30.990  1.00  0.00    +0.000 C 
ATOM     36  F1  UNL A   1      44.744  33.631  29.682  1.00  0.00    +0.000 F 
ATOM     37  C31 UNL A   1      44.563  35.004  31.584  1.00  0.00    +0.000 C 
ATOM     38  F2  UNL A   1      44.928  36.066  30.852  1.00  0.00    +0.000 F 
ATOM     39  C32 UNL A   1      44.292  35.157  32.936  1.00  0.00    +0.000 C 
ATOM     40  F3  UNL A   1      44.376  36.367  33.505  1.00  0.00    +0.000 F 
ATOM     41  C33 UNL A   1      43.942  34.053  33.699  1.00  0.00    +0.000 C 
ATOM     42  F4  UNL A   1      43.669  34.200  35.002  1.00  0.00    +0.000 F 
ATOM     43  C34 UNL A   1      43.876  32.791  33.114  1.00  0.00    +0.000 C 
ATOM     44  F5  UNL A   1      43.549  31.740  33.880  1.00  0.00    +0.000 F 
ENDBRANCH   33   34
BRANCH   50   51
ATOM     51  C40 UNL A   1      48.359  26.913  30.452  1.00  0.00    +0.000 C 
ATOM     52  C41 UNL A   1      48.703  26.179  31.596  1.00  0.00    +0.000 C 
ATOM     53  F6  UNL A   1      47.769  25.882  32.513  1.00  0.00    +0.000 F 
ATOM     54  C42 UNL A   1      50.018  25.781  31.820  1.00  0.00    +0.000 C 
ATOM     55  F7  UNL A   1      50.333  25.118  32.942  1.00  0.00    +0.000 F 
ATOM     56  C43 UNL A   1      51.004  26.079  30.893  1.00  0.00    +0.000 C 
ATOM     57  F8  UNL A   1      52.269  25.690  31.108  1.00  0.00    +0.000 F 
ATOM     58  C44 UNL A   1      50.683  26.790  29.745  1.00  0.00    +0.000 C 
ATOM     59  F9  UNL A   1      51.634  27.070  28.843  1.00  0.00    +0.000 F 
ATOM     60  C45 UNL A   1      49.375  27.213  29.532  1.00  0.00    +0.000 C 
ATOM     61  F10 UNL A   1      49.095  27.909  28.419  1.00  0.00    +0.000 F 
ENDBRANCH   50   51
BRANCH   65   66
ATOM     66  C49 UNL A   1      43.016  23.741  27.313  1.00  0.00    +0.000 C 
ATOM     67  C50 UNL A   1      43.390  23.576  25.972  1.00  0.00    +0.000 C 
ATOM     68  F11 UNL A   1      43.878  24.616  25.280  1.00  0.00    +0.000 F 
ATOM     69  C51 UNL A   1      43.227  22.353  25.326  1.00  0.00    +0.000 C 
ATOM     70  F12 UNL A   1      43.553  22.233  24.032  1.00  0.00    +0.000 F 
ATOM     71  C52 UNL A   1      42.714  21.265  26.015  1.00  0.00    +0.000 C 
ATOM     72  F13 UNL A   1      42.559  20.087  25.393  1.00  0.00    +0.000 F 
ATOM     73  C53 UNL A   1      42.353  21.400  27.347  1.00  0.00    +0.000 C 
ATOM     74  F14 UNL A   1      41.868  20.347  28.020  1.00  0.00    +0.000 F 
ATOM     75  C54 UNL A   1      42.491  22.630  27.988  1.00  0.00    +0.000 C 
ATOM     76  F15 UNL A   1      42.122  22.736  29.273  1.00  0.00    +0.000 F 
ENDBRANCH   65   66
TORSDOF 19
ENDMDL
MODEL 10
REMARK VINA RESULT:     -10.8      2.385      3.334
ROOT
ATOM    129  H36 UNL A   1      40.565  25.100  27.289  1.00  0.00    +0.000 H 
ATOM    130  H37 UNL A   1      39.055  27.156  27.497  1.00  0.00    +0.000 H 
ATOM     29  C25 UNL A   1      40.036  29.121  29.310  1.00  0.00    +0.000 C 
ATOM     30  C26 UNL A   1      40.720  27.859  28.864  1.00  0.00    +0.000 C 
ATOM     31  N3  UNL A   1      41.897  27.392  29.199  1.00  0.00    +0.000 N 
ATOM     32  C27 UNL A   1      42.024  26.177  28.538  1.00  0.00    +0.000 C 
ATOM     33  C28 UNL A   1      43.083  25.334  28.514  1.00  0.00    +0.000 C 
ATOM     45  C35 UNL A   1      44.323  25.569  29.207  1.00  0.00    +0.000 C 
ATOM     46  C36 UNL A   1      45.472  24.797  29.208  1.00  0.00    +0.000 C 
ATOM     47  C37 UNL A   1      46.408  25.407  30.051  1.00  0.00    +0.000 C 
ATOM     48  C38 UNL A   1      45.858  26.579  30.542  1.00  0.00    +0.000 C 
ATOM     49  N4  UNL A   1      44.575  26.662  30.022  1.00  0.00    +0.000 N 
ATOM     50  C39 UNL A   1      46.454  27.550  31.421  1.00  0.00    +0.000 C 
ATOM     62  C46 UNL A   1      45.846  28.679  31.860  1.00  0.00    +0.000 C 
ATOM     63  N5  UNL A   1      44.573  29.152  31.574  1.00  0.00    +0.000 N 
ATOM     64  C47 UNL A   1      44.446  30.273  32.242  1.00  0.00    +0.000 C 
ATOM     65  C48 UNL A   1      43.285  31.228  32.283  1.00  0.00    +0.000 C 
ATOM     77  C55 UNL A   1      42.191  30.968  31.542  1.00  0.00    +0.000 C 
ATOM     78  C56 UNL A   1      40.993  31.800  31.479  1.00  0.00    +0.000 C 
ATOM     79  C57 UNL A   1      40.091  31.208  30.679  1.00  0.00    +0.000 C 
ATOM     80  C58 UNL A   1      40.663  29.970  30.147  1.00  0.00    +0.000 C 
ATOM     81  N6  UNL A   1      41.914  29.914  30.706  1.00  0.00    +0.000 N 
ATOM     82  C59 UNL A   1      45.619  30.622  33.055  1.00  0.00    +0.000 C 
ATOM     83  C60 UNL A   1      46.456  29.639  32.755  1.00  0.00    +0.000 C 
ATOM     84  C61 UNL A   1      40.785  25.956  27.821  1.00  0.00    +0.000 C 
ATOM     85  C62 UNL A   1      39.972  26.995  27.940  1.00  0.00    +0.000 C 
ATOM    121  H28 UNL A   1      45.614  23.923  28.678  1.00  0.00    +0.000 H 
ATOM    122  H29 UNL A   1      47.349  25.044  30.269  1.00  0.00    +0.000 H 
ATOM    123  H30 UNL A   1      43.937  27.390  30.204  1.00  0.00    +0.000 H 
ATOM    124  H31 UNL A   1      40.862  32.698  31.968  1.00  0.00    +0.000 H 
ATOM    125  H32 UNL A   1      39.147  31.569  30.472  1.00  0.00    +0.000 H 
ATOM    126  H33 UNL A   1      42.554  29.187  30.527  1.00  0.00    +0.000 H 
ATOM    127  H34 UNL A   1      45.756  31.423  33.692  1.00  0.00    +0.000 H 
ATOM    128  H35 UNL A   1      47.422  29.568  33.114  1.00  0.00    +0.000 H 
ENDROOT
BRANCH   29   28
ATOM    131  H38 UNL A   1      37.789  28.910  30.752  1.00  0.00    +0.000 H 
ATOM    132  H39 UNL A   1      35.498  29.267  30.050  1.00  0.00    +0.000 H 
ATOM    120  H27 UNL A   1      39.120  29.942  26.890  1.00  0.00    +0.000 H 
ATOM     86  C63 UNL A   1      37.590  29.225  29.790  1.00  0.00    +0.000 C 
ATOM     87  C64 UNL A   1      36.273  29.468  29.401  1.00  0.00    +0.000 C 
ATOM    119  H26 UNL A   1      36.842  30.488  26.255  1.00  0.00    +0.000 H 
ATOM     25  C21 UNL A   1      36.005  29.983  28.129  1.00  0.00    +0.000 C 
ATOM     26  C22 UNL A   1      37.045  30.145  27.208  1.00  0.00    +0.000 C 
ATOM     27  C23 UNL A   1      38.357  29.843  27.578  1.00  0.00    +0.000 C 
ATOM     28  C24 UNL A   1      38.643  29.406  28.882  1.00  0.00    +0.000 C 
BRANCH   25   23
ATOM     23  C20 UNL A   1      34.623  30.313  27.712  1.00  0.00    +0.000 C 
ATOM     24  O2  UNL A   1      33.915  30.998  28.442  1.00  0.00    +0.000 O 
BRANCH   23   22
ATOM    118  H25 UNL A   1      34.808  29.710  25.810  1.00  0.00    +0.000 H 
ATOM     22  N2  UNL A   1      34.132  29.857  26.512  1.00  0.00    +0.000 N 
BRANCH   22   21
ATOM    117  H24 UNL A   1      32.640  29.840  25.101  1.00  0.00    +0.000 H 
ATOM    116  H23 UNL A   1      32.098  30.109  26.761  1.00  0.00    +0.000 H 
ATOM     21  C19 UNL A   1      32.762  29.560  26.127  1.00  0.00    +0.000 C 
BRANCH   21   20
ATOM    114  H21 UNL A   1      32.755  27.743  27.217  1.00  0.00    +0.000 H 
ATOM    115  H22 UNL A   1      31.388  27.976  26.088  1.00  0.00    +0.000 H 
ATOM     20  C18 UNL A   1      32.442  28.071  26.248  1.00  0.00    +0.000 C 
BRANCH   20   19
ATOM    113  H20 UNL A   1      33.842  27.797  24.715  1.00  0.00    +0.000 H 
ATOM     19  C17 UNL A   1      33.118  27.178  25.202  1.00  0.00    +0.000 C 
ATOM    112  H19 UNL A   1      32.357  26.804  24.548  1.00  0.00    +0.000 H 
BRANCH   19   18
ATOM     18  C16 UNL A   1      33.898  25.978  25.754  1.00  0.00    +0.000 C 
ATOM    110  H17 UNL A   1      34.699  26.354  26.356  1.00  0.00    +0.000 H 
ATOM    111  H18 UNL A   1      33.190  25.390  26.299  1.00  0.00    +0.000 H 
BRANCH   18   17
ATOM     17  C15 UNL A   1      34.500  25.045  24.698  1.00  0.00    +0.000 C 
ATOM    108  H15 UNL A   1      33.796  24.944  23.898  1.00  0.00    +0.000 H 
ATOM    109  H16 UNL A   1      35.421  25.487  24.382  1.00  0.00    +0.000 H 
BRANCH   17   16
ATOM    106  H13 UNL A   1      34.505  22.922  24.507  1.00  0.00    +0.000 H 
ATOM    107  H14 UNL A   1      35.895  23.594  25.365  1.00  0.00    +0.000 H 
ATOM     16  C14 UNL A   1      34.836  23.647  25.221  1.00  0.00    +0.000 C 
BRANCH   16   15
ATOM    105  H12 UNL A   1      34.546  23.908  27.243  1.00  0.00    +0.000 H 
ATOM     15  N1  UNL A   1      34.199  23.374  26.493  1.00  0.00    +0.000 N 
BRANCH   15   13
ATOM     13  C13 UNL A   1      33.203  22.509  26.833  1.00  0.00    +0.000 C 
ATOM     14  O1  UNL A   1      33.250  22.041  27.978  1.00  0.00    +0.000 O 
BRANCH   13   11
ATOM     11  C11 UNL A   1      32.078  22.085  25.878  1.00  0.00    +0.000 C 
ATOM    101  H8  UNL A   1      31.365  21.567  26.485  1.00  0.00    +0.000 H 
BRANCH   11   10
ATOM     99  H6  UNL A   1      30.470  24.820  22.471  1.00  0.00    +0.000 H 
ATOM    100  H7  UNL A   1      31.568  22.837  23.280  1.00  0.00    +0.000 H 
ATOM    133  H40 UNL A   1      30.723  23.989  27.221  1.00  0.00    +0.000 H 
ATOM    134  H41 UNL A   1      29.477  25.890  26.401  1.00  0.00    +0.000 H 
ATOM      7  C7  UNL A   1      29.866  25.542  24.356  1.00  0.00    +0.000 C 
ATOM      8  C8  UNL A   1      30.498  24.639  23.487  1.00  0.00    +0.000 C 
ATOM      9  C9  UNL A   1      31.162  23.503  23.955  1.00  0.00    +0.000 C 
ATOM     10  C10 UNL A   1      31.283  23.256  25.323  1.00  0.00    +0.000 C 
ATOM     88  C65 UNL A   1      30.659  24.152  26.204  1.00  0.00    +0.000 C 
ATOM     89  C66 UNL A   1      29.948  25.264  25.728  1.00  0.00    +0.000 C 
BRANCH    7    6
ATOM     97  H4  UNL A   1      30.675  30.367  21.926  1.00  0.00    +0.000 H 
ATOM      2  C2  UNL A   1      28.606  30.963  21.980  1.00  0.00    +0.000 C 
ATOM      3  C3  UNL A   1      29.698  30.144  22.171  1.00  0.00    +0.000 C 
ATOM      4  C4  UNL A   1      29.240  28.939  22.764  1.00  0.00    +0.000 C 
ATOM      5  C5  UNL A   1      29.880  27.762  23.196  1.00  0.00    +0.000 C 
ATOM     98  H5  UNL A   1      30.897  27.656  23.053  1.00  0.00    +0.000 H 
ATOM      6  C6  UNL A   1      29.155  26.724  23.819  1.00  0.00    +0.000 C 
ATOM    136  H43 UNL A   1      26.068  28.118  23.578  1.00  0.00    +0.000 H 
ATOM    137  H44 UNL A   1      26.576  30.622  22.391  1.00  0.00    +0.000 H 
ATOM    135  H42 UNL A   1      27.216  26.124  24.382  1.00  0.00    +0.000 H 
ATOM     90  C67 UNL A   1      27.764  26.881  23.943  1.00  0.00    +0.000 C 
ATOM     91  C68 UNL A   1      27.093  28.029  23.491  1.00  0.00    +0.000 C 
ATOM     92  C69 UNL A   1      27.863  29.047  22.921  1.00  0.00    +0.000 C 
ATOM     93  N7  UNL A   1      27.499  30.278  22.424  1.00  0.00    +0.000 N 
BRANCH    2    1
ATOM      1  C1  UNL A   1      28.514  32.330  21.415  1.00  0.00    +0.000 C 
ATOM     94  H1  UNL A   1      29.466  32.616  21.018  1.00  0.00    +0.000 H 
ATOM     95  H2  UNL A   1      28.228  33.016  22.184  1.00  0.00    +0.000 H 
ATOM     96  H3  UNL A   1      27.784  32.345  20.634  1.00  0.00    +0.000 H 
ENDBRANCH    2    1
ENDBRANCH    7    6
ENDBRANCH   11   10
BRANCH   11   12
ATOM     12  C12 UNL A   1      32.485  21.013  24.865  1.00  0.00    +0.000 C 
ATOM    102  H9  UNL A   1      31.796  20.196  24.913  1.00  0.00    +0.000 H 
ATOM    103  H10 UNL A   1      33.470  20.661  25.094  1.00  0.00    +0.000 H 
ATOM    104  H11 UNL A   1      32.476  21.430  23.879  1.00  0.00    +0.000 H 
ENDBRANCH   11   12
ENDBRANCH   13   11
ENDBRANCH   15   13
ENDBRANCH   16   15
ENDBRANCH   17   16
ENDBRANCH   18   17
ENDBRANCH   19   18
ENDBRANCH   20   19
ENDBRANCH   21   20
ENDBRANCH   22   21
ENDBRANCH   23   22
ENDBRANCH   25   23
ENDBRANCH   29   28
BRANCH   33   34
ATOM     34  C29 UNL A   1      42.949  24.077  27.704  1.00  0.00    +0.000 C 
ATOM     35  C30 UNL A   1      42.510  22.877  28.282  1.00  0.00    +0.000 C 
ATOM     36  F1  UNL A   1      42.240  22.819  29.594  1.00  0.00    +0.000 F 
ATOM     37  C31 UNL A   1      42.383  21.719  27.519  1.00  0.00    +0.000 C 
ATOM     38  F2  UNL A   1      42.007  20.573  28.102  1.00  0.00    +0.000 F 
ATOM     39  C32 UNL A   1      42.659  21.747  26.160  1.00  0.00    +0.000 C 
ATOM     40  F3  UNL A   1      42.531  20.633  25.426  1.00  0.00    +0.000 F 
ATOM     41  C33 UNL A   1      43.074  22.928  25.563  1.00  0.00    +0.000 C 
ATOM     42  F4  UNL A   1      43.330  22.959  24.249  1.00  0.00    +0.000 F 
ATOM     43  C34 UNL A   1      43.229  24.082  26.329  1.00  0.00    +0.000 C 
ATOM     44  F5  UNL A   1      43.646  25.204  25.726  1.00  0.00    +0.000 F 
ENDBRANCH   33   34
BRANCH   50   51
ATOM     51  C40 UNL A   1      47.864  27.312  31.871  1.00  0.00    +0.000 C 
ATOM     52  C41 UNL A   1      48.151  26.564  33.023  1.00  0.00    +0.000 C 
ATOM     53  F6  UNL A   1      47.154  26.086  33.783  1.00  0.00    +0.000 F 
ATOM     54  C42 UNL A   1      49.467  26.340  33.418  1.00  0.00    +0.000 C 
ATOM     55  F7  UNL A   1      49.719  25.660  34.545  1.00  0.00    +0.000 F 
ATOM     56  C43 UNL A   1      50.517  26.828  32.655  1.00  0.00    +0.000 C 
ATOM     57  F8  UNL A   1      51.783  26.606  33.035  1.00  0.00    +0.000 F 
ATOM     58  C44 UNL A   1      50.255  27.555  31.503  1.00  0.00    +0.000 C 
ATOM     59  F9  UNL A   1      51.269  28.019  30.759  1.00  0.00    +0.000 F 
ATOM     60  C45 UNL A   1      48.942  27.805  31.120  1.00  0.00    +0.000 C 
ATOM     61  F10 UNL A   1      48.718  28.521  30.007  1.00  0.00    +0.000 F 
ENDBRANCH   50   51
BRANCH   65   66
ATOM     66  C49 UNL A   1      43.348  32.465  33.104  1.00  0.00    +0.000 C 
ATOM     67  C50 UNL A   1      43.885  33.647  32.576  1.00  0.00    +0.000 C 
ATOM     68  F11 UNL A   1      44.364  33.664  31.323  1.00  0.00    +0.000 F 
ATOM     69  C51 UNL A   1      43.971  34.805  33.346  1.00  0.00    +0.000 C 
ATOM     70  F12 UNL A   1      44.528  35.909  32.831  1.00  0.00    +0.000 F 
ATOM     71  C52 UNL A   1      43.495  34.810  34.648  1.00  0.00    +0.000 C 
ATOM     72  F13 UNL A   1      43.576  35.925  35.388  1.00  0.00    +0.000 F 
ATOM     73  C53 UNL A   1      42.944  33.657  35.186  1.00  0.00    +0.000 C 
ATOM     74  F14 UNL A   1      42.471  33.663  36.440  1.00  0.00    +0.000 F 
ATOM     75  C54 UNL A   1      42.881  32.491  34.425  1.00  0.00    +0.000 C 
ATOM     76  F15 UNL A   1      42.354  31.387  34.974  1.00  0.00    +0.000 F 
ENDBRANCH   65   66
TORSDOF 19
ENDMDL
