MODEL 1
REMARK VINA RESULT:     -10.8      0.000      0.000
ROOT
ATOM    129  H39 UNL A   1      39.900  29.809  31.885  1.00  0.00    +0.000 H 
ATOM    130  H40 UNL A   1      41.449  31.053  36.504  1.00  0.00    +0.000 H 
ATOM    131  H41 UNL A   1      43.568  29.700  36.020  1.00  0.00    +0.000 H 
ATOM    132  H42 UNL A   1      39.996  27.149  26.980  1.00  0.00    +0.000 H 
ATOM    133  H43 UNL A   1      38.047  28.780  27.294  1.00  0.00    +0.000 H 
ATOM     31  C26 UNL A   1      37.971  29.994  29.870  1.00  0.00    +0.000 C 
ATOM     32  C27 UNL A   1      39.024  29.075  29.319  1.00  0.00    +0.000 C 
ATOM     33  N3  UNL A   1      40.120  28.639  29.886  1.00  0.00    +0.000 N 
ATOM     34  C28 UNL A   1      40.716  27.798  28.957  1.00  0.00    +0.000 C 
ATOM     35  C29 UNL A   1      41.902  27.150  29.044  1.00  0.00    +0.000 C 
ATOM     47  C36 UNL A   1      42.784  27.223  30.177  1.00  0.00    +0.000 C 
ATOM     48  C37 UNL A   1      44.024  26.631  30.345  1.00  0.00    +0.000 C 
ATOM     49  C38 UNL A   1      44.497  26.960  31.620  1.00  0.00    +0.000 C 
ATOM     50  C39 UNL A   1      43.570  27.789  32.230  1.00  0.00    +0.000 C 
ATOM     51  N4  UNL A   1      42.522  27.937  31.337  1.00  0.00    +0.000 N 
ATOM     52  C40 UNL A   1      43.635  28.397  33.534  1.00  0.00    +0.000 C 
ATOM     64  C47 UNL A   1      42.691  29.216  34.059  1.00  0.00    +0.000 C 
ATOM     65  N5  UNL A   1      41.497  29.644  33.495  1.00  0.00    +0.000 N 
ATOM     66  C48 UNL A   1      40.928  30.409  34.394  1.00  0.00    +0.000 C 
ATOM     67  C49 UNL A   1      39.626  31.156  34.313  1.00  0.00    +0.000 C 
ATOM     79  C56 UNL A   1      38.880  31.066  33.195  1.00  0.00    +0.000 C 
ATOM     80  C57 UNL A   1      37.602  31.735  32.971  1.00  0.00    +0.000 C 
ATOM     81  C58 UNL A   1      37.137  31.396  31.757  1.00  0.00    +0.000 C 
ATOM     82  C59 UNL A   1      38.103  30.511  31.106  1.00  0.00    +0.000 C 
ATOM     83  N6  UNL A   1      39.102  30.365  32.035  1.00  0.00    +0.000 N 
ATOM     84  C60 UNL A   1      41.690  30.538  35.644  1.00  0.00    +0.000 C 
ATOM     85  C61 UNL A   1      42.771  29.817  35.374  1.00  0.00    +0.000 C 
ATOM     86  C62 UNL A   1      39.838  27.745  27.807  1.00  0.00    +0.000 C 
ATOM     87  C63 UNL A   1      38.806  28.561  27.958  1.00  0.00    +0.000 C 
ATOM    124  H34 UNL A   1      44.514  26.047  29.650  1.00  0.00    +0.000 H 
ATOM    125  H35 UNL A   1      45.385  26.639  32.035  1.00  0.00    +0.000 H 
ATOM    126  H36 UNL A   1      41.710  28.471  31.501  1.00  0.00    +0.000 H 
ATOM    127  H37 UNL A   1      37.132  32.367  33.637  1.00  0.00    +0.000 H 
ATOM    128  H38 UNL A   1      36.242  31.709  31.350  1.00  0.00    +0.000 H 
ENDROOT
BRANCH   31   30
ATOM    134  H44 UNL A   1      36.019  28.318  29.129  1.00  0.00    +0.000 H 
ATOM    135  H45 UNL A   1      34.087  28.767  27.735  1.00  0.00    +0.000 H 
ATOM    123  H33 UNL A   1      37.198  32.348  28.775  1.00  0.00    +0.000 H 
ATOM     88  C64 UNL A   1      35.850  29.272  28.774  1.00  0.00    +0.000 C 
ATOM     89  C65 UNL A   1      34.719  29.536  28.005  1.00  0.00    +0.000 C 
ATOM    122  H32 UNL A   1      35.166  32.830  27.536  1.00  0.00    +0.000 H 
ATOM     27  C22 UNL A   1      34.443  30.845  27.599  1.00  0.00    +0.000 C 
ATOM     28  C23 UNL A   1      35.353  31.871  27.869  1.00  0.00    +0.000 C 
ATOM     29  C24 UNL A   1      36.515  31.595  28.592  1.00  0.00    +0.000 C 
ATOM     30  C25 UNL A   1      36.760  30.298  29.070  1.00  0.00    +0.000 C 
BRANCH   27   25
ATOM     25  C21 UNL A   1      33.207  31.168  26.855  1.00  0.00    +0.000 C 
ATOM     26  O3  UNL A   1      32.568  32.176  27.147  1.00  0.00    +0.000 O 
BRANCH   25   24
ATOM    121  H31 UNL A   1      33.282  30.394  25.010  1.00  0.00    +0.000 H 
ATOM     24  N2  UNL A   1      32.772  30.341  25.851  1.00  0.00    +0.000 N 
BRANCH   24   23
ATOM    119  H29 UNL A   1      31.152  29.473  26.788  1.00  0.00    +0.000 H 
ATOM     23  C20 UNL A   1      31.667  29.399  25.852  1.00  0.00    +0.000 C 
ATOM    120  H30 UNL A   1      31.024  29.645  25.034  1.00  0.00    +0.000 H 
BRANCH   23   22
ATOM    118  H28 UNL A   1      31.308  27.337  25.932  1.00  0.00    +0.000 H 
ATOM    117  H27 UNL A   1      32.998  27.807  26.275  1.00  0.00    +0.000 H 
ATOM     22  C19 UNL A   1      32.136  27.960  25.662  1.00  0.00    +0.000 C 
BRANCH   22   21
ATOM    115  H25 UNL A   1      33.089  28.379  23.814  1.00  0.00    +0.000 H 
ATOM    116  H26 UNL A   1      33.024  26.652  24.288  1.00  0.00    +0.000 H 
ATOM     21  C18 UNL A   1      32.502  27.584  24.224  1.00  0.00    +0.000 C 
BRANCH   21   20
ATOM    113  H23 UNL A   1      30.418  27.566  23.817  1.00  0.00    +0.000 H 
ATOM    114  H24 UNL A   1      31.480  27.967  22.432  1.00  0.00    +0.000 H 
ATOM     20  C17 UNL A   1      31.317  27.339  23.282  1.00  0.00    +0.000 C 
BRANCH   20   19
ATOM     19  C16 UNL A   1      31.197  25.912  22.739  1.00  0.00    +0.000 C 
ATOM    111  H21 UNL A   1      30.720  25.957  21.783  1.00  0.00    +0.000 H 
ATOM    112  H22 UNL A   1      32.191  25.519  22.689  1.00  0.00    +0.000 H 
BRANCH   19   18
ATOM     18  C15 UNL A   1      30.396  24.967  23.631  1.00  0.00    +0.000 C 
ATOM    109  H19 UNL A   1      30.120  25.484  24.527  1.00  0.00    +0.000 H 
ATOM    110  H20 UNL A   1      29.528  24.651  23.089  1.00  0.00    +0.000 H 
BRANCH   18   17
ATOM     17  N1  UNL A   1      31.162  23.786  23.985  1.00  0.00    +0.000 N 
ATOM    108  H18 UNL A   1      31.502  23.280  23.213  1.00  0.00    +0.000 H 
BRANCH   17   15
ATOM     15  C14 UNL A   1      31.501  23.250  25.198  1.00  0.00    +0.000 C 
ATOM     16  O2  UNL A   1      30.565  22.812  25.874  1.00  0.00    +0.000 O 
BRANCH   15   13
ATOM      2  C2  UNL A   1      36.964  20.566  25.149  1.00  0.00    +0.000 C 
ATOM      3  C3  UNL A   1      35.564  20.725  24.995  1.00  0.00    +0.000 C 
ATOM      5  C5  UNL A   1      34.984  21.990  25.205  1.00  0.00    +0.000 C 
ATOM      6  C6  UNL A   1      35.778  23.109  25.513  1.00  0.00    +0.000 C 
ATOM      7  C7  UNL A   1      37.165  22.950  25.713  1.00  0.00    +0.000 C 
ATOM    101  H11 UNL A   1      35.703  25.180  25.103  1.00  0.00    +0.000 H 
ATOM      9  C9  UNL A   1      37.734  21.680  25.532  1.00  0.00    +0.000 C 
ATOM    102  H12 UNL A   1      35.144  24.721  26.708  1.00  0.00    +0.000 H 
ATOM     11  C10 UNL A   1      35.143  24.465  25.669  1.00  0.00    +0.000 C 
ATOM     12  C11 UNL A   1      33.710  24.460  25.179  1.00  0.00    +0.000 C 
ATOM     13  C12 UNL A   1      32.976  23.221  25.694  1.00  0.00    +0.000 C 
ATOM    103  H13 UNL A   1      33.704  24.454  24.108  1.00  0.00    +0.000 H 
ATOM    104  H14 UNL A   1      33.215  25.336  25.543  1.00  0.00    +0.000 H 
ATOM     90  O4  UNL A   1      33.614  22.068  25.094  1.00  0.00    +0.000 O 
BRANCH    2    1
ATOM      1  C1  UNL A   1      37.586  19.218  24.882  1.00  0.00    +0.000 C 
ATOM     91  H1  UNL A   1      37.101  18.477  25.482  1.00  0.00    +0.000 H 
ATOM     92  H2  UNL A   1      38.626  19.250  25.126  1.00  0.00    +0.000 H 
ATOM     93  H3  UNL A   1      37.469  18.971  23.847  1.00  0.00    +0.000 H 
ENDBRANCH    2    1
BRANCH    3    4
ATOM      4  C4  UNL A   1      34.699  19.542  24.629  1.00  0.00    +0.000 C 
ATOM     94  H4  UNL A   1      33.671  19.785  24.801  1.00  0.00    +0.000 H 
ATOM     95  H5  UNL A   1      34.971  18.700  25.231  1.00  0.00    +0.000 H 
ATOM     96  H6  UNL A   1      34.840  19.302  23.595  1.00  0.00    +0.000 H 
ENDBRANCH    3    4
BRANCH    7    8
ATOM     97  H7  UNL A   1      37.395  24.875  26.575  1.00  0.00    +0.000 H 
ATOM     98  H8  UNL A   1      38.481  24.546  25.246  1.00  0.00    +0.000 H 
ATOM     99  H9  UNL A   1      38.764  23.813  26.806  1.00  0.00    +0.000 H 
ATOM      8  C8  UNL A   1      38.013  24.132  26.114  1.00  0.00    +0.000 C 
ENDBRANCH    7    8
BRANCH    9   10
ATOM     10  O1  UNL A   1      39.082  21.574  25.744  1.00  0.00    +0.000 O 
ATOM    100  H10 UNL A   1      39.679  21.682  25.029  1.00  0.00    +0.000 H 
ENDBRANCH    9   10
BRANCH   13   14
ATOM    105  H15 UNL A   1      33.524  23.755  27.704  1.00  0.00    +0.000 H 
ATOM    106  H16 UNL A   1      33.407  22.032  27.434  1.00  0.00    +0.000 H 
ATOM    107  H17 UNL A   1      31.955  22.996  27.574  1.00  0.00    +0.000 H 
ATOM     14  C13 UNL A   1      32.964  22.983  27.218  1.00  0.00    +0.000 C 
ENDBRANCH   13   14
ENDBRANCH   15   13
ENDBRANCH   17   15
ENDBRANCH   18   17
ENDBRANCH   19   18
ENDBRANCH   20   19
ENDBRANCH   21   20
ENDBRANCH   22   21
ENDBRANCH   23   22
ENDBRANCH   24   23
ENDBRANCH   25   24
ENDBRANCH   27   25
ENDBRANCH   31   30
BRANCH   35   36
ATOM     36  C30 UNL A   1      42.321  26.311  27.874  1.00  0.00    +0.000 C 
ATOM     37  C31 UNL A   1      41.819  25.013  27.691  1.00  0.00    +0.000 C 
ATOM     38  F1  UNL A   1      40.993  24.475  28.600  1.00  0.00    +0.000 F 
ATOM     39  C32 UNL A   1      42.191  24.252  26.586  1.00  0.00    +0.000 C 
ATOM     40  F2  UNL A   1      41.729  23.001  26.452  1.00  0.00    +0.000 F 
ATOM     41  C33 UNL A   1      43.045  24.782  25.631  1.00  0.00    +0.000 C 
ATOM     42  F3  UNL A   1      43.394  24.051  24.563  1.00  0.00    +0.000 F 
ATOM     43  C34 UNL A   1      43.541  26.068  25.785  1.00  0.00    +0.000 C 
ATOM     44  F4  UNL A   1      44.358  26.586  24.857  1.00  0.00    +0.000 F 
ATOM     45  C35 UNL A   1      43.192  26.824  26.902  1.00  0.00    +0.000 C 
ATOM     46  F5  UNL A   1      43.697  28.059  27.029  1.00  0.00    +0.000 F 
ENDBRANCH   35   36
BRANCH   52   53
ATOM     53  C41 UNL A   1      44.846  28.114  34.370  1.00  0.00    +0.000 C 
ATOM     54  C42 UNL A   1      45.965  28.958  34.343  1.00  0.00    +0.000 C 
ATOM     55  F6  UNL A   1      46.004  30.000  33.499  1.00  0.00    +0.000 F 
ATOM     56  C43 UNL A   1      47.061  28.718  35.168  1.00  0.00    +0.000 C 
ATOM     57  F7  UNL A   1      48.132  29.520  35.105  1.00  0.00    +0.000 F 
ATOM     58  C44 UNL A   1      47.046  27.648  36.052  1.00  0.00    +0.000 C 
ATOM     59  F8  UNL A   1      48.095  27.428  36.856  1.00  0.00    +0.000 F 
ATOM     60  C45 UNL A   1      45.945  26.805  36.100  1.00  0.00    +0.000 C 
ATOM     61  F9  UNL A   1      45.925  25.780  36.961  1.00  0.00    +0.000 F 
ATOM     62  C46 UNL A   1      44.859  27.028  35.258  1.00  0.00    +0.000 C 
ATOM     63  F10 UNL A   1      43.809  26.197  35.325  1.00  0.00    +0.000 F 
ENDBRANCH   52   53
BRANCH   67   68
ATOM     68  C50 UNL A   1      39.170  32.020  35.431  1.00  0.00    +0.000 C 
ATOM     69  C51 UNL A   1      38.412  31.488  36.482  1.00  0.00    +0.000 C 
ATOM     70  F11 UNL A   1      38.055  30.195  36.460  1.00  0.00    +0.000 F 
ATOM     71  C52 UNL A   1      37.993  32.286  37.544  1.00  0.00    +0.000 C 
ATOM     72  F12 UNL A   1      37.245  31.758  38.521  1.00  0.00    +0.000 F 
ATOM     73  C53 UNL A   1      38.345  33.626  37.587  1.00  0.00    +0.000 C 
ATOM     74  F13 UNL A   1      37.951  34.392  38.614  1.00  0.00    +0.000 F 
ATOM     75  C54 UNL A   1      39.101  34.174  36.562  1.00  0.00    +0.000 C 
ATOM     76  F14 UNL A   1      39.453  35.467  36.606  1.00  0.00    +0.000 F 
ATOM     77  C55 UNL A   1      39.500  33.382  35.487  1.00  0.00    +0.000 C 
ATOM     78  F15 UNL A   1      40.229  33.938  34.508  1.00  0.00    +0.000 F 
ENDBRANCH   67   68
TORSDOF 20
ENDMDL
MODEL 2
REMARK VINA RESULT:     -10.7     22.370     28.240
ROOT
ATOM    129  H39 UNL A   1      44.258  10.926  51.713  1.00  0.00    +0.000 H 
ATOM    130  H40 UNL A   1      47.435   9.219  48.211  1.00  0.00    +0.000 H 
ATOM    131  H41 UNL A   1      48.054   7.361  49.860  1.00  0.00    +0.000 H 
ATOM    132  H42 UNL A   1      41.846  11.256  56.735  1.00  0.00    +0.000 H 
ATOM    133  H43 UNL A   1      40.946  12.897  54.988  1.00  0.00    +0.000 H 
ATOM     31  C26 UNL A   1      42.316  12.780  52.493  1.00  0.00    +0.000 C 
ATOM     32  C27 UNL A   1      42.517  11.898  53.692  1.00  0.00    +0.000 C 
ATOM     33  N3  UNL A   1      43.345  10.898  53.853  1.00  0.00    +0.000 N 
ATOM     34  C28 UNL A   1      43.144  10.449  55.151  1.00  0.00    +0.000 C 
ATOM     35  C29 UNL A   1      43.717   9.393  55.776  1.00  0.00    +0.000 C 
ATOM     47  C36 UNL A   1      44.685   8.519  55.170  1.00  0.00    +0.000 C 
ATOM     48  C37 UNL A   1      45.296   7.401  55.710  1.00  0.00    +0.000 C 
ATOM     49  C38 UNL A   1      46.186   6.887  54.761  1.00  0.00    +0.000 C 
ATOM     50  C39 UNL A   1      46.100   7.662  53.615  1.00  0.00    +0.000 C 
ATOM     51  N4  UNL A   1      45.180   8.662  53.882  1.00  0.00    +0.000 N 
ATOM     52  C40 UNL A   1      46.808   7.502  52.371  1.00  0.00    +0.000 C 
ATOM     64  C47 UNL A   1      46.657   8.295  51.282  1.00  0.00    +0.000 C 
ATOM     65  N5  UNL A   1      45.826   9.393  51.112  1.00  0.00    +0.000 N 
ATOM     66  C48 UNL A   1      46.047   9.828  49.897  1.00  0.00    +0.000 C 
ATOM     67  C49 UNL A   1      45.410  10.982  49.173  1.00  0.00    +0.000 C 
ATOM     79  C56 UNL A   1      44.479  11.724  49.803  1.00  0.00    +0.000 C 
ATOM     80  C57 UNL A   1      43.774  12.866  49.230  1.00  0.00    +0.000 C 
ATOM     81  C58 UNL A   1      42.940  13.374  50.151  1.00  0.00    +0.000 C 
ATOM     82  C59 UNL A   1      43.030  12.571  51.370  1.00  0.00    +0.000 C 
ATOM     83  N6  UNL A   1      43.972  11.618  51.075  1.00  0.00    +0.000 N 
ATOM     84  C60 UNL A   1      47.065   9.064  49.160  1.00  0.00    +0.000 C 
ATOM     85  C61 UNL A   1      47.380   8.121  50.039  1.00  0.00    +0.000 C 
ATOM     86  C62 UNL A   1      42.153  11.315  55.752  1.00  0.00    +0.000 C 
ATOM     87  C63 UNL A   1      41.691  12.192  54.873  1.00  0.00    +0.000 C 
ATOM    124  H34 UNL A   1      45.125   7.013  56.651  1.00  0.00    +0.000 H 
ATOM    125  H35 UNL A   1      46.802   6.070  54.892  1.00  0.00    +0.000 H 
ATOM    126  H36 UNL A   1      44.916   9.371  53.251  1.00  0.00    +0.000 H 
ATOM    127  H37 UNL A   1      43.896  13.225  48.270  1.00  0.00    +0.000 H 
ATOM    128  H38 UNL A   1      42.334  14.199  50.021  1.00  0.00    +0.000 H 
ENDROOT
BRANCH   31   30
ATOM    134  H44 UNL A   1      42.817  15.315  53.197  1.00  0.00    +0.000 H 
ATOM    135  H45 UNL A   1      41.260  17.161  53.414  1.00  0.00    +0.000 H 
ATOM    123  H33 UNL A   1      39.659  12.811  51.969  1.00  0.00    +0.000 H 
ATOM     88  C64 UNL A   1      41.821  15.180  52.964  1.00  0.00    +0.000 C 
ATOM     89  C65 UNL A   1      40.936  16.251  53.053  1.00  0.00    +0.000 C 
ATOM    122  H32 UNL A   1      38.143  14.707  52.010  1.00  0.00    +0.000 H 
ATOM     27  C22 UNL A   1      39.605  16.090  52.653  1.00  0.00    +0.000 C 
ATOM     28  C23 UNL A   1      39.135  14.832  52.268  1.00  0.00    +0.000 C 
ATOM     29  C24 UNL A   1      40.010  13.745  52.233  1.00  0.00    +0.000 C 
ATOM     30  C25 UNL A   1      41.365  13.916  52.558  1.00  0.00    +0.000 C 
BRANCH   27   25
ATOM     25  C21 UNL A   1      38.665  17.231  52.656  1.00  0.00    +0.000 C 
ATOM     26  O3  UNL A   1      37.594  17.135  53.249  1.00  0.00    +0.000 O 
BRANCH   25   24
ATOM    121  H31 UNL A   1      39.118  19.179  52.561  1.00  0.00    +0.000 H 
ATOM     24  N2  UNL A   1      38.984  18.387  51.990  1.00  0.00    +0.000 N 
BRANCH   24   23
ATOM    119  H29 UNL A   1      38.636  17.838  50.032  1.00  0.00    +0.000 H 
ATOM     23  C20 UNL A   1      39.154  18.609  50.565  1.00  0.00    +0.000 C 
ATOM    120  H30 UNL A   1      38.757  19.575  50.334  1.00  0.00    +0.000 H 
BRANCH   23   22
ATOM    118  H28 UNL A   1      41.188  18.736  51.045  1.00  0.00    +0.000 H 
ATOM    117  H27 UNL A   1      40.770  19.368  49.426  1.00  0.00    +0.000 H 
ATOM     22  C19 UNL A   1      40.621  18.594  50.149  1.00  0.00    +0.000 C 
BRANCH   22   21
ATOM    115  H25 UNL A   1      40.617  16.475  50.053  1.00  0.00    +0.000 H 
ATOM    116  H26 UNL A   1      40.870  17.328  48.498  1.00  0.00    +0.000 H 
ATOM     21  C18 UNL A   1      41.107  17.275  49.540  1.00  0.00    +0.000 C 
BRANCH   21   20
ATOM    113  H23 UNL A   1      43.088  17.948  49.903  1.00  0.00    +0.000 H 
ATOM    114  H24 UNL A   1      42.754  16.240  50.326  1.00  0.00    +0.000 H 
ATOM     20  C17 UNL A   1      42.619  17.030  49.616  1.00  0.00    +0.000 C 
BRANCH   20   19
ATOM     19  C16 UNL A   1      43.270  16.550  48.317  1.00  0.00    +0.000 C 
ATOM    111  H21 UNL A   1      42.848  15.601  48.060  1.00  0.00    +0.000 H 
ATOM    112  H22 UNL A   1      43.078  17.303  47.581  1.00  0.00    +0.000 H 
BRANCH   19   18
ATOM     18  C15 UNL A   1      44.787  16.393  48.396  1.00  0.00    +0.000 C 
ATOM    109  H19 UNL A   1      45.217  17.324  48.700  1.00  0.00    +0.000 H 
ATOM    110  H20 UNL A   1      45.006  15.621  49.105  1.00  0.00    +0.000 H 
BRANCH   18   17
ATOM     17  N1  UNL A   1      45.353  16.007  47.118  1.00  0.00    +0.000 N 
ATOM    108  H18 UNL A   1      45.597  15.055  47.056  1.00  0.00    +0.000 H 
BRANCH   17   15
ATOM     15  C14 UNL A   1      45.609  16.725  45.980  1.00  0.00    +0.000 C 
ATOM     16  O2  UNL A   1      46.240  17.775  46.136  1.00  0.00    +0.000 O 
BRANCH   15   13
ATOM      2  C2  UNL A   1      41.987  13.090  42.704  1.00  0.00    +0.000 C 
ATOM      3  C3  UNL A   1      42.727  13.574  43.813  1.00  0.00    +0.000 C 
ATOM      5  C5  UNL A   1      43.379  14.819  43.719  1.00  0.00    +0.000 C 
ATOM      6  C6  UNL A   1      43.263  15.612  42.563  1.00  0.00    +0.000 C 
ATOM      7  C7  UNL A   1      42.568  15.117  41.441  1.00  0.00    +0.000 C 
ATOM    101  H11 UNL A   1      43.207  17.682  42.146  1.00  0.00    +0.000 H 
ATOM      9  C9  UNL A   1      41.945  13.863  41.529  1.00  0.00    +0.000 C 
ATOM    102  H12 UNL A   1      44.763  16.909  41.861  1.00  0.00    +0.000 H 
ATOM     11  C10 UNL A   1      43.915  16.967  42.511  1.00  0.00    +0.000 C 
ATOM     12  C11 UNL A   1      44.391  17.402  43.882  1.00  0.00    +0.000 C 
ATOM     13  C12 UNL A   1      45.108  16.248  44.585  1.00  0.00    +0.000 C 
ATOM    103  H13 UNL A   1      43.547  17.703  44.468  1.00  0.00    +0.000 H 
ATOM    104  H14 UNL A   1      45.071  18.219  43.770  1.00  0.00    +0.000 H 
ATOM     90  O4  UNL A   1      44.125  15.209  44.808  1.00  0.00    +0.000 O 
BRANCH    2    1
ATOM      1  C1  UNL A   1      41.257  11.776  42.825  1.00  0.00    +0.000 C 
ATOM     91  H1  UNL A   1      41.434  11.358  43.793  1.00  0.00    +0.000 H 
ATOM     92  H2  UNL A   1      41.610  11.102  42.074  1.00  0.00    +0.000 H 
ATOM     93  H3  UNL A   1      40.207  11.939  42.693  1.00  0.00    +0.000 H 
ENDBRANCH    2    1
BRANCH    3    4
ATOM      4  C4  UNL A   1      42.832  12.753  45.076  1.00  0.00    +0.000 C 
ATOM     94  H4  UNL A   1      42.933  13.405  45.918  1.00  0.00    +0.000 H 
ATOM     95  H5  UNL A   1      43.688  12.114  45.016  1.00  0.00    +0.000 H 
ATOM     96  H6  UNL A   1      41.950  12.158  45.190  1.00  0.00    +0.000 H 
ENDBRANCH    3    4
BRANCH    7    8
ATOM     97  H7  UNL A   1      43.410  15.810  39.621  1.00  0.00    +0.000 H 
ATOM     98  H8  UNL A   1      42.368  16.964  40.418  1.00  0.00    +0.000 H 
ATOM     99  H9  UNL A   1      41.676  15.598  39.578  1.00  0.00    +0.000 H 
ATOM      8  C8  UNL A   1      42.501  15.931  40.172  1.00  0.00    +0.000 C 
ENDBRANCH    7    8
BRANCH    9   10
ATOM     10  O1  UNL A   1      41.289  13.421  40.411  1.00  0.00    +0.000 O 
ATOM    100  H10 UNL A   1      41.235  12.503  40.232  1.00  0.00    +0.000 H 
ENDBRANCH    9   10
BRANCH   13   14
ATOM    105  H15 UNL A   1      45.936  14.784  43.246  1.00  0.00    +0.000 H 
ATOM    106  H16 UNL A   1      46.996  15.219  44.566  1.00  0.00    +0.000 H 
ATOM    107  H17 UNL A   1      46.773  16.319  43.226  1.00  0.00    +0.000 H 
ATOM     14  C13 UNL A   1      46.294  15.593  43.849  1.00  0.00    +0.000 C 
ENDBRANCH   13   14
ENDBRANCH   15   13
ENDBRANCH   17   15
ENDBRANCH   18   17
ENDBRANCH   19   18
ENDBRANCH   20   19
ENDBRANCH   21   20
ENDBRANCH   22   21
ENDBRANCH   23   22
ENDBRANCH   24   23
ENDBRANCH   25   24
ENDBRANCH   27   25
ENDBRANCH   31   30
BRANCH   35   36
ATOM     36  C30 UNL A   1      43.303   9.116  57.190  1.00  0.00    +0.000 C 
ATOM     37  C31 UNL A   1      43.893   9.793  58.268  1.00  0.00    +0.000 C 
ATOM     38  F1  UNL A   1      44.889  10.664  58.053  1.00  0.00    +0.000 F 
ATOM     39  C32 UNL A   1      43.482   9.551  59.577  1.00  0.00    +0.000 C 
ATOM     40  F2  UNL A   1      44.087  10.181  60.593  1.00  0.00    +0.000 F 
ATOM     41  C33 UNL A   1      42.456   8.654  59.829  1.00  0.00    +0.000 C 
ATOM     42  F3  UNL A   1      42.055   8.430  61.088  1.00  0.00    +0.000 F 
ATOM     43  C34 UNL A   1      41.848   7.985  58.777  1.00  0.00    +0.000 C 
ATOM     44  F4  UNL A   1      40.849   7.125  59.018  1.00  0.00    +0.000 F 
ATOM     45  C35 UNL A   1      42.274   8.204  57.469  1.00  0.00    +0.000 C 
ATOM     46  F5  UNL A   1      41.675   7.535  56.474  1.00  0.00    +0.000 F 
ENDBRANCH   35   36
BRANCH   52   53
ATOM     53  C41 UNL A   1      47.777   6.363  52.269  1.00  0.00    +0.000 C 
ATOM     54  C42 UNL A   1      49.151   6.555  52.469  1.00  0.00    +0.000 C 
ATOM     55  F6  UNL A   1      49.637   7.787  52.678  1.00  0.00    +0.000 F 
ATOM     56  C43 UNL A   1      50.035   5.479  52.431  1.00  0.00    +0.000 C 
ATOM     57  F7  UNL A   1      51.349   5.689  52.595  1.00  0.00    +0.000 F 
ATOM     58  C44 UNL A   1      49.558   4.194  52.218  1.00  0.00    +0.000 C 
ATOM     59  F8  UNL A   1      50.409   3.158  52.196  1.00  0.00    +0.000 F 
ATOM     60  C45 UNL A   1      48.202   3.982  52.025  1.00  0.00    +0.000 C 
ATOM     61  F9  UNL A   1      47.739   2.740  51.832  1.00  0.00    +0.000 F 
ATOM     62  C46 UNL A   1      47.319   5.058  52.039  1.00  0.00    +0.000 C 
ATOM     63  F10 UNL A   1      46.012   4.823  51.848  1.00  0.00    +0.000 F 
ENDBRANCH   52   53
BRANCH   67   68
ATOM     68  C50 UNL A   1      45.764  11.289  47.765  1.00  0.00    +0.000 C 
ATOM     69  C51 UNL A   1      46.568  12.395  47.455  1.00  0.00    +0.000 C 
ATOM     70  F11 UNL A   1      46.988  13.210  48.434  1.00  0.00    +0.000 F 
ATOM     71  C52 UNL A   1      46.920  12.683  46.139  1.00  0.00    +0.000 C 
ATOM     72  F12 UNL A   1      47.665  13.762  45.868  1.00  0.00    +0.000 F 
ATOM     73  C53 UNL A   1      46.493  11.858  45.109  1.00  0.00    +0.000 C 
ATOM     74  F13 UNL A   1      46.840  12.129  43.843  1.00  0.00    +0.000 F 
ATOM     75  C54 UNL A   1      45.703  10.754  45.391  1.00  0.00    +0.000 C 
ATOM     76  F14 UNL A   1      45.299   9.948  44.399  1.00  0.00    +0.000 F 
ATOM     77  C55 UNL A   1      45.331  10.479  46.706  1.00  0.00    +0.000 C 
ATOM     78  F15 UNL A   1      44.564   9.406  46.950  1.00  0.00    +0.000 F 
ENDBRANCH   67   68
TORSDOF 20
ENDMDL
MODEL 3
REMARK VINA RESULT:     -10.7     20.272     26.041
ROOT
ATOM    129  H39 UNL A   1      55.481  19.782  13.018  1.00  0.00    +0.000 H 
ATOM    130  H40 UNL A   1      60.199  18.042  12.997  1.00  0.00    +0.000 H 
ATOM    131  H41 UNL A   1      60.359  18.815  15.433  1.00  0.00    +0.000 H 
ATOM    132  H42 UNL A   1      51.009  22.472  14.994  1.00  0.00    +0.000 H 
ATOM    133  H43 UNL A   1      50.699  21.392  12.694  1.00  0.00    +0.000 H 
ATOM     31  C26 UNL A   1      53.058  20.163  11.676  1.00  0.00    +0.000 C 
ATOM     32  C27 UNL A   1      52.861  20.794  13.024  1.00  0.00    +0.000 C 
ATOM     33  N3  UNL A   1      53.710  20.914  14.013  1.00  0.00    +0.000 N 
ATOM     34  C28 UNL A   1      53.030  21.600  15.011  1.00  0.00    +0.000 C 
ATOM     35  C29 UNL A   1      53.457  21.916  16.257  1.00  0.00    +0.000 C 
ATOM     47  C36 UNL A   1      54.755  21.584  16.779  1.00  0.00    +0.000 C 
ATOM     48  C37 UNL A   1      55.266  21.829  18.041  1.00  0.00    +0.000 C 
ATOM     49  C38 UNL A   1      56.580  21.351  18.082  1.00  0.00    +0.000 C 
ATOM     50  C39 UNL A   1      56.873  20.772  16.858  1.00  0.00    +0.000 C 
ATOM     51  N4  UNL A   1      55.747  20.927  16.067  1.00  0.00    +0.000 N 
ATOM     52  C40 UNL A   1      58.092  20.129  16.441  1.00  0.00    +0.000 C 
ATOM     64  C47 UNL A   1      58.300  19.568  15.225  1.00  0.00    +0.000 C 
ATOM     65  N5  UNL A   1      57.432  19.480  14.146  1.00  0.00    +0.000 N 
ATOM     66  C48 UNL A   1      58.095  18.862  13.200  1.00  0.00    +0.000 C 
ATOM     67  C49 UNL A   1      57.638  18.480  11.819  1.00  0.00    +0.000 C 
ATOM     79  C56 UNL A   1      56.389  18.793  11.426  1.00  0.00    +0.000 C 
ATOM     80  C57 UNL A   1      55.807  18.485  10.123  1.00  0.00    +0.000 C 
ATOM     81  C58 UNL A   1      54.555  18.969  10.076  1.00  0.00    +0.000 C 
ATOM     82  C59 UNL A   1      54.237  19.592  11.361  1.00  0.00    +0.000 C 
ATOM     83  N6  UNL A   1      55.386  19.448  12.097  1.00  0.00    +0.000 N 
ATOM     84  C60 UNL A   1      59.472  18.503  13.566  1.00  0.00    +0.000 C 
ATOM     85  C61 UNL A   1      59.535  18.927  14.822  1.00  0.00    +0.000 C 
ATOM     86  C62 UNL A   1      51.716  21.913  14.492  1.00  0.00    +0.000 C 
ATOM     87  C63 UNL A   1      51.541  21.387  13.289  1.00  0.00    +0.000 C 
ATOM    124  H34 UNL A   1      54.764  22.286  18.818  1.00  0.00    +0.000 H 
ATOM    125  H35 UNL A   1      57.221  21.418  18.887  1.00  0.00    +0.000 H 
ATOM    126  H36 UNL A   1      55.663  20.617  15.135  1.00  0.00    +0.000 H 
ATOM    127  H37 UNL A   1      56.281  17.977   9.360  1.00  0.00    +0.000 H 
ATOM    128  H38 UNL A   1      53.920  18.910   9.266  1.00  0.00    +0.000 H 
ENDROOT
BRANCH   31   30
ATOM    134  H44 UNL A   1      52.395  22.184  10.049  1.00  0.00    +0.000 H 
ATOM    135  H45 UNL A   1      50.557  22.317   8.474  1.00  0.00    +0.000 H 
ATOM    123  H33 UNL A   1      51.239  18.256  11.047  1.00  0.00    +0.000 H 
ATOM     88  C64 UNL A   1      51.772  21.372   9.914  1.00  0.00    +0.000 C 
ATOM     89  C65 UNL A   1      50.740  21.438   8.981  1.00  0.00    +0.000 C 
ATOM    122  H32 UNL A   1      49.517  18.332   9.338  1.00  0.00    +0.000 H 
ATOM     27  C22 UNL A   1      49.952  20.310   8.734  1.00  0.00    +0.000 C 
ATOM     28  C23 UNL A   1      50.125  19.151   9.495  1.00  0.00    +0.000 C 
ATOM     29  C24 UNL A   1      51.123  19.104  10.470  1.00  0.00    +0.000 C 
ATOM     30  C25 UNL A   1      51.970  20.206  10.669  1.00  0.00    +0.000 C 
BRANCH   27   25
ATOM     25  C21 UNL A   1      48.906  20.324   7.690  1.00  0.00    +0.000 C 
ATOM     26  O3  UNL A   1      48.436  21.395   7.313  1.00  0.00    +0.000 O 
BRANCH   25   24
ATOM    121  H31 UNL A   1      48.988  18.349   7.374  1.00  0.00    +0.000 H 
ATOM     24  N2  UNL A   1      48.455  19.146   7.151  1.00  0.00    +0.000 N 
BRANCH   24   23
ATOM    119  H29 UNL A   1      46.875  17.961   6.556  1.00  0.00    +0.000 H 
ATOM     23  C20 UNL A   1      47.303  18.907   6.299  1.00  0.00    +0.000 C 
ATOM    120  H30 UNL A   1      46.607  19.704   6.456  1.00  0.00    +0.000 H 
BRANCH   23   22
ATOM    118  H28 UNL A   1      48.186  17.971   4.647  1.00  0.00    +0.000 H 
ATOM    117  H27 UNL A   1      48.273  19.756   4.619  1.00  0.00    +0.000 H 
ATOM     22  C19 UNL A   1      47.673  18.894   4.819  1.00  0.00    +0.000 C 
BRANCH   22   21
ATOM    115  H25 UNL A   1      46.857  18.737   2.867  1.00  0.00    +0.000 H 
ATOM    116  H26 UNL A   1      45.814  18.149   4.202  1.00  0.00    +0.000 H 
ATOM     21  C18 UNL A   1      46.483  18.909   3.855  1.00  0.00    +0.000 C 
BRANCH   21   20
ATOM    113  H23 UNL A   1      45.727  20.652   4.803  1.00  0.00    +0.000 H 
ATOM    114  H24 UNL A   1      46.095  20.811   3.057  1.00  0.00    +0.000 H 
ATOM     20  C17 UNL A   1      45.668  20.208   3.831  1.00  0.00    +0.000 C 
BRANCH   20   19
ATOM     19  C16 UNL A   1      44.188  20.045   3.474  1.00  0.00    +0.000 C 
ATOM    111  H21 UNL A   1      43.995  19.005   3.313  1.00  0.00    +0.000 H 
ATOM    112  H22 UNL A   1      43.629  20.450   4.292  1.00  0.00    +0.000 H 
BRANCH   19   18
ATOM     18  C15 UNL A   1      43.756  20.812   2.226  1.00  0.00    +0.000 C 
ATOM    109  H19 UNL A   1      43.665  21.849   2.470  1.00  0.00    +0.000 H 
ATOM    110  H20 UNL A   1      44.497  20.661   1.468  1.00  0.00    +0.000 H 
BRANCH   18   17
ATOM     17  N1  UNL A   1      42.484  20.333   1.717  1.00  0.00    +0.000 N 
ATOM    108  H18 UNL A   1      41.806  20.173   2.413  1.00  0.00    +0.000 H 
BRANCH   17   15
ATOM     15  C14 UNL A   1      42.054  20.066   0.445  1.00  0.00    +0.000 C 
ATOM     16  O2  UNL A   1      42.898  19.589  -0.320  1.00  0.00    +0.000 O 
BRANCH   15   13
ATOM      2  C2  UNL A   1      36.269  21.212   1.951  1.00  0.00    +0.000 C 
ATOM      3  C3  UNL A   1      37.607  20.762   2.078  1.00  0.00    +0.000 C 
ATOM      5  C5  UNL A   1      38.520  21.004   1.034  1.00  0.00    +0.000 C 
ATOM      6  C6  UNL A   1      38.138  21.732  -0.108  1.00  0.00    +0.000 C 
ATOM      7  C7  UNL A   1      36.798  22.142  -0.261  1.00  0.00    +0.000 C 
ATOM    101  H11 UNL A   1      39.086  23.072  -1.438  1.00  0.00    +0.000 H 
ATOM      9  C9  UNL A   1      35.885  21.871   0.769  1.00  0.00    +0.000 C 
ATOM    102  H12 UNL A   1      38.933  21.422  -2.031  1.00  0.00    +0.000 H 
ATOM     11  C10 UNL A   1      39.149  22.034  -1.181  1.00  0.00    +0.000 C 
ATOM     12  C11 UNL A   1      40.556  21.726  -0.714  1.00  0.00    +0.000 C 
ATOM     13  C12 UNL A   1      40.596  20.372  -0.004  1.00  0.00    +0.000 C 
ATOM    103  H13 UNL A   1      40.877  22.490  -0.036  1.00  0.00    +0.000 H 
ATOM    104  H14 UNL A   1      41.205  21.694  -1.564  1.00  0.00    +0.000 H 
ATOM     90  O4  UNL A   1      39.790  20.495   1.192  1.00  0.00    +0.000 O 
BRANCH    2    1
ATOM      1  C1  UNL A   1      35.306  20.986   3.090  1.00  0.00    +0.000 C 
ATOM     91  H1  UNL A   1      35.852  20.722   3.971  1.00  0.00    +0.000 H 
ATOM     92  H2  UNL A   1      34.633  20.194   2.837  1.00  0.00    +0.000 H 
ATOM     93  H3  UNL A   1      34.750  21.882   3.270  1.00  0.00    +0.000 H 
ENDBRANCH    2    1
BRANCH    3    4
ATOM      4  C4  UNL A   1      38.045  20.011   3.312  1.00  0.00    +0.000 C 
ATOM     94  H4  UNL A   1      37.207  19.874   3.963  1.00  0.00    +0.000 H 
ATOM     95  H5  UNL A   1      38.802  20.571   3.822  1.00  0.00    +0.000 H 
ATOM     96  H6  UNL A   1      38.437  19.056   3.031  1.00  0.00    +0.000 H 
ENDBRANCH    3    4
BRANCH    7    8
ATOM     97  H7  UNL A   1      37.173  23.456  -1.884  1.00  0.00    +0.000 H 
ATOM     98  H8  UNL A   1      35.528  23.489  -1.295  1.00  0.00    +0.000 H 
ATOM     99  H9  UNL A   1      36.084  22.141  -2.258  1.00  0.00    +0.000 H 
ATOM      8  C8  UNL A   1      36.365  22.859  -1.516  1.00  0.00    +0.000 C 
ENDBRANCH    7    8
BRANCH    9   10
ATOM     10  O1  UNL A   1      34.594  22.282   0.571  1.00  0.00    +0.000 O 
ATOM    100  H10 UNL A   1      34.105  22.649   1.283  1.00  0.00    +0.000 H 
ENDBRANCH    9   10
BRANCH   13   14
ATOM    105  H15 UNL A   1      40.758  18.337  -0.679  1.00  0.00    +0.000 H 
ATOM    106  H16 UNL A   1      39.956  19.399  -1.812  1.00  0.00    +0.000 H 
ATOM    107  H17 UNL A   1      39.116  18.857  -0.378  1.00  0.00    +0.000 H 
ATOM     14  C13 UNL A   1      40.066  19.147  -0.777  1.00  0.00    +0.000 C 
ENDBRANCH   13   14
ENDBRANCH   15   13
ENDBRANCH   17   15
ENDBRANCH   18   17
ENDBRANCH   19   18
ENDBRANCH   20   19
ENDBRANCH   21   20
ENDBRANCH   22   21
ENDBRANCH   23   22
ENDBRANCH   24   23
ENDBRANCH   25   24
ENDBRANCH   27   25
ENDBRANCH   31   30
BRANCH   35   36
ATOM     36  C30 UNL A   1      52.503  22.652  17.149  1.00  0.00    +0.000 C 
ATOM     37  C31 UNL A   1      52.386  24.050  17.096  1.00  0.00    +0.000 C 
ATOM     38  F1  UNL A   1      53.175  24.761  16.278  1.00  0.00    +0.000 F 
ATOM     39  C32 UNL A   1      51.476  24.723  17.908  1.00  0.00    +0.000 C 
ATOM     40  F2  UNL A   1      51.409  26.061  17.866  1.00  0.00    +0.000 F 
ATOM     41  C33 UNL A   1      50.648  24.014  18.763  1.00  0.00    +0.000 C 
ATOM     42  F3  UNL A   1      49.768  24.662  19.536  1.00  0.00    +0.000 F 
ATOM     43  C34 UNL A   1      50.738  22.631  18.822  1.00  0.00    +0.000 C 
ATOM     44  F4  UNL A   1      49.931  21.942  19.641  1.00  0.00    +0.000 F 
ATOM     45  C35 UNL A   1      51.664  21.954  18.031  1.00  0.00    +0.000 C 
ATOM     46  F5  UNL A   1      51.734  20.619  18.117  1.00  0.00    +0.000 F 
ENDBRANCH   35   36
BRANCH   52   53
ATOM     53  C41 UNL A   1      59.214  20.065  17.433  1.00  0.00    +0.000 C 
ATOM     54  C42 UNL A   1      60.049  21.168  17.664  1.00  0.00    +0.000 C 
ATOM     55  F6  UNL A   1      59.907  22.284  16.935  1.00  0.00    +0.000 F 
ATOM     56  C43 UNL A   1      61.049  21.116  18.631  1.00  0.00    +0.000 C 
ATOM     57  F7  UNL A   1      61.855  22.171  18.815  1.00  0.00    +0.000 F 
ATOM     58  C44 UNL A   1      61.215  19.973  19.401  1.00  0.00    +0.000 C 
ATOM     59  F8  UNL A   1      62.170  19.931  20.340  1.00  0.00    +0.000 F 
ATOM     60  C45 UNL A   1      60.396  18.874  19.193  1.00  0.00    +0.000 C 
ATOM     61  F9  UNL A   1      60.548  17.775  19.944  1.00  0.00    +0.000 F 
ATOM     62  C46 UNL A   1      59.411  18.914  18.211  1.00  0.00    +0.000 C 
ATOM     63  F10 UNL A   1      58.633  17.836  18.032  1.00  0.00    +0.000 F 
ENDBRANCH   52   53
BRANCH   67   68
ATOM     68  C50 UNL A   1      58.531  17.730  10.900  1.00  0.00    +0.000 C 
ATOM     69  C51 UNL A   1      59.423  18.409  10.059  1.00  0.00    +0.000 C 
ATOM     70  F11 UNL A   1      59.443  19.750  10.050  1.00  0.00    +0.000 F 
ATOM     71  C52 UNL A   1      60.276  17.715   9.204  1.00  0.00    +0.000 C 
ATOM     72  F12 UNL A   1      61.099  18.389   8.390  1.00  0.00    +0.000 F 
ATOM     73  C53 UNL A   1      60.270  16.329   9.191  1.00  0.00    +0.000 C 
ATOM     74  F13 UNL A   1      61.099  15.660   8.377  1.00  0.00    +0.000 F 
ATOM     75  C54 UNL A   1      59.401  15.634  10.020  1.00  0.00    +0.000 C 
ATOM     76  F14 UNL A   1      59.401  14.294  10.018  1.00  0.00    +0.000 F 
ATOM     77  C55 UNL A   1      58.531  16.329  10.858  1.00  0.00    +0.000 C 
ATOM     78  F15 UNL A   1      57.699  15.633  11.647  1.00  0.00    +0.000 F 
ENDBRANCH   67   68
TORSDOF 20
ENDMDL
MODEL 4
REMARK VINA RESULT:     -10.7     34.782     38.661
ROOT
ATOM    129  H39 UNL A   1       9.596   5.632  20.952  1.00  0.00    +0.000 H 
ATOM    130  H40 UNL A   1       6.885   9.459  22.764  1.00  0.00    +0.000 H 
ATOM    131  H41 UNL A   1       7.445  10.712  20.602  1.00  0.00    +0.000 H 
ATOM    132  H42 UNL A   1      13.053   2.989  17.457  1.00  0.00    +0.000 H 
ATOM    133  H43 UNL A   1      12.218   1.585  19.428  1.00  0.00    +0.000 H 
ATOM     31  C26 UNL A   1      10.577   3.031  21.253  1.00  0.00    +0.000 C 
ATOM     32  C27 UNL A   1      11.147   3.514  19.951  1.00  0.00    +0.000 C 
ATOM     33  N3  UNL A   1      11.017   4.682  19.374  1.00  0.00    +0.000 N 
ATOM     34  C28 UNL A   1      11.767   4.611  18.207  1.00  0.00    +0.000 C 
ATOM     35  C29 UNL A   1      11.902   5.542  17.234  1.00  0.00    +0.000 C 
ATOM     47  C36 UNL A   1      11.264   6.831  17.250  1.00  0.00    +0.000 C 
ATOM     48  C37 UNL A   1      11.311   7.829  16.293  1.00  0.00    +0.000 C 
ATOM     49  C38 UNL A   1      10.559   8.914  16.755  1.00  0.00    +0.000 C 
ATOM     50  C39 UNL A   1      10.012   8.577  17.982  1.00  0.00    +0.000 C 
ATOM     51  N4  UNL A   1      10.457   7.298  18.276  1.00  0.00    +0.000 N 
ATOM     52  C40 UNL A   1       9.149   9.364  18.824  1.00  0.00    +0.000 C 
ATOM     64  C47 UNL A   1       8.636   8.957  20.011  1.00  0.00    +0.000 C 
ATOM     65  N5  UNL A   1       8.808   7.745  20.665  1.00  0.00    +0.000 N 
ATOM     66  C48 UNL A   1       8.125   7.836  21.779  1.00  0.00    +0.000 C 
ATOM     67  C49 UNL A   1       7.941   6.810  22.863  1.00  0.00    +0.000 C 
ATOM     79  C56 UNL A   1       8.541   5.611  22.747  1.00  0.00    +0.000 C 
ATOM     80  C57 UNL A   1       8.451   4.520  23.712  1.00  0.00    +0.000 C 
ATOM     81  C58 UNL A   1       9.196   3.489  23.280  1.00  0.00    +0.000 C 
ATOM     82  C59 UNL A   1       9.788   3.837  21.988  1.00  0.00    +0.000 C 
ATOM     83  N6  UNL A   1       9.351   5.117  21.754  1.00  0.00    +0.000 N 
ATOM     84  C60 UNL A   1       7.454   9.130  21.969  1.00  0.00    +0.000 C 
ATOM     85  C61 UNL A   1       7.772   9.764  20.847  1.00  0.00    +0.000 C 
ATOM     86  C62 UNL A   1      12.389   3.304  18.181  1.00  0.00    +0.000 C 
ATOM     87  C63 UNL A   1      11.993   2.567  19.208  1.00  0.00    +0.000 C 
ATOM    124  H34 UNL A   1      11.814   7.781  15.393  1.00  0.00    +0.000 H 
ATOM    125  H35 UNL A   1      10.434   9.813  16.265  1.00  0.00    +0.000 H 
ATOM    126  H36 UNL A   1      10.233   6.796  19.094  1.00  0.00    +0.000 H 
ATOM    127  H37 UNL A   1       7.903   4.537  24.587  1.00  0.00    +0.000 H 
ATOM    128  H38 UNL A   1       9.328   2.595  23.777  1.00  0.00    +0.000 H 
ENDROOT
BRANCH   31   30
ATOM    134  H44 UNL A   1      12.666   2.316  22.769  1.00  0.00    +0.000 H 
ATOM    135  H45 UNL A   1      13.305   0.099  23.515  1.00  0.00    +0.000 H 
ATOM    123  H33 UNL A   1       9.286   0.684  20.854  1.00  0.00    +0.000 H 
ATOM     88  C64 UNL A   1      12.074   1.503  22.537  1.00  0.00    +0.000 C 
ATOM     89  C65 UNL A   1      12.424   0.236  22.998  1.00  0.00    +0.000 C 
ATOM    122  H32 UNL A   1       9.832  -1.502  21.759  1.00  0.00    +0.000 H 
ATOM     27  C22 UNL A   1      11.576  -0.850  22.759  1.00  0.00    +0.000 C 
ATOM     28  C23 UNL A   1      10.436  -0.691  21.967  1.00  0.00    +0.000 C 
ATOM     29  C24 UNL A   1      10.116   0.569  21.456  1.00  0.00    +0.000 C 
ATOM     30  C25 UNL A   1      10.920   1.679  21.758  1.00  0.00    +0.000 C 
BRANCH   27   25
ATOM     25  C21 UNL A   1      11.878  -2.188  23.310  1.00  0.00    +0.000 C 
ATOM     26  O3  UNL A   1      13.021  -2.632  23.240  1.00  0.00    +0.000 O 
BRANCH   25   24
ATOM    121  H31 UNL A   1      10.107  -3.123  23.310  1.00  0.00    +0.000 H 
ATOM     24  N2  UNL A   1      10.882  -2.935  23.887  1.00  0.00    +0.000 N 
BRANCH   24   23
ATOM    119  H29 UNL A   1       9.826  -3.878  25.387  1.00  0.00    +0.000 H 
ATOM     23  C20 UNL A   1      10.810  -3.488  25.229  1.00  0.00    +0.000 C 
ATOM    120  H30 UNL A   1      11.551  -4.255  25.308  1.00  0.00    +0.000 H 
BRANCH   23   22
ATOM    118  H28 UNL A   1      10.476  -2.685  27.134  1.00  0.00    +0.000 H 
ATOM    117  H27 UNL A   1      10.899  -1.477  25.886  1.00  0.00    +0.000 H 
ATOM     22  C19 UNL A   1      11.101  -2.442  26.300  1.00  0.00    +0.000 C 
BRANCH   22   21
ATOM    115  H25 UNL A   1      12.512  -2.737  27.856  1.00  0.00    +0.000 H 
ATOM    116  H26 UNL A   1      13.083  -3.112  26.198  1.00  0.00    +0.000 H 
ATOM     21  C18 UNL A   1      12.538  -2.440  26.828  1.00  0.00    +0.000 C 
BRANCH   21   20
ATOM    113  H23 UNL A   1      12.551  -0.340  26.511  1.00  0.00    +0.000 H 
ATOM    114  H24 UNL A   1      13.747  -0.958  27.693  1.00  0.00    +0.000 H 
ATOM     20  C17 UNL A   1      13.272  -1.096  26.744  1.00  0.00    +0.000 C 
BRANCH   20   19
ATOM     19  C16 UNL A   1      14.387  -1.024  25.697  1.00  0.00    +0.000 C 
ATOM    111  H21 UNL A   1      14.941  -1.939  25.733  1.00  0.00    +0.000 H 
ATOM    112  H22 UNL A   1      13.911  -0.864  24.752  1.00  0.00    +0.000 H 
BRANCH   19   18
ATOM     18  C15 UNL A   1      15.362   0.134  25.898  1.00  0.00    +0.000 C 
ATOM    109  H19 UNL A   1      16.337  -0.173  25.581  1.00  0.00    +0.000 H 
ATOM    110  H20 UNL A   1      15.016   0.966  25.319  1.00  0.00    +0.000 H 
BRANCH   18   17
ATOM     17  N1  UNL A   1      15.426   0.545  27.288  1.00  0.00    +0.000 N 
ATOM    108  H18 UNL A   1      15.186  -0.162  27.929  1.00  0.00    +0.000 H 
BRANCH   17   15
ATOM     15  C14 UNL A   1      15.761   1.738  27.871  1.00  0.00    +0.000 C 
ATOM     16  O2  UNL A   1      16.956   1.886  28.146  1.00  0.00    +0.000 O 
BRANCH   15   13
ATOM      2  C2  UNL A   1       9.932   3.488  27.771  1.00  0.00    +0.000 C 
ATOM      3  C3  UNL A   1      11.104   2.762  27.439  1.00  0.00    +0.000 C 
ATOM      5  C5  UNL A   1      12.291   3.001  28.157  1.00  0.00    +0.000 C 
ATOM      6  C6  UNL A   1      12.318   3.909  29.231  1.00  0.00    +0.000 C 
ATOM      7  C7  UNL A   1      11.170   4.668  29.536  1.00  0.00    +0.000 C 
ATOM    101  H11 UNL A   1      13.351   4.053  31.068  1.00  0.00    +0.000 H 
ATOM      9  C9  UNL A   1       9.997   4.447  28.797  1.00  0.00    +0.000 C 
ATOM    102  H12 UNL A   1      13.999   5.053  29.772  1.00  0.00    +0.000 H 
ATOM     11  C10 UNL A   1      13.583   4.100  30.024  1.00  0.00    +0.000 C 
ATOM     12  C11 UNL A   1      14.604   3.031  29.697  1.00  0.00    +0.000 C 
ATOM     13  C12 UNL A   1      14.690   2.823  28.184  1.00  0.00    +0.000 C 
ATOM    103  H13 UNL A   1      14.314   2.112  30.164  1.00  0.00    +0.000 H 
ATOM    104  H14 UNL A   1      15.561   3.341  30.061  1.00  0.00    +0.000 H 
ATOM     90  O4  UNL A   1      13.408   2.305  27.753  1.00  0.00    +0.000 O 
BRANCH    2    1
ATOM      1  C1  UNL A   1       8.652   3.198  27.027  1.00  0.00    +0.000 C 
ATOM     91  H1  UNL A   1       7.871   2.990  27.728  1.00  0.00    +0.000 H 
ATOM     92  H2  UNL A   1       8.794   2.351  26.389  1.00  0.00    +0.000 H 
ATOM     93  H3  UNL A   1       8.383   4.048  26.436  1.00  0.00    +0.000 H 
ENDBRANCH    2    1
BRANCH    3    4
ATOM      4  C4  UNL A   1      11.084   1.756  26.314  1.00  0.00    +0.000 C 
ATOM     94  H4  UNL A   1      11.452   2.214  25.419  1.00  0.00    +0.000 H 
ATOM     95  H5  UNL A   1      10.081   1.418  26.153  1.00  0.00    +0.000 H 
ATOM     96  H6  UNL A   1      11.704   0.922  26.568  1.00  0.00    +0.000 H 
ENDBRANCH    3    4
BRANCH    7    8
ATOM     97  H7  UNL A   1      10.411   6.393  30.509  1.00  0.00    +0.000 H 
ATOM     98  H8  UNL A   1      12.147   6.218  30.604  1.00  0.00    +0.000 H 
ATOM     99  H9  UNL A   1      11.112   5.209  31.585  1.00  0.00    +0.000 H 
ATOM      8  C8  UNL A   1      11.213   5.697  30.638  1.00  0.00    +0.000 C 
ENDBRANCH    7    8
BRANCH    9   10
ATOM     10  O1  UNL A   1       8.910   5.213  29.125  1.00  0.00    +0.000 O 
ATOM    100  H10 UNL A   1       8.049   4.933  28.882  1.00  0.00    +0.000 H 
ENDBRANCH    9   10
BRANCH   13   14
ATOM    105  H15 UNL A   1      15.360   3.741  26.359  1.00  0.00    +0.000 H 
ATOM    106  H16 UNL A   1      15.727   4.666  27.795  1.00  0.00    +0.000 H 
ATOM    107  H17 UNL A   1      14.093   4.626  27.175  1.00  0.00    +0.000 H 
ATOM     14  C13 UNL A   1      14.990   4.058  27.311  1.00  0.00    +0.000 C 
ENDBRANCH   13   14
ENDBRANCH   15   13
ENDBRANCH   17   15
ENDBRANCH   18   17
ENDBRANCH   19   18
ENDBRANCH   20   19
ENDBRANCH   21   20
ENDBRANCH   22   21
ENDBRANCH   23   22
ENDBRANCH   24   23
ENDBRANCH   25   24
ENDBRANCH   27   25
ENDBRANCH   31   30
BRANCH   35   36
ATOM     36  C30 UNL A   1      12.767   5.196  16.059  1.00  0.00    +0.000 C 
ATOM     37  C31 UNL A   1      12.240   4.546  14.932  1.00  0.00    +0.000 C 
ATOM     38  F1  UNL A   1      10.953   4.168  14.912  1.00  0.00    +0.000 F 
ATOM     39  C32 UNL A   1      13.044   4.254  13.833  1.00  0.00    +0.000 C 
ATOM     40  F2  UNL A   1      12.527   3.599  12.784  1.00  0.00    +0.000 F 
ATOM     41  C33 UNL A   1      14.377   4.633  13.826  1.00  0.00    +0.000 C 
ATOM     42  F3  UNL A   1      15.147   4.360  12.764  1.00  0.00    +0.000 F 
ATOM     43  C34 UNL A   1      14.915   5.289  14.923  1.00  0.00    +0.000 C 
ATOM     44  F4  UNL A   1      16.202   5.664  14.914  1.00  0.00    +0.000 F 
ATOM     45  C35 UNL A   1      14.121   5.559  16.036  1.00  0.00    +0.000 C 
ATOM     46  F5  UNL A   1      14.672   6.185  17.085  1.00  0.00    +0.000 F 
ENDBRANCH   35   36
BRANCH   52   53
ATOM     53  C41 UNL A   1       8.779  10.736  18.346  1.00  0.00    +0.000 C 
ATOM     54  C42 UNL A   1       7.622  10.956  17.586  1.00  0.00    +0.000 C 
ATOM     55  F6  UNL A   1       6.860   9.921  17.202  1.00  0.00    +0.000 F 
ATOM     56  C43 UNL A   1       7.256  12.243  17.199  1.00  0.00    +0.000 C 
ATOM     57  F7  UNL A   1       6.162  12.428  16.447  1.00  0.00    +0.000 F 
ATOM     58  C44 UNL A   1       8.025  13.331  17.585  1.00  0.00    +0.000 C 
ATOM     59  F8  UNL A   1       7.664  14.570  17.223  1.00  0.00    +0.000 F 
ATOM     60  C45 UNL A   1       9.170  13.135  18.343  1.00  0.00    +0.000 C 
ATOM     61  F9  UNL A   1       9.906  14.187  18.726  1.00  0.00    +0.000 F 
ATOM     62  C46 UNL A   1       9.551  11.848  18.711  1.00  0.00    +0.000 C 
ATOM     63  F10 UNL A   1      10.663  11.689  19.443  1.00  0.00    +0.000 F 
ENDBRANCH   52   53
BRANCH   67   68
ATOM     68  C50 UNL A   1       7.077   7.089  24.038  1.00  0.00    +0.000 C 
ATOM     69  C51 UNL A   1       5.763   6.604  24.091  1.00  0.00    +0.000 C 
ATOM     70  F11 UNL A   1       5.263   5.919  23.052  1.00  0.00    +0.000 F 
ATOM     71  C52 UNL A   1       4.951   6.846  25.195  1.00  0.00    +0.000 C 
ATOM     72  F12 UNL A   1       3.690   6.396  25.207  1.00  0.00    +0.000 F 
ATOM     73  C53 UNL A   1       5.444   7.557  26.279  1.00  0.00    +0.000 C 
ATOM     74  F13 UNL A   1       4.665   7.780  27.347  1.00  0.00    +0.000 F 
ATOM     75  C54 UNL A   1       6.743   8.041  26.253  1.00  0.00    +0.000 C 
ATOM     76  F14 UNL A   1       7.227   8.718  27.304  1.00  0.00    +0.000 F 
ATOM     77  C55 UNL A   1       7.550   7.819  25.138  1.00  0.00    +0.000 C 
ATOM     78  F15 UNL A   1       8.801   8.300  25.138  1.00  0.00    +0.000 F 
ENDBRANCH   67   68
TORSDOF 20
ENDMDL
MODEL 5
REMARK VINA RESULT:     -10.7     20.409     25.224
ROOT
ATOM    129  H39 UNL A   1      54.868  20.219  13.963  1.00  0.00    +0.000 H 
ATOM    130  H40 UNL A   1      54.794  22.445  18.471  1.00  0.00    +0.000 H 
ATOM    131  H41 UNL A   1      57.244  21.741  18.716  1.00  0.00    +0.000 H 
ATOM    132  H42 UNL A   1      56.914  17.112   9.803  1.00  0.00    +0.000 H 
ATOM    133  H43 UNL A   1      54.595  18.108   9.375  1.00  0.00    +0.000 H 
ATOM     31  C26 UNL A   1      53.544  19.559  11.590  1.00  0.00    +0.000 C 
ATOM     32  C27 UNL A   1      54.905  18.937  11.464  1.00  0.00    +0.000 C 
ATOM     33  N3  UNL A   1      55.892  18.926  12.323  1.00  0.00    +0.000 N 
ATOM     34  C28 UNL A   1      56.906  18.192  11.721  1.00  0.00    +0.000 C 
ATOM     35  C29 UNL A   1      58.155  17.947  12.181  1.00  0.00    +0.000 C 
ATOM     47  C36 UNL A   1      58.666  18.424  13.438  1.00  0.00    +0.000 C 
ATOM     48  C37 UNL A   1      59.930  18.258  13.975  1.00  0.00    +0.000 C 
ATOM     49  C38 UNL A   1      59.957  18.872  15.231  1.00  0.00    +0.000 C 
ATOM     50  C39 UNL A   1      58.720  19.455  15.459  1.00  0.00    +0.000 C 
ATOM     51  N4  UNL A   1      57.937  19.167  14.354  1.00  0.00    +0.000 N 
ATOM     52  C40 UNL A   1      58.286  20.215  16.603  1.00  0.00    +0.000 C 
ATOM     64  C47 UNL A   1      57.059  20.772  16.748  1.00  0.00    +0.000 C 
ATOM     65  N5  UNL A   1      55.982  20.746  15.873  1.00  0.00    +0.000 N 
ATOM     66  C48 UNL A   1      55.021  21.412  16.465  1.00  0.00    +0.000 C 
ATOM     67  C49 UNL A   1      53.635  21.717  15.968  1.00  0.00    +0.000 C 
ATOM     79  C56 UNL A   1      53.253  21.266  14.758  1.00  0.00    +0.000 C 
ATOM     80  C57 UNL A   1      51.947  21.486  14.144  1.00  0.00    +0.000 C 
ATOM     81  C58 UNL A   1      51.915  20.873  12.949  1.00  0.00    +0.000 C 
ATOM     82  C59 UNL A   1      53.213  20.244  12.701  1.00  0.00    +0.000 C 
ATOM     83  N6  UNL A   1      53.941  20.523  13.830  1.00  0.00    +0.000 N 
ATOM     84  C60 UNL A   1      55.375  21.922  17.798  1.00  0.00    +0.000 C 
ATOM     85  C61 UNL A   1      56.638  21.531  17.908  1.00  0.00    +0.000 C 
ATOM     86  C62 UNL A   1      56.399  17.732  10.446  1.00  0.00    +0.000 C 
ATOM     87  C63 UNL A   1      55.186  18.213  10.214  1.00  0.00    +0.000 C 
ATOM    124  H34 UNL A   1      60.718  17.766  13.526  1.00  0.00    +0.000 H 
ATOM    125  H35 UNL A   1      60.760  18.889  15.878  1.00  0.00    +0.000 H 
ATOM    126  H36 UNL A   1      57.000  19.449  14.236  1.00  0.00    +0.000 H 
ATOM    127  H37 UNL A   1      51.173  22.027  14.560  1.00  0.00    +0.000 H 
ATOM    128  H38 UNL A   1      51.106  20.848  12.310  1.00  0.00    +0.000 H 
ENDROOT
BRANCH   31   30
ATOM    134  H44 UNL A   1      51.815  17.541  11.258  1.00  0.00    +0.000 H 
ATOM    135  H45 UNL A   1      50.246  17.176   9.446  1.00  0.00    +0.000 H 
ATOM    123  H33 UNL A   1      53.029  21.155   9.463  1.00  0.00    +0.000 H 
ATOM     88  C64 UNL A   1      51.727  18.240  10.503  1.00  0.00    +0.000 C 
ATOM     89  C65 UNL A   1      50.798  18.046   9.484  1.00  0.00    +0.000 C 
ATOM    122  H32 UNL A   1      51.328  20.874   7.754  1.00  0.00    +0.000 H 
ATOM     27  C22 UNL A   1      50.617  19.034   8.511  1.00  0.00    +0.000 C 
ATOM     28  C23 UNL A   1      51.438  20.164   8.495  1.00  0.00    +0.000 C 
ATOM     29  C24 UNL A   1      52.408  20.331   9.485  1.00  0.00    +0.000 C 
ATOM     30  C25 UNL A   1      52.543  19.382  10.510  1.00  0.00    +0.000 C 
BRANCH   27   25
ATOM     25  C21 UNL A   1      49.579  18.894   7.467  1.00  0.00    +0.000 C 
ATOM     26  O3  UNL A   1      49.173  17.776   7.158  1.00  0.00    +0.000 O 
BRANCH   25   24
ATOM    121  H31 UNL A   1      49.663  20.801   6.862  1.00  0.00    +0.000 H 
ATOM     24  N2  UNL A   1      49.080  20.007   6.839  1.00  0.00    +0.000 N 
BRANCH   24   23
ATOM    119  H29 UNL A   1      47.024  19.855   6.788  1.00  0.00    +0.000 H 
ATOM     23  C20 UNL A   1      47.816  20.181   6.146  1.00  0.00    +0.000 C 
ATOM    120  H30 UNL A   1      47.716  21.216   5.899  1.00  0.00    +0.000 H 
BRANCH   23   22
ATOM    118  H28 UNL A   1      48.118  18.403   5.082  1.00  0.00    +0.000 H 
ATOM    117  H27 UNL A   1      48.348  19.890   4.117  1.00  0.00    +0.000 H 
ATOM     22  C19 UNL A   1      47.755  19.382   4.848  1.00  0.00    +0.000 C 
BRANCH   22   21
ATOM    115  H25 UNL A   1      46.448  18.746   3.303  1.00  0.00    +0.000 H 
ATOM    116  H26 UNL A   1      45.823  18.582   4.976  1.00  0.00    +0.000 H 
ATOM     21  C18 UNL A   1      46.349  19.191   4.271  1.00  0.00    +0.000 C 
BRANCH   21   20
ATOM    113  H23 UNL A   1      44.913  20.578   4.994  1.00  0.00    +0.000 H 
ATOM    114  H24 UNL A   1      46.223  21.266   3.986  1.00  0.00    +0.000 H 
ATOM     20  C17 UNL A   1      45.519  20.471   4.118  1.00  0.00    +0.000 C 
BRANCH   20   19
ATOM     19  C16 UNL A   1      44.597  20.512   2.897  1.00  0.00    +0.000 C 
ATOM    111  H21 UNL A   1      43.871  21.282   3.049  1.00  0.00    +0.000 H 
ATOM    112  H22 UNL A   1      45.222  20.692   2.047  1.00  0.00    +0.000 H 
BRANCH   19   18
ATOM     18  C15 UNL A   1      43.858  19.203   2.626  1.00  0.00    +0.000 C 
ATOM    109  H19 UNL A   1      44.470  18.579   2.009  1.00  0.00    +0.000 H 
ATOM    110  H20 UNL A   1      43.657  18.732   3.566  1.00  0.00    +0.000 H 
BRANCH   18   17
ATOM     17  N1  UNL A   1      42.592  19.432   1.955  1.00  0.00    +0.000 N 
ATOM    108  H18 UNL A   1      41.806  19.367   2.544  1.00  0.00    +0.000 H 
BRANCH   17   15
ATOM     15  C14 UNL A   1      42.291  19.726   0.653  1.00  0.00    +0.000 C 
ATOM     16  O2  UNL A   1      43.236  19.690  -0.141  1.00  0.00    +0.000 O 
BRANCH   15   13
ATOM      2  C2  UNL A   1      36.497  20.809   2.176  1.00  0.00    +0.000 C 
ATOM      3  C3  UNL A   1      37.826  20.323   2.276  1.00  0.00    +0.000 C 
ATOM      5  C5  UNL A   1      38.762  20.661   1.280  1.00  0.00    +0.000 C 
ATOM      6  C6  UNL A   1      38.414  21.514   0.217  1.00  0.00    +0.000 C 
ATOM      7  C7  UNL A   1      37.084  21.963   0.087  1.00  0.00    +0.000 C 
ATOM    101  H11 UNL A   1      39.408  22.972  -0.943  1.00  0.00    +0.000 H 
ATOM      9  C9  UNL A   1      36.147  21.599   1.066  1.00  0.00    +0.000 C 
ATOM    102  H12 UNL A   1      39.239  21.399  -1.714  1.00  0.00    +0.000 H 
ATOM     11  C10 UNL A   1      39.449  21.912  -0.800  1.00  0.00    +0.000 C 
ATOM     12  C11 UNL A   1      40.842  21.530  -0.345  1.00  0.00    +0.000 C 
ATOM     13  C12 UNL A   1      40.846  20.106   0.215  1.00  0.00    +0.000 C 
ATOM    103  H13 UNL A   1      41.163  22.210   0.417  1.00  0.00    +0.000 H 
ATOM    104  H14 UNL A   1      41.506  21.577  -1.182  1.00  0.00    +0.000 H 
ATOM     90  O4  UNL A   1      40.020  20.114   1.403  1.00  0.00    +0.000 O 
BRANCH    2    1
ATOM      1  C1  UNL A   1      35.510  20.479   3.267  1.00  0.00    +0.000 C 
ATOM     91  H1  UNL A   1      35.703  21.095   4.121  1.00  0.00    +0.000 H 
ATOM     92  H2  UNL A   1      35.610  19.450   3.539  1.00  0.00    +0.000 H 
ATOM     93  H3  UNL A   1      34.516  20.660   2.915  1.00  0.00    +0.000 H 
ENDBRANCH    2    1
BRANCH    3    4
ATOM      4  C4  UNL A   1      38.228  19.435   3.429  1.00  0.00    +0.000 C 
ATOM     94  H4  UNL A   1      39.089  19.847   3.913  1.00  0.00    +0.000 H 
ATOM     95  H5  UNL A   1      38.459  18.457   3.063  1.00  0.00    +0.000 H 
ATOM     96  H6  UNL A   1      37.422  19.372   4.130  1.00  0.00    +0.000 H 
ENDBRANCH    3    4
BRANCH    7    8
ATOM     97  H7  UNL A   1      36.308  23.757  -0.738  1.00  0.00    +0.000 H 
ATOM     98  H8  UNL A   1      35.927  22.319  -1.655  1.00  0.00    +0.000 H 
ATOM     99  H9  UNL A   1      37.539  22.990  -1.712  1.00  0.00    +0.000 H 
ATOM      8  C8  UNL A   1      36.686  22.820  -1.090  1.00  0.00    +0.000 C 
ENDBRANCH    7    8
BRANCH    9   10
ATOM     10  O1  UNL A   1      34.867  22.053   0.892  1.00  0.00    +0.000 O 
ATOM    100  H10 UNL A   1      34.689  22.974   0.916  1.00  0.00    +0.000 H 
ENDBRANCH    9   10
BRANCH   13   14
ATOM    105  H15 UNL A   1      40.938  18.120  -0.604  1.00  0.00    +0.000 H 
ATOM    106  H16 UNL A   1      40.310  19.316  -1.713  1.00  0.00    +0.000 H 
ATOM    107  H17 UNL A   1      39.312  18.731  -0.403  1.00  0.00    +0.000 H 
ATOM     14  C13 UNL A   1      40.310  18.982  -0.695  1.00  0.00    +0.000 C 
ENDBRANCH   13   14
ENDBRANCH   15   13
ENDBRANCH   17   15
ENDBRANCH   18   17
ENDBRANCH   19   18
ENDBRANCH   20   19
ENDBRANCH   21   20
ENDBRANCH   22   21
ENDBRANCH   23   22
ENDBRANCH   24   23
ENDBRANCH   25   24
ENDBRANCH   27   25
ENDBRANCH   31   30
BRANCH   35   36
ATOM     36  C30 UNL A   1      59.066  17.132  11.312  1.00  0.00    +0.000 C 
ATOM     37  C31 UNL A   1      59.111  15.733  11.414  1.00  0.00    +0.000 C 
ATOM     38  F1  UNL A   1      58.375  15.100  12.340  1.00  0.00    +0.000 F 
ATOM     39  C32 UNL A   1      59.938  14.981  10.583  1.00  0.00    +0.000 C 
ATOM     40  F2  UNL A   1      59.992  13.649  10.724  1.00  0.00    +0.000 F 
ATOM     41  C33 UNL A   1      60.710  15.608   9.618  1.00  0.00    +0.000 C 
ATOM     42  F3  UNL A   1      61.497  14.882   8.813  1.00  0.00    +0.000 F 
ATOM     43  C34 UNL A   1      60.670  16.988   9.490  1.00  0.00    +0.000 C 
ATOM     44  F4  UNL A   1      61.408  17.595   8.551  1.00  0.00    +0.000 F 
ATOM     45  C35 UNL A   1      59.864  17.747  10.337  1.00  0.00    +0.000 C 
ATOM     46  F5  UNL A   1      59.855  19.080  10.196  1.00  0.00    +0.000 F 
ENDBRANCH   35   36
BRANCH   52   53
ATOM     53  C41 UNL A   1      59.272  20.416  17.714  1.00  0.00    +0.000 C 
ATOM     54  C42 UNL A   1      59.965  21.626  17.864  1.00  0.00    +0.000 C 
ATOM     55  F6  UNL A   1      59.817  22.605  16.959  1.00  0.00    +0.000 F 
ATOM     56  C43 UNL A   1      60.833  21.824  18.935  1.00  0.00    +0.000 C 
ATOM     57  F7  UNL A   1      61.509  22.976  19.042  1.00  0.00    +0.000 F 
ATOM     58  C44 UNL A   1      61.003  20.828  19.886  1.00  0.00    +0.000 C 
ATOM     59  F8  UNL A   1      61.828  21.026  20.923  1.00  0.00    +0.000 F 
ATOM     60  C45 UNL A   1      60.321  19.627  19.760  1.00  0.00    +0.000 C 
ATOM     61  F9  UNL A   1      60.475  18.671  20.685  1.00  0.00    +0.000 F 
ATOM     62  C46 UNL A   1      59.471  19.418  18.678  1.00  0.00    +0.000 C 
ATOM     63  F10 UNL A   1      58.825  18.246  18.582  1.00  0.00    +0.000 F 
ENDBRANCH   52   53
BRANCH   67   68
ATOM     68  C50 UNL A   1      52.698  22.539  16.775  1.00  0.00    +0.000 C 
ATOM     69  C51 UNL A   1      51.959  21.963  17.817  1.00  0.00    +0.000 C 
ATOM     70  F11 UNL A   1      52.065  20.649  18.063  1.00  0.00    +0.000 F 
ATOM     71  C52 UNL A   1      51.090  22.728  18.590  1.00  0.00    +0.000 C 
ATOM     72  F12 UNL A   1      50.374  22.147  19.562  1.00  0.00    +0.000 F 
ATOM     73  C53 UNL A   1      50.959  24.088  18.351  1.00  0.00    +0.000 C 
ATOM     74  F13 UNL A   1      50.130  24.826  19.102  1.00  0.00    +0.000 F 
ATOM     75  C54 UNL A   1      51.685  24.681  17.330  1.00  0.00    +0.000 C 
ATOM     76  F14 UNL A   1      51.571  25.997  17.103  1.00  0.00    +0.000 F 
ATOM     77  C55 UNL A   1      52.538  23.912  16.540  1.00  0.00    +0.000 C 
ATOM     78  F15 UNL A   1      53.227  24.511  15.557  1.00  0.00    +0.000 F 
ENDBRANCH   67   68
TORSDOF 20
ENDMDL
MODEL 6
REMARK VINA RESULT:     -10.6      0.621      2.184
ROOT
ATOM    129  H39 UNL A   1      39.894  29.702  31.780  1.00  0.00    +0.000 H 
ATOM    130  H40 UNL A   1      41.546  31.030  36.340  1.00  0.00    +0.000 H 
ATOM    131  H41 UNL A   1      43.662  29.683  35.826  1.00  0.00    +0.000 H 
ATOM    132  H42 UNL A   1      39.889  26.963  26.918  1.00  0.00    +0.000 H 
ATOM    133  H43 UNL A   1      37.937  28.587  27.253  1.00  0.00    +0.000 H 
ATOM     31  C26 UNL A   1      37.916  29.842  29.810  1.00  0.00    +0.000 C 
ATOM     32  C27 UNL A   1      38.961  28.921  29.249  1.00  0.00    +0.000 C 
ATOM     33  N3  UNL A   1      40.073  28.501  29.796  1.00  0.00    +0.000 N 
ATOM     34  C28 UNL A   1      40.652  27.649  28.866  1.00  0.00    +0.000 C 
ATOM     35  C29 UNL A   1      41.844  27.010  28.935  1.00  0.00    +0.000 C 
ATOM     47  C36 UNL A   1      42.753  27.106  30.045  1.00  0.00    +0.000 C 
ATOM     48  C37 UNL A   1      44.000  26.525  30.192  1.00  0.00    +0.000 C 
ATOM     49  C38 UNL A   1      44.503  26.878  31.449  1.00  0.00    +0.000 C 
ATOM     50  C39 UNL A   1      43.585  27.711  32.068  1.00  0.00    +0.000 C 
ATOM     51  N4  UNL A   1      42.515  27.838  31.198  1.00  0.00    +0.000 N 
ATOM     52  C40 UNL A   1      43.677  28.341  33.360  1.00  0.00    +0.000 C 
ATOM     64  C47 UNL A   1      42.741  29.162  33.895  1.00  0.00    +0.000 C 
ATOM     65  N5  UNL A   1      41.531  29.573  33.354  1.00  0.00    +0.000 N 
ATOM     66  C48 UNL A   1      40.978  30.349  34.253  1.00  0.00    +0.000 C 
ATOM     67  C49 UNL A   1      39.670  31.086  34.192  1.00  0.00    +0.000 C 
ATOM     79  C56 UNL A   1      38.898  30.973  33.095  1.00  0.00    +0.000 C 
ATOM     80  C57 UNL A   1      37.611  31.630  32.891  1.00  0.00    +0.000 C 
ATOM     81  C58 UNL A   1      37.118  31.269  31.695  1.00  0.00    +0.000 C 
ATOM     82  C59 UNL A   1      38.074  30.380  31.034  1.00  0.00    +0.000 C 
ATOM     83  N6  UNL A   1      39.096  30.255  31.941  1.00  0.00    +0.000 N 
ATOM     84  C60 UNL A   1      41.770  30.503  35.483  1.00  0.00    +0.000 C 
ATOM     85  C61 UNL A   1      42.849  29.785  35.198  1.00  0.00    +0.000 C 
ATOM     86  C62 UNL A   1      39.747  27.571  27.739  1.00  0.00    +0.000 C 
ATOM     87  C63 UNL A   1      38.713  28.383  27.902  1.00  0.00    +0.000 C 
ATOM    124  H34 UNL A   1      44.478  25.934  29.494  1.00  0.00    +0.000 H 
ATOM    125  H35 UNL A   1      45.403  26.570  31.847  1.00  0.00    +0.000 H 
ATOM    126  H36 UNL A   1      41.703  28.369  31.373  1.00  0.00    +0.000 H 
ATOM    127  H37 UNL A   1      37.152  32.270  33.559  1.00  0.00    +0.000 H 
ATOM    128  H38 UNL A   1      36.212  31.569  31.304  1.00  0.00    +0.000 H 
ENDROOT
BRANCH   31   30
ATOM    134  H44 UNL A   1      37.183  32.146  28.660  1.00  0.00    +0.000 H 
ATOM    135  H45 UNL A   1      35.127  32.663  27.483  1.00  0.00    +0.000 H 
ATOM    123  H33 UNL A   1      35.846  28.192  29.236  1.00  0.00    +0.000 H 
ATOM     88  C64 UNL A   1      36.472  31.412  28.516  1.00  0.00    +0.000 C 
ATOM     89  C65 UNL A   1      35.309  31.701  27.808  1.00  0.00    +0.000 C 
ATOM    122  H32 UNL A   1      33.876  28.667  27.899  1.00  0.00    +0.000 H 
ATOM     27  C22 UNL A   1      34.387  30.685  27.537  1.00  0.00    +0.000 C 
ATOM     28  C23 UNL A   1      34.576  29.405  28.067  1.00  0.00    +0.000 C 
ATOM     29  C24 UNL A   1      35.715  29.131  28.826  1.00  0.00    +0.000 C 
ATOM     30  C25 UNL A   1      36.683  30.125  29.036  1.00  0.00    +0.000 C 
BRANCH   27   25
ATOM     25  C21 UNL A   1      33.187  30.943  26.714  1.00  0.00    +0.000 C 
ATOM     26  O3  UNL A   1      32.504  31.941  26.931  1.00  0.00    +0.000 O 
BRANCH   25   24
ATOM    121  H31 UNL A   1      33.578  29.570  25.310  1.00  0.00    +0.000 H 
ATOM     24  N2  UNL A   1      32.833  30.067  25.720  1.00  0.00    +0.000 N 
BRANCH   24   23
ATOM    119  H29 UNL A   1      30.925  29.320  25.958  1.00  0.00    +0.000 H 
ATOM     23  C20 UNL A   1      31.515  29.768  25.186  1.00  0.00    +0.000 C 
ATOM    120  H30 UNL A   1      31.082  30.685  24.847  1.00  0.00    +0.000 H 
BRANCH   23   22
ATOM    118  H28 UNL A   1      31.458  29.416  23.123  1.00  0.00    +0.000 H 
ATOM    117  H27 UNL A   1      30.805  28.082  24.119  1.00  0.00    +0.000 H 
ATOM     22  C19 UNL A   1      31.577  28.813  23.998  1.00  0.00    +0.000 C 
BRANCH   22   21
ATOM    115  H25 UNL A   1      33.327  28.358  22.889  1.00  0.00    +0.000 H 
ATOM    116  H26 UNL A   1      33.507  28.354  24.673  1.00  0.00    +0.000 H 
ATOM     21  C18 UNL A   1      32.908  28.074  23.832  1.00  0.00    +0.000 C 
BRANCH   21   20
ATOM    113  H23 UNL A   1      32.969  26.180  22.871  1.00  0.00    +0.000 H 
ATOM    114  H24 UNL A   1      33.577  26.221  24.556  1.00  0.00    +0.000 H 
ATOM     20  C17 UNL A   1      32.823  26.543  23.868  1.00  0.00    +0.000 C 
BRANCH   20   19
ATOM     19  C16 UNL A   1      31.502  25.973  24.390  1.00  0.00    +0.000 C 
ATOM    111  H21 UNL A   1      31.722  25.276  25.170  1.00  0.00    +0.000 H 
ATOM    112  H22 UNL A   1      30.921  26.806  24.729  1.00  0.00    +0.000 H 
BRANCH   19   18
ATOM     18  C15 UNL A   1      30.665  25.259  23.331  1.00  0.00    +0.000 C 
ATOM    109  H19 UNL A   1      29.657  25.613  23.387  1.00  0.00    +0.000 H 
ATOM    110  H20 UNL A   1      31.092  25.468  22.371  1.00  0.00    +0.000 H 
BRANCH   18   17
ATOM     17  N1  UNL A   1      30.670  23.820  23.525  1.00  0.00    +0.000 N 
ATOM    108  H18 UNL A   1      30.172  23.320  22.839  1.00  0.00    +0.000 H 
BRANCH   17   15
ATOM     15  C14 UNL A   1      31.244  23.033  24.486  1.00  0.00    +0.000 C 
ATOM     16  O2  UNL A   1      30.580  22.866  25.513  1.00  0.00    +0.000 O 
BRANCH   15   13
ATOM      2  C2  UNL A   1      37.196  23.127  25.761  1.00  0.00    +0.000 C 
ATOM      3  C3  UNL A   1      35.862  23.587  25.626  1.00  0.00    +0.000 C 
ATOM      5  C5  UNL A   1      34.854  22.684  25.237  1.00  0.00    +0.000 C 
ATOM      6  C6  UNL A   1      35.142  21.322  25.033  1.00  0.00    +0.000 C 
ATOM      7  C7  UNL A   1      36.473  20.867  25.120  1.00  0.00    +0.000 C 
ATOM    101  H11 UNL A   1      34.113  19.499  25.307  1.00  0.00    +0.000 H 
ATOM      9  C9  UNL A   1      37.478  21.778  25.478  1.00  0.00    +0.000 C 
ATOM    102  H12 UNL A   1      34.139  20.094  23.650  1.00  0.00    +0.000 H 
ATOM     11  C10 UNL A   1      34.037  20.363  24.680  1.00  0.00    +0.000 C 
ATOM     12  C11 UNL A   1      32.676  20.997  24.877  1.00  0.00    +0.000 C 
ATOM     13  C12 UNL A   1      32.658  22.411  24.294  1.00  0.00    +0.000 C 
ATOM    103  H13 UNL A   1      32.457  21.044  25.924  1.00  0.00    +0.000 H 
ATOM    104  H14 UNL A   1      31.940  20.404  24.375  1.00  0.00    +0.000 H 
ATOM     90  O4  UNL A   1      33.590  23.202  25.070  1.00  0.00    +0.000 O 
BRANCH    2    1
ATOM      1  C1  UNL A   1      38.263  24.090  26.218  1.00  0.00    +0.000 C 
ATOM     91  H1  UNL A   1      38.130  24.302  27.258  1.00  0.00    +0.000 H 
ATOM     92  H2  UNL A   1      38.190  24.997  25.656  1.00  0.00    +0.000 H 
ATOM     93  H3  UNL A   1      39.227  23.652  26.064  1.00  0.00    +0.000 H 
ENDBRANCH    2    1
BRANCH    3    4
ATOM      4  C4  UNL A   1      35.527  25.038  25.877  1.00  0.00    +0.000 C 
ATOM     94  H4  UNL A   1      36.376  25.532  26.303  1.00  0.00    +0.000 H 
ATOM     95  H5  UNL A   1      34.701  25.103  26.555  1.00  0.00    +0.000 H 
ATOM     96  H6  UNL A   1      35.268  25.511  24.953  1.00  0.00    +0.000 H 
ENDBRANCH    3    4
BRANCH    7    8
ATOM     97  H7  UNL A   1      36.572  18.826  25.689  1.00  0.00    +0.000 H 
ATOM     98  H8  UNL A   1      37.842  19.332  24.600  1.00  0.00    +0.000 H 
ATOM     99  H9  UNL A   1      36.221  19.086  23.997  1.00  0.00    +0.000 H 
ATOM      8  C8  UNL A   1      36.800  19.423  24.831  1.00  0.00    +0.000 C 
ENDBRANCH    7    8
BRANCH    9   10
ATOM     10  O1  UNL A   1      38.757  21.291  25.543  1.00  0.00    +0.000 O 
ATOM    100  H10 UNL A   1      39.457  21.758  25.129  1.00  0.00    +0.000 H 
ENDBRANCH    9   10
BRANCH   13   14
ATOM    105  H15 UNL A   1      33.074  21.616  22.340  1.00  0.00    +0.000 H 
ATOM    106  H16 UNL A   1      34.029  23.020  22.753  1.00  0.00    +0.000 H 
ATOM    107  H17 UNL A   1      32.346  23.205  22.320  1.00  0.00    +0.000 H 
ATOM     14  C13 UNL A   1      33.057  22.576  22.814  1.00  0.00    +0.000 C 
ENDBRANCH   13   14
ENDBRANCH   15   13
ENDBRANCH   17   15
ENDBRANCH   18   17
ENDBRANCH   19   18
ENDBRANCH   20   19
ENDBRANCH   21   20
ENDBRANCH   22   21
ENDBRANCH   23   22
ENDBRANCH   24   23
ENDBRANCH   25   24
ENDBRANCH   27   25
ENDBRANCH   31   30
BRANCH   35   36
ATOM     36  C30 UNL A   1      42.241  26.155  27.769  1.00  0.00    +0.000 C 
ATOM     37  C31 UNL A   1      43.141  26.619  26.797  1.00  0.00    +0.000 C 
ATOM     38  F1  UNL A   1      43.621  27.869  26.866  1.00  0.00    +0.000 F 
ATOM     39  C32 UNL A   1      43.527  25.808  25.733  1.00  0.00    +0.000 C 
ATOM     40  F2  UNL A   1      44.358  26.286  24.797  1.00  0.00    +0.000 F 
ATOM     41  C33 UNL A   1      43.045  24.512  25.636  1.00  0.00    +0.000 C 
ATOM     42  F3  UNL A   1      43.425  23.730  24.616  1.00  0.00    +0.000 F 
ATOM     43  C34 UNL A   1      42.165  24.028  26.592  1.00  0.00    +0.000 C 
ATOM     44  F4  UNL A   1      41.707  22.771  26.506  1.00  0.00    +0.000 F 
ATOM     45  C35 UNL A   1      41.757  24.845  27.644  1.00  0.00    +0.000 C 
ATOM     46  F5  UNL A   1      40.897  24.352  28.548  1.00  0.00    +0.000 F 
ENDBRANCH   35   36
BRANCH   52   53
ATOM     53  C41 UNL A   1      44.911  28.078  34.171  1.00  0.00    +0.000 C 
ATOM     54  C42 UNL A   1      46.019  28.934  34.110  1.00  0.00    +0.000 C 
ATOM     55  F6  UNL A   1      46.027  29.968  33.256  1.00  0.00    +0.000 F 
ATOM     56  C43 UNL A   1      47.136  28.715  34.913  1.00  0.00    +0.000 C 
ATOM     57  F7  UNL A   1      48.197  29.528  34.817  1.00  0.00    +0.000 F 
ATOM     58  C44 UNL A   1      47.153  27.653  35.807  1.00  0.00    +0.000 C 
ATOM     59  F8  UNL A   1      48.223  27.452  36.588  1.00  0.00    +0.000 F 
ATOM     60  C45 UNL A   1      46.063  26.799  35.887  1.00  0.00    +0.000 C 
ATOM     61  F9  UNL A   1      46.074  25.782  36.758  1.00  0.00    +0.000 F 
ATOM     62  C46 UNL A   1      44.956  27.002  35.069  1.00  0.00    +0.000 C 
ATOM     63  F10 UNL A   1      43.917  26.160  35.168  1.00  0.00    +0.000 F 
ENDBRANCH   52   53
BRANCH   67   68
ATOM     68  C50 UNL A   1      39.236  31.965  35.307  1.00  0.00    +0.000 C 
ATOM     69  C51 UNL A   1      39.599  33.319  35.333  1.00  0.00    +0.000 C 
ATOM     70  F11 UNL A   1      40.382  33.818  34.366  1.00  0.00    +0.000 F 
ATOM     71  C52 UNL A   1      39.185  34.155  36.366  1.00  0.00    +0.000 C 
ATOM     72  F12 UNL A   1      39.570  35.438  36.382  1.00  0.00    +0.000 F 
ATOM     73  C53 UNL A   1      38.379  33.661  37.381  1.00  0.00    +0.000 C 
ATOM     74  F13 UNL A   1      37.971  34.468  38.369  1.00  0.00    +0.000 F 
ATOM     75  C54 UNL A   1      38.001  32.327  37.373  1.00  0.00    +0.000 C 
ATOM     76  F14 UNL A   1      37.213  31.848  38.346  1.00  0.00    +0.000 F 
ATOM     77  C55 UNL A   1      38.435  31.483  36.352  1.00  0.00    +0.000 C 
ATOM     78  F15 UNL A   1      38.057  30.196  36.370  1.00  0.00    +0.000 F 
ENDBRANCH   67   68
TORSDOF 20
ENDMDL
MODEL 7
REMARK VINA RESULT:     -10.6     17.580     23.668
ROOT
ATOM    129  H39 UNL A   1      28.403  37.320  45.395  1.00  0.00    +0.000 H 
ATOM    130  H40 UNL A   1      33.111  37.362  43.630  1.00  0.00    +0.000 H 
ATOM    131  H41 UNL A   1      33.572  39.276  45.268  1.00  0.00    +0.000 H 
ATOM    132  H42 UNL A   1      23.995  39.117  48.308  1.00  0.00    +0.000 H 
ATOM    133  H43 UNL A   1      23.604  36.979  46.955  1.00  0.00    +0.000 H 
ATOM     31  C26 UNL A   1      25.843  36.196  45.376  1.00  0.00    +0.000 C 
ATOM     32  C27 UNL A   1      25.763  37.332  46.356  1.00  0.00    +0.000 C 
ATOM     33  N3  UNL A   1      26.686  38.195  46.699  1.00  0.00    +0.000 N 
ATOM     34  C28 UNL A   1      26.083  39.046  47.614  1.00  0.00    +0.000 C 
ATOM     35  C29 UNL A   1      26.639  40.067  48.308  1.00  0.00    +0.000 C 
ATOM     47  C36 UNL A   1      28.016  40.466  48.202  1.00  0.00    +0.000 C 
ATOM     48  C37 UNL A   1      28.681  41.465  48.890  1.00  0.00    +0.000 C 
ATOM     49  C38 UNL A   1      30.003  41.506  48.434  1.00  0.00    +0.000 C 
ATOM     50  C39 UNL A   1      30.172  40.506  47.490  1.00  0.00    +0.000 C 
ATOM     51  N4  UNL A   1      28.944  39.879  47.353  1.00  0.00    +0.000 N 
ATOM     52  C40 UNL A   1      31.364  40.150  46.765  1.00  0.00    +0.000 C 
ATOM     64  C47 UNL A   1      31.457  39.142  45.864  1.00  0.00    +0.000 C 
ATOM     65  N5  UNL A   1      30.475  38.254  45.447  1.00  0.00    +0.000 N 
ATOM     66  C48 UNL A   1      31.046  37.477  44.559  1.00  0.00    +0.000 C 
ATOM     67  C49 UNL A   1      30.459  36.325  43.793  1.00  0.00    +0.000 C 
ATOM     79  C56 UNL A   1      29.168  35.992  43.986  1.00  0.00    +0.000 C 
ATOM     80  C57 UNL A   1      28.465  34.900  43.320  1.00  0.00    +0.000 C 
ATOM     81  C58 UNL A   1      27.189  34.880  43.739  1.00  0.00    +0.000 C 
ATOM     82  C59 UNL A   1      26.995  35.939  44.729  1.00  0.00    +0.000 C 
ATOM     83  N6  UNL A   1      28.221  36.552  44.807  1.00  0.00    +0.000 N 
ATOM     84  C60 UNL A   1      32.456  37.799  44.296  1.00  0.00    +0.000 C 
ATOM     85  C61 UNL A   1      32.664  38.801  45.141  1.00  0.00    +0.000 C 
ATOM     86  C62 UNL A   1      24.703  38.629  47.738  1.00  0.00    +0.000 C 
ATOM     87  C63 UNL A   1      24.469  37.538  47.024  1.00  0.00    +0.000 C 
ATOM    124  H34 UNL A   1      28.273  42.075  49.615  1.00  0.00    +0.000 H 
ATOM    125  H35 UNL A   1      30.729  42.168  48.748  1.00  0.00    +0.000 H 
ATOM    126  H36 UNL A   1      28.757  39.129  46.743  1.00  0.00    +0.000 H 
ATOM    127  H37 UNL A   1      28.881  34.248  42.637  1.00  0.00    +0.000 H 
ATOM    128  H38 UNL A   1      26.462  34.224  43.415  1.00  0.00    +0.000 H 
ENDROOT
BRANCH   31   30
ATOM    134  H44 UNL A   1      25.189  33.797  46.370  1.00  0.00    +0.000 H 
ATOM    135  H45 UNL A   1      23.282  32.403  45.826  1.00  0.00    +0.000 H 
ATOM    123  H33 UNL A   1      23.788  36.737  43.695  1.00  0.00    +0.000 H 
ATOM     88  C64 UNL A   1      24.478  34.134  45.702  1.00  0.00    +0.000 C 
ATOM     89  C65 UNL A   1      23.364  33.347  45.419  1.00  0.00    +0.000 C 
ATOM    122  H32 UNL A   1      21.790  35.417  43.296  1.00  0.00    +0.000 H 
ATOM     27  C22 UNL A   1      22.358  33.839  44.583  1.00  0.00    +0.000 C 
ATOM     28  C23 UNL A   1      22.516  35.072  43.943  1.00  0.00    +0.000 C 
ATOM     29  C24 UNL A   1      23.660  35.836  44.183  1.00  0.00    +0.000 C 
ATOM     30  C25 UNL A   1      24.638  35.383  45.083  1.00  0.00    +0.000 C 
BRANCH   27   25
ATOM     25  C21 UNL A   1      21.125  33.063  44.333  1.00  0.00    +0.000 C 
ATOM     26  O3  UNL A   1      21.206  31.878  44.019  1.00  0.00    +0.000 O 
BRANCH   25   24
ATOM    121  H31 UNL A   1      19.835  34.372  45.126  1.00  0.00    +0.000 H 
ATOM     24  N2  UNL A   1      19.898  33.665  44.444  1.00  0.00    +0.000 N 
BRANCH   24   23
ATOM    119  H29 UNL A   1      18.244  34.345  43.416  1.00  0.00    +0.000 H 
ATOM     23  C20 UNL A   1      18.679  33.409  43.697  1.00  0.00    +0.000 C 
ATOM    120  H30 UNL A   1      18.936  32.826  42.838  1.00  0.00    +0.000 H 
BRANCH   23   22
ATOM    118  H28 UNL A   1      16.698  32.873  44.115  1.00  0.00    +0.000 H 
ATOM    117  H27 UNL A   1      17.778  32.884  45.540  1.00  0.00    +0.000 H 
ATOM     22  C19 UNL A   1      17.659  32.618  44.511  1.00  0.00    +0.000 C 
BRANCH   22   21
ATOM    115  H25 UNL A   1      18.441  30.878  43.583  1.00  0.00    +0.000 H 
ATOM    116  H26 UNL A   1      18.137  30.757  45.346  1.00  0.00    +0.000 H 
ATOM     21  C18 UNL A   1      17.780  31.096  44.396  1.00  0.00    +0.000 C 
BRANCH   21   20
ATOM    113  H23 UNL A   1      16.033  30.115  45.100  1.00  0.00    +0.000 H 
ATOM    114  H24 UNL A   1      15.862  30.997  43.551  1.00  0.00    +0.000 H 
ATOM     20  C17 UNL A   1      16.465  30.346  44.148  1.00  0.00    +0.000 C 
BRANCH   20   19
ATOM     19  C16 UNL A   1      16.595  29.042  43.357  1.00  0.00    +0.000 C 
ATOM    111  H21 UNL A   1      17.468  29.107  42.744  1.00  0.00    +0.000 H 
ATOM    112  H22 UNL A   1      16.651  28.251  44.076  1.00  0.00    +0.000 H 
BRANCH   19   18
ATOM     18  C15 UNL A   1      15.400  28.732  42.459  1.00  0.00    +0.000 C 
ATOM    109  H19 UNL A   1      14.518  29.153  42.895  1.00  0.00    +0.000 H 
ATOM    110  H20 UNL A   1      15.588  29.156  41.493  1.00  0.00    +0.000 H 
BRANCH   18   17
ATOM     17  N1  UNL A   1      15.209  27.303  42.295  1.00  0.00    +0.000 N 
ATOM    108  H18 UNL A   1      15.671  26.921  41.514  1.00  0.00    +0.000 H 
BRANCH   17   15
ATOM     15  C14 UNL A   1      14.505  26.388  43.030  1.00  0.00    +0.000 C 
ATOM     16  O2  UNL A   1      14.388  26.638  44.233  1.00  0.00    +0.000 O 
BRANCH   15   13
ATOM      2  C2  UNL A   1      14.322  22.536  38.319  1.00  0.00    +0.000 C 
ATOM      3  C3  UNL A   1      14.561  23.729  39.048  1.00  0.00    +0.000 C 
ATOM      5  C5  UNL A   1      14.327  23.749  40.437  1.00  0.00    +0.000 C 
ATOM      6  C6  UNL A   1      13.912  22.591  41.119  1.00  0.00    +0.000 C 
ATOM      7  C7  UNL A   1      13.628  21.416  40.394  1.00  0.00    +0.000 C 
ATOM    101  H11 UNL A   1      14.222  21.771  43.040  1.00  0.00    +0.000 H 
ATOM      9  C9  UNL A   1      13.833  21.410  39.006  1.00  0.00    +0.000 C 
ATOM    102  H12 UNL A   1      12.683  22.599  42.826  1.00  0.00    +0.000 H 
ATOM     11  C10 UNL A   1      13.731  22.621  42.612  1.00  0.00    +0.000 C 
ATOM     12  C11 UNL A   1      14.316  23.882  43.212  1.00  0.00    +0.000 C 
ATOM     13  C12 UNL A   1      13.913  25.102  42.382  1.00  0.00    +0.000 C 
ATOM    103  H13 UNL A   1      15.384  23.803  43.228  1.00  0.00    +0.000 H 
ATOM    104  H14 UNL A   1      13.942  23.999  44.208  1.00  0.00    +0.000 H 
ATOM     90  O4  UNL A   1      14.526  24.951  41.079  1.00  0.00    +0.000 O 
BRANCH    2    1
ATOM      1  C1  UNL A   1      14.613  22.508  36.840  1.00  0.00    +0.000 C 
ATOM     91  H1  UNL A   1      15.062  23.433  36.547  1.00  0.00    +0.000 H 
ATOM     92  H2  UNL A   1      13.701  22.366  36.299  1.00  0.00    +0.000 H 
ATOM     93  H3  UNL A   1      15.284  21.703  36.625  1.00  0.00    +0.000 H 
ENDBRANCH    2    1
BRANCH    3    4
ATOM      4  C4  UNL A   1      15.043  24.971  38.339  1.00  0.00    +0.000 C 
ATOM     94  H4  UNL A   1      15.615  24.692  37.479  1.00  0.00    +0.000 H 
ATOM     95  H5  UNL A   1      15.655  25.547  39.002  1.00  0.00    +0.000 H 
ATOM     96  H6  UNL A   1      14.202  25.557  38.032  1.00  0.00    +0.000 H 
ENDBRANCH    3    4
BRANCH    7    8
ATOM     97  H7  UNL A   1      12.665  20.481  42.037  1.00  0.00    +0.000 H 
ATOM     98  H8  UNL A   1      13.924  19.520  41.299  1.00  0.00    +0.000 H 
ATOM     99  H9  UNL A   1      12.382  19.703  40.499  1.00  0.00    +0.000 H 
ATOM      8  C8  UNL A   1      13.112  20.192  41.109  1.00  0.00    +0.000 C 
ENDBRANCH    7    8
BRANCH    9   10
ATOM     10  O1  UNL A   1      13.536  20.247  38.345  1.00  0.00    +0.000 O 
ATOM    100  H10 UNL A   1      12.645  20.037  38.146  1.00  0.00    +0.000 H 
ENDBRANCH    9   10
BRANCH   13   14
ATOM    105  H15 UNL A   1      11.841  24.708  42.800  1.00  0.00    +0.000 H 
ATOM    106  H16 UNL A   1      12.166  25.097  41.128  1.00  0.00    +0.000 H 
ATOM    107  H17 UNL A   1      12.170  26.360  42.336  1.00  0.00    +0.000 H 
ATOM     14  C13 UNL A   1      12.407  25.335  42.144  1.00  0.00    +0.000 C 
ENDBRANCH   13   14
ENDBRANCH   15   13
ENDBRANCH   17   15
ENDBRANCH   18   17
ENDBRANCH   19   18
ENDBRANCH   20   19
ENDBRANCH   21   20
ENDBRANCH   22   21
ENDBRANCH   23   22
ENDBRANCH   24   23
ENDBRANCH   25   24
ENDBRANCH   27   25
ENDBRANCH   31   30
BRANCH   35   36
ATOM     36  C30 UNL A   1      25.756  40.821  49.257  1.00  0.00    +0.000 C 
ATOM     37  C31 UNL A   1      25.603  40.414  50.591  1.00  0.00    +0.000 C 
ATOM     38  F1  UNL A   1      26.205  39.297  51.028  1.00  0.00    +0.000 F 
ATOM     39  C32 UNL A   1      24.805  41.137  51.474  1.00  0.00    +0.000 C 
ATOM     40  F2  UNL A   1      24.644  40.706  52.733  1.00  0.00    +0.000 F 
ATOM     41  C33 UNL A   1      24.170  42.294  51.050  1.00  0.00    +0.000 C 
ATOM     42  F3  UNL A   1      23.410  42.993  51.903  1.00  0.00    +0.000 F 
ATOM     43  C34 UNL A   1      24.319  42.723  49.739  1.00  0.00    +0.000 C 
ATOM     44  F4  UNL A   1      23.714  43.847  49.330  1.00  0.00    +0.000 F 
ATOM     45  C35 UNL A   1      25.096  41.988  48.846  1.00  0.00    +0.000 C 
ATOM     46  F5  UNL A   1      25.212  42.423  47.583  1.00  0.00    +0.000 F 
ENDBRANCH   35   36
BRANCH   52   53
ATOM     53  C41 UNL A   1      32.602  40.950  47.037  1.00  0.00    +0.000 C 
ATOM     54  C42 UNL A   1      33.620  40.459  47.867  1.00  0.00    +0.000 C 
ATOM     55  F6  UNL A   1      33.466  39.289  48.503  1.00  0.00    +0.000 F 
ATOM     56  C43 UNL A   1      34.793  41.184  48.064  1.00  0.00    +0.000 C 
ATOM     57  F7  UNL A   1      35.740  40.710  48.885  1.00  0.00    +0.000 F 
ATOM     58  C44 UNL A   1      34.979  42.397  47.416  1.00  0.00    +0.000 C 
ATOM     59  F8  UNL A   1      36.114  43.086  47.596  1.00  0.00    +0.000 F 
ATOM     60  C45 UNL A   1      33.987  42.897  46.585  1.00  0.00    +0.000 C 
ATOM     61  F9  UNL A   1      34.171  44.061  45.950  1.00  0.00    +0.000 F 
ATOM     62  C46 UNL A   1      32.804  42.186  46.405  1.00  0.00    +0.000 C 
ATOM     63  F10 UNL A   1      31.862  42.694  45.597  1.00  0.00    +0.000 F 
ENDBRANCH   52   53
BRANCH   67   68
ATOM     68  C50 UNL A   1      31.290  35.527  42.857  1.00  0.00    +0.000 C 
ATOM     69  C51 UNL A   1      31.418  35.907  41.514  1.00  0.00    +0.000 C 
ATOM     70  F11 UNL A   1      30.749  36.975  41.055  1.00  0.00    +0.000 F 
ATOM     71  C52 UNL A   1      32.208  35.175  40.631  1.00  0.00    +0.000 C 
ATOM     72  F12 UNL A   1      32.290  35.543  39.346  1.00  0.00    +0.000 F 
ATOM     73  C53 UNL A   1      32.905  34.063  41.080  1.00  0.00    +0.000 C 
ATOM     74  F13 UNL A   1      33.674  33.365  40.233  1.00  0.00    +0.000 F 
ATOM     75  C54 UNL A   1      32.800  33.672  42.406  1.00  0.00    +0.000 C 
ATOM     76  F14 UNL A   1      33.482  32.605  42.846  1.00  0.00    +0.000 F 
ATOM     77  C55 UNL A   1      31.991  34.391  43.285  1.00  0.00    +0.000 C 
ATOM     78  F15 UNL A   1      31.905  33.989  44.561  1.00  0.00    +0.000 F 
ENDBRANCH   67   68
TORSDOF 20
ENDMDL
MODEL 8
REMARK VINA RESULT:     -10.6     34.728     42.715
ROOT
ATOM    129  H39 UNL A   1       8.357  -1.162  23.835  1.00  0.00    +0.000 H 
ATOM    130  H40 UNL A   1       6.208  -5.706  23.708  1.00  0.00    +0.000 H 
ATOM    131  H41 UNL A   1       6.375  -5.573  21.156  1.00  0.00    +0.000 H 
ATOM    132  H42 UNL A   1      10.345   3.637  21.795  1.00  0.00    +0.000 H 
ATOM    133  H43 UNL A   1      10.525   3.379  24.336  1.00  0.00    +0.000 H 
ATOM     31  C26 UNL A   1       9.362   0.976  25.330  1.00  0.00    +0.000 C 
ATOM     32  C27 UNL A   1       9.520   1.394  23.896  1.00  0.00    +0.000 C 
ATOM     33  N3  UNL A   1       9.169   0.760  22.806  1.00  0.00    +0.000 N 
ATOM     34  C28 UNL A   1       9.515   1.598  21.755  1.00  0.00    +0.000 C 
ATOM     35  C29 UNL A   1       9.412   1.368  20.425  1.00  0.00    +0.000 C 
ATOM     47  C36 UNL A   1       8.894   0.157  19.849  1.00  0.00    +0.000 C 
ATOM     48  C37 UNL A   1       8.784  -0.184  18.512  1.00  0.00    +0.000 C 
ATOM     49  C38 UNL A   1       8.196  -1.451  18.431  1.00  0.00    +0.000 C 
ATOM     50  C39 UNL A   1       7.977  -1.915  19.718  1.00  0.00    +0.000 C 
ATOM     51  N4  UNL A   1       8.405  -0.917  20.577  1.00  0.00    +0.000 N 
ATOM     52  C40 UNL A   1       7.416  -3.175  20.132  1.00  0.00    +0.000 C 
ATOM     64  C47 UNL A   1       7.247  -3.568  21.418  1.00  0.00    +0.000 C 
ATOM     65  N5  UNL A   1       7.561  -2.886  22.585  1.00  0.00    +0.000 N 
ATOM     66  C48 UNL A   1       7.200  -3.672  23.569  1.00  0.00    +0.000 C 
ATOM     67  C49 UNL A   1       7.324  -3.450  25.051  1.00  0.00    +0.000 C 
ATOM     79  C56 UNL A   1       7.860  -2.302  25.505  1.00  0.00    +0.000 C 
ATOM     80  C57 UNL A   1       8.048  -1.949  26.910  1.00  0.00    +0.000 C 
ATOM     81  C58 UNL A   1       8.587  -0.722  26.986  1.00  0.00    +0.000 C 
ATOM     82  C59 UNL A   1       8.814  -0.216  25.632  1.00  0.00    +0.000 C 
ATOM     83  N6  UNL A   1       8.346  -1.217  24.818  1.00  0.00    +0.000 N 
ATOM     84  C60 UNL A   1       6.595  -4.940  23.136  1.00  0.00    +0.000 C 
ATOM     85  C61 UNL A   1       6.678  -4.839  21.816  1.00  0.00    +0.000 C 
ATOM     86  C62 UNL A   1      10.057   2.808  22.337  1.00  0.00    +0.000 C 
ATOM     87  C63 UNL A   1      10.134   2.709  23.656  1.00  0.00    +0.000 C 
ATOM    124  H34 UNL A   1       9.083   0.396  17.713  1.00  0.00    +0.000 H 
ATOM    125  H35 UNL A   1       7.965  -1.954  17.560  1.00  0.00    +0.000 H 
ATOM    126  H36 UNL A   1       8.366  -0.962  21.561  1.00  0.00    +0.000 H 
ATOM    127  H37 UNL A   1       7.805  -2.548  27.715  1.00  0.00    +0.000 H 
ATOM    128  H38 UNL A   1       8.806  -0.217  27.858  1.00  0.00    +0.000 H 
ENDROOT
BRANCH   31   30
ATOM    134  H44 UNL A   1       7.886   2.860  26.533  1.00  0.00    +0.000 H 
ATOM    135  H45 UNL A   1       8.556   4.446  28.240  1.00  0.00    +0.000 H 
ATOM    123  H33 UNL A   1      11.758   1.199  26.572  1.00  0.00    +0.000 H 
ATOM     88  C64 UNL A   1       8.844   2.831  26.916  1.00  0.00    +0.000 C 
ATOM     89  C65 UNL A   1       9.215   3.718  27.924  1.00  0.00    +0.000 C 
ATOM    122  H32 UNL A   1      12.365   2.665  28.410  1.00  0.00    +0.000 H 
ATOM     27  C22 UNL A   1      10.483   3.621  28.505  1.00  0.00    +0.000 C 
ATOM     28  C23 UNL A   1      11.417   2.709  28.005  1.00  0.00    +0.000 C 
ATOM     29  C24 UNL A   1      11.063   1.858  26.956  1.00  0.00    +0.000 C 
ATOM     30  C25 UNL A   1       9.766   1.897  26.421  1.00  0.00    +0.000 C 
BRANCH   27   25
ATOM     25  C21 UNL A   1      10.873   4.492  29.633  1.00  0.00    +0.000 C 
ATOM     26  O3  UNL A   1      11.556   4.036  30.546  1.00  0.00    +0.000 O 
BRANCH   25   24
ATOM    121  H31 UNL A   1       9.493   5.940  29.720  1.00  0.00    +0.000 H 
ATOM     24  N2  UNL A   1      10.467   5.802  29.664  1.00  0.00    +0.000 N 
BRANCH   24   23
ATOM    119  H29 UNL A   1      10.648   7.826  29.307  1.00  0.00    +0.000 H 
ATOM     23  C20 UNL A   1      11.268   7.013  29.626  1.00  0.00    +0.000 C 
ATOM    120  H30 UNL A   1      11.656   7.181  30.608  1.00  0.00    +0.000 H 
BRANCH   23   22
ATOM    118  H28 UNL A   1      12.365   7.710  27.984  1.00  0.00    +0.000 H 
ATOM    117  H27 UNL A   1      12.398   5.935  28.196  1.00  0.00    +0.000 H 
ATOM     22  C19 UNL A   1      12.450   6.893  28.670  1.00  0.00    +0.000 C 
BRANCH   22   21
ATOM    115  H25 UNL A   1      14.497   7.446  28.604  1.00  0.00    +0.000 H 
ATOM    116  H26 UNL A   1      13.684   7.639  30.190  1.00  0.00    +0.000 H 
ATOM     21  C18 UNL A   1      13.828   7.026  29.325  1.00  0.00    +0.000 C 
BRANCH   21   20
ATOM    113  H23 UNL A   1      15.419   5.941  30.221  1.00  0.00    +0.000 H 
ATOM    114  H24 UNL A   1      13.769   5.339  30.572  1.00  0.00    +0.000 H 
ATOM     20  C17 UNL A   1      14.446   5.718  29.835  1.00  0.00    +0.000 C 
BRANCH   20   19
ATOM     19  C16 UNL A   1      14.594   4.612  28.787  1.00  0.00    +0.000 C 
ATOM    111  H21 UNL A   1      13.659   4.503  28.279  1.00  0.00    +0.000 H 
ATOM    112  H22 UNL A   1      15.389   4.911  28.135  1.00  0.00    +0.000 H 
BRANCH   19   18
ATOM     18  C15 UNL A   1      14.988   3.253  29.361  1.00  0.00    +0.000 C 
ATOM    109  H19 UNL A   1      16.041   3.249  29.554  1.00  0.00    +0.000 H 
ATOM    110  H20 UNL A   1      14.433   3.098  30.264  1.00  0.00    +0.000 H 
BRANCH   18   17
ATOM     17  N1  UNL A   1      14.673   2.172  28.445  1.00  0.00    +0.000 N 
ATOM    108  H18 UNL A   1      13.709   2.014  28.326  1.00  0.00    +0.000 H 
BRANCH   17   15
ATOM     15  C14 UNL A   1      15.472   1.335  27.714  1.00  0.00    +0.000 C 
ATOM     16  O2  UNL A   1      16.623   1.185  28.135  1.00  0.00    +0.000 O 
BRANCH   15   13
ATOM      2  C2  UNL A   1      11.678  -2.634  25.087  1.00  0.00    +0.000 C 
ATOM      3  C3  UNL A   1      12.435  -1.997  26.103  1.00  0.00    +0.000 C 
ATOM      5  C5  UNL A   1      13.157  -0.828  25.796  1.00  0.00    +0.000 C 
ATOM      6  C6  UNL A   1      13.097  -0.254  24.513  1.00  0.00    +0.000 C 
ATOM      7  C7  UNL A   1      12.384  -0.907  23.487  1.00  0.00    +0.000 C 
ATOM    101  H11 UNL A   1      13.162   1.704  23.725  1.00  0.00    +0.000 H 
ATOM      9  C9  UNL A   1      11.691  -2.089  23.790  1.00  0.00    +0.000 C 
ATOM    102  H12 UNL A   1      14.674   0.810  23.616  1.00  0.00    +0.000 H 
ATOM     11  C10 UNL A   1      13.826   1.031  24.228  1.00  0.00    +0.000 C 
ATOM     12  C11 UNL A   1      14.313   1.682  25.505  1.00  0.00    +0.000 C 
ATOM     13  C12 UNL A   1      14.958   0.640  26.420  1.00  0.00    +0.000 C 
ATOM    103  H13 UNL A   1      13.483   2.131  26.011  1.00  0.00    +0.000 H 
ATOM    104  H14 UNL A   1      15.040   2.428  25.259  1.00  0.00    +0.000 H 
ATOM     90  O4  UNL A   1      13.915  -0.286  26.810  1.00  0.00    +0.000 O 
BRANCH    2    1
ATOM      1  C1  UNL A   1      10.874  -3.862  25.431  1.00  0.00    +0.000 C 
ATOM     91  H1  UNL A   1       9.901  -3.787  24.990  1.00  0.00    +0.000 H 
ATOM     92  H2  UNL A   1      10.779  -3.941  26.493  1.00  0.00    +0.000 H 
ATOM     93  H3  UNL A   1      11.370  -4.731  25.051  1.00  0.00    +0.000 H 
ENDBRANCH    2    1
BRANCH    3    4
ATOM      4  C4  UNL A   1      12.482  -2.578  27.496  1.00  0.00    +0.000 C 
ATOM     94  H4  UNL A   1      13.457  -2.976  27.683  1.00  0.00    +0.000 H 
ATOM     95  H5  UNL A   1      11.755  -3.359  27.582  1.00  0.00    +0.000 H 
ATOM     96  H6  UNL A   1      12.267  -1.811  28.210  1.00  0.00    +0.000 H 
ENDBRANCH    3    4
BRANCH    7    8
ATOM     97  H7  UNL A   1      13.291  -0.586  21.596  1.00  0.00    +0.000 H 
ATOM     98  H8  UNL A   1      12.276   0.728  22.140  1.00  0.00    +0.000 H 
ATOM     99  H9  UNL A   1      11.551  -0.746  21.543  1.00  0.00    +0.000 H 
ATOM      8  C8  UNL A   1      12.375  -0.337  22.090  1.00  0.00    +0.000 C 
ENDBRANCH    7    8
BRANCH    9   10
ATOM     10  O1  UNL A   1      11.020  -2.691  22.759  1.00  0.00    +0.000 O 
ATOM    100  H10 UNL A   1      10.089  -2.599  22.689  1.00  0.00    +0.000 H 
ENDBRANCH    9   10
BRANCH   13   14
ATOM    105  H15 UNL A   1      16.381   0.179  24.876  1.00  0.00    +0.000 H 
ATOM    106  H16 UNL A   1      15.794  -1.221  25.741  1.00  0.00    +0.000 H 
ATOM    107  H17 UNL A   1      16.955  -0.153  26.494  1.00  0.00    +0.000 H 
ATOM     14  C13 UNL A   1      16.110  -0.203  25.839  1.00  0.00    +0.000 C 
ENDBRANCH   13   14
ENDBRANCH   15   13
ENDBRANCH   17   15
ENDBRANCH   18   17
ENDBRANCH   19   18
ENDBRANCH   20   19
ENDBRANCH   21   20
ENDBRANCH   22   21
ENDBRANCH   23   22
ENDBRANCH   24   23
ENDBRANCH   25   24
ENDBRANCH   27   25
ENDBRANCH   31   30
BRANCH   35   36
ATOM     36  C30 UNL A   1       9.881   2.449  19.497  1.00  0.00    +0.000 C 
ATOM     37  C31 UNL A   1       9.012   3.458  19.055  1.00  0.00    +0.000 C 
ATOM     38  F1  UNL A   1       7.720   3.439  19.413  1.00  0.00    +0.000 F 
ATOM     39  C32 UNL A   1       9.463   4.474  18.217  1.00  0.00    +0.000 C 
ATOM     40  F2  UNL A   1       8.605   5.406  17.777  1.00  0.00    +0.000 F 
ATOM     41  C33 UNL A   1      10.793   4.519  17.829  1.00  0.00    +0.000 C 
ATOM     42  F3  UNL A   1      11.227   5.502  17.030  1.00  0.00    +0.000 F 
ATOM     43  C34 UNL A   1      11.673   3.539  18.266  1.00  0.00    +0.000 C 
ATOM     44  F4  UNL A   1      12.961   3.586  17.901  1.00  0.00    +0.000 F 
ATOM     45  C35 UNL A   1      11.220   2.506  19.084  1.00  0.00    +0.000 C 
ATOM     46  F5  UNL A   1      12.092   1.568  19.481  1.00  0.00    +0.000 F 
ENDBRANCH   35   36
BRANCH   52   53
ATOM     53  C41 UNL A   1       6.997  -4.132  19.056  1.00  0.00    +0.000 C 
ATOM     54  C42 UNL A   1       5.706  -4.096  18.510  1.00  0.00    +0.000 C 
ATOM     55  F6  UNL A   1       4.789  -3.250  19.002  1.00  0.00    +0.000 F 
ATOM     56  C43 UNL A   1       5.347  -4.949  17.470  1.00  0.00    +0.000 C 
ATOM     57  F7  UNL A   1       4.099  -4.919  16.983  1.00  0.00    +0.000 F 
ATOM     58  C44 UNL A   1       6.277  -5.832  16.941  1.00  0.00    +0.000 C 
ATOM     59  F8  UNL A   1       5.933  -6.643  15.930  1.00  0.00    +0.000 F 
ATOM     60  C45 UNL A   1       7.562  -5.879  17.462  1.00  0.00    +0.000 C 
ATOM     61  F9  UNL A   1       8.464  -6.722  16.944  1.00  0.00    +0.000 F 
ATOM     62  C46 UNL A   1       7.916  -5.044  18.518  1.00  0.00    +0.000 C 
ATOM     63  F10 UNL A   1       9.165  -5.111  19.002  1.00  0.00    +0.000 F 
ENDBRANCH   52   53
BRANCH   67   68
ATOM     68  C50 UNL A   1       6.897  -4.494  26.017  1.00  0.00    +0.000 C 
ATOM     69  C51 UNL A   1       5.716  -4.343  26.757  1.00  0.00    +0.000 C 
ATOM     70  F11 UNL A   1       4.984  -3.227  26.625  1.00  0.00    +0.000 F 
ATOM     71  C52 UNL A   1       5.299  -5.323  27.654  1.00  0.00    +0.000 C 
ATOM     72  F12 UNL A   1       4.181  -5.140  28.369  1.00  0.00    +0.000 F 
ATOM     73  C53 UNL A   1       6.041  -6.483  27.812  1.00  0.00    +0.000 C 
ATOM     74  F13 UNL A   1       5.634  -7.431  28.667  1.00  0.00    +0.000 F 
ATOM     75  C54 UNL A   1       7.210  -6.658  27.086  1.00  0.00    +0.000 C 
ATOM     76  F14 UNL A   1       7.924  -7.784  27.227  1.00  0.00    +0.000 F 
ATOM     77  C55 UNL A   1       7.641  -5.667  26.205  1.00  0.00    +0.000 C 
ATOM     78  F15 UNL A   1       8.776  -5.861  25.517  1.00  0.00    +0.000 F 
ENDBRANCH   67   68
TORSDOF 20
ENDMDL
MODEL 9
REMARK VINA RESULT:     -10.5     19.287     25.625
ROOT
ATOM    129  H39 UNL A   1      48.523  11.807  49.316  1.00  0.00    +0.000 H 
ATOM    130  H40 UNL A   1      50.597   9.419  53.224  1.00  0.00    +0.000 H 
ATOM    131  H41 UNL A   1      51.975  11.539  53.625  1.00  0.00    +0.000 H 
ATOM    132  H42 UNL A   1      47.854  15.869  45.547  1.00  0.00    +0.000 H 
ATOM    133  H43 UNL A   1      46.212  13.915  45.342  1.00  0.00    +0.000 H 
ATOM     31  C26 UNL A   1      46.698  11.809  47.198  1.00  0.00    +0.000 C 
ATOM     32  C27 UNL A   1      47.400  13.134  47.109  1.00  0.00    +0.000 C 
ATOM     33  N3  UNL A   1      48.369  13.608  47.851  1.00  0.00    +0.000 N 
ATOM     34  C28 UNL A   1      48.667  14.858  47.326  1.00  0.00    +0.000 C 
ATOM     35  C29 UNL A   1      49.555  15.773  47.781  1.00  0.00    +0.000 C 
ATOM     47  C36 UNL A   1      50.387  15.590  48.940  1.00  0.00    +0.000 C 
ATOM     48  C37 UNL A   1      51.293  16.473  49.500  1.00  0.00    +0.000 C 
ATOM     49  C38 UNL A   1      51.889  15.850  50.601  1.00  0.00    +0.000 C 
ATOM     50  C39 UNL A   1      51.326  14.592  50.749  1.00  0.00    +0.000 C 
ATOM     51  N4  UNL A   1      50.411  14.444  49.720  1.00  0.00    +0.000 N 
ATOM     52  C40 UNL A   1      51.606  13.599  51.754  1.00  0.00    +0.000 C 
ATOM     64  C47 UNL A   1      50.999  12.391  51.845  1.00  0.00    +0.000 C 
ATOM     65  N5  UNL A   1      50.011  11.849  51.035  1.00  0.00    +0.000 N 
ATOM     66  C48 UNL A   1      49.761  10.657  51.519  1.00  0.00    +0.000 C 
ATOM     67  C49 UNL A   1      48.766   9.633  51.047  1.00  0.00    +0.000 C 
ATOM     79  C56 UNL A   1      47.996   9.904  49.977  1.00  0.00    +0.000 C 
ATOM     80  C57 UNL A   1      46.988   9.014  49.409  1.00  0.00    +0.000 C 
ATOM     81  C58 UNL A   1      46.436   9.604  48.336  1.00  0.00    +0.000 C 
ATOM     82  C59 UNL A   1      47.030  10.930  48.162  1.00  0.00    +0.000 C 
ATOM     83  N6  UNL A   1      47.950  11.020  49.177  1.00  0.00    +0.000 N 
ATOM     84  C60 UNL A   1      50.581  10.298  52.685  1.00  0.00    +0.000 C 
ATOM     85  C61 UNL A   1      51.295  11.402  52.861  1.00  0.00    +0.000 C 
ATOM     86  C62 UNL A   1      47.813  15.050  46.174  1.00  0.00    +0.000 C 
ATOM     87  C63 UNL A   1      46.971  14.037  46.030  1.00  0.00    +0.000 C 
ATOM    124  H34 UNL A   1      51.493  17.428  49.164  1.00  0.00    +0.000 H 
ATOM    125  H35 UNL A   1      52.623  16.257  51.200  1.00  0.00    +0.000 H 
ATOM    126  H36 UNL A   1      49.859  13.643  49.566  1.00  0.00    +0.000 H 
ATOM    127  H37 UNL A   1      46.740   8.081  49.773  1.00  0.00    +0.000 H 
ATOM    128  H38 UNL A   1      45.710   9.190  47.731  1.00  0.00    +0.000 H 
ENDROOT
BRANCH   31   30
ATOM    134  H44 UNL A   1      44.075  12.346  47.255  1.00  0.00    +0.000 H 
ATOM    135  H45 UNL A   1      42.358  11.670  45.682  1.00  0.00    +0.000 H 
ATOM    123  H33 UNL A   1      46.983  10.422  44.888  1.00  0.00    +0.000 H 
ATOM     88  C64 UNL A   1      44.331  11.811  46.410  1.00  0.00    +0.000 C 
ATOM     89  C65 UNL A   1      43.348  11.457  45.489  1.00  0.00    +0.000 C 
ATOM    122  H32 UNL A   1      45.288   9.910  43.228  1.00  0.00    +0.000 H 
ATOM     27  C22 UNL A   1      43.707  10.810  44.303  1.00  0.00    +0.000 C 
ATOM     28  C23 UNL A   1      45.032  10.421  44.087  1.00  0.00    +0.000 C 
ATOM     29  C24 UNL A   1      46.008  10.727  45.037  1.00  0.00    +0.000 C 
ATOM     30  C25 UNL A   1      45.668  11.445  46.194  1.00  0.00    +0.000 C 
BRANCH   27   25
ATOM     25  C21 UNL A   1      42.697  10.499  43.269  1.00  0.00    +0.000 C 
ATOM     26  O3  UNL A   1      42.947   9.658  42.408  1.00  0.00    +0.000 O 
BRANCH   25   24
ATOM    121  H31 UNL A   1      40.725  10.625  43.589  1.00  0.00    +0.000 H 
ATOM     24  N2  UNL A   1      41.491  11.152  43.266  1.00  0.00    +0.000 N 
BRANCH   24   23
ATOM    119  H29 UNL A   1      40.135  12.681  42.980  1.00  0.00    +0.000 H 
ATOM     23  C20 UNL A   1      41.184  12.511  42.854  1.00  0.00    +0.000 C 
ATOM    120  H30 UNL A   1      41.762  13.176  43.460  1.00  0.00    +0.000 H 
BRANCH   23   22
ATOM    118  H28 UNL A   1      40.785  12.308  40.809  1.00  0.00    +0.000 H 
ATOM    117  H27 UNL A   1      42.524  12.359  41.221  1.00  0.00    +0.000 H 
ATOM     22  C19 UNL A   1      41.552  12.769  41.396  1.00  0.00    +0.000 C 
BRANCH   22   21
ATOM    115  H25 UNL A   1      40.576  14.538  40.750  1.00  0.00    +0.000 H 
ATOM    116  H26 UNL A   1      41.998  14.772  41.816  1.00  0.00    +0.000 H 
ATOM     21  C18 UNL A   1      41.577  14.244  40.986  1.00  0.00    +0.000 C 
BRANCH   21   20
ATOM    113  H23 UNL A   1      43.364  14.008  39.864  1.00  0.00    +0.000 H 
ATOM    114  H24 UNL A   1      41.885  14.344  38.913  1.00  0.00    +0.000 H 
ATOM     20  C17 UNL A   1      42.464  14.580  39.781  1.00  0.00    +0.000 C 
BRANCH   20   19
ATOM     19  C16 UNL A   1      42.851  16.055  39.644  1.00  0.00    +0.000 C 
ATOM    111  H21 UNL A   1      42.167  16.520  38.966  1.00  0.00    +0.000 H 
ATOM    112  H22 UNL A   1      42.811  16.475  40.628  1.00  0.00    +0.000 H 
BRANCH   19   18
ATOM     18  C15 UNL A   1      44.269  16.285  39.127  1.00  0.00    +0.000 C 
ATOM    109  H19 UNL A   1      44.548  15.465  38.499  1.00  0.00    +0.000 H 
ATOM    110  H20 UNL A   1      44.280  17.206  38.581  1.00  0.00    +0.000 H 
BRANCH   18   17
ATOM     17  N1  UNL A   1      45.225  16.393  40.214  1.00  0.00    +0.000 N 
ATOM    108  H18 UNL A   1      45.909  15.685  40.221  1.00  0.00    +0.000 H 
BRANCH   17   15
ATOM     15  C14 UNL A   1      45.350  17.301  41.231  1.00  0.00    +0.000 C 
ATOM     16  O2  UNL A   1      45.486  18.479  40.888  1.00  0.00    +0.000 O 
BRANCH   15   13
ATOM      2  C2  UNL A   1      44.862  18.809  47.108  1.00  0.00    +0.000 C 
ATOM      3  C3  UNL A   1      45.079  18.958  45.715  1.00  0.00    +0.000 C 
ATOM      5  C5  UNL A   1      44.873  17.858  44.861  1.00  0.00    +0.000 C 
ATOM      6  C6  UNL A   1      44.405  16.630  45.363  1.00  0.00    +0.000 C 
ATOM      7  C7  UNL A   1      44.232  16.460  46.752  1.00  0.00    +0.000 C 
ATOM    101  H11 UNL A   1      43.170  15.073  44.648  1.00  0.00    +0.000 H 
ATOM      9  C9  UNL A   1      44.468  17.552  47.601  1.00  0.00    +0.000 C 
ATOM    102  H12 UNL A   1      44.898  14.753  44.550  1.00  0.00    +0.000 H 
ATOM     11  C10 UNL A   1      44.131  15.487  44.422  1.00  0.00    +0.000 C 
ATOM     12  C11 UNL A   1      44.144  15.947  42.980  1.00  0.00    +0.000 C 
ATOM     13  C12 UNL A   1      45.344  16.860  42.724  1.00  0.00    +0.000 C 
ATOM    103  H13 UNL A   1      43.241  16.485  42.773  1.00  0.00    +0.000 H 
ATOM    104  H14 UNL A   1      44.215  15.091  42.342  1.00  0.00    +0.000 H 
ATOM     90  O4  UNL A   1      45.152  18.050  43.527  1.00  0.00    +0.000 O 
BRANCH    2    1
ATOM      1  C1  UNL A   1      45.044  20.003  48.012  1.00  0.00    +0.000 C 
ATOM     91  H1  UNL A   1      44.759  20.892  47.491  1.00  0.00    +0.000 H 
ATOM     92  H2  UNL A   1      46.070  20.074  48.307  1.00  0.00    +0.000 H 
ATOM     93  H3  UNL A   1      44.431  19.888  48.882  1.00  0.00    +0.000 H 
ENDBRANCH    2    1
BRANCH    3    4
ATOM      4  C4  UNL A   1      45.546  20.280  45.153  1.00  0.00    +0.000 C 
ATOM     94  H4  UNL A   1      44.876  20.597  44.382  1.00  0.00    +0.000 H 
ATOM     95  H5  UNL A   1      46.530  20.168  44.746  1.00  0.00    +0.000 H 
ATOM     96  H6  UNL A   1      45.564  21.013  45.932  1.00  0.00    +0.000 H 
ENDBRANCH    3    4
BRANCH    7    8
ATOM     97  H7  UNL A   1      43.632  14.442  46.497  1.00  0.00    +0.000 H 
ATOM     98  H8  UNL A   1      42.896  15.245  47.864  1.00  0.00    +0.000 H 
ATOM     99  H9  UNL A   1      44.566  14.739  47.944  1.00  0.00    +0.000 H 
ATOM      8  C8  UNL A   1      43.800  15.125  47.304  1.00  0.00    +0.000 C 
ENDBRANCH    7    8
BRANCH    9   10
ATOM     10  O1  UNL A   1      44.293  17.337  48.942  1.00  0.00    +0.000 O 
ATOM    100  H10 UNL A   1      44.191  18.066  49.524  1.00  0.00    +0.000 H 
ENDBRANCH    9   10
BRANCH   13   14
ATOM    105  H15 UNL A   1      47.420  16.535  42.269  1.00  0.00    +0.000 H 
ATOM    106  H16 UNL A   1      46.686  15.248  43.197  1.00  0.00    +0.000 H 
ATOM    107  H17 UNL A   1      47.093  16.762  43.971  1.00  0.00    +0.000 H 
ATOM     14  C13 UNL A   1      46.743  16.310  43.066  1.00  0.00    +0.000 C 
ENDBRANCH   13   14
ENDBRANCH   15   13
ENDBRANCH   17   15
ENDBRANCH   18   17
ENDBRANCH   19   18
ENDBRANCH   20   19
ENDBRANCH   21   20
ENDBRANCH   22   21
ENDBRANCH   23   22
ENDBRANCH   24   23
ENDBRANCH   25   24
ENDBRANCH   27   25
ENDBRANCH   31   30
BRANCH   35   36
ATOM     36  C30 UNL A   1      49.667  17.064  47.028  1.00  0.00    +0.000 C 
ATOM     37  C31 UNL A   1      48.851  18.163  47.340  1.00  0.00    +0.000 C 
ATOM     38  F1  UNL A   1      47.909  18.055  48.288  1.00  0.00    +0.000 F 
ATOM     39  C32 UNL A   1      48.981  19.369  46.655  1.00  0.00    +0.000 C 
ATOM     40  F2  UNL A   1      48.165  20.392  46.945  1.00  0.00    +0.000 F 
ATOM     41  C33 UNL A   1      49.945  19.509  45.669  1.00  0.00    +0.000 C 
ATOM     42  F3  UNL A   1      50.075  20.672  45.018  1.00  0.00    +0.000 F 
ATOM     43  C34 UNL A   1      50.772  18.440  45.354  1.00  0.00    +0.000 C 
ATOM     44  F4  UNL A   1      51.712  18.577  44.409  1.00  0.00    +0.000 F 
ATOM     45  C35 UNL A   1      50.628  17.224  46.019  1.00  0.00    +0.000 C 
ATOM     46  F5  UNL A   1      51.434  16.207  45.685  1.00  0.00    +0.000 F 
ENDBRANCH   35   36
BRANCH   52   53
ATOM     53  C41 UNL A   1      52.640  13.932  52.786  1.00  0.00    +0.000 C 
ATOM     54  C42 UNL A   1      52.290  14.540  54.000  1.00  0.00    +0.000 C 
ATOM     55  F6  UNL A   1      51.022  14.912  54.227  1.00  0.00    +0.000 F 
ATOM     56  C43 UNL A   1      53.250  14.790  54.977  1.00  0.00    +0.000 C 
ATOM     57  F7  UNL A   1      52.899  15.399  56.118  1.00  0.00    +0.000 F 
ATOM     58  C44 UNL A   1      54.570  14.414  54.769  1.00  0.00    +0.000 C 
ATOM     59  F8  UNL A   1      55.489  14.642  55.716  1.00  0.00    +0.000 F 
ATOM     60  C45 UNL A   1      54.936  13.805  53.578  1.00  0.00    +0.000 C 
ATOM     61  F9  UNL A   1      56.207  13.430  53.381  1.00  0.00    +0.000 F 
ATOM     62  C46 UNL A   1      53.982  13.575  52.590  1.00  0.00    +0.000 C 
ATOM     63  F10 UNL A   1      54.365  12.985  51.448  1.00  0.00    +0.000 F 
ENDBRANCH   52   53
BRANCH   67   68
ATOM     68  C50 UNL A   1      48.596   8.346  51.767  1.00  0.00    +0.000 C 
ATOM     69  C51 UNL A   1      49.451   7.265  51.509  1.00  0.00    +0.000 C 
ATOM     70  F11 UNL A   1      50.405   7.377  50.574  1.00  0.00    +0.000 F 
ATOM     71  C52 UNL A   1      49.310   6.059  52.190  1.00  0.00    +0.000 C 
ATOM     72  F12 UNL A   1      50.121   5.032  51.905  1.00  0.00    +0.000 F 
ATOM     73  C53 UNL A   1      48.327   5.917  53.158  1.00  0.00    +0.000 C 
ATOM     74  F13 UNL A   1      48.198   4.759  53.821  1.00  0.00    +0.000 F 
ATOM     75  C54 UNL A   1      47.474   6.975  53.436  1.00  0.00    +0.000 C 
ATOM     76  F14 UNL A   1      46.530   6.845  54.379  1.00  0.00    +0.000 F 
ATOM     77  C55 UNL A   1      47.599   8.175  52.738  1.00  0.00    +0.000 C 
ATOM     78  F15 UNL A   1      46.760   9.181  53.024  1.00  0.00    +0.000 F 
ENDBRANCH   67   68
TORSDOF 20
ENDMDL
MODEL 10
REMARK VINA RESULT:     -10.5     23.088     30.057
ROOT
ATOM    129  H39 UNL A   1      22.008  37.981  47.637  1.00  0.00    +0.000 H 
ATOM    130  H40 UNL A   1      19.002  33.952  47.519  1.00  0.00    +0.000 H 
ATOM    131  H41 UNL A   1      17.257  35.377  48.736  1.00  0.00    +0.000 H 
ATOM    132  H42 UNL A   1      23.662  43.112  49.077  1.00  0.00    +0.000 H 
ATOM    133  H43 UNL A   1      25.276  41.839  47.551  1.00  0.00    +0.000 H 
ATOM     31  C26 UNL A   1      24.447  39.176  46.973  1.00  0.00    +0.000 C 
ATOM     32  C27 UNL A   1      23.696  40.223  47.745  1.00  0.00    +0.000 C 
ATOM     33  N3  UNL A   1      22.518  40.149  48.309  1.00  0.00    +0.000 N 
ATOM     34  C28 UNL A   1      22.312  41.382  48.914  1.00  0.00    +0.000 C 
ATOM     35  C29 UNL A   1      21.215  41.824  49.572  1.00  0.00    +0.000 C 
ATOM     47  C36 UNL A   1      20.021  41.049  49.773  1.00  0.00    +0.000 C 
ATOM     48  C37 UNL A   1      18.843  41.423  50.397  1.00  0.00    +0.000 C 
ATOM     49  C38 UNL A   1      17.971  40.329  50.378  1.00  0.00    +0.000 C 
ATOM     50  C39 UNL A   1      18.591  39.287  49.708  1.00  0.00    +0.000 C 
ATOM     51  N4  UNL A   1      19.850  39.740  49.348  1.00  0.00    +0.000 N 
ATOM     52  C40 UNL A   1      18.075  37.973  49.422  1.00  0.00    +0.000 C 
ATOM     64  C47 UNL A   1      18.738  37.006  48.742  1.00  0.00    +0.000 C 
ATOM     65  N5  UNL A   1      20.008  37.048  48.186  1.00  0.00    +0.000 N 
ATOM     66  C48 UNL A   1      20.205  35.869  47.648  1.00  0.00    +0.000 C 
ATOM     67  C49 UNL A   1      21.402  35.361  46.893  1.00  0.00    +0.000 C 
ATOM     79  C56 UNL A   1      22.463  36.170  46.715  1.00  0.00    +0.000 C 
ATOM     80  C57 UNL A   1      23.688  35.819  46.003  1.00  0.00    +0.000 C 
ATOM     81  C58 UNL A   1      24.534  36.861  46.045  1.00  0.00    +0.000 C 
ATOM     82  C59 UNL A   1      23.895  37.966  46.760  1.00  0.00    +0.000 C 
ATOM     83  N6  UNL A   1      22.671  37.464  47.127  1.00  0.00    +0.000 N 
ATOM     84  C60 UNL A   1      19.083  34.935  47.820  1.00  0.00    +0.000 C 
ATOM     85  C61 UNL A   1      18.203  35.689  48.466  1.00  0.00    +0.000 C 
ATOM     86  C62 UNL A   1      23.505  42.169  48.691  1.00  0.00    +0.000 C 
ATOM     87  C63 UNL A   1      24.369  41.519  47.925  1.00  0.00    +0.000 C 
ATOM    124  H34 UNL A   1      18.643  42.349  50.805  1.00  0.00    +0.000 H 
ATOM    125  H35 UNL A   1      17.027  40.303  50.793  1.00  0.00    +0.000 H 
ATOM    126  H36 UNL A   1      20.523  39.211  48.861  1.00  0.00    +0.000 H 
ATOM    127  H37 UNL A   1      23.875  34.915  45.541  1.00  0.00    +0.000 H 
ATOM    128  H38 UNL A   1      25.483  36.880  45.640  1.00  0.00    +0.000 H 
ENDROOT
BRANCH   31   30
ATOM    134  H44 UNL A   1      26.656  37.703  47.319  1.00  0.00    +0.000 H 
ATOM    135  H45 UNL A   1      28.925  38.191  46.619  1.00  0.00    +0.000 H 
ATOM    123  H33 UNL A   1      25.348  41.294  45.545  1.00  0.00    +0.000 H 
ATOM     88  C64 UNL A   1      26.856  38.559  46.778  1.00  0.00    +0.000 C 
ATOM     89  C65 UNL A   1      28.154  38.818  46.345  1.00  0.00    +0.000 C 
ATOM    122  H32 UNL A   1      27.586  41.683  44.689  1.00  0.00    +0.000 H 
ATOM     27  C22 UNL A   1      28.409  39.931  45.537  1.00  0.00    +0.000 C 
ATOM     28  C23 UNL A   1      27.387  40.842  45.254  1.00  0.00    +0.000 C 
ATOM     29  C24 UNL A   1      26.098  40.611  45.736  1.00  0.00    +0.000 C 
ATOM     30  C25 UNL A   1      25.818  39.455  46.481  1.00  0.00    +0.000 C 
BRANCH   27   25
ATOM     25  C21 UNL A   1      29.759  40.184  44.992  1.00  0.00    +0.000 C 
ATOM     26  O3  UNL A   1      30.025  39.843  43.842  1.00  0.00    +0.000 O 
BRANCH   25   24
ATOM    121  H31 UNL A   1      31.396  40.186  46.145  1.00  0.00    +0.000 H 
ATOM     24  N2  UNL A   1      30.713  40.789  45.771  1.00  0.00    +0.000 N 
BRANCH   24   23
ATOM    119  H29 UNL A   1      31.885  42.470  46.004  1.00  0.00    +0.000 H 
ATOM     23  C20 UNL A   1      30.859  42.191  46.121  1.00  0.00    +0.000 C 
ATOM    120  H30 UNL A   1      30.225  42.758  45.474  1.00  0.00    +0.000 H 
BRANCH   23   22
ATOM    118  H28 UNL A   1      29.453  42.898  47.503  1.00  0.00    +0.000 H 
ATOM    117  H27 UNL A   1      31.156  43.130  47.996  1.00  0.00    +0.000 H 
ATOM     22  C19 UNL A   1      30.434  42.473  47.559  1.00  0.00    +0.000 C 
BRANCH   22   21
ATOM    115  H25 UNL A   1      30.514  40.374  47.851  1.00  0.00    +0.000 H 
ATOM    116  H26 UNL A   1      31.016  41.379  49.248  1.00  0.00    +0.000 H 
ATOM     21  C18 UNL A   1      30.314  41.236  48.453  1.00  0.00    +0.000 C 
BRANCH   21   20
ATOM    113  H23 UNL A   1      28.560  40.092  48.806  1.00  0.00    +0.000 H 
ATOM    114  H24 UNL A   1      29.130  41.090  50.179  1.00  0.00    +0.000 H 
ATOM     20  C17 UNL A   1      28.951  41.036  49.125  1.00  0.00    +0.000 C 
BRANCH   20   19
ATOM     19  C16 UNL A   1      27.905  42.110  48.816  1.00  0.00    +0.000 C 
ATOM    111  H21 UNL A   1      28.367  42.865  48.217  1.00  0.00    +0.000 H 
ATOM    112  H22 UNL A   1      27.098  41.617  48.314  1.00  0.00    +0.000 H 
BRANCH   19   18
ATOM     18  C15 UNL A   1      27.308  42.778  50.053  1.00  0.00    +0.000 C 
ATOM    109  H19 UNL A   1      27.970  43.550  50.384  1.00  0.00    +0.000 H 
ATOM    110  H20 UNL A   1      26.352  43.181  49.786  1.00  0.00    +0.000 H 
BRANCH   18   17
ATOM     17  N1  UNL A   1      27.112  41.828  51.133  1.00  0.00    +0.000 N 
ATOM    108  H18 UNL A   1      27.948  41.478  51.517  1.00  0.00    +0.000 H 
BRANCH   17   15
ATOM     15  C14 UNL A   1      25.978  41.334  51.717  1.00  0.00    +0.000 C 
ATOM     16  O2  UNL A   1      25.296  42.149  52.347  1.00  0.00    +0.000 O 
BRANCH   15   13
ATOM      2  C2  UNL A   1      21.645  37.060  51.563  1.00  0.00    +0.000 C 
ATOM      3  C3  UNL A   1      22.266  38.311  51.812  1.00  0.00    +0.000 C 
ATOM      5  C5  UNL A   1      23.583  38.530  51.366  1.00  0.00    +0.000 C 
ATOM      6  C6  UNL A   1      24.272  37.548  50.632  1.00  0.00    +0.000 C 
ATOM      7  C7  UNL A   1      23.680  36.286  50.421  1.00  0.00    +0.000 C 
ATOM    101  H11 UNL A   1      25.705  37.544  49.081  1.00  0.00    +0.000 H 
ATOM      9  C9  UNL A   1      22.378  36.063  50.894  1.00  0.00    +0.000 C 
ATOM    102  H12 UNL A   1      26.357  37.269  50.693  1.00  0.00    +0.000 H 
ATOM     11  C10 UNL A   1      25.656  37.830  50.111  1.00  0.00    +0.000 C 
ATOM     12  C11 UNL A   1      26.000  39.299  50.231  1.00  0.00    +0.000 C 
ATOM     13  C12 UNL A   1      25.593  39.830  51.608  1.00  0.00    +0.000 C 
ATOM    103  H13 UNL A   1      25.478  39.847  49.474  1.00  0.00    +0.000 H 
ATOM    104  H14 UNL A   1      27.056  39.420  50.110  1.00  0.00    +0.000 H 
ATOM     90  O4  UNL A   1      24.150  39.743  51.686  1.00  0.00    +0.000 O 
BRANCH    2    1
ATOM      1  C1  UNL A   1      20.220  36.845  52.006  1.00  0.00    +0.000 C 
ATOM     91  H1  UNL A   1      20.089  37.242  52.991  1.00  0.00    +0.000 H 
ATOM     92  H2  UNL A   1      20.001  35.799  52.011  1.00  0.00    +0.000 H 
ATOM     93  H3  UNL A   1      19.558  37.345  51.330  1.00  0.00    +0.000 H 
ENDBRANCH    2    1
BRANCH    3    4
ATOM      4  C4  UNL A   1      21.528  39.391  52.567  1.00  0.00    +0.000 C 
ATOM     94  H4  UNL A   1      20.962  39.984  51.878  1.00  0.00    +0.000 H 
ATOM     95  H5  UNL A   1      22.231  40.014  53.078  1.00  0.00    +0.000 H 
ATOM     96  H6  UNL A   1      20.866  38.942  53.278  1.00  0.00    +0.000 H 
ENDBRANCH    3    4
BRANCH    7    8
ATOM     97  H7  UNL A   1      25.358  35.006  50.213  1.00  0.00    +0.000 H 
ATOM     98  H8  UNL A   1      24.655  35.524  48.699  1.00  0.00    +0.000 H 
ATOM     99  H9  UNL A   1      23.850  34.312  49.667  1.00  0.00    +0.000 H 
ATOM      8  C8  UNL A   1      24.441  35.203  49.698  1.00  0.00    +0.000 C 
ENDBRANCH    7    8
BRANCH    9   10
ATOM     10  O1  UNL A   1      21.847  34.820  50.671  1.00  0.00    +0.000 O 
ATOM    100  H10 UNL A   1      22.233  34.254  50.031  1.00  0.00    +0.000 H 
ENDBRANCH    9   10
BRANCH   13   14
ATOM    105  H15 UNL A   1      25.357  38.905  53.534  1.00  0.00    +0.000 H 
ATOM    106  H16 UNL A   1      26.891  39.716  53.318  1.00  0.00    +0.000 H 
ATOM    107  H17 UNL A   1      26.599  38.176  52.544  1.00  0.00    +0.000 H 
ATOM     14  C13 UNL A   1      26.152  39.100  52.845  1.00  0.00    +0.000 C 
ENDBRANCH   13   14
ENDBRANCH   15   13
ENDBRANCH   17   15
ENDBRANCH   18   17
ENDBRANCH   19   18
ENDBRANCH   20   19
ENDBRANCH   21   20
ENDBRANCH   22   21
ENDBRANCH   23   22
ENDBRANCH   24   23
ENDBRANCH   25   24
ENDBRANCH   27   25
ENDBRANCH   31   30
BRANCH   35   36
ATOM     36  C30 UNL A   1      21.251  43.221  50.117  1.00  0.00    +0.000 C 
ATOM     37  C31 UNL A   1      21.767  43.492  51.394  1.00  0.00    +0.000 C 
ATOM     38  F1  UNL A   1      22.187  42.489  52.178  1.00  0.00    +0.000 F 
ATOM     39  C32 UNL A   1      21.824  44.796  51.881  1.00  0.00    +0.000 C 
ATOM     40  F2  UNL A   1      22.285  45.026  53.118  1.00  0.00    +0.000 F 
ATOM     41  C33 UNL A   1      21.395  45.852  51.093  1.00  0.00    +0.000 C 
ATOM     42  F3  UNL A   1      21.459  47.107  51.559  1.00  0.00    +0.000 F 
ATOM     43  C34 UNL A   1      20.894  45.608  49.822  1.00  0.00    +0.000 C 
ATOM     44  F4  UNL A   1      20.489  46.630  49.055  1.00  0.00    +0.000 F 
ATOM     45  C35 UNL A   1      20.812  44.303  49.341  1.00  0.00    +0.000 C 
ATOM     46  F5  UNL A   1      20.314  44.098  48.114  1.00  0.00    +0.000 F 
ENDBRANCH   35   36
BRANCH   52   53
ATOM     53  C41 UNL A   1      16.690  37.656  49.902  1.00  0.00    +0.000 C 
ATOM     54  C42 UNL A   1      16.401  37.539  51.269  1.00  0.00    +0.000 C 
ATOM     55  F6  UNL A   1      17.383  37.631  52.176  1.00  0.00    +0.000 F 
ATOM     56  C43 UNL A   1      15.099  37.304  51.705  1.00  0.00    +0.000 C 
ATOM     57  F7  UNL A   1      14.850  37.166  53.015  1.00  0.00    +0.000 F 
ATOM     58  C44 UNL A   1      14.064  37.207  50.787  1.00  0.00    +0.000 C 
ATOM     59  F8  UNL A   1      12.810  36.994  51.211  1.00  0.00    +0.000 F 
ATOM     60  C45 UNL A   1      14.328  37.326  49.431  1.00  0.00    +0.000 C 
ATOM     61  F9  UNL A   1      13.327  37.244  48.545  1.00  0.00    +0.000 F 
ATOM     62  C46 UNL A   1      15.631  37.537  48.990  1.00  0.00    +0.000 C 
ATOM     63  F10 UNL A   1      15.857  37.648  47.673  1.00  0.00    +0.000 F 
ENDBRANCH   52   53
BRANCH   67   68
ATOM     68  C50 UNL A   1      21.414  33.995  46.312  1.00  0.00    +0.000 C 
ATOM     69  C51 UNL A   1      21.942  32.916  47.033  1.00  0.00    +0.000 C 
ATOM     70  F11 UNL A   1      22.482  33.123  48.244  1.00  0.00    +0.000 F 
ATOM     71  C52 UNL A   1      21.944  31.628  46.504  1.00  0.00    +0.000 C 
ATOM     72  F12 UNL A   1      22.481  30.620  47.203  1.00  0.00    +0.000 F 
ATOM     73  C53 UNL A   1      21.397  31.390  45.252  1.00  0.00    +0.000 C 
ATOM     74  F13 UNL A   1      21.389  30.149  44.746  1.00  0.00    +0.000 F 
ATOM     75  C54 UNL A   1      20.862  32.441  44.522  1.00  0.00    +0.000 C 
ATOM     76  F14 UNL A   1      20.322  32.213  43.316  1.00  0.00    +0.000 F 
ATOM     77  C55 UNL A   1      20.881  33.734  45.042  1.00  0.00    +0.000 C 
ATOM     78  F15 UNL A   1      20.360  34.733  44.313  1.00  0.00    +0.000 F 
ENDBRANCH   67   68
TORSDOF 20
ENDMDL
