MODEL 1
REMARK VINA RESULT:     -11.0      0.000      0.000
ROOT
ATOM    129  H37 UNL A   1      36.453  31.720  31.265  1.00  0.00    +0.000 H 
ATOM     34  C27 UNL A   1      38.183  30.042  29.729  1.00  0.00    +0.000 C 
ATOM     35  C28 UNL A   1      38.372  30.518  31.144  1.00  0.00    +0.000 C 
ATOM     36  N3  UNL A   1      39.351  30.262  31.978  1.00  0.00    +0.000 N 
ATOM     37  C29 UNL A   1      39.063  30.972  33.136  1.00  0.00    +0.000 C 
ATOM     38  C30 UNL A   1      39.763  31.017  34.296  1.00  0.00    +0.000 C 
ATOM     50  C37 UNL A   1      40.976  30.280  34.544  1.00  0.00    +0.000 C 
ATOM     51  C38 UNL A   1      41.727  30.220  35.706  1.00  0.00    +0.000 C 
ATOM     52  C39 UNL A   1      42.844  29.412  35.465  1.00  0.00    +0.000 C 
ATOM     53  C40 UNL A   1      42.766  28.933  34.167  1.00  0.00    +0.000 C 
ATOM     54  N4  UNL A   1      41.617  29.477  33.613  1.00  0.00    +0.000 N 
ATOM     55  C41 UNL A   1      43.671  28.047  33.482  1.00  0.00    +0.000 C 
ATOM     67  C48 UNL A   1      43.517  27.613  32.207  1.00  0.00    +0.000 C 
ATOM     68  N5  UNL A   1      42.505  27.902  31.304  1.00  0.00    +0.000 N 
ATOM     69  C49 UNL A   1      42.815  27.266  30.202  1.00  0.00    +0.000 C 
ATOM     70  C50 UNL A   1      42.066  27.205  28.901  1.00  0.00    +0.000 C 
ATOM     82  C57 UNL A   1      40.929  27.912  28.764  1.00  0.00    +0.000 C 
ATOM     83  C58 UNL A   1      40.097  27.940  27.566  1.00  0.00    +0.000 C 
ATOM     84  C59 UNL A   1      39.052  28.753  27.781  1.00  0.00    +0.000 C 
ATOM     85  C60 UNL A   1      39.116  29.263  29.151  1.00  0.00    +0.000 C 
ATOM     86  N6  UNL A   1      40.284  28.742  29.647  1.00  0.00    +0.000 N 
ATOM     87  C61 UNL A   1      44.072  26.511  30.274  1.00  0.00    +0.000 C 
ATOM     88  C62 UNL A   1      44.440  26.725  31.530  1.00  0.00    +0.000 C 
ATOM     89  C63 UNL A   1      37.827  31.686  32.895  1.00  0.00    +0.000 C 
ATOM     90  C64 UNL A   1      37.335  31.402  31.696  1.00  0.00    +0.000 C 
ATOM    120  H28 UNL A   1      41.502  30.690  36.596  1.00  0.00    +0.000 H 
ATOM    121  H29 UNL A   1      43.598  29.207  36.139  1.00  0.00    +0.000 H 
ATOM    122  H30 UNL A   1      41.304  29.317  32.693  1.00  0.00    +0.000 H 
ATOM    123  H31 UNL A   1      40.282  27.418  26.695  1.00  0.00    +0.000 H 
ATOM    124  H32 UNL A   1      38.321  28.983  27.090  1.00  0.00    +0.000 H 
ATOM    125  H33 UNL A   1      40.627  28.943  30.547  1.00  0.00    +0.000 H 
ATOM    126  H34 UNL A   1      44.544  25.958  29.541  1.00  0.00    +0.000 H 
ATOM    127  H35 UNL A   1      45.279  26.312  31.968  1.00  0.00    +0.000 H 
ATOM    128  H36 UNL A   1      37.387  32.332  33.568  1.00  0.00    +0.000 H 
ENDROOT
BRANCH   34   33
ATOM     33  C26 UNL A   1      36.954  30.379  28.963  1.00  0.00    +0.000 C 
ATOM    130  H38 UNL A   1      37.402  32.425  28.665  1.00  0.00    +0.000 H 
ATOM    131  H39 UNL A   1      35.312  32.945  27.543  1.00  0.00    +0.000 H 
ATOM    118  H26 UNL A   1      34.259  28.876  27.631  1.00  0.00    +0.000 H 
ATOM    119  H27 UNL A   1      36.207  28.399  28.990  1.00  0.00    +0.000 H 
ATOM     91  C65 UNL A   1      36.703  31.682  28.509  1.00  0.00    +0.000 C 
ATOM     92  C66 UNL A   1      35.509  31.978  27.844  1.00  0.00    +0.000 C 
ATOM     30  C23 UNL A   1      34.583  30.962  27.587  1.00  0.00    +0.000 C 
ATOM     31  C24 UNL A   1      34.885  29.641  27.926  1.00  0.00    +0.000 C 
ATOM     32  C25 UNL A   1      36.032  29.362  28.662  1.00  0.00    +0.000 C 
BRANCH   30    2
ATOM      1  O1  UNL A   1      32.655  32.280  27.381  1.00  0.00    +0.000 O 
ATOM      2  C1  UNL A   1      33.286  31.313  26.965  1.00  0.00    +0.000 C 
BRANCH    2    3
ATOM      3  N1  UNL A   1      32.776  30.534  25.955  1.00  0.00    +0.000 N 
ATOM     93  H1  UNL A   1      33.277  30.560  25.108  1.00  0.00    +0.000 H 
BRANCH    3    4
ATOM      4  C2  UNL A   1      31.601  29.677  25.956  1.00  0.00    +0.000 C 
ATOM     94  H2  UNL A   1      31.533  29.195  25.003  1.00  0.00    +0.000 H 
ATOM     95  H3  UNL A   1      30.754  30.300  26.154  1.00  0.00    +0.000 H 
BRANCH    4    5
ATOM     97  H5  UNL A   1      32.473  28.848  27.660  1.00  0.00    +0.000 H 
ATOM      5  C3  UNL A   1      31.638  28.606  27.037  1.00  0.00    +0.000 C 
ATOM     96  H4  UNL A   1      30.699  28.620  27.548  1.00  0.00    +0.000 H 
BRANCH    5    6
ATOM     98  H6  UNL A   1      31.196  26.984  25.751  1.00  0.00    +0.000 H 
ATOM     99  H7  UNL A   1      31.752  26.552  27.402  1.00  0.00    +0.000 H 
ATOM      6  C4  UNL A   1      31.884  27.180  26.546  1.00  0.00    +0.000 C 
BRANCH    6    7
ATOM    100  H8  UNL A   1      33.990  27.346  26.697  1.00  0.00    +0.000 H 
ATOM    101  H9  UNL A   1      33.321  27.269  25.031  1.00  0.00    +0.000 H 
ATOM      7  C5  UNL A   1      33.294  26.884  26.029  1.00  0.00    +0.000 C 
BRANCH    7    8
ATOM    102  H10 UNL A   1      34.404  25.190  26.659  1.00  0.00    +0.000 H 
ATOM    103  H11 UNL A   1      34.025  25.274  24.906  1.00  0.00    +0.000 H 
ATOM      8  C6  UNL A   1      33.672  25.404  25.908  1.00  0.00    +0.000 C 
BRANCH    8    9
ATOM      9  C7  UNL A   1      32.525  24.411  26.075  1.00  0.00    +0.000 C 
ATOM    105  H13 UNL A   1      32.765  23.767  26.895  1.00  0.00    +0.000 H 
ATOM    104  H12 UNL A   1      31.622  24.956  26.259  1.00  0.00    +0.000 H 
BRANCH    9   10
ATOM     10  N2  UNL A   1      32.339  23.584  24.900  1.00  0.00    +0.000 N 
ATOM    106  H14 UNL A   1      32.837  22.736  24.890  1.00  0.00    +0.000 H 
BRANCH   10   11
ATOM     11  C8  UNL A   1      31.558  23.832  23.799  1.00  0.00    +0.000 C 
ATOM     12  O2  UNL A   1      30.969  22.912  23.239  1.00  0.00    +0.000 O 
BRANCH   11   13
ATOM    107  H15 UNL A   1      29.429  25.278  24.248  1.00  0.00    +0.000 H 
ATOM     13  C9  UNL A   1      31.337  25.218  23.343  1.00  0.00    +0.000 C 
ATOM     14  C10 UNL A   1      30.115  25.811  23.692  1.00  0.00    +0.000 C 
ATOM     15  C11 UNL A   1      29.815  27.120  23.296  1.00  0.00    +0.000 C 
ATOM    115  H23 UNL A   1      30.575  28.787  22.246  1.00  0.00    +0.000 H 
ATOM    116  H24 UNL A   1      32.664  27.745  21.597  1.00  0.00    +0.000 H 
ATOM     26  C20 UNL A   1      30.769  27.816  22.536  1.00  0.00    +0.000 C 
ATOM     27  C21 UNL A   1      31.980  27.219  22.164  1.00  0.00    +0.000 C 
ATOM     28  C22 UNL A   1      32.259  25.914  22.560  1.00  0.00    +0.000 C 
BRANCH   15   16
ATOM    108  H16 UNL A   1      28.159  27.638  24.568  1.00  0.00    +0.000 H 
ATOM     16  C12 UNL A   1      28.547  27.800  23.625  1.00  0.00    +0.000 C 
BRANCH   16   17
ATOM     17  C13 UNL A   1      27.851  28.609  22.809  1.00  0.00    +0.000 C 
ATOM    109  H17 UNL A   1      27.076  28.205  22.261  1.00  0.00    +0.000 H 
BRANCH   17   18
ATOM    110  H18 UNL A   1      29.067  30.307  24.544  1.00  0.00    +0.000 H 
ATOM    112  H20 UNL A   1      28.977  33.750  22.132  1.00  0.00    +0.000 H 
ATOM     18  C14 UNL A   1      28.141  30.043  22.658  1.00  0.00    +0.000 C 
ATOM     19  C15 UNL A   1      28.802  30.768  23.659  1.00  0.00    +0.000 C 
ATOM    114  H22 UNL A   1      27.340  30.152  20.701  1.00  0.00    +0.000 H 
ATOM     20  C16 UNL A   1      29.101  32.115  23.457  1.00  0.00    +0.000 C 
ATOM     22  C17 UNL A   1      28.759  32.751  22.271  1.00  0.00    +0.000 C 
ATOM     23  C18 UNL A   1      28.117  32.028  21.274  1.00  0.00    +0.000 C 
ATOM     25  C19 UNL A   1      27.809  30.680  21.453  1.00  0.00    +0.000 C 
BRANCH   20   21
ATOM     21  O3  UNL A   1      29.747  32.847  24.410  1.00  0.00    +0.000 O 
ATOM    111  H19 UNL A   1      30.629  32.637  24.644  1.00  0.00    +0.000 H 
ENDBRANCH   20   21
BRANCH   23   24
ATOM    113  H21 UNL A   1      28.481  32.906  19.509  1.00  0.00    +0.000 H 
ATOM     24  O4  UNL A   1      27.804  32.678  20.116  1.00  0.00    +0.000 O 
ENDBRANCH   23   24
ENDBRANCH   17   18
ENDBRANCH   16   17
ENDBRANCH   15   16
BRANCH   28   29
ATOM    117  H25 UNL A   1      34.048  25.805  21.659  1.00  0.00    +0.000 H 
ATOM     29  O5  UNL A   1      33.433  25.328  22.180  1.00  0.00    +0.000 O 
ENDBRANCH   28   29
ENDBRANCH   11   13
ENDBRANCH   10   11
ENDBRANCH    9   10
ENDBRANCH    8    9
ENDBRANCH    7    8
ENDBRANCH    6    7
ENDBRANCH    5    6
ENDBRANCH    4    5
ENDBRANCH    3    4
ENDBRANCH    2    3
ENDBRANCH   30    2
ENDBRANCH   34   33
BRANCH   38   39
ATOM     39  C31 UNL A   1      39.243  31.904  35.389  1.00  0.00    +0.000 C 
ATOM     40  C32 UNL A   1      38.381  31.424  36.384  1.00  0.00    +0.000 C 
ATOM     41  F1  UNL A   1      37.949  30.154  36.349  1.00  0.00    +0.000 F 
ATOM     42  C33 UNL A   1      37.931  32.257  37.406  1.00  0.00    +0.000 C 
ATOM     43  F2  UNL A   1      37.076  31.787  38.325  1.00  0.00    +0.000 F 
ATOM     44  C34 UNL A   1      38.358  33.576  37.471  1.00  0.00    +0.000 C 
ATOM     45  F3  UNL A   1      37.931  34.373  38.459  1.00  0.00    +0.000 F 
ATOM     46  C35 UNL A   1      39.224  34.068  36.506  1.00  0.00    +0.000 C 
ATOM     47  F4  UNL A   1      39.647  35.338  36.572  1.00  0.00    +0.000 F 
ATOM     48  C36 UNL A   1      39.655  33.244  35.468  1.00  0.00    +0.000 C 
ATOM     49  F5  UNL A   1      40.486  33.751  34.546  1.00  0.00    +0.000 F 
ENDBRANCH   38   39
BRANCH   55   56
ATOM     65  C47 UNL A   1      46.078  28.247  34.199  1.00  0.00    +0.000 C 
ATOM     66  F10 UNL A   1      46.176  29.389  33.502  1.00  0.00    +0.000 F 
ATOM     56  C42 UNL A   1      44.866  27.541  34.233  1.00  0.00    +0.000 C 
ATOM     57  C43 UNL A   1      44.817  26.351  34.973  1.00  0.00    +0.000 C 
ATOM     58  F6  UNL A   1      43.677  25.650  35.049  1.00  0.00    +0.000 F 
ATOM     59  C44 UNL A   1      45.932  25.900  35.676  1.00  0.00    +0.000 C 
ATOM     60  F7  UNL A   1      45.849  24.788  36.417  1.00  0.00    +0.000 F 
ATOM     61  C45 UNL A   1      47.121  26.612  35.625  1.00  0.00    +0.000 C 
ATOM     62  F8  UNL A   1      48.193  26.178  36.304  1.00  0.00    +0.000 F 
ATOM     63  C46 UNL A   1      47.197  27.780  34.882  1.00  0.00    +0.000 C 
ATOM     64  F9  UNL A   1      48.349  28.464  34.825  1.00  0.00    +0.000 F 
ENDBRANCH   55   56
BRANCH   70   71
ATOM     71  C51 UNL A   1      42.551  26.364  27.778  1.00  0.00    +0.000 C 
ATOM     72  C52 UNL A   1      42.138  25.032  27.646  1.00  0.00    +0.000 C 
ATOM     73  F11 UNL A   1      41.320  24.491  28.560  1.00  0.00    +0.000 F 
ATOM     74  C53 UNL A   1      42.587  24.242  26.590  1.00  0.00    +0.000 C 
ATOM     75  F12 UNL A   1      42.205  22.960  26.506  1.00  0.00    +0.000 F 
ATOM     76  C54 UNL A   1      43.436  24.777  25.633  1.00  0.00    +0.000 C 
ATOM     77  F13 UNL A   1      43.860  24.020  24.613  1.00  0.00    +0.000 F 
ATOM     78  C55 UNL A   1      43.849  26.097  25.738  1.00  0.00    +0.000 C 
ATOM     79  F14 UNL A   1      44.658  26.622  24.806  1.00  0.00    +0.000 F 
ATOM     80  C56 UNL A   1      43.423  26.879  26.807  1.00  0.00    +0.000 C 
ATOM     81  F15 UNL A   1      43.843  28.150  26.888  1.00  0.00    +0.000 F 
ENDBRANCH   70   71
TORSDOF 21
ENDMDL
MODEL 2
REMARK VINA RESULT:     -10.6     20.285     27.678
ROOT
ATOM    129  H37 UNL A   1      44.954   8.926  47.533  1.00  0.00    +0.000 H 
ATOM     34  C27 UNL A   1      46.332  11.409  47.212  1.00  0.00    +0.000 C 
ATOM     35  C28 UNL A   1      46.514  10.384  48.298  1.00  0.00    +0.000 C 
ATOM     36  N3  UNL A   1      47.341  10.396  49.315  1.00  0.00    +0.000 N 
ATOM     37  C29 UNL A   1      47.082   9.236  50.033  1.00  0.00    +0.000 C 
ATOM     38  C30 UNL A   1      47.691   8.784  51.157  1.00  0.00    +0.000 C 
ATOM     50  C37 UNL A   1      48.781   9.454  51.819  1.00  0.00    +0.000 C 
ATOM     51  C38 UNL A   1      49.498   9.045  52.931  1.00  0.00    +0.000 C 
ATOM     52  C39 UNL A   1      50.435  10.038  53.238  1.00  0.00    +0.000 C 
ATOM     53  C40 UNL A   1      50.332  11.045  52.291  1.00  0.00    +0.000 C 
ATOM     54  N4  UNL A   1      49.311  10.674  51.429  1.00  0.00    +0.000 N 
ATOM     55  C41 UNL A   1      51.106  12.254  52.180  1.00  0.00    +0.000 C 
ATOM     67  C48 UNL A   1      50.951  13.189  51.211  1.00  0.00    +0.000 C 
ATOM     68  N5  UNL A   1      50.059  13.205  50.150  1.00  0.00    +0.000 N 
ATOM     69  C49 UNL A   1      50.281  14.326  49.510  1.00  0.00    +0.000 C 
ATOM     70  C50 UNL A   1      49.619  14.857  48.271  1.00  0.00    +0.000 C 
ATOM     82  C57 UNL A   1      48.619  14.155  47.708  1.00  0.00    +0.000 C 
ATOM     83  C58 UNL A   1      47.893  14.543  46.503  1.00  0.00    +0.000 C 
ATOM     84  C59 UNL A   1      46.962  13.615  46.238  1.00  0.00    +0.000 C 
ATOM     85  C60 UNL A   1      47.061  12.541  47.226  1.00  0.00    +0.000 C 
ATOM     86  N6  UNL A   1      48.045  12.965  48.083  1.00  0.00    +0.000 N 
ATOM     87  C61 UNL A   1      51.333  15.160  50.104  1.00  0.00    +0.000 C 
ATOM     88  C62 UNL A   1      51.735  14.404  51.116  1.00  0.00    +0.000 C 
ATOM     89  C63 UNL A   1      46.008   8.549  49.349  1.00  0.00    +0.000 C 
ATOM     90  C64 UNL A   1      45.653   9.193  48.245  1.00  0.00    +0.000 C 
ATOM    120  H28 UNL A   1      49.363   8.161  53.445  1.00  0.00    +0.000 H 
ATOM    121  H29 UNL A   1      51.091  10.024  54.034  1.00  0.00    +0.000 H 
ATOM    122  H30 UNL A   1      49.007  11.202  50.655  1.00  0.00    +0.000 H 
ATOM    123  H31 UNL A   1      48.068  15.394  45.946  1.00  0.00    +0.000 H 
ATOM    124  H32 UNL A   1      46.284  13.653  45.461  1.00  0.00    +0.000 H 
ATOM    125  H33 UNL A   1      48.314  12.465  48.887  1.00  0.00    +0.000 H 
ATOM    126  H34 UNL A   1      51.671  16.091  49.811  1.00  0.00    +0.000 H 
ATOM    127  H35 UNL A   1      52.507  14.650  51.755  1.00  0.00    +0.000 H 
ATOM    128  H36 UNL A   1      45.573   7.673  49.678  1.00  0.00    +0.000 H 
ENDROOT
BRANCH   34   33
ATOM     33  C26 UNL A   1      45.388  11.177  46.087  1.00  0.00    +0.000 C 
ATOM    130  H38 UNL A   1      43.733  12.180  46.943  1.00  0.00    +0.000 H 
ATOM    131  H39 UNL A   1      42.198  11.649  45.138  1.00  0.00    +0.000 H 
ATOM    118  H26 UNL A   1      45.351   9.892  42.982  1.00  0.00    +0.000 H 
ATOM    119  H27 UNL A   1      46.815  10.173  44.891  1.00  0.00    +0.000 H 
ATOM     91  C65 UNL A   1      44.062  11.631  46.133  1.00  0.00    +0.000 C 
ATOM     92  C66 UNL A   1      43.183  11.345  45.084  1.00  0.00    +0.000 C 
ATOM     30  C23 UNL A   1      43.639  10.645  43.963  1.00  0.00    +0.000 C 
ATOM     31  C24 UNL A   1      44.988  10.300  43.858  1.00  0.00    +0.000 C 
ATOM     32  C25 UNL A   1      45.841  10.510  44.936  1.00  0.00    +0.000 C 
BRANCH   30    2
ATOM      1  O1  UNL A   1      42.806   9.207  42.309  1.00  0.00    +0.000 O 
ATOM      2  C1  UNL A   1      42.671  10.271  42.907  1.00  0.00    +0.000 C 
BRANCH    2    3
ATOM      3  N1  UNL A   1      41.652  11.130  42.574  1.00  0.00    +0.000 N 
ATOM     93  H1  UNL A   1      40.764  10.885  42.922  1.00  0.00    +0.000 H 
BRANCH    3    4
ATOM      4  C2  UNL A   1      41.695  12.348  41.781  1.00  0.00    +0.000 C 
ATOM     94  H2  UNL A   1      40.844  12.359  41.132  1.00  0.00    +0.000 H 
ATOM     95  H3  UNL A   1      42.616  12.339  41.237  1.00  0.00    +0.000 H 
BRANCH    4    5
ATOM     97  H5  UNL A   1      40.725  13.630  43.111  1.00  0.00    +0.000 H 
ATOM      5  C3  UNL A   1      41.677  13.616  42.624  1.00  0.00    +0.000 C 
ATOM     96  H4  UNL A   1      42.507  13.576  43.296  1.00  0.00    +0.000 H 
BRANCH    5    6
ATOM     98  H6  UNL A   1      42.405  15.590  42.390  1.00  0.00    +0.000 H 
ATOM     99  H7  UNL A   1      40.759  15.274  41.745  1.00  0.00    +0.000 H 
ATOM      6  C4  UNL A   1      41.766  14.927  41.844  1.00  0.00    +0.000 C 
BRANCH    6    7
ATOM    100  H8  UNL A   1      41.528  14.436  39.797  1.00  0.00    +0.000 H 
ATOM    101  H9  UNL A   1      43.170  14.189  40.482  1.00  0.00    +0.000 H 
ATOM      7  C5  UNL A   1      42.310  14.822  40.417  1.00  0.00    +0.000 C 
BRANCH    7    8
ATOM    102  H10 UNL A   1      42.429  16.939  40.371  1.00  0.00    +0.000 H 
ATOM    103  H11 UNL A   1      42.452  16.115  38.776  1.00  0.00    +0.000 H 
ATOM      8  C6  UNL A   1      42.807  16.127  39.786  1.00  0.00    +0.000 C 
BRANCH    8    9
ATOM      9  C7  UNL A   1      44.322  16.282  39.691  1.00  0.00    +0.000 C 
ATOM    105  H13 UNL A   1      44.751  15.302  39.670  1.00  0.00    +0.000 H 
ATOM    104  H12 UNL A   1      44.558  16.829  38.802  1.00  0.00    +0.000 H 
BRANCH    9   10
ATOM     10  N2  UNL A   1      44.875  16.984  40.831  1.00  0.00    +0.000 N 
ATOM    106  H14 UNL A   1      44.627  17.933  40.912  1.00  0.00    +0.000 H 
BRANCH   10   11
ATOM     11  C8  UNL A   1      45.700  16.496  41.813  1.00  0.00    +0.000 C 
ATOM     12  O2  UNL A   1      46.735  15.907  41.514  1.00  0.00    +0.000 O 
BRANCH   11   13
ATOM    107  H15 UNL A   1      44.349  14.944  43.422  1.00  0.00    +0.000 H 
ATOM     13  C9  UNL A   1      45.404  16.764  43.233  1.00  0.00    +0.000 C 
ATOM     14  C10 UNL A   1      44.656  15.795  43.918  1.00  0.00    +0.000 C 
ATOM     15  C11 UNL A   1      44.320  15.969  45.266  1.00  0.00    +0.000 C 
ATOM    115  H23 UNL A   1      44.526  17.283  46.906  1.00  0.00    +0.000 H 
ATOM    116  H24 UNL A   1      45.773  18.983  45.711  1.00  0.00    +0.000 H 
ATOM     26  C20 UNL A   1      44.749  17.142  45.908  1.00  0.00    +0.000 C 
ATOM     27  C21 UNL A   1      45.475  18.124  45.223  1.00  0.00    +0.000 C 
ATOM     28  C22 UNL A   1      45.793  17.939  43.880  1.00  0.00    +0.000 C 
BRANCH   15   16
ATOM    108  H16 UNL A   1      43.211  14.147  45.541  1.00  0.00    +0.000 H 
ATOM     16  C12 UNL A   1      43.532  14.991  46.041  1.00  0.00    +0.000 C 
BRANCH   16   17
ATOM     17  C13 UNL A   1      43.193  15.101  47.336  1.00  0.00    +0.000 C 
ATOM    109  H17 UNL A   1      42.339  15.626  47.577  1.00  0.00    +0.000 H 
BRANCH   17   18
ATOM    110  H18 UNL A   1      45.366  16.100  48.622  1.00  0.00    +0.000 H 
ATOM    112  H20 UNL A   1      45.904  12.956  51.362  1.00  0.00    +0.000 H 
ATOM     18  C14 UNL A   1      43.982  14.509  48.428  1.00  0.00    +0.000 C 
ATOM     19  C15 UNL A   1      45.073  15.182  48.994  1.00  0.00    +0.000 C 
ATOM    114  H22 UNL A   1      42.771  12.778  48.565  1.00  0.00    +0.000 H 
ATOM     20  C16 UNL A   1      45.765  14.608  50.059  1.00  0.00    +0.000 C 
ATOM     22  C17 UNL A   1      45.383  13.377  50.577  1.00  0.00    +0.000 C 
ATOM     23  C18 UNL A   1      44.292  12.719  50.026  1.00  0.00    +0.000 C 
ATOM     25  C19 UNL A   1      43.584  13.274  48.960  1.00  0.00    +0.000 C 
BRANCH   20   21
ATOM     21  O3  UNL A   1      46.829  15.239  50.635  1.00  0.00    +0.000 O 
ATOM    111  H19 UNL A   1      47.701  15.027  50.367  1.00  0.00    +0.000 H 
ENDBRANCH   20   21
BRANCH   23   24
ATOM    113  H21 UNL A   1      44.475  10.763  50.426  1.00  0.00    +0.000 H 
ATOM     24  O4  UNL A   1      43.935  11.517  50.563  1.00  0.00    +0.000 O 
ENDBRANCH   23   24
ENDBRANCH   17   18
ENDBRANCH   16   17
ENDBRANCH   15   16
BRANCH   28   29
ATOM    117  H25 UNL A   1      46.265  19.110  42.321  1.00  0.00    +0.000 H 
ATOM     29  O5  UNL A   1      46.485  18.907  43.209  1.00  0.00    +0.000 O 
ENDBRANCH   28   29
ENDBRANCH   11   13
ENDBRANCH   10   11
ENDBRANCH    9   10
ENDBRANCH    8    9
ENDBRANCH    7    8
ENDBRANCH    6    7
ENDBRANCH    5    6
ENDBRANCH    4    5
ENDBRANCH    3    4
ENDBRANCH    2    3
ENDBRANCH   30    2
ENDBRANCH   34   33
BRANCH   38   39
ATOM     39  C31 UNL A   1      47.184   7.504  51.757  1.00  0.00    +0.000 C 
ATOM     40  C32 UNL A   1      47.842   6.282  51.558  1.00  0.00    +0.000 C 
ATOM     41  F1  UNL A   1      48.925   6.220  50.769  1.00  0.00    +0.000 F 
ATOM     42  C33 UNL A   1      47.371   5.110  52.146  1.00  0.00    +0.000 C 
ATOM     43  F2  UNL A   1      47.994   3.948  51.911  1.00  0.00    +0.000 F 
ATOM     44  C34 UNL A   1      46.253   5.142  52.967  1.00  0.00    +0.000 C 
ATOM     45  F3  UNL A   1      45.806   4.016  53.538  1.00  0.00    +0.000 F 
ATOM     46  C35 UNL A   1      45.596   6.343  53.190  1.00  0.00    +0.000 C 
ATOM     47  F4  UNL A   1      44.522   6.378  53.993  1.00  0.00    +0.000 F 
ATOM     48  C36 UNL A   1      46.050   7.512  52.584  1.00  0.00    +0.000 C 
ATOM     49  F5  UNL A   1      45.387   8.655  52.813  1.00  0.00    +0.000 F 
ENDBRANCH   38   39
BRANCH   55   56
ATOM     65  C47 UNL A   1      53.493  12.050  52.960  1.00  0.00    +0.000 C 
ATOM     66  F10 UNL A   1      53.795  11.410  51.821  1.00  0.00    +0.000 F 
ATOM     56  C42 UNL A   1      52.183  12.497  53.195  1.00  0.00    +0.000 C 
ATOM     57  C43 UNL A   1      51.918  13.157  54.403  1.00  0.00    +0.000 C 
ATOM     58  F6  UNL A   1      50.686  13.618  54.664  1.00  0.00    +0.000 F 
ATOM     59  C44 UNL A   1      52.933  13.387  55.329  1.00  0.00    +0.000 C 
ATOM     60  F7  UNL A   1      52.668  14.063  56.455  1.00  0.00    +0.000 F 
ATOM     61  C45 UNL A   1      54.219  12.932  55.079  1.00  0.00    +0.000 C 
ATOM     62  F8  UNL A   1      55.195  13.155  55.971  1.00  0.00    +0.000 F 
ATOM     63  C46 UNL A   1      54.498  12.258  53.900  1.00  0.00    +0.000 C 
ATOM     64  F9  UNL A   1      55.739  11.811  53.661  1.00  0.00    +0.000 F 
ENDBRANCH   55   56
BRANCH   70   71
ATOM     71  C51 UNL A   1      50.062  16.132  47.653  1.00  0.00    +0.000 C 
ATOM     72  C52 UNL A   1      51.148  16.162  46.769  1.00  0.00    +0.000 C 
ATOM     73  F11 UNL A   1      51.823  15.035  46.497  1.00  0.00    +0.000 F 
ATOM     74  C53 UNL A   1      51.564  17.355  46.182  1.00  0.00    +0.000 C 
ATOM     75  F12 UNL A   1      52.628  17.363  45.367  1.00  0.00    +0.000 F 
ATOM     76  C54 UNL A   1      50.886  18.535  46.448  1.00  0.00    +0.000 C 
ATOM     77  F13 UNL A   1      51.281  19.680  45.878  1.00  0.00    +0.000 F 
ATOM     78  C55 UNL A   1      49.802  18.527  47.313  1.00  0.00    +0.000 C 
ATOM     79  F14 UNL A   1      49.134  19.662  47.561  1.00  0.00    +0.000 F 
ATOM     80  C56 UNL A   1      49.402  17.340  47.920  1.00  0.00    +0.000 C 
ATOM     81  F15 UNL A   1      48.354  17.361  48.757  1.00  0.00    +0.000 F 
ENDBRANCH   70   71
TORSDOF 21
ENDMDL
MODEL 3
REMARK VINA RESULT:     -10.6      0.826      2.160
ROOT
ATOM    129  H37 UNL A   1      36.611  31.728  31.381  1.00  0.00    +0.000 H 
ATOM     34  C27 UNL A   1      38.267  30.008  29.813  1.00  0.00    +0.000 C 
ATOM     35  C28 UNL A   1      38.491  30.470  31.227  1.00  0.00    +0.000 C 
ATOM     36  N3  UNL A   1      39.473  30.179  32.046  1.00  0.00    +0.000 N 
ATOM     37  C29 UNL A   1      39.223  30.891  33.212  1.00  0.00    +0.000 C 
ATOM     38  C30 UNL A   1      39.940  30.908  34.362  1.00  0.00    +0.000 C 
ATOM     50  C37 UNL A   1      41.134  30.134  34.589  1.00  0.00    +0.000 C 
ATOM     51  C38 UNL A   1      41.898  30.044  35.740  1.00  0.00    +0.000 C 
ATOM     52  C39 UNL A   1      42.987  29.204  35.479  1.00  0.00    +0.000 C 
ATOM     53  C40 UNL A   1      42.877  28.735  34.180  1.00  0.00    +0.000 C 
ATOM     54  N4  UNL A   1      41.737  29.317  33.645  1.00  0.00    +0.000 N 
ATOM     55  C41 UNL A   1      43.744  27.826  33.477  1.00  0.00    +0.000 C 
ATOM     67  C48 UNL A   1      43.560  27.404  32.203  1.00  0.00    +0.000 C 
ATOM     68  N5  UNL A   1      42.544  27.729  31.316  1.00  0.00    +0.000 N 
ATOM     69  C49 UNL A   1      42.819  27.090  30.206  1.00  0.00    +0.000 C 
ATOM     70  C50 UNL A   1      42.051  27.058  28.916  1.00  0.00    +0.000 C 
ATOM     82  C57 UNL A   1      40.934  27.800  28.798  1.00  0.00    +0.000 C 
ATOM     83  C58 UNL A   1      40.086  27.860  27.612  1.00  0.00    +0.000 C 
ATOM     84  C59 UNL A   1      39.070  28.704  27.846  1.00  0.00    +0.000 C 
ATOM     85  C60 UNL A   1      39.169  29.204  29.218  1.00  0.00    +0.000 C 
ATOM     86  N6  UNL A   1      40.327  28.645  29.694  1.00  0.00    +0.000 N 
ATOM     87  C61 UNL A   1      44.053  26.296  30.257  1.00  0.00    +0.000 C 
ATOM     88  C62 UNL A   1      44.446  26.492  31.508  1.00  0.00    +0.000 C 
ATOM     89  C63 UNL A   1      38.006  31.643  32.992  1.00  0.00    +0.000 C 
ATOM     90  C64 UNL A   1      37.489  31.382  31.799  1.00  0.00    +0.000 C 
ATOM    120  H28 UNL A   1      41.700  30.516  36.636  1.00  0.00    +0.000 H 
ATOM    121  H29 UNL A   1      43.743  28.972  36.141  1.00  0.00    +0.000 H 
ATOM    122  H30 UNL A   1      41.406  29.172  32.729  1.00  0.00    +0.000 H 
ATOM    123  H31 UNL A   1      40.243  27.338  26.736  1.00  0.00    +0.000 H 
ATOM    124  H32 UNL A   1      38.337  28.959  27.167  1.00  0.00    +0.000 H 
ATOM    125  H33 UNL A   1      40.688  28.830  30.591  1.00  0.00    +0.000 H 
ATOM    126  H34 UNL A   1      44.499  25.733  29.514  1.00  0.00    +0.000 H 
ATOM    127  H35 UNL A   1      45.277  26.051  31.932  1.00  0.00    +0.000 H 
ATOM    128  H36 UNL A   1      37.596  32.299  33.675  1.00  0.00    +0.000 H 
ENDROOT
BRANCH   34   33
ATOM     33  C26 UNL A   1      37.039  30.386  29.066  1.00  0.00    +0.000 C 
ATOM    130  H38 UNL A   1      37.608  32.380  28.648  1.00  0.00    +0.000 H 
ATOM    131  H39 UNL A   1      35.521  32.980  27.561  1.00  0.00    +0.000 H 
ATOM    118  H26 UNL A   1      34.211  28.999  27.893  1.00  0.00    +0.000 H 
ATOM    119  H27 UNL A   1      36.167  28.464  29.218  1.00  0.00    +0.000 H 
ATOM     91  C65 UNL A   1      36.858  31.678  28.552  1.00  0.00    +0.000 C 
ATOM     92  C66 UNL A   1      35.665  32.019  27.906  1.00  0.00    +0.000 C 
ATOM     30  C23 UNL A   1      34.668  31.054  27.730  1.00  0.00    +0.000 C 
ATOM     31  C24 UNL A   1      34.894  29.735  28.129  1.00  0.00    +0.000 C 
ATOM     32  C25 UNL A   1      36.044  29.418  28.846  1.00  0.00    +0.000 C 
BRANCH   30    2
ATOM      1  O1  UNL A   1      32.886  32.546  27.417  1.00  0.00    +0.000 O 
ATOM      2  C1  UNL A   1      33.377  31.459  27.129  1.00  0.00    +0.000 C 
BRANCH    2    3
ATOM      3  N1  UNL A   1      32.715  30.601  26.283  1.00  0.00    +0.000 N 
ATOM     93  H1  UNL A   1      32.781  30.820  25.324  1.00  0.00    +0.000 H 
BRANCH    3    4
ATOM      4  C2  UNL A   1      31.931  29.418  26.598  1.00  0.00    +0.000 C 
ATOM     94  H2  UNL A   1      30.895  29.683  26.579  1.00  0.00    +0.000 H 
ATOM     95  H3  UNL A   1      32.244  29.079  27.563  1.00  0.00    +0.000 H 
BRANCH    4    5
ATOM     97  H5  UNL A   1      32.110  27.376  26.206  1.00  0.00    +0.000 H 
ATOM      5  C3  UNL A   1      32.154  28.270  25.621  1.00  0.00    +0.000 C 
ATOM     96  H4  UNL A   1      31.401  28.330  24.865  1.00  0.00    +0.000 H 
BRANCH    5    6
ATOM     98  H6  UNL A   1      33.997  27.327  25.181  1.00  0.00    +0.000 H 
ATOM     99  H7  UNL A   1      34.032  29.120  25.276  1.00  0.00    +0.000 H 
ATOM      6  C4  UNL A   1      33.516  28.249  24.929  1.00  0.00    +0.000 C 
BRANCH    6    7
ATOM    100  H8  UNL A   1      34.216  29.099  23.119  1.00  0.00    +0.000 H 
ATOM    101  H9  UNL A   1      32.485  28.618  23.148  1.00  0.00    +0.000 H 
ATOM      7  C5  UNL A   1      33.493  28.363  23.402  1.00  0.00    +0.000 C 
BRANCH    7    8
ATOM    102  H10 UNL A   1      34.617  27.285  21.963  1.00  0.00    +0.000 H 
ATOM    103  H11 UNL A   1      32.892  26.817  22.124  1.00  0.00    +0.000 H 
ATOM      8  C6  UNL A   1      33.801  27.080  22.624  1.00  0.00    +0.000 C 
BRANCH    8    9
ATOM      9  C7  UNL A   1      34.176  25.866  23.470  1.00  0.00    +0.000 C 
ATOM    105  H13 UNL A   1      35.243  25.826  23.530  1.00  0.00    +0.000 H 
ATOM    104  H12 UNL A   1      33.734  25.972  24.439  1.00  0.00    +0.000 H 
BRANCH    9   10
ATOM     10  N2  UNL A   1      33.717  24.624  22.881  1.00  0.00    +0.000 N 
ATOM    106  H14 UNL A   1      34.361  24.163  22.297  1.00  0.00    +0.000 H 
BRANCH   10   11
ATOM     11  C8  UNL A   1      32.500  24.008  23.034  1.00  0.00    +0.000 C 
ATOM     12  O2  UNL A   1      32.301  22.903  22.539  1.00  0.00    +0.000 O 
BRANCH   11   13
ATOM    107  H15 UNL A   1      30.907  25.957  22.336  1.00  0.00    +0.000 H 
ATOM     13  C9  UNL A   1      31.458  24.623  23.878  1.00  0.00    +0.000 C 
ATOM     14  C10 UNL A   1      30.713  25.665  23.306  1.00  0.00    +0.000 C 
ATOM     15  C11 UNL A   1      29.709  26.312  24.036  1.00  0.00    +0.000 C 
ATOM    115  H23 UNL A   1      28.730  26.345  25.906  1.00  0.00    +0.000 H 
ATOM    116  H24 UNL A   1      30.052  24.582  26.914  1.00  0.00    +0.000 H 
ATOM     26  C20 UNL A   1      29.475  25.892  25.356  1.00  0.00    +0.000 C 
ATOM     27  C21 UNL A   1      30.233  24.869  25.940  1.00  0.00    +0.000 C 
ATOM     28  C22 UNL A   1      31.233  24.241  25.202  1.00  0.00    +0.000 C 
BRANCH   15   16
ATOM    108  H16 UNL A   1      27.947  27.537  23.889  1.00  0.00    +0.000 H 
ATOM     16  C12 UNL A   1      28.894  27.417  23.495  1.00  0.00    +0.000 C 
BRANCH   16   17
ATOM     17  C13 UNL A   1      29.271  28.279  22.537  1.00  0.00    +0.000 C 
ATOM    109  H17 UNL A   1      29.644  27.898  21.653  1.00  0.00    +0.000 H 
BRANCH   17   18
ATOM    110  H18 UNL A   1      28.143  30.106  20.875  1.00  0.00    +0.000 H 
ATOM    112  H20 UNL A   1      28.867  33.526  23.210  1.00  0.00    +0.000 H 
ATOM     18  C14 UNL A   1      29.180  29.739  22.685  1.00  0.00    +0.000 C 
ATOM     19  C15 UNL A   1      28.536  30.536  21.727  1.00  0.00    +0.000 C 
ATOM    114  H22 UNL A   1      30.145  29.759  24.569  1.00  0.00    +0.000 H 
ATOM     20  C16 UNL A   1      28.429  31.911  21.929  1.00  0.00    +0.000 C 
ATOM     22  C17 UNL A   1      28.945  32.507  23.072  1.00  0.00    +0.000 C 
ATOM     23  C18 UNL A   1      29.568  31.714  24.027  1.00  0.00    +0.000 C 
ATOM     25  C19 UNL A   1      29.687  30.337  23.848  1.00  0.00    +0.000 C 
BRANCH   20   21
ATOM     21  O3  UNL A   1      27.805  32.713  21.018  1.00  0.00    +0.000 O 
ATOM    111  H19 UNL A   1      26.903  32.572  20.810  1.00  0.00    +0.000 H 
ENDBRANCH   20   21
BRANCH   23   24
ATOM    113  H21 UNL A   1      30.935  32.162  25.424  1.00  0.00    +0.000 H 
ATOM     24  O4  UNL A   1      30.055  32.328  25.144  1.00  0.00    +0.000 O 
ENDBRANCH   23   24
ENDBRANCH   17   18
ENDBRANCH   16   17
ENDBRANCH   15   16
BRANCH   28   29
ATOM    117  H25 UNL A   1      31.744  22.358  25.669  1.00  0.00    +0.000 H 
ATOM     29  O5  UNL A   1      31.984  23.257  25.780  1.00  0.00    +0.000 O 
ENDBRANCH   28   29
ENDBRANCH   11   13
ENDBRANCH   10   11
ENDBRANCH    9   10
ENDBRANCH    8    9
ENDBRANCH    7    8
ENDBRANCH    6    7
ENDBRANCH    5    6
ENDBRANCH    4    5
ENDBRANCH    3    4
ENDBRANCH    2    3
ENDBRANCH   30    2
ENDBRANCH   34   33
BRANCH   38   39
ATOM     39  C31 UNL A   1      39.463  31.805  35.467  1.00  0.00    +0.000 C 
ATOM     40  C32 UNL A   1      38.519  31.377  36.411  1.00  0.00    +0.000 C 
ATOM     41  F1  UNL A   1      37.972  30.156  36.313  1.00  0.00    +0.000 F 
ATOM     42  C33 UNL A   1      38.109  32.215  37.446  1.00  0.00    +0.000 C 
ATOM     43  F2  UNL A   1      37.178  31.799  38.314  1.00  0.00    +0.000 F 
ATOM     44  C34 UNL A   1      38.656  33.484  37.574  1.00  0.00    +0.000 C 
ATOM     45  F3  UNL A   1      38.267  34.286  38.574  1.00  0.00    +0.000 F 
ATOM     46  C35 UNL A   1      39.603  33.922  36.660  1.00  0.00    +0.000 C 
ATOM     47  F4  UNL A   1      40.141  35.143  36.789  1.00  0.00    +0.000 F 
ATOM     48  C36 UNL A   1      39.996  33.095  35.610  1.00  0.00    +0.000 C 
ATOM     49  F5  UNL A   1      40.908  33.551  34.739  1.00  0.00    +0.000 F 
ENDBRANCH   38   39
BRANCH   55   56
ATOM     65  C47 UNL A   1      44.827  26.091  34.948  1.00  0.00    +0.000 C 
ATOM     66  F10 UNL A   1      43.663  25.426  34.997  1.00  0.00    +0.000 F 
ATOM     56  C42 UNL A   1      44.934  27.279  34.210  1.00  0.00    +0.000 C 
ATOM     57  C43 UNL A   1      46.171  27.937  34.194  1.00  0.00    +0.000 C 
ATOM     58  F6  UNL A   1      46.326  29.067  33.488  1.00  0.00    +0.000 F 
ATOM     59  C44 UNL A   1      47.270  27.410  34.869  1.00  0.00    +0.000 C 
ATOM     60  F7  UNL A   1      48.456  28.028  34.799  1.00  0.00    +0.000 F 
ATOM     61  C45 UNL A   1      47.141  26.235  35.596  1.00  0.00    +0.000 C 
ATOM     62  F8  UNL A   1      48.200  25.728  36.244  1.00  0.00    +0.000 F 
ATOM     63  C46 UNL A   1      45.920  25.581  35.643  1.00  0.00    +0.000 C 
ATOM     64  F9  UNL A   1      45.793  24.451  36.353  1.00  0.00    +0.000 F 
ENDBRANCH   55   56
BRANCH   70   71
ATOM     71  C51 UNL A   1      42.494  26.210  27.781  1.00  0.00    +0.000 C 
ATOM     72  C52 UNL A   1      43.410  26.693  26.837  1.00  0.00    +0.000 C 
ATOM     73  F11 UNL A   1      43.872  27.948  26.934  1.00  0.00    +0.000 F 
ATOM     74  C53 UNL A   1      43.831  25.898  25.774  1.00  0.00    +0.000 C 
ATOM     75  F12 UNL A   1      44.681  26.395  24.864  1.00  0.00    +0.000 F 
ATOM     76  C54 UNL A   1      43.366  24.597  25.650  1.00  0.00    +0.000 C 
ATOM     77  F13 UNL A   1      43.779  23.830  24.632  1.00  0.00    +0.000 F 
ATOM     78  C55 UNL A   1      42.467  24.095  26.579  1.00  0.00    +0.000 C 
ATOM     79  F14 UNL A   1      42.026  22.834  26.471  1.00  0.00    +0.000 F 
ATOM     80  C56 UNL A   1      42.024  24.898  27.626  1.00  0.00    +0.000 C 
ATOM     81  F15 UNL A   1      41.149  24.389  28.506  1.00  0.00    +0.000 F 
ENDBRANCH   70   71
TORSDOF 21
ENDMDL
MODEL 4
REMARK VINA RESULT:     -10.5     34.965     41.300
ROOT
ATOM    129  H37 UNL A   1       4.980  11.245  38.885  1.00  0.00    +0.000 H 
ATOM     34  C27 UNL A   1       2.384  11.034  37.711  1.00  0.00    +0.000 C 
ATOM     35  C28 UNL A   1       3.396   9.941  37.919  1.00  0.00    +0.000 C 
ATOM     36  N3  UNL A   1       3.308   8.666  37.626  1.00  0.00    +0.000 N 
ATOM     37  C29 UNL A   1       4.525   8.105  37.987  1.00  0.00    +0.000 C 
ATOM     38  C30 UNL A   1       4.918   6.810  37.899  1.00  0.00    +0.000 C 
ATOM     50  C37 UNL A   1       4.088   5.738  37.411  1.00  0.00    +0.000 C 
ATOM     51  C38 UNL A   1       4.380   4.386  37.336  1.00  0.00    +0.000 C 
ATOM     52  C39 UNL A   1       3.287   3.734  36.756  1.00  0.00    +0.000 C 
ATOM     53  C40 UNL A   1       2.296   4.671  36.510  1.00  0.00    +0.000 C 
ATOM     54  N4  UNL A   1       2.804   5.897  36.914  1.00  0.00    +0.000 N 
ATOM     55  C41 UNL A   1       0.986   4.467  35.949  1.00  0.00    +0.000 C 
ATOM     67  C48 UNL A   1       0.065   5.441  35.751  1.00  0.00    +0.000 C 
ATOM     68  N5  UNL A   1       0.158   6.797  36.027  1.00  0.00    +0.000 N 
ATOM     69  C49 UNL A   1      -0.978   7.321  35.636  1.00  0.00    +0.000 C 
ATOM     70  C50 UNL A   1      -1.437   8.749  35.711  1.00  0.00    +0.000 C 
ATOM     82  C57 UNL A   1      -0.601   9.683  36.200  1.00  0.00    +0.000 C 
ATOM     83  C58 UNL A   1      -0.915  11.101  36.339  1.00  0.00    +0.000 C 
ATOM     84  C59 UNL A   1       0.152  11.735  36.850  1.00  0.00    +0.000 C 
ATOM     85  C60 UNL A   1       1.205  10.757  37.121  1.00  0.00    +0.000 C 
ATOM     86  N6  UNL A   1       0.685   9.571  36.667  1.00  0.00    +0.000 N 
ATOM     87  C61 UNL A   1      -1.917   6.357  35.051  1.00  0.00    +0.000 C 
ATOM     88  C62 UNL A   1      -1.248   5.219  35.180  1.00  0.00    +0.000 C 
ATOM     89  C63 UNL A   1       5.346   9.178  38.506  1.00  0.00    +0.000 C 
ATOM     90  C64 UNL A   1       4.678  10.324  38.529  1.00  0.00    +0.000 C 
ATOM    120  H28 UNL A   1       5.253   3.938  37.653  1.00  0.00    +0.000 H 
ATOM    121  H29 UNL A   1       3.227   2.725  36.546  1.00  0.00    +0.000 H 
ATOM    122  H30 UNL A   1       2.322   6.754  36.855  1.00  0.00    +0.000 H 
ATOM    123  H31 UNL A   1      -1.812  11.545  36.086  1.00  0.00    +0.000 H 
ATOM    124  H32 UNL A   1       0.218  12.749  37.023  1.00  0.00    +0.000 H 
ATOM    125  H33 UNL A   1       1.184   8.723  36.676  1.00  0.00    +0.000 H 
ATOM    126  H34 UNL A   1      -2.853   6.521  34.647  1.00  0.00    +0.000 H 
ATOM    127  H35 UNL A   1      -1.616   4.294  34.907  1.00  0.00    +0.000 H 
ATOM    128  H36 UNL A   1       6.323   9.066  38.816  1.00  0.00    +0.000 H 
ENDROOT
BRANCH   34   33
ATOM     33  C26 UNL A   1       2.638  12.418  38.189  1.00  0.00    +0.000 C 
ATOM    130  H38 UNL A   1       3.563  13.123  36.421  1.00  0.00    +0.000 H 
ATOM    131  H39 UNL A   1       4.078  15.325  37.306  1.00  0.00    +0.000 H 
ATOM    118  H26 UNL A   1       1.987  14.390  40.832  1.00  0.00    +0.000 H 
ATOM    119  H27 UNL A   1       1.712  12.109  40.066  1.00  0.00    +0.000 H 
ATOM     91  C65 UNL A   1       3.289  13.366  37.386  1.00  0.00    +0.000 C 
ATOM     92  C66 UNL A   1       3.567  14.642  37.887  1.00  0.00    +0.000 C 
ATOM     30  C23 UNL A   1       3.152  14.991  39.176  1.00  0.00    +0.000 C 
ATOM     31  C24 UNL A   1       2.396  14.093  39.932  1.00  0.00    +0.000 C 
ATOM     32  C25 UNL A   1       2.193  12.797  39.467  1.00  0.00    +0.000 C 
BRANCH   30    2
ATOM      1  O1  UNL A   1       2.764  17.259  39.623  1.00  0.00    +0.000 O 
ATOM      2  C1  UNL A   1       3.538  16.311  39.721  1.00  0.00    +0.000 C 
BRANCH    2    3
ATOM      3  N1  UNL A   1       4.773  16.482  40.299  1.00  0.00    +0.000 N 
ATOM     93  H1  UNL A   1       5.106  17.409  40.318  1.00  0.00    +0.000 H 
BRANCH    3    4
ATOM      4  C2  UNL A   1       5.661  15.491  40.886  1.00  0.00    +0.000 C 
ATOM     94  H2  UNL A   1       5.567  14.581  40.331  1.00  0.00    +0.000 H 
ATOM     95  H3  UNL A   1       5.371  15.372  41.909  1.00  0.00    +0.000 H 
BRANCH    4    5
ATOM     97  H5  UNL A   1       7.122  16.971  40.718  1.00  0.00    +0.000 H 
ATOM      5  C3  UNL A   1       7.124  15.913  40.877  1.00  0.00    +0.000 C 
ATOM     96  H4  UNL A   1       7.559  15.617  41.808  1.00  0.00    +0.000 H 
BRANCH    5    6
ATOM     98  H6  UNL A   1       7.327  15.120  38.925  1.00  0.00    +0.000 H 
ATOM     99  H7  UNL A   1       8.440  14.454  40.167  1.00  0.00    +0.000 H 
ATOM      6  C4  UNL A   1       7.974  15.324  39.753  1.00  0.00    +0.000 C 
BRANCH    6    7
ATOM    100  H8  UNL A   1       8.839  16.582  38.285  1.00  0.00    +0.000 H 
ATOM    101  H9  UNL A   1       9.984  15.575  39.236  1.00  0.00    +0.000 H 
ATOM      7  C5  UNL A   1       9.119  16.205  39.246  1.00  0.00    +0.000 C 
BRANCH    7    8
ATOM    102  H10 UNL A   1       9.618  17.044  41.129  1.00  0.00    +0.000 H 
ATOM    103  H11 UNL A   1       8.695  18.106  40.015  1.00  0.00    +0.000 H 
ATOM      8  C6  UNL A   1       9.492  17.401  40.128  1.00  0.00    +0.000 C 
BRANCH    8    9
ATOM      9  C7  UNL A   1      10.764  18.145  39.732  1.00  0.00    +0.000 C 
ATOM    105  H13 UNL A   1      11.534  17.419  39.577  1.00  0.00    +0.000 H 
ATOM    104  H12 UNL A   1      10.571  18.706  38.841  1.00  0.00    +0.000 H 
BRANCH    9   10
ATOM     10  N2  UNL A   1      11.213  19.055  40.766  1.00  0.00    +0.000 N 
ATOM    106  H14 UNL A   1      10.506  19.468  41.311  1.00  0.00    +0.000 H 
BRANCH   10   11
ATOM     11  C8  UNL A   1      12.499  19.414  41.083  1.00  0.00    +0.000 C 
ATOM     12  O2  UNL A   1      13.260  18.598  41.596  1.00  0.00    +0.000 O 
BRANCH   11   13
ATOM    107  H15 UNL A   1      12.537  21.520  42.627  1.00  0.00    +0.000 H 
ATOM     13  C9  UNL A   1      13.008  20.749  40.718  1.00  0.00    +0.000 C 
ATOM     14  C10 UNL A   1      12.931  21.747  41.701  1.00  0.00    +0.000 C 
ATOM     15  C11 UNL A   1      13.383  23.046  41.441  1.00  0.00    +0.000 C 
ATOM    115  H23 UNL A   1      14.262  24.268  39.960  1.00  0.00    +0.000 H 
ATOM    116  H24 UNL A   1      14.346  22.561  38.242  1.00  0.00    +0.000 H 
ATOM     26  C20 UNL A   1      13.909  23.321  40.168  1.00  0.00    +0.000 C 
ATOM     27  C21 UNL A   1      13.965  22.335  39.175  1.00  0.00    +0.000 C 
ATOM     28  C22 UNL A   1      13.504  21.050  39.448  1.00  0.00    +0.000 C 
BRANCH   15   16
ATOM    108  H16 UNL A   1      12.388  24.476  42.703  1.00  0.00    +0.000 H 
ATOM     16  C12 UNL A   1      13.325  24.141  42.429  1.00  0.00    +0.000 C 
BRANCH   16   17
ATOM     17  C13 UNL A   1      14.381  24.741  43.003  1.00  0.00    +0.000 C 
ATOM    109  H17 UNL A   1      14.912  24.222  43.719  1.00  0.00    +0.000 H 
BRANCH   17   18
ATOM    110  H18 UNL A   1      15.214  26.739  44.642  1.00  0.00    +0.000 H 
ATOM    112  H20 UNL A   1      16.064  29.596  41.676  1.00  0.00    +0.000 H 
ATOM     18  C14 UNL A   1      14.816  26.104  42.661  1.00  0.00    +0.000 C 
ATOM     19  C15 UNL A   1      15.238  27.009  43.646  1.00  0.00    +0.000 C 
ATOM    114  H22 UNL A   1      14.588  25.816  40.576  1.00  0.00    +0.000 H 
ATOM     20  C16 UNL A   1      15.689  28.275  43.276  1.00  0.00    +0.000 C 
ATOM     22  C17 UNL A   1      15.735  28.654  41.941  1.00  0.00    +0.000 C 
ATOM     23  C18 UNL A   1      15.331  27.751  40.966  1.00  0.00    +0.000 C 
ATOM     25  C19 UNL A   1      14.877  26.479  41.311  1.00  0.00    +0.000 C 
BRANCH   20   21
ATOM     21  O3  UNL A   1      16.110  29.177  44.209  1.00  0.00    +0.000 O 
ATOM    111  H19 UNL A   1      16.957  29.087  44.599  1.00  0.00    +0.000 H 
ENDBRANCH   20   21
BRANCH   23   24
ATOM    113  H21 UNL A   1      16.206  28.469  39.311  1.00  0.00    +0.000 H 
ATOM     24  O4  UNL A   1      15.398  28.149  39.663  1.00  0.00    +0.000 O 
ENDBRANCH   23   24
ENDBRANCH   17   18
ENDBRANCH   16   17
ENDBRANCH   15   16
BRANCH   28   29
ATOM    117  H25 UNL A   1      13.025  20.196  37.697  1.00  0.00    +0.000 H 
ATOM     29  O5  UNL A   1      13.543  20.096  38.472  1.00  0.00    +0.000 O 
ENDBRANCH   28   29
ENDBRANCH   11   13
ENDBRANCH   10   11
ENDBRANCH    9   10
ENDBRANCH    8    9
ENDBRANCH    7    8
ENDBRANCH    6    7
ENDBRANCH    5    6
ENDBRANCH    4    5
ENDBRANCH    3    4
ENDBRANCH    2    3
ENDBRANCH   30    2
ENDBRANCH   34   33
BRANCH   38   39
ATOM     39  C31 UNL A   1       6.317   6.477  38.329  1.00  0.00    +0.000 C 
ATOM     40  C32 UNL A   1       6.580   5.778  39.516  1.00  0.00    +0.000 C 
ATOM     41  F1  UNL A   1       5.574   5.437  40.335  1.00  0.00    +0.000 F 
ATOM     42  C33 UNL A   1       7.884   5.454  39.883  1.00  0.00    +0.000 C 
ATOM     43  F2  UNL A   1       8.114   4.820  41.041  1.00  0.00    +0.000 F 
ATOM     44  C34 UNL A   1       8.946   5.794  39.058  1.00  0.00    +0.000 C 
ATOM     45  F3  UNL A   1      10.199   5.475  39.410  1.00  0.00    +0.000 F 
ATOM     46  C35 UNL A   1       8.708   6.471  37.872  1.00  0.00    +0.000 C 
ATOM     47  F4  UNL A   1       9.732   6.790  37.067  1.00  0.00    +0.000 F 
ATOM     48  C36 UNL A   1       7.408   6.819  37.514  1.00  0.00    +0.000 C 
ATOM     49  F5  UNL A   1       7.211   7.480  36.364  1.00  0.00    +0.000 F 
ENDBRANCH   38   39
BRANCH   55   56
ATOM     65  C47 UNL A   1       0.984   2.529  34.339  1.00  0.00    +0.000 C 
ATOM     66  F10 UNL A   1       1.726   3.253  33.489  1.00  0.00    +0.000 F 
ATOM     56  C42 UNL A   1       0.591   3.070  35.573  1.00  0.00    +0.000 C 
ATOM     57  C43 UNL A   1      -0.188   2.273  36.424  1.00  0.00    +0.000 C 
ATOM     58  F6  UNL A   1      -0.573   2.741  37.621  1.00  0.00    +0.000 F 
ATOM     59  C44 UNL A   1      -0.536   0.973  36.066  1.00  0.00    +0.000 C 
ATOM     60  F7  UNL A   1      -1.239   0.212  36.916  1.00  0.00    +0.000 F 
ATOM     61  C45 UNL A   1      -0.141   0.460  34.839  1.00  0.00    +0.000 C 
ATOM     62  F8  UNL A   1      -0.476  -0.792  34.497  1.00  0.00    +0.000 F 
ATOM     63  C46 UNL A   1       0.611   1.239  33.974  1.00  0.00    +0.000 C 
ATOM     64  F9  UNL A   1       0.987   0.746  32.785  1.00  0.00    +0.000 F 
ENDBRANCH   55   56
BRANCH   70   71
ATOM     71  C51 UNL A   1      -2.802   9.138  35.274  1.00  0.00    +0.000 C 
ATOM     72  C52 UNL A   1      -3.020   9.685  34.003  1.00  0.00    +0.000 C 
ATOM     73  F11 UNL A   1      -1.985   9.893  33.176  1.00  0.00    +0.000 F 
ATOM     74  C53 UNL A   1      -4.300  10.046  33.587  1.00  0.00    +0.000 C 
ATOM     75  F12 UNL A   1      -4.478  10.600  32.379  1.00  0.00    +0.000 F 
ATOM     76  C54 UNL A   1      -5.386   9.844  34.424  1.00  0.00    +0.000 C 
ATOM     77  F13 UNL A   1      -6.617  10.184  34.021  1.00  0.00    +0.000 F 
ATOM     78  C55 UNL A   1      -5.194   9.295  35.683  1.00  0.00    +0.000 C 
ATOM     79  F14 UNL A   1      -6.244   9.084  36.490  1.00  0.00    +0.000 F 
ATOM     80  C56 UNL A   1      -3.913   8.959  36.110  1.00  0.00    +0.000 C 
ATOM     81  F15 UNL A   1      -3.755   8.435  37.334  1.00  0.00    +0.000 F 
ENDBRANCH   70   71
TORSDOF 21
ENDMDL
MODEL 5
REMARK VINA RESULT:     -10.4     20.091     26.052
ROOT
ATOM    129  H37 UNL A   1      53.699  18.843   9.126  1.00  0.00    +0.000 H 
ATOM     34  C27 UNL A   1      52.806  20.113  11.525  1.00  0.00    +0.000 C 
ATOM     35  C28 UNL A   1      54.139  19.467  11.261  1.00  0.00    +0.000 C 
ATOM     36  N3  UNL A   1      55.176  19.357  12.056  1.00  0.00    +0.000 N 
ATOM     37  C29 UNL A   1      56.132  18.647  11.343  1.00  0.00    +0.000 C 
ATOM     38  C30 UNL A   1      57.383  18.295  11.726  1.00  0.00    +0.000 C 
ATOM     50  C37 UNL A   1      57.973  18.635  12.996  1.00  0.00    +0.000 C 
ATOM     51  C38 UNL A   1      59.253  18.370  13.453  1.00  0.00    +0.000 C 
ATOM     52  C39 UNL A   1      59.361  18.854  14.762  1.00  0.00    +0.000 C 
ATOM     53  C40 UNL A   1      58.163  19.459  15.105  1.00  0.00    +0.000 C 
ATOM     54  N4  UNL A   1      57.319  19.314  14.013  1.00  0.00    +0.000 N 
ATOM     55  C41 UNL A   1      57.811  20.120  16.335  1.00  0.00    +0.000 C 
ATOM     67  C48 UNL A   1      56.614  20.702  16.590  1.00  0.00    +0.000 C 
ATOM     68  N5  UNL A   1      55.499  20.797  15.771  1.00  0.00    +0.000 N 
ATOM     69  C49 UNL A   1      54.590  21.426  16.473  1.00  0.00    +0.000 C 
ATOM     70  C50 UNL A   1      53.195  21.820  16.081  1.00  0.00    +0.000 C 
ATOM     82  C57 UNL A   1      52.732  21.476  14.865  1.00  0.00    +0.000 C 
ATOM     83  C58 UNL A   1      51.407  21.798  14.348  1.00  0.00    +0.000 C 
ATOM     84  C59 UNL A   1      51.287  21.292  13.112  1.00  0.00    +0.000 C 
ATOM     85  C60 UNL A   1      52.547  20.653  12.731  1.00  0.00    +0.000 C 
ATOM     86  N6  UNL A   1      53.334  20.776  13.848  1.00  0.00    +0.000 N 
ATOM     87  C61 UNL A   1      55.020  21.789  17.829  1.00  0.00    +0.000 C 
ATOM     88  C62 UNL A   1      56.274  21.359  17.836  1.00  0.00    +0.000 C 
ATOM     89  C63 UNL A   1      55.549  18.333  10.056  1.00  0.00    +0.000 C 
ATOM     90  C64 UNL A   1      54.337  18.858   9.938  1.00  0.00    +0.000 C 
ATOM    120  H28 UNL A   1      59.998  17.897  12.920  1.00  0.00    +0.000 H 
ATOM    121  H29 UNL A   1      60.191  18.773  15.369  1.00  0.00    +0.000 H 
ATOM    122  H30 UNL A   1      56.393  19.645  13.969  1.00  0.00    +0.000 H 
ATOM    123  H31 UNL A   1      50.679  22.330  14.851  1.00  0.00    +0.000 H 
ATOM    124  H32 UNL A   1      50.441  21.344  12.523  1.00  0.00    +0.000 H 
ATOM    125  H33 UNL A   1      54.242  20.401  13.914  1.00  0.00    +0.000 H 
ATOM    126  H34 UNL A   1      54.487  22.257  18.580  1.00  0.00    +0.000 H 
ATOM    127  H35 UNL A   1      56.925  21.477  18.628  1.00  0.00    +0.000 H 
ATOM    128  H36 UNL A   1      56.016  17.773   9.326  1.00  0.00    +0.000 H 
ENDROOT
BRANCH   34   33
ATOM     33  C26 UNL A   1      51.774  20.209  10.459  1.00  0.00    +0.000 C 
ATOM    130  H38 UNL A   1      50.919  18.299  10.770  1.00  0.00    +0.000 H 
ATOM    131  H39 UNL A   1      49.350  18.459   8.924  1.00  0.00    +0.000 H 
ATOM    118  H26 UNL A   1      50.552  22.432   8.255  1.00  0.00    +0.000 H 
ATOM    119  H27 UNL A   1      52.303  22.182   9.909  1.00  0.00    +0.000 H 
ATOM     91  C65 UNL A   1      50.892  19.152  10.191  1.00  0.00    +0.000 C 
ATOM     92  C66 UNL A   1      49.973  19.252   9.142  1.00  0.00    +0.000 C 
ATOM     30  C23 UNL A   1      49.899  20.427   8.388  1.00  0.00    +0.000 C 
ATOM     31  C24 UNL A   1      50.689  21.527   8.731  1.00  0.00    +0.000 C 
ATOM     32  C25 UNL A   1      51.661  21.398   9.718  1.00  0.00    +0.000 C 
BRANCH   30    2
ATOM      1  O1  UNL A   1      48.125  21.350   7.164  1.00  0.00    +0.000 O 
ATOM      2  C1  UNL A   1      48.986  20.478   7.224  1.00  0.00    +0.000 C 
BRANCH    2    3
ATOM      3  N1  UNL A   1      49.080  19.527   6.236  1.00  0.00    +0.000 N 
ATOM     93  H1  UNL A   1      49.785  19.682   5.567  1.00  0.00    +0.000 H 
BRANCH    3    4
ATOM      4  C2  UNL A   1      48.286  18.325   6.035  1.00  0.00    +0.000 C 
ATOM     94  H2  UNL A   1      47.863  18.359   5.053  1.00  0.00    +0.000 H 
ATOM     95  H3  UNL A   1      47.536  18.310   6.798  1.00  0.00    +0.000 H 
BRANCH    4    5
ATOM     97  H5  UNL A   1      50.099  17.347   6.369  1.00  0.00    +0.000 H 
ATOM      5  C3  UNL A   1      49.094  17.041   6.169  1.00  0.00    +0.000 C 
ATOM     96  H4  UNL A   1      48.657  16.456   6.950  1.00  0.00    +0.000 H 
BRANCH    5    6
ATOM     98  H6  UNL A   1      50.173  15.832   4.807  1.00  0.00    +0.000 H 
ATOM     99  H7  UNL A   1      48.826  16.794   4.112  1.00  0.00    +0.000 H 
ATOM      6  C4  UNL A   1      49.164  16.172   4.915  1.00  0.00    +0.000 C 
BRANCH    6    7
ATOM    100  H8  UNL A   1      48.252  14.523   5.882  1.00  0.00    +0.000 H 
ATOM    101  H9  UNL A   1      48.652  14.298   4.145  1.00  0.00    +0.000 H 
ATOM      7  C5  UNL A   1      48.251  14.943   4.899  1.00  0.00    +0.000 C 
BRANCH    7    8
ATOM    102  H10 UNL A   1      46.344  15.803   5.249  1.00  0.00    +0.000 H 
ATOM    103  H11 UNL A   1      46.349  14.221   4.402  1.00  0.00    +0.000 H 
ATOM      8  C6  UNL A   1      46.794  15.190   4.496  1.00  0.00    +0.000 C 
BRANCH    8    9
ATOM      9  C7  UNL A   1      46.585  15.874   3.147  1.00  0.00    +0.000 C 
ATOM    105  H13 UNL A   1      47.524  15.879   2.634  1.00  0.00    +0.000 H 
ATOM    104  H12 UNL A   1      45.843  15.333   2.598  1.00  0.00    +0.000 H 
BRANCH    9   10
ATOM     10  N2  UNL A   1      46.150  17.248   3.290  1.00  0.00    +0.000 N 
ATOM    106  H14 UNL A   1      46.817  17.935   3.062  1.00  0.00    +0.000 H 
BRANCH   10   11
ATOM     11  C8  UNL A   1      44.927  17.715   3.702  1.00  0.00    +0.000 C 
ATOM     12  O2  UNL A   1      44.337  17.166   4.628  1.00  0.00    +0.000 O 
BRANCH   11   13
ATOM    107  H15 UNL A   1      42.889  17.831   2.073  1.00  0.00    +0.000 H 
ATOM     13  C9  UNL A   1      44.360  18.939   3.106  1.00  0.00    +0.000 C 
ATOM     14  C10 UNL A   1      43.261  18.776   2.250  1.00  0.00    +0.000 C 
ATOM     15  C11 UNL A   1      42.663  19.882   1.632  1.00  0.00    +0.000 C 
ATOM    115  H23 UNL A   1      42.764  21.983   1.459  1.00  0.00    +0.000 H 
ATOM    116  H24 UNL A   1      44.696  22.262   2.895  1.00  0.00    +0.000 H 
ATOM     26  C20 UNL A   1      43.199  21.153   1.891  1.00  0.00    +0.000 C 
ATOM     27  C21 UNL A   1      44.312  21.319   2.726  1.00  0.00    +0.000 C 
ATOM     28  C22 UNL A   1      44.899  20.209   3.325  1.00  0.00    +0.000 C 
BRANCH   15   16
ATOM    108  H16 UNL A   1      41.082  18.844   0.607  1.00  0.00    +0.000 H 
ATOM     16  C12 UNL A   1      41.509  19.777   0.718  1.00  0.00    +0.000 C 
BRANCH   16   17
ATOM     17  C13 UNL A   1      40.965  20.786   0.018  1.00  0.00    +0.000 C 
ATOM    109  H17 UNL A   1      41.580  21.351  -0.588  1.00  0.00    +0.000 H 
BRANCH   17   18
ATOM    110  H18 UNL A   1      39.033  19.822   1.664  1.00  0.00    +0.000 H 
ATOM    112  H20 UNL A   1      35.845  22.162   0.236  1.00  0.00    +0.000 H 
ATOM     18  C14 UNL A   1      39.535  21.125   0.072  1.00  0.00    +0.000 C 
ATOM     19  C15 UNL A   1      38.676  20.538   1.011  1.00  0.00    +0.000 C 
ATOM    114  H22 UNL A   1      39.665  22.567  -1.474  1.00  0.00    +0.000 H 
ATOM     20  C16 UNL A   1      37.337  20.922   1.062  1.00  0.00    +0.000 C 
ATOM     22  C17 UNL A   1      36.839  21.888   0.197  1.00  0.00    +0.000 C 
ATOM     23  C18 UNL A   1      37.695  22.480  -0.723  1.00  0.00    +0.000 C 
ATOM     25  C19 UNL A   1      39.038  22.113  -0.791  1.00  0.00    +0.000 C 
BRANCH   20   21
ATOM     21  O3  UNL A   1      36.476  20.373   1.966  1.00  0.00    +0.000 O 
ATOM    111  H19 UNL A   1      36.163  20.884   2.686  1.00  0.00    +0.000 H 
ENDBRANCH   20   21
BRANCH   23   24
ATOM    113  H21 UNL A   1      37.660  23.708  -2.307  1.00  0.00    +0.000 H 
ATOM     24  O4  UNL A   1      37.179  23.434  -1.551  1.00  0.00    +0.000 O 
ENDBRANCH   23   24
ENDBRANCH   17   18
ENDBRANCH   16   17
ENDBRANCH   15   16
BRANCH   28   29
ATOM    117  H25 UNL A   1      46.717  19.776   4.056  1.00  0.00    +0.000 H 
ATOM     29  O5  UNL A   1      45.996  20.371   4.123  1.00  0.00    +0.000 O 
ENDBRANCH   28   29
ENDBRANCH   11   13
ENDBRANCH   10   11
ENDBRANCH    9   10
ENDBRANCH    8    9
ENDBRANCH    7    8
ENDBRANCH    6    7
ENDBRANCH    5    6
ENDBRANCH    4    5
ENDBRANCH    3    4
ENDBRANCH    2    3
ENDBRANCH   30    2
ENDBRANCH   34   33
BRANCH   38   39
ATOM     39  C31 UNL A   1      58.204  17.485  10.765  1.00  0.00    +0.000 C 
ATOM     40  C32 UNL A   1      58.172  16.083  10.764  1.00  0.00    +0.000 C 
ATOM     41  F1  UNL A   1      57.439  15.424  11.674  1.00  0.00    +0.000 F 
ATOM     42  C33 UNL A   1      58.920  15.350   9.845  1.00  0.00    +0.000 C 
ATOM     43  F2  UNL A   1      58.904  14.011   9.889  1.00  0.00    +0.000 F 
ATOM     44  C34 UNL A   1      59.688  16.002   8.892  1.00  0.00    +0.000 C 
ATOM     45  F3  UNL A   1      60.401  15.295   8.005  1.00  0.00    +0.000 F 
ATOM     46  C35 UNL A   1      59.722  17.388   8.864  1.00  0.00    +0.000 C 
ATOM     47  F4  UNL A   1      60.455  18.021   7.936  1.00  0.00    +0.000 F 
ATOM     48  C36 UNL A   1      58.995  18.124   9.797  1.00  0.00    +0.000 C 
ATOM     49  F5  UNL A   1      59.055  19.463   9.749  1.00  0.00    +0.000 F 
ENDBRANCH   38   39
BRANCH   55   56
ATOM     65  C47 UNL A   1      59.539  21.396  17.652  1.00  0.00    +0.000 C 
ATOM     66  F10 UNL A   1      59.269  22.488  16.922  1.00  0.00    +0.000 F 
ATOM     56  C42 UNL A   1      58.849  20.197  17.415  1.00  0.00    +0.000 C 
ATOM     57  C43 UNL A   1      59.172  19.084  18.203  1.00  0.00    +0.000 C 
ATOM     58  F6  UNL A   1      58.527  17.921  18.025  1.00  0.00    +0.000 F 
ATOM     59  C44 UNL A   1      60.129  19.175  19.211  1.00  0.00    +0.000 C 
ATOM     60  F7  UNL A   1      60.386  18.112  19.985  1.00  0.00    +0.000 F 
ATOM     61  C45 UNL A   1      60.802  20.369  19.425  1.00  0.00    +0.000 C 
ATOM     62  F8  UNL A   1      61.722  20.455  20.397  1.00  0.00    +0.000 F 
ATOM     63  C46 UNL A   1      60.514  21.475  18.642  1.00  0.00    +0.000 C 
ATOM     64  F9  UNL A   1      61.170  22.627  18.843  1.00  0.00    +0.000 F 
ENDBRANCH   55   56
BRANCH   70   71
ATOM     71  C51 UNL A   1      52.331  22.598  17.004  1.00  0.00    +0.000 C 
ATOM     72  C52 UNL A   1      52.262  23.994  16.920  1.00  0.00    +0.000 C 
ATOM     73  F11 UNL A   1      53.008  24.648  16.018  1.00  0.00    +0.000 F 
ATOM     74  C53 UNL A   1      51.448  24.726  17.782  1.00  0.00    +0.000 C 
ATOM     75  F12 UNL A   1      51.426  26.064  17.704  1.00  0.00    +0.000 F 
ATOM     76  C54 UNL A   1      50.669  24.074  18.725  1.00  0.00    +0.000 C 
ATOM     77  F13 UNL A   1      49.880  24.778  19.547  1.00  0.00    +0.000 F 
ATOM     78  C55 UNL A   1      50.714  22.691  18.819  1.00  0.00    +0.000 C 
ATOM     79  F14 UNL A   1      49.951  22.055  19.720  1.00  0.00    +0.000 F 
ATOM     80  C56 UNL A   1      51.547  21.961  17.977  1.00  0.00    +0.000 C 
ATOM     81  F15 UNL A   1      51.576  20.625  18.094  1.00  0.00    +0.000 F 
ENDBRANCH   70   71
TORSDOF 21
ENDMDL
MODEL 6
REMARK VINA RESULT:     -10.4      0.662      7.216
ROOT
ATOM    129  H37 UNL A   1      38.032  28.862  27.455  1.00  0.00    +0.000 H 
ATOM     34  C27 UNL A   1      38.022  30.043  30.057  1.00  0.00    +0.000 C 
ATOM     35  C28 UNL A   1      39.069  29.149  29.451  1.00  0.00    +0.000 C 
ATOM     36  N3  UNL A   1      40.199  28.730  29.969  1.00  0.00    +0.000 N 
ATOM     37  C29 UNL A   1      40.775  27.903  29.014  1.00  0.00    +0.000 C 
ATOM     38  C30 UNL A   1      41.958  27.244  29.070  1.00  0.00    +0.000 C 
ATOM     50  C37 UNL A   1      42.878  27.312  30.177  1.00  0.00    +0.000 C 
ATOM     51  C38 UNL A   1      44.125  26.724  30.301  1.00  0.00    +0.000 C 
ATOM     52  C39 UNL A   1      44.632  27.034  31.568  1.00  0.00    +0.000 C 
ATOM     53  C40 UNL A   1      43.720  27.851  32.217  1.00  0.00    +0.000 C 
ATOM     54  N4  UNL A   1      42.647  28.010  31.353  1.00  0.00    +0.000 N 
ATOM     55  C41 UNL A   1      43.818  28.442  33.526  1.00  0.00    +0.000 C 
ATOM     67  C48 UNL A   1      42.882  29.246  34.088  1.00  0.00    +0.000 C 
ATOM     68  N5  UNL A   1      41.670  29.669  33.565  1.00  0.00    +0.000 N 
ATOM     69  C49 UNL A   1      41.116  30.408  34.494  1.00  0.00    +0.000 C 
ATOM     70  C50 UNL A   1      39.805  31.141  34.466  1.00  0.00    +0.000 C 
ATOM     82  C57 UNL A   1      39.017  31.035  33.380  1.00  0.00    +0.000 C 
ATOM     83  C58 UNL A   1      37.727  31.695  33.211  1.00  0.00    +0.000 C 
ATOM     84  C59 UNL A   1      37.219  31.359  32.016  1.00  0.00    +0.000 C 
ATOM     85  C60 UNL A   1      38.173  30.500  31.315  1.00  0.00    +0.000 C 
ATOM     86  N6  UNL A   1      39.194  30.329  32.216  1.00  0.00    +0.000 N 
ATOM     87  C61 UNL A   1      41.910  30.525  35.723  1.00  0.00    +0.000 C 
ATOM     88  C62 UNL A   1      42.994  29.829  35.409  1.00  0.00    +0.000 C 
ATOM     89  C63 UNL A   1      39.864  27.861  27.890  1.00  0.00    +0.000 C 
ATOM     90  C64 UNL A   1      38.818  28.651  28.091  1.00  0.00    +0.000 C 
ATOM    120  H28 UNL A   1      44.598  26.155  29.583  1.00  0.00    +0.000 H 
ATOM    121  H29 UNL A   1      45.532  26.709  31.955  1.00  0.00    +0.000 H 
ATOM    122  H30 UNL A   1      41.840  28.541  31.547  1.00  0.00    +0.000 H 
ATOM    123  H31 UNL A   1      37.278  32.320  33.899  1.00  0.00    +0.000 H 
ATOM    124  H32 UNL A   1      36.302  31.658  31.650  1.00  0.00    +0.000 H 
ATOM    125  H33 UNL A   1      39.976  29.757  32.045  1.00  0.00    +0.000 H 
ATOM    126  H34 UNL A   1      41.683  31.019  36.602  1.00  0.00    +0.000 H 
ATOM    127  H35 UNL A   1      43.812  29.717  36.028  1.00  0.00    +0.000 H 
ATOM    128  H36 UNL A   1      40.010  27.290  27.044  1.00  0.00    +0.000 H 
ENDROOT
BRANCH   34   33
ATOM     33  C26 UNL A   1      36.835  30.476  29.275  1.00  0.00    +0.000 C 
ATOM    130  H38 UNL A   1      37.460  32.473  28.963  1.00  0.00    +0.000 H 
ATOM    131  H39 UNL A   1      35.433  33.160  27.815  1.00  0.00    +0.000 H 
ATOM    118  H26 UNL A   1      34.034  29.196  27.928  1.00  0.00    +0.000 H 
ATOM    119  H27 UNL A   1      35.920  28.568  29.311  1.00  0.00    +0.000 H 
ATOM     91  C65 UNL A   1      36.701  31.791  28.807  1.00  0.00    +0.000 C 
ATOM     92  C66 UNL A   1      35.544  32.182  28.126  1.00  0.00    +0.000 C 
ATOM     30  C23 UNL A   1      34.537  31.247  27.868  1.00  0.00    +0.000 C 
ATOM     31  C24 UNL A   1      34.720  29.909  28.222  1.00  0.00    +0.000 C 
ATOM     32  C25 UNL A   1      35.832  29.539  28.973  1.00  0.00    +0.000 C 
BRANCH   30    2
ATOM      1  O1  UNL A   1      32.974  32.890  27.271  1.00  0.00    +0.000 O 
ATOM      2  C1  UNL A   1      33.281  31.702  27.230  1.00  0.00    +0.000 C 
BRANCH    2    3
ATOM      3  N1  UNL A   1      32.447  30.790  26.629  1.00  0.00    +0.000 N 
ATOM     93  H1  UNL A   1      31.589  30.637  27.087  1.00  0.00    +0.000 H 
BRANCH    3    4
ATOM      4  C2  UNL A   1      32.648  30.017  25.413  1.00  0.00    +0.000 C 
ATOM     94  H2  UNL A   1      33.665  30.136  25.102  1.00  0.00    +0.000 H 
ATOM     95  H3  UNL A   1      31.957  30.387  24.685  1.00  0.00    +0.000 H 
BRANCH    4    5
ATOM     97  H5  UNL A   1      32.334  28.364  26.647  1.00  0.00    +0.000 H 
ATOM      5  C3  UNL A   1      32.367  28.531  25.591  1.00  0.00    +0.000 C 
ATOM     96  H4  UNL A   1      31.450  28.306  25.089  1.00  0.00    +0.000 H 
BRANCH    5    6
ATOM     98  H6  UNL A   1      34.286  28.180  24.770  1.00  0.00    +0.000 H 
ATOM     99  H7  UNL A   1      32.985  27.062  24.241  1.00  0.00    +0.000 H 
ATOM      6  C4  UNL A   1      33.441  27.588  25.053  1.00  0.00    +0.000 C 
BRANCH    6    7
ATOM    100  H8  UNL A   1      33.112  26.247  26.660  1.00  0.00    +0.000 H 
ATOM    101  H9  UNL A   1      34.766  26.937  26.533  1.00  0.00    +0.000 H 
ATOM      7  C5  UNL A   1      33.930  26.508  26.022  1.00  0.00    +0.000 C 
BRANCH    7    8
ATOM    102  H10 UNL A   1      35.515  25.182  25.540  1.00  0.00    +0.000 H 
ATOM    103  H11 UNL A   1      34.169  25.263  24.355  1.00  0.00    +0.000 H 
ATOM      8  C6  UNL A   1      34.457  25.217  25.385  1.00  0.00    +0.000 C 
BRANCH    8    9
ATOM      9  C7  UNL A   1      33.860  23.921  25.925  1.00  0.00    +0.000 C 
ATOM    105  H13 UNL A   1      34.668  23.287  26.223  1.00  0.00    +0.000 H 
ATOM    104  H12 UNL A   1      33.221  24.153  26.752  1.00  0.00    +0.000 H 
BRANCH    9   10
ATOM     10  N2  UNL A   1      33.087  23.213  24.924  1.00  0.00    +0.000 N 
ATOM    106  H14 UNL A   1      33.526  22.434  24.515  1.00  0.00    +0.000 H 
BRANCH   10   11
ATOM     11  C8  UNL A   1      31.820  23.492  24.474  1.00  0.00    +0.000 C 
ATOM     12  O2  UNL A   1      30.870  22.804  24.839  1.00  0.00    +0.000 O 
BRANCH   11   13
ATOM    107  H15 UNL A   1      30.067  25.371  24.936  1.00  0.00    +0.000 H 
ATOM     13  C9  UNL A   1      31.576  24.677  23.632  1.00  0.00    +0.000 C 
ATOM     14  C10 UNL A   1      30.580  25.566  24.063  1.00  0.00    +0.000 C 
ATOM     15  C11 UNL A   1      30.274  26.714  23.322  1.00  0.00    +0.000 C 
ATOM    115  H23 UNL A   1      30.790  27.794  21.583  1.00  0.00    +0.000 H 
ATOM    116  H24 UNL A   1      32.474  26.233  20.807  1.00  0.00    +0.000 H 
ATOM     26  C20 UNL A   1      30.989  26.946  22.136  1.00  0.00    +0.000 C 
ATOM     27  C21 UNL A   1      31.967  26.049  21.688  1.00  0.00    +0.000 C 
ATOM     28  C22 UNL A   1      32.253  24.908  22.432  1.00  0.00    +0.000 C 
BRANCH   15   16
ATOM    108  H16 UNL A   1      29.151  27.897  24.725  1.00  0.00    +0.000 H 
ATOM     16  C12 UNL A   1      29.235  27.685  23.718  1.00  0.00    +0.000 C 
BRANCH   16   17
ATOM     17  C13 UNL A   1      28.389  28.316  22.888  1.00  0.00    +0.000 C 
ATOM    109  H17 UNL A   1      27.661  27.761  22.413  1.00  0.00    +0.000 H 
BRANCH   17   18
ATOM    110  H18 UNL A   1      29.362  30.311  24.452  1.00  0.00    +0.000 H 
ATOM    112  H20 UNL A   1      28.692  33.500  21.795  1.00  0.00    +0.000 H 
ATOM     18  C14 UNL A   1      28.450  29.761  22.622  1.00  0.00    +0.000 C 
ATOM     19  C15 UNL A   1      29.011  30.655  23.544  1.00  0.00    +0.000 C 
ATOM    114  H22 UNL A   1      27.602  29.593  20.689  1.00  0.00    +0.000 H 
ATOM     20  C16 UNL A   1      29.094  32.012  23.234  1.00  0.00    +0.000 C 
ATOM     22  C17 UNL A   1      28.633  32.494  22.015  1.00  0.00    +0.000 C 
ATOM     23  C18 UNL A   1      28.091  31.604  21.096  1.00  0.00    +0.000 C 
ATOM     25  C19 UNL A   1      28.000  30.243  21.384  1.00  0.00    +0.000 C 
BRANCH   20   21
ATOM     21  O3  UNL A   1      29.638  32.906  24.108  1.00  0.00    +0.000 O 
ATOM    111  H19 UNL A   1      29.866  32.635  24.975  1.00  0.00    +0.000 H 
ENDBRANCH   20   21
BRANCH   23   24
ATOM    113  H21 UNL A   1      26.747  32.075  19.685  1.00  0.00    +0.000 H 
ATOM     24  O4  UNL A   1      27.658  32.106  19.903  1.00  0.00    +0.000 O 
ENDBRANCH   23   24
ENDBRANCH   17   18
ENDBRANCH   16   17
ENDBRANCH   15   16
BRANCH   28   29
ATOM    117  H25 UNL A   1      33.405  23.267  22.491  1.00  0.00    +0.000 H 
ATOM     29  O5  UNL A   1      33.194  24.025  21.983  1.00  0.00    +0.000 O 
ENDBRANCH   28   29
ENDBRANCH   11   13
ENDBRANCH   10   11
ENDBRANCH    9   10
ENDBRANCH    8    9
ENDBRANCH    7    8
ENDBRANCH    6    7
ENDBRANCH    5    6
ENDBRANCH    4    5
ENDBRANCH    3    4
ENDBRANCH    2    3
ENDBRANCH   30    2
ENDBRANCH   34   33
BRANCH   38   39
ATOM     39  C31 UNL A   1      42.327  26.377  27.902  1.00  0.00    +0.000 C 
ATOM     40  C32 UNL A   1      43.142  26.844  26.861  1.00  0.00    +0.000 C 
ATOM     41  F1  UNL A   1      43.570  28.116  26.859  1.00  0.00    +0.000 F 
ATOM     42  C33 UNL A   1      43.496  26.015  25.799  1.00  0.00    +0.000 C 
ATOM     43  F2  UNL A   1      44.244  26.496  24.797  1.00  0.00    +0.000 F 
ATOM     44  C34 UNL A   1      43.070  24.695  25.773  1.00  0.00    +0.000 C 
ATOM     45  F3  UNL A   1      43.418  23.897  24.755  1.00  0.00    +0.000 F 
ATOM     46  C35 UNL A   1      42.276  24.207  26.799  1.00  0.00    +0.000 C 
ATOM     47  F4  UNL A   1      41.872  22.928  26.782  1.00  0.00    +0.000 F 
ATOM     48  C36 UNL A   1      41.900  25.041  27.850  1.00  0.00    +0.000 C 
ATOM     49  F5  UNL A   1      41.125  24.541  28.824  1.00  0.00    +0.000 F 
ENDBRANCH   38   39
BRANCH   55   56
ATOM     65  C47 UNL A   1      46.170  29.021  34.219  1.00  0.00    +0.000 C 
ATOM     66  F10 UNL A   1      46.134  30.084  33.402  1.00  0.00    +0.000 F 
ATOM     56  C42 UNL A   1      45.056  28.175  34.330  1.00  0.00    +0.000 C 
ATOM     57  C43 UNL A   1      45.147  27.076  35.195  1.00  0.00    +0.000 C 
ATOM     58  F6  UNL A   1      44.102  26.248  35.346  1.00  0.00    +0.000 F 
ATOM     59  C44 UNL A   1      46.299  26.848  35.943  1.00  0.00    +0.000 C 
ATOM     60  F7  UNL A   1      46.345  25.821  36.801  1.00  0.00    +0.000 F 
ATOM     61  C45 UNL A   1      47.390  27.695  35.816  1.00  0.00    +0.000 C 
ATOM     62  F8  UNL A   1      48.498  27.476  36.538  1.00  0.00    +0.000 F 
ATOM     63  C46 UNL A   1      47.329  28.776  34.949  1.00  0.00    +0.000 C 
ATOM     64  F9  UNL A   1      48.386  29.590  34.819  1.00  0.00    +0.000 F 
ENDBRANCH   55   56
BRANCH   70   71
ATOM     71  C51 UNL A   1      39.379  31.991  35.606  1.00  0.00    +0.000 C 
ATOM     72  C52 UNL A   1      38.502  31.498  36.581  1.00  0.00    +0.000 C 
ATOM     73  F11 UNL A   1      38.011  30.255  36.474  1.00  0.00    +0.000 F 
ATOM     74  C53 UNL A   1      38.103  32.291  37.655  1.00  0.00    +0.000 C 
ATOM     75  F12 UNL A   1      37.236  31.808  38.556  1.00  0.00    +0.000 F 
ATOM     76  C54 UNL A   1      38.594  33.581  37.787  1.00  0.00    +0.000 C 
ATOM     77  F13 UNL A   1      38.217  34.340  38.824  1.00  0.00    +0.000 F 
ATOM     78  C55 UNL A   1      39.471  34.086  36.838  1.00  0.00    +0.000 C 
ATOM     79  F14 UNL A   1      39.960  35.327  36.971  1.00  0.00    +0.000 F 
ATOM     80  C56 UNL A   1      39.848  33.304  35.751  1.00  0.00    +0.000 C 
ATOM     81  F15 UNL A   1      40.693  33.819  34.845  1.00  0.00    +0.000 F 
ENDBRANCH   70   71
TORSDOF 21
ENDMDL
MODEL 7
REMARK VINA RESULT:     -10.3      1.060      2.252
ROOT
ATOM    129  H37 UNL A   1      36.392  31.586  31.348  1.00  0.00    +0.000 H 
ATOM     34  C27 UNL A   1      38.119  29.944  29.771  1.00  0.00    +0.000 C 
ATOM     35  C28 UNL A   1      38.353  30.463  31.163  1.00  0.00    +0.000 C 
ATOM     36  N3  UNL A   1      39.379  30.268  31.956  1.00  0.00    +0.000 N 
ATOM     37  C29 UNL A   1      39.116  30.994  33.110  1.00  0.00    +0.000 C 
ATOM     38  C30 UNL A   1      39.867  31.097  34.233  1.00  0.00    +0.000 C 
ATOM     50  C37 UNL A   1      41.121  30.419  34.441  1.00  0.00    +0.000 C 
ATOM     51  C38 UNL A   1      41.926  30.418  35.567  1.00  0.00    +0.000 C 
ATOM     52  C39 UNL A   1      43.065  29.652  35.291  1.00  0.00    +0.000 C 
ATOM     53  C40 UNL A   1      42.947  29.138  34.010  1.00  0.00    +0.000 C 
ATOM     54  N4  UNL A   1      41.751  29.620  33.499  1.00  0.00    +0.000 N 
ATOM     55  C41 UNL A   1      43.856  28.274  33.303  1.00  0.00    +0.000 C 
ATOM     67  C48 UNL A   1      43.662  27.802  32.048  1.00  0.00    +0.000 C 
ATOM     68  N5  UNL A   1      42.597  28.026  31.187  1.00  0.00    +0.000 N 
ATOM     69  C49 UNL A   1      42.882  27.376  30.086  1.00  0.00    +0.000 C 
ATOM     70  C50 UNL A   1      42.077  27.251  28.825  1.00  0.00    +0.000 C 
ATOM     82  C57 UNL A   1      40.906  27.906  28.725  1.00  0.00    +0.000 C 
ATOM     83  C58 UNL A   1      40.018  27.870  27.568  1.00  0.00    +0.000 C 
ATOM     84  C59 UNL A   1      38.951  28.644  27.813  1.00  0.00    +0.000 C 
ATOM     85  C60 UNL A   1      39.056  29.190  29.167  1.00  0.00    +0.000 C 
ATOM     86  N6  UNL A   1      40.267  28.731  29.619  1.00  0.00    +0.000 N 
ATOM     87  C61 UNL A   1      44.172  26.676  30.116  1.00  0.00    +0.000 C 
ATOM     88  C62 UNL A   1      44.589  26.937  31.348  1.00  0.00    +0.000 C 
ATOM     89  C63 UNL A   1      37.841  31.650  32.912  1.00  0.00    +0.000 C 
ATOM     90  C64 UNL A   1      37.306  31.317  31.744  1.00  0.00    +0.000 C 
ATOM    120  H28 UNL A   1      41.723  30.901  36.455  1.00  0.00    +0.000 H 
ATOM    121  H29 UNL A   1      43.857  29.495  35.933  1.00  0.00    +0.000 H 
ATOM    122  H30 UNL A   1      41.403  29.424  32.599  1.00  0.00    +0.000 H 
ATOM    123  H31 UNL A   1      40.184  27.334  26.701  1.00  0.00    +0.000 H 
ATOM    124  H32 UNL A   1      38.179  28.826  27.154  1.00  0.00    +0.000 H 
ATOM    125  H33 UNL A   1      40.643  28.968  30.497  1.00  0.00    +0.000 H 
ATOM    126  H34 UNL A   1      44.633  26.125  29.374  1.00  0.00    +0.000 H 
ATOM    127  H35 UNL A   1      45.464  26.569  31.755  1.00  0.00    +0.000 H 
ATOM    128  H36 UNL A   1      37.406  32.294  33.590  1.00  0.00    +0.000 H 
ENDROOT
BRANCH   34   33
ATOM     33  C26 UNL A   1      36.842  30.210  29.057  1.00  0.00    +0.000 C 
ATOM    130  H38 UNL A   1      35.918  28.360  29.508  1.00  0.00    +0.000 H 
ATOM    131  H39 UNL A   1      33.915  28.794  28.206  1.00  0.00    +0.000 H 
ATOM    118  H26 UNL A   1      35.280  32.691  27.414  1.00  0.00    +0.000 H 
ATOM    119  H27 UNL A   1      37.394  32.167  28.474  1.00  0.00    +0.000 H 
ATOM     91  C65 UNL A   1      35.816  29.255  29.004  1.00  0.00    +0.000 C 
ATOM     92  C66 UNL A   1      34.652  29.512  28.273  1.00  0.00    +0.000 C 
ATOM     30  C23 UNL A   1      34.489  30.744  27.632  1.00  0.00    +0.000 C 
ATOM     31  C24 UNL A   1      35.453  31.743  27.785  1.00  0.00    +0.000 C 
ATOM     32  C25 UNL A   1      36.646  31.457  28.440  1.00  0.00    +0.000 C 
BRANCH   30    2
ATOM      1  O1  UNL A   1      32.562  31.923  27.004  1.00  0.00    +0.000 O 
ATOM      2  C1  UNL A   1      33.293  30.961  26.787  1.00  0.00    +0.000 C 
BRANCH    2    3
ATOM      3  N1  UNL A   1      32.985  30.067  25.790  1.00  0.00    +0.000 N 
ATOM     93  H1  UNL A   1      33.326  30.298  24.895  1.00  0.00    +0.000 H 
BRANCH    3    4
ATOM      4  C2  UNL A   1      32.228  28.827  25.865  1.00  0.00    +0.000 C 
ATOM     94  H2  UNL A   1      31.646  28.732  24.973  1.00  0.00    +0.000 H 
ATOM     95  H3  UNL A   1      31.617  28.882  26.742  1.00  0.00    +0.000 H 
BRANCH    4    5
ATOM     97  H5  UNL A   1      33.545  27.436  25.039  1.00  0.00    +0.000 H 
ATOM      5  C3  UNL A   1      33.108  27.592  26.003  1.00  0.00    +0.000 C 
ATOM     96  H4  UNL A   1      33.821  27.779  26.776  1.00  0.00    +0.000 H 
BRANCH    5    6
ATOM     98  H6  UNL A   1      32.617  26.037  27.353  1.00  0.00    +0.000 H 
ATOM     99  H7  UNL A   1      32.702  25.579  25.619  1.00  0.00    +0.000 H 
ATOM      6  C4  UNL A   1      32.375  26.295  26.343  1.00  0.00    +0.000 C 
BRANCH    6    7
ATOM    100  H8  UNL A   1      30.609  26.755  25.269  1.00  0.00    +0.000 H 
ATOM    101  H9  UNL A   1      30.511  26.918  27.055  1.00  0.00    +0.000 H 
ATOM      7  C5  UNL A   1      30.850  26.337  26.223  1.00  0.00    +0.000 C 
BRANCH    7    8
ATOM    102  H10 UNL A   1      29.677  24.775  25.394  1.00  0.00    +0.000 H 
ATOM    103  H11 UNL A   1      29.422  25.108  27.139  1.00  0.00    +0.000 H 
ATOM      8  C6  UNL A   1      30.126  24.991  26.341  1.00  0.00    +0.000 C 
BRANCH    8    9
ATOM      9  C7  UNL A   1      30.999  23.801  26.729  1.00  0.00    +0.000 C 
ATOM    105  H13 UNL A   1      32.017  24.130  26.736  1.00  0.00    +0.000 H 
ATOM    104  H12 UNL A   1      30.696  23.451  27.694  1.00  0.00    +0.000 H 
BRANCH    9   10
ATOM     10  N2  UNL A   1      30.892  22.709  25.782  1.00  0.00    +0.000 N 
ATOM    106  H14 UNL A   1      30.155  22.077  25.940  1.00  0.00    +0.000 H 
BRANCH   10   11
ATOM     11  C8  UNL A   1      31.687  22.445  24.695  1.00  0.00    +0.000 C 
ATOM     12  O2  UNL A   1      31.735  21.311  24.227  1.00  0.00    +0.000 O 
BRANCH   11   13
ATOM    107  H15 UNL A   1      30.599  24.414  23.368  1.00  0.00    +0.000 H 
ATOM     13  C9  UNL A   1      32.408  23.539  24.019  1.00  0.00    +0.000 C 
ATOM     14  C10 UNL A   1      31.627  24.498  23.357  1.00  0.00    +0.000 C 
ATOM     15  C11 UNL A   1      32.227  25.568  22.681  1.00  0.00    +0.000 C 
ATOM    115  H23 UNL A   1      34.090  26.437  22.203  1.00  0.00    +0.000 H 
ATOM    116  H24 UNL A   1      35.443  24.753  23.301  1.00  0.00    +0.000 H 
ATOM     26  C20 UNL A   1      33.629  25.648  22.682  1.00  0.00    +0.000 C 
ATOM     27  C21 UNL A   1      34.414  24.680  23.321  1.00  0.00    +0.000 C 
ATOM     28  C22 UNL A   1      33.802  23.618  23.981  1.00  0.00    +0.000 C 
BRANCH   15   16
ATOM    108  H16 UNL A   1      30.958  26.311  21.111  1.00  0.00    +0.000 H 
ATOM     16  C12 UNL A   1      31.463  26.606  21.962  1.00  0.00    +0.000 C 
BRANCH   16   17
ATOM     17  C13 UNL A   1      31.367  27.899  22.312  1.00  0.00    +0.000 C 
ATOM    109  H17 UNL A   1      32.234  28.414  22.531  1.00  0.00    +0.000 H 
BRANCH   17   18
ATOM    110  H18 UNL A   1      28.994  27.058  23.328  1.00  0.00    +0.000 H 
ATOM    112  H20 UNL A   1      26.820  30.604  22.713  1.00  0.00    +0.000 H 
ATOM     18  C14 UNL A   1      30.087  28.617  22.400  1.00  0.00    +0.000 C 
ATOM     19  C15 UNL A   1      28.954  28.030  22.981  1.00  0.00    +0.000 C 
ATOM    114  H22 UNL A   1      30.853  30.395  21.544  1.00  0.00    +0.000 H 
ATOM     20  C16 UNL A   1      27.772  28.761  23.090  1.00  0.00    +0.000 C 
ATOM     22  C17 UNL A   1      27.700  30.072  22.635  1.00  0.00    +0.000 C 
ATOM     23  C18 UNL A   1      28.828  30.657  22.074  1.00  0.00    +0.000 C 
ATOM     25  C19 UNL A   1      30.021  29.946  21.956  1.00  0.00    +0.000 C 
BRANCH   20   21
ATOM     21  O3  UNL A   1      26.654  28.220  23.654  1.00  0.00    +0.000 O 
ATOM    111  H19 UNL A   1      25.873  28.123  23.146  1.00  0.00    +0.000 H 
ENDBRANCH   20   21
BRANCH   23   24
ATOM    113  H21 UNL A   1      28.139  32.540  22.074  1.00  0.00    +0.000 H 
ATOM     24  O4  UNL A   1      28.729  31.949  21.647  1.00  0.00    +0.000 O 
ENDBRANCH   23   24
ENDBRANCH   17   18
ENDBRANCH   16   17
ENDBRANCH   15   16
BRANCH   28   29
ATOM    117  H25 UNL A   1      34.565  22.583  25.520  1.00  0.00    +0.000 H 
ATOM     29  O5  UNL A   1      34.570  22.665  24.587  1.00  0.00    +0.000 O 
ENDBRANCH   28   29
ENDBRANCH   11   13
ENDBRANCH   10   11
ENDBRANCH    9   10
ENDBRANCH    8    9
ENDBRANCH    7    8
ENDBRANCH    6    7
ENDBRANCH    5    6
ENDBRANCH    4    5
ENDBRANCH    3    4
ENDBRANCH    2    3
ENDBRANCH   30    2
ENDBRANCH   34   33
BRANCH   38   39
ATOM     39  C31 UNL A   1      39.361  31.990  35.329  1.00  0.00    +0.000 C 
ATOM     40  C32 UNL A   1      39.670  33.357  35.372  1.00  0.00    +0.000 C 
ATOM     41  F1  UNL A   1      40.485  33.893  34.451  1.00  0.00    +0.000 F 
ATOM     42  C33 UNL A   1      39.169  34.174  36.382  1.00  0.00    +0.000 C 
ATOM     43  F2  UNL A   1      39.510  35.469  36.425  1.00  0.00    +0.000 F 
ATOM     44  C34 UNL A   1      38.324  33.649  37.350  1.00  0.00    +0.000 C 
ATOM     45  F3  UNL A   1      37.837  34.439  38.316  1.00  0.00    +0.000 F 
ATOM     46  C35 UNL A   1      37.992  32.303  37.318  1.00  0.00    +0.000 C 
ATOM     47  F4  UNL A   1      37.167  31.796  38.245  1.00  0.00    +0.000 F 
ATOM     48  C36 UNL A   1      38.512  31.478  36.323  1.00  0.00    +0.000 C 
ATOM     49  F5  UNL A   1      38.178  30.179  36.324  1.00  0.00    +0.000 F 
ENDBRANCH   38   39
BRANCH   55   56
ATOM     65  C47 UNL A   1      45.108  26.670  34.789  1.00  0.00    +0.000 C 
ATOM     66  F10 UNL A   1      43.996  25.929  34.902  1.00  0.00    +0.000 F 
ATOM     56  C42 UNL A   1      45.105  27.836  34.008  1.00  0.00    +0.000 C 
ATOM     57  C43 UNL A   1      46.293  28.577  33.926  1.00  0.00    +0.000 C 
ATOM     58  F6  UNL A   1      46.343  29.689  33.179  1.00  0.00    +0.000 F 
ATOM     59  C44 UNL A   1      47.448  28.151  34.577  1.00  0.00    +0.000 C 
ATOM     60  F7  UNL A   1      48.584  28.847  34.444  1.00  0.00    +0.000 F 
ATOM     61  C45 UNL A   1      47.427  26.997  35.347  1.00  0.00    +0.000 C 
ATOM     62  F8  UNL A   1      48.540  26.587  35.971  1.00  0.00    +0.000 F 
ATOM     63  C46 UNL A   1      46.257  26.262  35.459  1.00  0.00    +0.000 C 
ATOM     64  F9  UNL A   1      46.234  25.151  36.210  1.00  0.00    +0.000 F 
ENDBRANCH   55   56
BRANCH   70   71
ATOM     71  C51 UNL A   1      42.545  26.403  27.699  1.00  0.00    +0.000 C 
ATOM     72  C52 UNL A   1      42.090  25.087  27.553  1.00  0.00    +0.000 C 
ATOM     73  F11 UNL A   1      41.246  24.566  28.456  1.00  0.00    +0.000 F 
ATOM     74  C53 UNL A   1      42.522  24.291  26.495  1.00  0.00    +0.000 C 
ATOM     75  F12 UNL A   1      42.099  23.022  26.397  1.00  0.00    +0.000 F 
ATOM     76  C54 UNL A   1      43.397  24.804  25.550  1.00  0.00    +0.000 C 
ATOM     77  F13 UNL A   1      43.806  24.041  24.528  1.00  0.00    +0.000 F 
ATOM     78  C55 UNL A   1      43.852  26.109  25.669  1.00  0.00    +0.000 C 
ATOM     79  F14 UNL A   1      44.686  26.615  24.749  1.00  0.00    +0.000 F 
ATOM     80  C56 UNL A   1      43.442  26.896  26.741  1.00  0.00    +0.000 C 
ATOM     81  F15 UNL A   1      43.903  28.152  26.835  1.00  0.00    +0.000 F 
ENDBRANCH   70   71
TORSDOF 21
ENDMDL
MODEL 8
REMARK VINA RESULT:     -10.3      1.062      7.541
ROOT
ATOM    129  H37 UNL A   1      38.248  28.478  27.307  1.00  0.00    +0.000 H 
ATOM     34  C27 UNL A   1      38.171  29.748  29.865  1.00  0.00    +0.000 C 
ATOM     35  C28 UNL A   1      39.253  28.868  29.302  1.00  0.00    +0.000 C 
ATOM     36  N3  UNL A   1      40.390  28.505  29.845  1.00  0.00    +0.000 N 
ATOM     37  C29 UNL A   1      41.003  27.664  28.926  1.00  0.00    +0.000 C 
ATOM     38  C30 UNL A   1      42.206  27.047  29.016  1.00  0.00    +0.000 C 
ATOM     50  C37 UNL A   1      43.111  27.184  30.130  1.00  0.00    +0.000 C 
ATOM     51  C38 UNL A   1      44.375  26.642  30.287  1.00  0.00    +0.000 C 
ATOM     52  C39 UNL A   1      44.858  27.012  31.547  1.00  0.00    +0.000 C 
ATOM     53  C40 UNL A   1      43.913  27.821  32.157  1.00  0.00    +0.000 C 
ATOM     54  N4  UNL A   1      42.845  27.915  31.278  1.00  0.00    +0.000 N 
ATOM     55  C41 UNL A   1      43.977  28.461  33.446  1.00  0.00    +0.000 C 
ATOM     67  C48 UNL A   1      43.010  29.253  33.969  1.00  0.00    +0.000 C 
ATOM     68  N5  UNL A   1      41.790  29.618  33.419  1.00  0.00    +0.000 N 
ATOM     69  C49 UNL A   1      41.203  30.370  34.316  1.00  0.00    +0.000 C 
ATOM     70  C50 UNL A   1      39.869  31.058  34.249  1.00  0.00    +0.000 C 
ATOM     82  C57 UNL A   1      39.097  30.889  33.160  1.00  0.00    +0.000 C 
ATOM     83  C58 UNL A   1      37.788  31.500  32.955  1.00  0.00    +0.000 C 
ATOM     84  C59 UNL A   1      37.304  31.105  31.768  1.00  0.00    +0.000 C 
ATOM     85  C60 UNL A   1      38.294  30.253  31.107  1.00  0.00    +0.000 C 
ATOM     86  N6  UNL A   1      39.309  30.148  32.024  1.00  0.00    +0.000 N 
ATOM     87  C61 UNL A   1      41.978  30.556  35.549  1.00  0.00    +0.000 C 
ATOM     88  C62 UNL A   1      43.088  29.885  35.270  1.00  0.00    +0.000 C 
ATOM     89  C63 UNL A   1      40.107  27.553  27.795  1.00  0.00    +0.000 C 
ATOM     90  C64 UNL A   1      39.033  28.315  27.957  1.00  0.00    +0.000 C 
ATOM    120  H28 UNL A   1      44.875  26.063  29.594  1.00  0.00    +0.000 H 
ATOM    121  H29 UNL A   1      45.763  26.730  31.954  1.00  0.00    +0.000 H 
ATOM    122  H30 UNL A   1      42.019  28.425  31.445  1.00  0.00    +0.000 H 
ATOM    123  H31 UNL A   1      37.311  32.133  33.616  1.00  0.00    +0.000 H 
ATOM    124  H32 UNL A   1      36.382  31.361  31.383  1.00  0.00    +0.000 H 
ATOM    125  H33 UNL A   1      40.111  29.596  31.881  1.00  0.00    +0.000 H 
ATOM    126  H34 UNL A   1      41.726  31.073  36.407  1.00  0.00    +0.000 H 
ATOM    127  H35 UNL A   1      43.902  29.822  35.901  1.00  0.00    +0.000 H 
ATOM    128  H36 UNL A   1      40.280  26.957  26.971  1.00  0.00    +0.000 H 
ENDROOT
BRANCH   34   33
ATOM     33  C26 UNL A   1      36.979  30.114  29.056  1.00  0.00    +0.000 C 
ATOM    130  H38 UNL A   1      37.495  32.145  28.762  1.00  0.00    +0.000 H 
ATOM    131  H39 UNL A   1      35.459  32.717  27.568  1.00  0.00    +0.000 H 
ATOM    118  H26 UNL A   1      34.288  28.680  27.643  1.00  0.00    +0.000 H 
ATOM    119  H27 UNL A   1      36.176  28.157  29.068  1.00  0.00    +0.000 H 
ATOM     91  C65 UNL A   1      36.781  31.421  28.587  1.00  0.00    +0.000 C 
ATOM     92  C66 UNL A   1      35.619  31.747  27.880  1.00  0.00    +0.000 C 
ATOM     30  C23 UNL A   1      34.674  30.756  27.598  1.00  0.00    +0.000 C 
ATOM     31  C24 UNL A   1      34.925  29.429  27.954  1.00  0.00    +0.000 C 
ATOM     32  C25 UNL A   1      36.039  29.122  28.730  1.00  0.00    +0.000 C 
BRANCH   30    2
ATOM      1  O1  UNL A   1      32.874  32.209  27.211  1.00  0.00    +0.000 O 
ATOM      2  C1  UNL A   1      33.409  31.139  26.931  1.00  0.00    +0.000 C 
BRANCH    2    3
ATOM      3  N1  UNL A   1      32.818  30.283  26.034  1.00  0.00    +0.000 N 
ATOM     93  H1  UNL A   1      33.303  30.160  25.185  1.00  0.00    +0.000 H 
BRANCH    3    4
ATOM      4  C2  UNL A   1      31.579  29.530  26.155  1.00  0.00    +0.000 C 
ATOM     94  H2  UNL A   1      31.160  29.408  25.179  1.00  0.00    +0.000 H 
ATOM     95  H3  UNL A   1      30.934  30.085  26.805  1.00  0.00    +0.000 H 
BRANCH    4    5
ATOM     97  H5  UNL A   1      32.562  28.260  27.487  1.00  0.00    +0.000 H 
ATOM      5  C3  UNL A   1      31.770  28.153  26.776  1.00  0.00    +0.000 C 
ATOM     96  H4  UNL A   1      30.839  27.853  27.207  1.00  0.00    +0.000 H 
BRANCH    5    6
ATOM     98  H6  UNL A   1      32.040  27.396  24.817  1.00  0.00    +0.000 H 
ATOM     99  H7  UNL A   1      31.657  26.184  26.086  1.00  0.00    +0.000 H 
ATOM      6  C4  UNL A   1      32.219  27.053  25.815  1.00  0.00    +0.000 C 
BRANCH    6    7
ATOM    100  H8  UNL A   1      34.135  27.197  26.708  1.00  0.00    +0.000 H 
ATOM    101  H9  UNL A   1      34.109  26.843  24.947  1.00  0.00    +0.000 H 
ATOM      7  C5  UNL A   1      33.690  26.640  25.910  1.00  0.00    +0.000 C 
BRANCH    7    8
ATOM    102  H10 UNL A   1      33.169  24.593  25.717  1.00  0.00    +0.000 H 
ATOM    103  H11 UNL A   1      34.011  25.050  27.235  1.00  0.00    +0.000 H 
ATOM      8  C6  UNL A   1      33.959  25.154  26.171  1.00  0.00    +0.000 C 
BRANCH    8    9
ATOM      9  C7  UNL A   1      35.284  24.617  25.636  1.00  0.00    +0.000 C 
ATOM    105  H13 UNL A   1      35.713  25.369  25.008  1.00  0.00    +0.000 H 
ATOM    104  H12 UNL A   1      35.922  24.388  26.464  1.00  0.00    +0.000 H 
BRANCH    9   10
ATOM     10  N2  UNL A   1      35.109  23.420  24.838  1.00  0.00    +0.000 N 
ATOM    106  H14 UNL A   1      35.451  22.587  25.234  1.00  0.00    +0.000 H 
BRANCH   10   11
ATOM     11  C8  UNL A   1      34.527  23.300  23.601  1.00  0.00    +0.000 C 
ATOM     12  O2  UNL A   1      35.129  22.743  22.687  1.00  0.00    +0.000 O 
BRANCH   11   13
ATOM    107  H15 UNL A   1      33.787  25.539  22.478  1.00  0.00    +0.000 H 
ATOM     13  C9  UNL A   1      33.138  23.747  23.387  1.00  0.00    +0.000 C 
ATOM     14  C10 UNL A   1      32.962  24.991  22.765  1.00  0.00    +0.000 C 
ATOM     15  C11 UNL A   1      31.679  25.500  22.529  1.00  0.00    +0.000 C 
ATOM    115  H23 UNL A   1      29.623  25.079  22.759  1.00  0.00    +0.000 H 
ATOM    116  H24 UNL A   1      29.925  22.952  23.882  1.00  0.00    +0.000 H 
ATOM     26  C20 UNL A   1      30.577  24.730  22.937  1.00  0.00    +0.000 C 
ATOM     27  C21 UNL A   1      30.748  23.498  23.581  1.00  0.00    +0.000 C 
ATOM     28  C22 UNL A   1      32.031  23.011  23.815  1.00  0.00    +0.000 C 
BRANCH   15   16
ATOM    108  H16 UNL A   1      31.358  26.812  20.855  1.00  0.00    +0.000 H 
ATOM     16  C12 UNL A   1      31.426  26.803  21.885  1.00  0.00    +0.000 C 
BRANCH   16   17
ATOM     17  C13 UNL A   1      31.276  27.979  22.517  1.00  0.00    +0.000 C 
ATOM    109  H17 UNL A   1      32.082  28.365  23.033  1.00  0.00    +0.000 H 
BRANCH   17   18
ATOM    110  H18 UNL A   1      30.753  30.414  21.436  1.00  0.00    +0.000 H 
ATOM    112  H20 UNL A   1      26.671  30.613  22.424  1.00  0.00    +0.000 H 
ATOM     18  C14 UNL A   1      30.020  28.743  22.511  1.00  0.00    +0.000 C 
ATOM     19  C15 UNL A   1      29.922  29.991  21.880  1.00  0.00    +0.000 C 
ATOM    114  H22 UNL A   1      28.930  27.247  23.539  1.00  0.00    +0.000 H 
ATOM     20  C16 UNL A   1      28.700  30.662  21.855  1.00  0.00    +0.000 C 
ATOM     22  C17 UNL A   1      27.570  30.107  22.441  1.00  0.00    +0.000 C 
ATOM     23  C18 UNL A   1      27.665  28.863  23.052  1.00  0.00    +0.000 C 
ATOM     25  C19 UNL A   1      28.876  28.173  23.089  1.00  0.00    +0.000 C 
BRANCH   20   21
ATOM     21  O3  UNL A   1      28.571  31.876  21.246  1.00  0.00    +0.000 O 
ATOM    111  H19 UNL A   1      29.320  32.293  20.869  1.00  0.00    +0.000 H 
ENDBRANCH   20   21
BRANCH   23   24
ATOM    113  H21 UNL A   1      26.547  27.474  23.969  1.00  0.00    +0.000 H 
ATOM     24  O4  UNL A   1      26.535  28.340  23.609  1.00  0.00    +0.000 O 
ENDBRANCH   23   24
ENDBRANCH   17   18
ENDBRANCH   16   17
ENDBRANCH   15   16
BRANCH   28   29
ATOM    117  H25 UNL A   1      31.831  21.693  25.314  1.00  0.00    +0.000 H 
ATOM     29  O5  UNL A   1      32.195  21.818  24.460  1.00  0.00    +0.000 O 
ENDBRANCH   28   29
ENDBRANCH   11   13
ENDBRANCH   10   11
ENDBRANCH    9   10
ENDBRANCH    8    9
ENDBRANCH    7    8
ENDBRANCH    6    7
ENDBRANCH    5    6
ENDBRANCH    4    5
ENDBRANCH    3    4
ENDBRANCH    2    3
ENDBRANCH   30    2
ENDBRANCH   34   33
BRANCH   38   39
ATOM     39  C31 UNL A   1      42.616  26.151  27.884  1.00  0.00    +0.000 C 
ATOM     40  C32 UNL A   1      43.423  26.610  26.832  1.00  0.00    +0.000 C 
ATOM     41  F1  UNL A   1      43.804  27.896  26.786  1.00  0.00    +0.000 F 
ATOM     42  C33 UNL A   1      43.815  25.756  25.804  1.00  0.00    +0.000 C 
ATOM     43  F2  UNL A   1      44.554  26.227  24.790  1.00  0.00    +0.000 F 
ATOM     44  C34 UNL A   1      43.437  24.422  25.823  1.00  0.00    +0.000 C 
ATOM     45  F3  UNL A   1      43.822  23.600  24.837  1.00  0.00    +0.000 F 
ATOM     46  C35 UNL A   1      42.652  23.942  26.861  1.00  0.00    +0.000 C 
ATOM     47  F4  UNL A   1      42.295  22.651  26.887  1.00  0.00    +0.000 F 
ATOM     48  C36 UNL A   1      42.237  24.800  27.878  1.00  0.00    +0.000 C 
ATOM     49  F5  UNL A   1      41.473  24.308  28.863  1.00  0.00    +0.000 F 
ENDBRANCH   38   39
BRANCH   55   56
ATOM     65  C47 UNL A   1      45.297  27.199  35.182  1.00  0.00    +0.000 C 
ATOM     66  F10 UNL A   1      44.274  26.342  35.316  1.00  0.00    +0.000 F 
ATOM     56  C42 UNL A   1      45.214  28.263  34.270  1.00  0.00    +0.000 C 
ATOM     57  C43 UNL A   1      46.309  29.132  34.171  1.00  0.00    +0.000 C 
ATOM     58  F6  UNL A   1      46.284  30.153  33.302  1.00  0.00    +0.000 F 
ATOM     59  C44 UNL A   1      47.456  28.927  34.934  1.00  0.00    +0.000 C 
ATOM     60  F7  UNL A   1      48.510  29.741  34.787  1.00  0.00    +0.000 F 
ATOM     61  C45 UNL A   1      47.515  27.871  35.832  1.00  0.00    +0.000 C 
ATOM     62  F8  UNL A   1      48.620  27.675  36.565  1.00  0.00    +0.000 F 
ATOM     63  C46 UNL A   1      46.434  27.013  35.962  1.00  0.00    +0.000 C 
ATOM     64  F9  UNL A   1      46.487  25.998  36.835  1.00  0.00    +0.000 F 
ENDBRANCH   55   56
BRANCH   70   71
ATOM     71  C51 UNL A   1      39.402  31.933  35.354  1.00  0.00    +0.000 C 
ATOM     72  C52 UNL A   1      39.772  33.283  35.407  1.00  0.00    +0.000 C 
ATOM     73  F11 UNL A   1      40.584  33.792  34.469  1.00  0.00    +0.000 F 
ATOM     74  C53 UNL A   1      39.332  34.108  36.440  1.00  0.00    +0.000 C 
ATOM     75  F12 UNL A   1      39.727  35.388  36.487  1.00  0.00    +0.000 F 
ATOM     76  C54 UNL A   1      38.494  33.605  37.423  1.00  0.00    +0.000 C 
ATOM     77  F13 UNL A   1      38.064  34.401  38.411  1.00  0.00    +0.000 F 
ATOM     78  C55 UNL A   1      38.107  32.273  37.385  1.00  0.00    +0.000 C 
ATOM     79  F14 UNL A   1      37.285  31.787  38.325  1.00  0.00    +0.000 F 
ATOM     80  C56 UNL A   1      38.568  31.442  36.369  1.00  0.00    +0.000 C 
ATOM     81  F15 UNL A   1      38.184  30.157  36.359  1.00  0.00    +0.000 F 
ENDBRANCH   70   71
TORSDOF 21
ENDMDL
MODEL 9
REMARK VINA RESULT:     -10.2     25.427     28.179
ROOT
ATOM    129  H37 UNL A   1      44.777  52.297  16.117  1.00  0.00    +0.000 H 
ATOM     34  C27 UNL A   1      46.412  50.944  18.030  1.00  0.00    +0.000 C 
ATOM     35  C28 UNL A   1      46.676  52.262  17.355  1.00  0.00    +0.000 C 
ATOM     36  N3  UNL A   1      47.693  53.076  17.502  1.00  0.00    +0.000 N 
ATOM     37  C29 UNL A   1      47.470  54.130  16.625  1.00  0.00    +0.000 C 
ATOM     38  C30 UNL A   1      48.228  55.235  16.423  1.00  0.00    +0.000 C 
ATOM     50  C37 UNL A   1      49.445  55.531  17.135  1.00  0.00    +0.000 C 
ATOM     51  C38 UNL A   1      50.253  56.651  17.037  1.00  0.00    +0.000 C 
ATOM     52  C39 UNL A   1      51.348  56.478  17.890  1.00  0.00    +0.000 C 
ATOM     53  C40 UNL A   1      51.201  55.271  18.552  1.00  0.00    +0.000 C 
ATOM     54  N4  UNL A   1      50.031  54.698  18.076  1.00  0.00    +0.000 N 
ATOM     55  C41 UNL A   1      52.062  54.680  19.544  1.00  0.00    +0.000 C 
ATOM     67  C48 UNL A   1      51.841  53.493  20.158  1.00  0.00    +0.000 C 
ATOM     68  N5  UNL A   1      50.787  52.607  19.987  1.00  0.00    +0.000 N 
ATOM     69  C49 UNL A   1      51.035  51.597  20.784  1.00  0.00    +0.000 C 
ATOM     70  C50 UNL A   1      50.222  50.357  21.023  1.00  0.00    +0.000 C 
ATOM     82  C57 UNL A   1      49.086  50.172  20.325  1.00  0.00    +0.000 C 
ATOM     83  C58 UNL A   1      48.195  49.024  20.459  1.00  0.00    +0.000 C 
ATOM     84  C59 UNL A   1      47.170  49.167  19.605  1.00  0.00    +0.000 C 
ATOM     85  C60 UNL A   1      47.307  50.442  18.901  1.00  0.00    +0.000 C 
ATOM     86  N6  UNL A   1      48.494  50.953  19.363  1.00  0.00    +0.000 N 
ATOM     87  C61 UNL A   1      52.287  51.719  21.541  1.00  0.00    +0.000 C 
ATOM     88  C62 UNL A   1      52.720  52.910  21.151  1.00  0.00    +0.000 C 
ATOM     89  C63 UNL A   1      46.231  53.847  15.934  1.00  0.00    +0.000 C 
ATOM     90  C64 UNL A   1      45.677  52.728  16.382  1.00  0.00    +0.000 C 
ATOM    120  H28 UNL A   1      50.077  57.472  16.437  1.00  0.00    +0.000 H 
ATOM    121  H29 UNL A   1      52.133  57.138  18.006  1.00  0.00    +0.000 H 
ATOM    122  H30 UNL A   1      49.671  53.828  18.364  1.00  0.00    +0.000 H 
ATOM    123  H31 UNL A   1      48.331  48.232  21.106  1.00  0.00    +0.000 H 
ATOM    124  H32 UNL A   1      46.408  48.487  19.467  1.00  0.00    +0.000 H 
ATOM    125  H33 UNL A   1      48.883  51.796  19.038  1.00  0.00    +0.000 H 
ATOM    126  H34 UNL A   1      52.717  51.053  22.203  1.00  0.00    +0.000 H 
ATOM    127  H35 UNL A   1      53.575  53.363  21.510  1.00  0.00    +0.000 H 
ATOM    128  H36 UNL A   1      45.831  54.437  15.188  1.00  0.00    +0.000 H 
ENDROOT
BRANCH   34   33
ATOM     33  C26 UNL A   1      45.149  50.197  17.789  1.00  0.00    +0.000 C 
ATOM    130  H38 UNL A   1      44.036  51.084  19.354  1.00  0.00    +0.000 H 
ATOM    131  H39 UNL A   1      42.049  49.733  19.003  1.00  0.00    +0.000 H 
ATOM    118  H26 UNL A   1      43.825  48.020  15.598  1.00  0.00    +0.000 H 
ATOM    119  H27 UNL A   1      45.901  49.158  16.106  1.00  0.00    +0.000 H 
ATOM     91  C65 UNL A   1      44.018  50.382  18.598  1.00  0.00    +0.000 C 
ATOM     92  C66 UNL A   1      42.866  49.620  18.383  1.00  0.00    +0.000 C 
ATOM     30  C23 UNL A   1      42.823  48.703  17.328  1.00  0.00    +0.000 C 
ATOM     31  C24 UNL A   1      43.900  48.605  16.444  1.00  0.00    +0.000 C 
ATOM     32  C25 UNL A   1      45.076  49.301  16.709  1.00  0.00    +0.000 C 
BRANCH   30    2
ATOM      1  O1  UNL A   1      40.535  48.350  16.956  1.00  0.00    +0.000 O 
ATOM      2  C1  UNL A   1      41.630  47.840  17.174  1.00  0.00    +0.000 C 
BRANCH    2    3
ATOM      3  N1  UNL A   1      41.746  46.478  17.315  1.00  0.00    +0.000 N 
ATOM     93  H1  UNL A   1      41.676  46.142  18.238  1.00  0.00    +0.000 H 
BRANCH    3    4
ATOM      4  C2  UNL A   1      41.957  45.461  16.297  1.00  0.00    +0.000 C 
ATOM     94  H2  UNL A   1      42.351  45.934  15.423  1.00  0.00    +0.000 H 
ATOM     95  H3  UNL A   1      41.011  44.996  16.113  1.00  0.00    +0.000 H 
BRANCH    4    5
ATOM     97  H5  UNL A   1      42.485  43.445  16.409  1.00  0.00    +0.000 H 
ATOM      5  C3  UNL A   1      42.923  44.366  16.732  1.00  0.00    +0.000 C 
ATOM     96  H4  UNL A   1      43.874  44.571  16.289  1.00  0.00    +0.000 H 
BRANCH    5    6
ATOM     98  H6  UNL A   1      43.089  45.206  18.668  1.00  0.00    +0.000 H 
ATOM     99  H7  UNL A   1      44.067  43.732  18.360  1.00  0.00    +0.000 H 
ATOM      6  C4  UNL A   1      43.126  44.226  18.239  1.00  0.00    +0.000 C 
BRANCH    6    7
ATOM    100  H8  UNL A   1      42.019  42.432  18.442  1.00  0.00    +0.000 H 
ATOM    101  H9  UNL A   1      41.203  43.931  19.003  1.00  0.00    +0.000 H 
ATOM      7  C5  UNL A   1      42.104  43.355  18.975  1.00  0.00    +0.000 C 
BRANCH    7    8
ATOM    102  H10 UNL A   1      41.954  42.094  20.674  1.00  0.00    +0.000 H 
ATOM    103  H11 UNL A   1      42.065  43.854  21.008  1.00  0.00    +0.000 H 
ATOM      8  C6  UNL A   1      42.426  43.024  20.436  1.00  0.00    +0.000 C 
BRANCH    8    9
ATOM      9  C7  UNL A   1      43.909  42.899  20.776  1.00  0.00    +0.000 C 
ATOM    105  H13 UNL A   1      44.074  41.915  21.163  1.00  0.00    +0.000 H 
ATOM    104  H12 UNL A   1      44.481  43.070  19.888  1.00  0.00    +0.000 H 
BRANCH    9   10
ATOM     10  N2  UNL A   1      44.322  43.850  21.788  1.00  0.00    +0.000 N 
ATOM    106  H14 UNL A   1      43.956  43.703  22.689  1.00  0.00    +0.000 H 
BRANCH   10   11
ATOM     11  C8  UNL A   1      45.160  44.929  21.650  1.00  0.00    +0.000 C 
ATOM     12  O2  UNL A   1      45.050  45.895  22.400  1.00  0.00    +0.000 O 
BRANCH   11   13
ATOM    107  H15 UNL A   1      45.196  46.130  19.332  1.00  0.00    +0.000 H 
ATOM     13  C9  UNL A   1      46.262  44.893  20.671  1.00  0.00    +0.000 C 
ATOM     14  C10 UNL A   1      46.073  45.609  19.479  1.00  0.00    +0.000 C 
ATOM     15  C11 UNL A   1      47.062  45.624  18.489  1.00  0.00    +0.000 C 
ATOM    115  H23 UNL A   1      48.991  44.910  18.010  1.00  0.00    +0.000 H 
ATOM    116  H24 UNL A   1      49.297  43.629  20.044  1.00  0.00    +0.000 H 
ATOM     26  C20 UNL A   1      48.243  44.900  18.721  1.00  0.00    +0.000 C 
ATOM     27  C21 UNL A   1      48.425  44.163  19.898  1.00  0.00    +0.000 C 
ATOM     28  C22 UNL A   1      47.428  44.151  20.869  1.00  0.00    +0.000 C 
BRANCH   15   16
ATOM    108  H16 UNL A   1      45.980  46.686  16.963  1.00  0.00    +0.000 H 
ATOM     16  C12 UNL A   1      46.924  46.353  17.212  1.00  0.00    +0.000 C 
BRANCH   16   17
ATOM     17  C13 UNL A   1      47.915  46.620  16.346  1.00  0.00    +0.000 C 
ATOM    109  H17 UNL A   1      48.226  45.870  15.709  1.00  0.00    +0.000 H 
BRANCH   17   18
ATOM    110  H18 UNL A   1      50.066  47.547  17.719  1.00  0.00    +0.000 H 
ATOM    112  H20 UNL A   1      50.335  51.319  15.882  1.00  0.00    +0.000 H 
ATOM     18  C14 UNL A   1      48.579  47.929  16.260  1.00  0.00    +0.000 C 
ATOM     19  C15 UNL A   1      49.704  48.234  17.039  1.00  0.00    +0.000 C 
ATOM    114  H22 UNL A   1      47.301  48.646  14.732  1.00  0.00    +0.000 H 
ATOM     20  C16 UNL A   1      50.335  49.469  16.893  1.00  0.00    +0.000 C 
ATOM     22  C17 UNL A   1      49.867  50.405  15.979  1.00  0.00    +0.000 C 
ATOM     23  C18 UNL A   1      48.762  50.095  15.197  1.00  0.00    +0.000 C 
ATOM     25  C19 UNL A   1      48.116  48.866  15.325  1.00  0.00    +0.000 C 
BRANCH   20   21
ATOM     21  O3  UNL A   1      51.434  49.795  17.633  1.00  0.00    +0.000 O 
ATOM    111  H19 UNL A   1      52.143  50.262  17.238  1.00  0.00    +0.000 H 
ENDBRANCH   20   21
BRANCH   23   24
ATOM    113  H21 UNL A   1      48.714  51.887  14.300  1.00  0.00    +0.000 H 
ATOM     24  O4  UNL A   1      48.334  51.030  14.301  1.00  0.00    +0.000 O 
ENDBRANCH   23   24
ENDBRANCH   17   18
ENDBRANCH   16   17
ENDBRANCH   15   16
BRANCH   28   29
ATOM    117  H25 UNL A   1      47.899  42.530  21.953  1.00  0.00    +0.000 H 
ATOM     29  O5  UNL A   1      47.601  43.417  22.008  1.00  0.00    +0.000 O 
ENDBRANCH   28   29
ENDBRANCH   11   13
ENDBRANCH   10   11
ENDBRANCH    9   10
ENDBRANCH    8    9
ENDBRANCH    7    8
ENDBRANCH    6    7
ENDBRANCH    5    6
ENDBRANCH    4    5
ENDBRANCH    3    4
ENDBRANCH    2    3
ENDBRANCH   30    2
ENDBRANCH   34   33
BRANCH   38   39
ATOM     39  C31 UNL A   1      47.772  56.209  15.375  1.00  0.00    +0.000 C 
ATOM     40  C32 UNL A   1      48.020  55.999  14.011  1.00  0.00    +0.000 C 
ATOM     41  F1  UNL A   1      48.731  54.934  13.611  1.00  0.00    +0.000 F 
ATOM     42  C33 UNL A   1      47.565  56.901  13.052  1.00  0.00    +0.000 C 
ATOM     43  F2  UNL A   1      47.848  56.699  11.758  1.00  0.00    +0.000 F 
ATOM     44  C34 UNL A   1      46.827  58.012  13.434  1.00  0.00    +0.000 C 
ATOM     45  F3  UNL A   1      46.384  58.875  12.510  1.00  0.00    +0.000 F 
ATOM     46  C35 UNL A   1      46.556  58.232  14.776  1.00  0.00    +0.000 C 
ATOM     47  F4  UNL A   1      45.834  59.298  15.147  1.00  0.00    +0.000 F 
ATOM     48  C36 UNL A   1      47.032  57.345  15.740  1.00  0.00    +0.000 C 
ATOM     49  F5  UNL A   1      46.760  57.589  17.030  1.00  0.00    +0.000 F 
ENDBRANCH   38   39
BRANCH   55   56
ATOM     65  C47 UNL A   1      53.211  56.430  20.947  1.00  0.00    +0.000 C 
ATOM     66  F10 UNL A   1      52.041  56.697  21.546  1.00  0.00    +0.000 F 
ATOM     56  C42 UNL A   1      53.289  55.440  19.955  1.00  0.00    +0.000 C 
ATOM     57  C43 UNL A   1      54.534  55.202  19.358  1.00  0.00    +0.000 C 
ATOM     58  F6  UNL A   1      54.661  54.254  18.417  1.00  0.00    +0.000 F 
ATOM     59  C44 UNL A   1      55.666  55.907  19.759  1.00  0.00    +0.000 C 
ATOM     60  F7  UNL A   1      56.856  55.628  19.210  1.00  0.00    +0.000 F 
ATOM     61  C45 UNL A   1      55.566  56.884  20.739  1.00  0.00    +0.000 C 
ATOM     62  F8  UNL A   1      56.657  57.561  21.125  1.00  0.00    +0.000 F 
ATOM     63  C46 UNL A   1      54.339  57.151  21.327  1.00  0.00    +0.000 C 
ATOM     64  F9  UNL A   1      54.240  58.100  22.268  1.00  0.00    +0.000 F 
ENDBRANCH   55   56
BRANCH   70   71
ATOM     71  C51 UNL A   1      50.642  49.347  22.027  1.00  0.00    +0.000 C 
ATOM     72  C52 UNL A   1      51.417  48.242  21.654  1.00  0.00    +0.000 C 
ATOM     73  F11 UNL A   1      51.761  48.068  20.370  1.00  0.00    +0.000 F 
ATOM     74  C53 UNL A   1      51.817  47.295  22.595  1.00  0.00    +0.000 C 
ATOM     75  F12 UNL A   1      52.528  46.228  22.207  1.00  0.00    +0.000 F 
ATOM     76  C54 UNL A   1      51.471  47.450  23.928  1.00  0.00    +0.000 C 
ATOM     77  F13 UNL A   1      51.863  46.545  24.834  1.00  0.00    +0.000 F 
ATOM     78  C55 UNL A   1      50.712  48.543  24.322  1.00  0.00    +0.000 C 
ATOM     79  F14 UNL A   1      50.389  48.705  25.613  1.00  0.00    +0.000 F 
ATOM     80  C56 UNL A   1      50.290  49.475  23.378  1.00  0.00    +0.000 C 
ATOM     81  F15 UNL A   1      49.552  50.519  23.785  1.00  0.00    +0.000 F 
ENDBRANCH   70   71
TORSDOF 21
ENDMDL
MODEL 10
REMARK VINA RESULT:     -10.2     17.635     22.594
ROOT
ATOM    129  H37 UNL A   1      23.553  35.957  46.933  1.00  0.00    +0.000 H 
ATOM     34  C27 UNL A   1      25.888  35.435  45.372  1.00  0.00    +0.000 C 
ATOM     35  C28 UNL A   1      25.655  36.565  46.336  1.00  0.00    +0.000 C 
ATOM     36  N3  UNL A   1      26.463  37.539  46.679  1.00  0.00    +0.000 N 
ATOM     37  C29 UNL A   1      25.751  38.332  47.570  1.00  0.00    +0.000 C 
ATOM     38  C30 UNL A   1      26.160  39.448  48.221  1.00  0.00    +0.000 C 
ATOM     50  C37 UNL A   1      27.479  40.019  48.110  1.00  0.00    +0.000 C 
ATOM     51  C38 UNL A   1      28.003  41.116  48.772  1.00  0.00    +0.000 C 
ATOM     52  C39 UNL A   1      29.309  41.323  48.314  1.00  0.00    +0.000 C 
ATOM     53  C40 UNL A   1      29.614  40.328  47.399  1.00  0.00    +0.000 C 
ATOM     54  N4  UNL A   1      28.480  39.538  47.281  1.00  0.00    +0.000 N 
ATOM     55  C41 UNL A   1      30.845  40.114  46.684  1.00  0.00    +0.000 C 
ATOM     67  C48 UNL A   1      31.070  39.103  45.809  1.00  0.00    +0.000 C 
ATOM     68  N5  UNL A   1      30.214  38.087  45.413  1.00  0.00    +0.000 N 
ATOM     69  C49 UNL A   1      30.881  37.376  44.538  1.00  0.00    +0.000 C 
ATOM     70  C50 UNL A   1      30.452  36.143  43.795  1.00  0.00    +0.000 C 
ATOM     82  C57 UNL A   1      29.206  35.668  43.973  1.00  0.00    +0.000 C 
ATOM     83  C58 UNL A   1      28.659  34.480  43.327  1.00  0.00    +0.000 C 
ATOM     84  C59 UNL A   1      27.390  34.311  43.730  1.00  0.00    +0.000 C 
ATOM     85  C60 UNL A   1      27.054  35.351  44.702  1.00  0.00    +0.000 C 
ATOM     86  N6  UNL A   1      28.178  36.135  44.756  1.00  0.00    +0.000 N 
ATOM     87  C61 UNL A   1      32.235  37.872  44.265  1.00  0.00    +0.000 C 
ATOM     88  C62 UNL A   1      32.314  38.904  45.094  1.00  0.00    +0.000 C 
ATOM     89  C63 UNL A   1      24.438  37.739  47.704  1.00  0.00    +0.000 C 
ATOM     90  C64 UNL A   1      24.343  36.619  46.998  1.00  0.00    +0.000 C 
ATOM    120  H28 UNL A   1      27.514  41.685  49.481  1.00  0.00    +0.000 H 
ATOM    121  H29 UNL A   1      29.938  42.086  48.607  1.00  0.00    +0.000 H 
ATOM    122  H30 UNL A   1      28.400  38.751  46.694  1.00  0.00    +0.000 H 
ATOM    123  H31 UNL A   1      29.165  33.869  42.668  1.00  0.00    +0.000 H 
ATOM    124  H32 UNL A   1      26.754  33.567  43.405  1.00  0.00    +0.000 H 
ATOM    125  H33 UNL A   1      28.243  36.952  45.301  1.00  0.00    +0.000 H 
ATOM    126  H34 UNL A   1      32.941  37.512  43.602  1.00  0.00    +0.000 H 
ATOM    127  H35 UNL A   1      33.155  39.491  45.213  1.00  0.00    +0.000 H 
ATOM    128  H36 UNL A   1      23.674  38.136  48.272  1.00  0.00    +0.000 H 
ENDROOT
BRANCH   34   33
ATOM     33  C26 UNL A   1      24.870  34.371  45.174  1.00  0.00    +0.000 C 
ATOM    130  H38 UNL A   1      23.946  35.228  43.473  1.00  0.00    +0.000 H 
ATOM    131  H39 UNL A   1      22.217  33.532  43.286  1.00  0.00    +0.000 H 
ATOM    118  H26 UNL A   1      24.012  31.366  46.411  1.00  0.00    +0.000 H 
ATOM    119  H27 UNL A   1      25.568  33.185  46.780  1.00  0.00    +0.000 H 
ATOM     91  C65 UNL A   1      23.919  34.444  44.144  1.00  0.00    +0.000 C 
ATOM     92  C66 UNL A   1      22.937  33.456  44.022  1.00  0.00    +0.000 C 
ATOM     30  C23 UNL A   1      22.930  32.367  44.898  1.00  0.00    +0.000 C 
ATOM     31  C24 UNL A   1      23.947  32.226  45.845  1.00  0.00    +0.000 C 
ATOM     32  C25 UNL A   1      24.872  33.250  46.021  1.00  0.00    +0.000 C 
BRANCH   30    2
ATOM      1  O1  UNL A   1      22.085  30.195  44.642  1.00  0.00    +0.000 O 
ATOM      2  C1  UNL A   1      21.827  31.383  44.811  1.00  0.00    +0.000 C 
BRANCH    2    3
ATOM      3  N1  UNL A   1      20.521  31.806  44.882  1.00  0.00    +0.000 N 
ATOM     93  H1  UNL A   1      19.918  31.428  44.202  1.00  0.00    +0.000 H 
BRANCH    3    4
ATOM      4  C2  UNL A   1      19.902  32.733  45.815  1.00  0.00    +0.000 C 
ATOM     94  H2  UNL A   1      20.671  33.176  46.413  1.00  0.00    +0.000 H 
ATOM     95  H3  UNL A   1      19.205  32.173  46.403  1.00  0.00    +0.000 H 
BRANCH    4    5
ATOM     97  H5  UNL A   1      19.141  34.676  45.806  1.00  0.00    +0.000 H 
ATOM      5  C3  UNL A   1      19.123  33.847  45.129  1.00  0.00    +0.000 C 
ATOM     96  H4  UNL A   1      19.590  34.047  44.189  1.00  0.00    +0.000 H 
BRANCH    5    6
ATOM     98  H6  UNL A   1      17.176  33.371  45.811  1.00  0.00    +0.000 H 
ATOM     99  H7  UNL A   1      17.630  32.718  44.201  1.00  0.00    +0.000 H 
ATOM      6  C4  UNL A   1      17.646  33.555  44.868  1.00  0.00    +0.000 C 
BRANCH    6    7
ATOM    100  H8  UNL A   1      17.544  35.207  43.546  1.00  0.00    +0.000 H 
ATOM    101  H9  UNL A   1      16.413  35.241  44.941  1.00  0.00    +0.000 H 
ATOM      7  C5  UNL A   1      16.859  34.661  44.160  1.00  0.00    +0.000 C 
BRANCH    7    8
ATOM    102  H10 UNL A   1      16.061  34.124  42.270  1.00  0.00    +0.000 H 
ATOM    103  H11 UNL A   1      14.927  34.935  43.401  1.00  0.00    +0.000 H 
ATOM      8  C6  UNL A   1      15.697  34.203  43.274  1.00  0.00    +0.000 C 
BRANCH    8    9
ATOM      9  C7  UNL A   1      15.064  32.866  43.650  1.00  0.00    +0.000 C 
ATOM    105  H13 UNL A   1      15.604  32.471  44.485  1.00  0.00    +0.000 H 
ATOM    104  H12 UNL A   1      14.035  33.029  43.894  1.00  0.00    +0.000 H 
BRANCH    9   10
ATOM     10  N2  UNL A   1      15.140  31.899  42.574  1.00  0.00    +0.000 N 
ATOM    106  H14 UNL A   1      14.324  31.791  42.036  1.00  0.00    +0.000 H 
BRANCH   10   11
ATOM     11  C8  UNL A   1      16.206  31.116  42.208  1.00  0.00    +0.000 C 
ATOM     12  O2  UNL A   1      17.157  31.607  41.606  1.00  0.00    +0.000 O 
BRANCH   11   13
ATOM    107  H15 UNL A   1      15.035  29.111  41.012  1.00  0.00    +0.000 H 
ATOM     13  C9  UNL A   1      16.265  29.702  42.624  1.00  0.00    +0.000 C 
ATOM     14  C10 UNL A   1      15.556  28.781  41.839  1.00  0.00    +0.000 C 
ATOM     15  C11 UNL A   1      15.548  27.419  42.163  1.00  0.00    +0.000 C 
ATOM    115  H23 UNL A   1      16.285  26.003  43.545  1.00  0.00    +0.000 H 
ATOM    116  H24 UNL A   1      17.466  27.600  44.935  1.00  0.00    +0.000 H 
ATOM     26  C20 UNL A   1      16.265  27.005  43.297  1.00  0.00    +0.000 C 
ATOM     27  C21 UNL A   1      16.954  27.924  44.099  1.00  0.00    +0.000 C 
ATOM     28  C22 UNL A   1      16.944  29.275  43.767  1.00  0.00    +0.000 C 
BRANCH   15   16
ATOM    108  H16 UNL A   1      14.829  26.503  40.354  1.00  0.00    +0.000 H 
ATOM     16  C12 UNL A   1      14.820  26.401  41.381  1.00  0.00    +0.000 C 
BRANCH   16   17
ATOM     17  C13 UNL A   1      14.145  25.354  41.885  1.00  0.00    +0.000 C 
ATOM    109  H17 UNL A   1      13.800  25.414  42.856  1.00  0.00    +0.000 H 
BRANCH   17   18
ATOM    110  H18 UNL A   1      14.605  24.827  39.262  1.00  0.00    +0.000 H 
ATOM    112  H20 UNL A   1      13.258  20.844  39.234  1.00  0.00    +0.000 H 
ATOM     18  C14 UNL A   1      13.874  24.127  41.122  1.00  0.00    +0.000 C 
ATOM     19  C15 UNL A   1      14.199  24.021  39.762  1.00  0.00    +0.000 C 
ATOM    114  H22 UNL A   1      13.119  23.073  42.796  1.00  0.00    +0.000 H 
ATOM     20  C16 UNL A   1      13.971  22.823  39.086  1.00  0.00    +0.000 C 
ATOM     22  C17 UNL A   1      13.430  21.725  39.743  1.00  0.00    +0.000 C 
ATOM     23  C18 UNL A   1      13.124  21.827  41.094  1.00  0.00    +0.000 C 
ATOM     25  C19 UNL A   1      13.344  23.014  41.791  1.00  0.00    +0.000 C 
BRANCH   20   21
ATOM     21  O3  UNL A   1      14.279  22.687  37.764  1.00  0.00    +0.000 O 
ATOM    111  H19 UNL A   1      15.136  22.907  37.458  1.00  0.00    +0.000 H 
ENDBRANCH   20   21
BRANCH   23   24
ATOM    113  H21 UNL A   1      13.149  20.200  42.266  1.00  0.00    +0.000 H 
ATOM     24  O4  UNL A   1      12.605  20.727  41.713  1.00  0.00    +0.000 O 
ENDBRANCH   23   24
ENDBRANCH   17   18
ENDBRANCH   16   17
ENDBRANCH   15   16
BRANCH   28   29
ATOM    117  H25 UNL A   1      17.116  30.802  45.058  1.00  0.00    +0.000 H 
ATOM     29  O5  UNL A   1      17.601  30.172  44.561  1.00  0.00    +0.000 O 
ENDBRANCH   28   29
ENDBRANCH   11   13
ENDBRANCH   10   11
ENDBRANCH    9   10
ENDBRANCH    8    9
ENDBRANCH    7    8
ENDBRANCH    6    7
ENDBRANCH    5    6
ENDBRANCH    4    5
ENDBRANCH    3    4
ENDBRANCH    2    3
ENDBRANCH   30    2
ENDBRANCH   34   33
BRANCH   38   39
ATOM     39  C31 UNL A   1      25.166  40.141  49.107  1.00  0.00    +0.000 C 
ATOM     40  C32 UNL A   1      25.115  39.905  50.488  1.00  0.00    +0.000 C 
ATOM     41  F1  UNL A   1      25.930  38.998  51.048  1.00  0.00    +0.000 F 
ATOM     42  C33 UNL A   1      24.204  40.579  51.297  1.00  0.00    +0.000 C 
ATOM     43  F2  UNL A   1      24.147  40.308  52.609  1.00  0.00    +0.000 F 
ATOM     44  C34 UNL A   1      23.348  41.522  50.748  1.00  0.00    +0.000 C 
ATOM     45  F3  UNL A   1      22.477  42.175  51.530  1.00  0.00    +0.000 F 
ATOM     46  C35 UNL A   1      23.391  41.783  49.387  1.00  0.00    +0.000 C 
ATOM     47  F4  UNL A   1      22.573  42.703  48.856  1.00  0.00    +0.000 F 
ATOM     48  C36 UNL A   1      24.285  41.093  48.571  1.00  0.00    +0.000 C 
ATOM     49  F5  UNL A   1      24.297  41.363  47.257  1.00  0.00    +0.000 F 
ENDBRANCH   38   39
BRANCH   55   56
ATOM     65  C47 UNL A   1      31.971  42.347  46.376  1.00  0.00    +0.000 C 
ATOM     66  F10 UNL A   1      30.939  42.746  45.617  1.00  0.00    +0.000 F 
ATOM     56  C42 UNL A   1      31.981  41.060  46.936  1.00  0.00    +0.000 C 
ATOM     57  C43 UNL A   1      33.084  40.691  47.718  1.00  0.00    +0.000 C 
ATOM     58  F6  UNL A   1      33.131  39.478  48.289  1.00  0.00    +0.000 F 
ATOM     59  C44 UNL A   1      34.125  41.586  47.954  1.00  0.00    +0.000 C 
ATOM     60  F7  UNL A   1      35.145  41.230  48.745  1.00  0.00    +0.000 F 
ATOM     61  C45 UNL A   1      34.096  42.851  47.386  1.00  0.00    +0.000 C 
ATOM     62  F8  UNL A   1      35.098  43.712  47.616  1.00  0.00    +0.000 F 
ATOM     63  C46 UNL A   1      33.025  43.229  46.592  1.00  0.00    +0.000 C 
ATOM     64  F9  UNL A   1      33.001  44.449  46.036  1.00  0.00    +0.000 F 
ENDBRANCH   55   56
BRANCH   70   71
ATOM     71  C51 UNL A   1      31.387  35.435  42.884  1.00  0.00    +0.000 C 
ATOM     72  C52 UNL A   1      32.208  34.404  43.358  1.00  0.00    +0.000 C 
ATOM     73  F11 UNL A   1      32.180  34.068  44.656  1.00  0.00    +0.000 F 
ATOM     74  C53 UNL A   1      33.082  33.733  42.505  1.00  0.00    +0.000 C 
ATOM     75  F12 UNL A   1      33.883  32.774  42.990  1.00  0.00    +0.000 F 
ATOM     76  C54 UNL A   1      33.133  34.063  41.160  1.00  0.00    +0.000 C 
ATOM     77  F13 UNL A   1      33.967  33.413  40.339  1.00  0.00    +0.000 F 
ATOM     78  C55 UNL A   1      32.321  35.074  40.667  1.00  0.00    +0.000 C 
ATOM     79  F14 UNL A   1      32.355  35.386  39.364  1.00  0.00    +0.000 F 
ATOM     80  C56 UNL A   1      31.467  35.763  41.523  1.00  0.00    +0.000 C 
ATOM     81  F15 UNL A   1      30.697  36.741  41.022  1.00  0.00    +0.000 F 
ENDBRANCH   70   71
TORSDOF 21
ENDMDL
