MODEL 1
REMARK VINA RESULT:     -11.6      0.000      0.000
ROOT
ATOM    129  H36 UNL A   1      36.915  29.183  30.954  1.00  0.00    +0.000 H 
ATOM    130  H37 UNL A   1      38.043  27.148  29.913  1.00  0.00    +0.000 H 
ATOM    131  H38 UNL A   1      40.885  30.187  30.062  1.00  0.00    +0.000 H 
ATOM    132  H39 UNL A   1      40.558  33.439  30.155  1.00  0.00    +0.000 H 
ATOM    133  H40 UNL A   1      42.955  32.955  30.985  1.00  0.00    +0.000 H 
ATOM    134  H41 UNL A   1      43.599  29.241  25.618  1.00  0.00    +0.000 H 
ATOM    135  H42 UNL A   1      41.173  28.434  25.940  1.00  0.00    +0.000 H 
ATOM     32  C27 UNL A   1      40.594  27.773  28.692  1.00  0.00    +0.000 C 
ATOM     33  C28 UNL A   1      41.812  28.401  28.116  1.00  0.00    +0.000 C 
ATOM     34  N4  UNL A   1      42.915  28.655  28.741  1.00  0.00    +0.000 N 
ATOM     35  C29 UNL A   1      43.749  29.264  27.809  1.00  0.00    +0.000 C 
ATOM     36  C30 UNL A   1      44.725  30.115  28.228  1.00  0.00    +0.000 C 
ATOM     48  C37 UNL A   1      44.973  29.957  29.638  1.00  0.00    +0.000 C 
ATOM     49  C38 UNL A   1      45.703  29.123  30.453  1.00  0.00    +0.000 C 
ATOM     50  C39 UNL A   1      45.125  29.220  31.755  1.00  0.00    +0.000 C 
ATOM     51  C40 UNL A   1      44.079  30.136  31.711  1.00  0.00    +0.000 C 
ATOM     52  N5  UNL A   1      44.057  30.597  30.424  1.00  0.00    +0.000 N 
ATOM     53  C41 UNL A   1      42.978  30.447  32.588  1.00  0.00    +0.000 C 
ATOM     65  C48 UNL A   1      42.076  31.431  32.319  1.00  0.00    +0.000 C 
ATOM     66  N6  UNL A   1      40.756  31.287  32.685  1.00  0.00    +0.000 N 
ATOM     67  C49 UNL A   1      40.096  31.866  31.720  1.00  0.00    +0.000 C 
ATOM     68  C50 UNL A   1      38.747  31.433  31.296  1.00  0.00    +0.000 C 
ATOM     80  C57 UNL A   1      38.869  30.203  30.737  1.00  0.00    +0.000 C 
ATOM     81  C58 UNL A   1      37.892  29.139  30.626  1.00  0.00    +0.000 C 
ATOM     82  C59 UNL A   1      38.472  28.080  30.021  1.00  0.00    +0.000 C 
ATOM     83  C60 UNL A   1      39.801  28.458  29.544  1.00  0.00    +0.000 C 
ATOM     84  N7  UNL A   1      40.026  29.708  30.103  1.00  0.00    +0.000 N 
ATOM     85  C61 UNL A   1      40.870  32.772  30.879  1.00  0.00    +0.000 C 
ATOM     86  C62 UNL A   1      42.098  32.486  31.317  1.00  0.00    +0.000 C 
ATOM     87  C63 UNL A   1      43.138  29.059  26.523  1.00  0.00    +0.000 C 
ATOM     88  C64 UNL A   1      41.890  28.602  26.661  1.00  0.00    +0.000 C 
ATOM    126  H33 UNL A   1      46.510  28.541  30.177  1.00  0.00    +0.000 H 
ATOM    127  H34 UNL A   1      45.433  28.699  32.591  1.00  0.00    +0.000 H 
ATOM    128  H35 UNL A   1      43.454  31.305  30.102  1.00  0.00    +0.000 H 
ENDROOT
BRANCH   32   31
ATOM    136  H43 UNL A   1      38.700  26.739  27.011  1.00  0.00    +0.000 H 
ATOM    137  H44 UNL A   1      38.510  24.432  26.304  1.00  0.00    +0.000 H 
ATOM    124  H31 UNL A   1      42.042  23.491  28.357  1.00  0.00    +0.000 H 
ATOM    125  H32 UNL A   1      42.116  25.734  29.237  1.00  0.00    +0.000 H 
ATOM     89  C65 UNL A   1      39.374  26.035  27.353  1.00  0.00    +0.000 C 
ATOM     90  C66 UNL A   1      39.278  24.709  26.935  1.00  0.00    +0.000 C 
ATOM     28  C23 UNL A   1      40.208  23.738  27.353  1.00  0.00    +0.000 C 
ATOM     29  C24 UNL A   1      41.285  24.155  28.131  1.00  0.00    +0.000 C 
ATOM     30  C25 UNL A   1      41.349  25.457  28.605  1.00  0.00    +0.000 C 
ATOM     31  C26 UNL A   1      40.382  26.400  28.234  1.00  0.00    +0.000 C 
BRANCH   28   26
ATOM     26  C22 UNL A   1      39.919  22.328  26.967  1.00  0.00    +0.000 C 
ATOM     27  O2  UNL A   1      40.553  21.421  27.521  1.00  0.00    +0.000 O 
BRANCH   26   25
ATOM     25  N3  UNL A   1      39.043  21.952  25.985  1.00  0.00    +0.000 N 
ATOM    123  H30 UNL A   1      39.446  21.362  25.307  1.00  0.00    +0.000 H 
BRANCH   25   24
ATOM    121  H28 UNL A   1      37.199  22.568  26.652  1.00  0.00    +0.000 H 
ATOM    122  H29 UNL A   1      37.612  22.996  24.978  1.00  0.00    +0.000 H 
ATOM     24  C21 UNL A   1      37.646  22.242  25.736  1.00  0.00    +0.000 C 
BRANCH   24   23
ATOM    119  H26 UNL A   1      37.465  20.527  24.496  1.00  0.00    +0.000 H 
ATOM     23  C20 UNL A   1      36.856  21.038  25.213  1.00  0.00    +0.000 C 
ATOM    120  H27 UNL A   1      36.619  20.439  26.068  1.00  0.00    +0.000 H 
BRANCH   23   22
ATOM    118  H25 UNL A   1      35.618  21.106  23.518  1.00  0.00    +0.000 H 
ATOM    117  H24 UNL A   1      35.342  22.427  24.684  1.00  0.00    +0.000 H 
ATOM     22  C19 UNL A   1      35.525  21.381  24.547  1.00  0.00    +0.000 C 
BRANCH   22   21
ATOM    115  H22 UNL A   1      34.677  19.653  25.422  1.00  0.00    +0.000 H 
ATOM    116  H23 UNL A   1      33.931  21.206  25.892  1.00  0.00    +0.000 H 
ATOM     21  C18 UNL A   1      34.332  20.612  25.098  1.00  0.00    +0.000 C 
BRANCH   21   20
ATOM    113  H20 UNL A   1      33.607  19.969  23.206  1.00  0.00    +0.000 H 
ATOM    114  H21 UNL A   1      32.481  19.769  24.595  1.00  0.00    +0.000 H 
ATOM     20  C17 UNL A   1      33.187  20.396  24.092  1.00  0.00    +0.000 C 
BRANCH   20   19
ATOM     19  C16 UNL A   1      32.397  21.649  23.678  1.00  0.00    +0.000 C 
ATOM    111  H18 UNL A   1      31.487  21.327  23.215  1.00  0.00    +0.000 H 
ATOM    112  H19 UNL A   1      32.247  22.214  24.574  1.00  0.00    +0.000 H 
BRANCH   19   18
ATOM     18  N2  UNL A   1      33.082  22.540  22.751  1.00  0.00    +0.000 N 
ATOM    110  H17 UNL A   1      33.616  22.072  22.069  1.00  0.00    +0.000 H 
BRANCH   18   16
ATOM     17  O1  UNL A   1      32.657  24.417  21.631  1.00  0.00    +0.000 O 
ATOM     16  C15 UNL A   1      33.125  23.903  22.648  1.00  0.00    +0.000 C 
BRANCH   16   15
ATOM    108  H15 UNL A   1      34.682  24.230  24.003  1.00  0.00    +0.000 H 
ATOM    109  H16 UNL A   1      33.903  25.697  23.249  1.00  0.00    +0.000 H 
ATOM     15  C14 UNL A   1      33.787  24.741  23.717  1.00  0.00    +0.000 C 
BRANCH   15   12
ATOM      3  C3  UNL A   1      33.998  29.591  27.144  1.00  0.00    +0.000 C 
ATOM      4  C4  UNL A   1      33.222  30.773  27.195  1.00  0.00    +0.000 C 
ATOM      5  C5  UNL A   1      32.016  30.915  26.513  1.00  0.00    +0.000 C 
ATOM      6  C6  UNL A   1      31.508  29.859  25.774  1.00  0.00    +0.000 C 
ATOM      7  C7  UNL A   1      32.234  28.658  25.718  1.00  0.00    +0.000 C 
ATOM      8  C8  UNL A   1      31.933  27.394  25.182  1.00  0.00    +0.000 C 
ATOM      9  C9  UNL A   1      32.993  26.538  25.386  1.00  0.00    +0.000 C 
ATOM     10  N1  UNL A   1      33.930  27.257  26.098  1.00  0.00    +0.000 N 
ATOM     11  C10 UNL A   1      33.461  28.541  26.365  1.00  0.00    +0.000 C 
ATOM     12  C11 UNL A   1      33.015  25.065  25.018  1.00  0.00    +0.000 C 
ATOM    140  H47 UNL A   1      30.440  27.526  23.740  1.00  0.00    +0.000 H 
ATOM    141  H48 UNL A   1      29.882  27.118  25.351  1.00  0.00    +0.000 H 
ATOM    138  H45 UNL A   1      29.721  25.090  24.434  1.00  0.00    +0.000 H 
ATOM    139  H46 UNL A   1      31.051  25.467  23.263  1.00  0.00    +0.000 H 
ATOM     91  O3  UNL A   1      31.626  24.652  24.991  1.00  0.00    +0.000 O 
ATOM     92  C67 UNL A   1      30.701  25.488  24.274  1.00  0.00    +0.000 C 
ATOM     93  C68 UNL A   1      30.650  26.960  24.624  1.00  0.00    +0.000 C 
ATOM     99  H6  UNL A   1      33.564  31.565  27.760  1.00  0.00    +0.000 H 
ATOM    100  H7  UNL A   1      31.499  31.808  26.560  1.00  0.00    +0.000 H 
ATOM    101  H8  UNL A   1      30.612  29.953  25.270  1.00  0.00    +0.000 H 
ATOM    102  H9  UNL A   1      34.808  26.911  26.378  1.00  0.00    +0.000 H 
BRANCH    3    2
ATOM     97  H4  UNL A   1      35.032  29.374  28.959  1.00  0.00    +0.000 H 
ATOM      2  C2  UNL A   1      35.283  29.441  27.921  1.00  0.00    +0.000 C 
ATOM     98  H5  UNL A   1      35.758  28.567  27.526  1.00  0.00    +0.000 H 
BRANCH    2    1
ATOM      1  C1  UNL A   1      36.300  30.567  27.760  1.00  0.00    +0.000 C 
ATOM     94  H1  UNL A   1      36.097  31.105  26.858  1.00  0.00    +0.000 H 
ATOM     95  H2  UNL A   1      37.285  30.153  27.716  1.00  0.00    +0.000 H 
ATOM     96  H3  UNL A   1      36.229  31.232  28.596  1.00  0.00    +0.000 H 
ENDBRANCH    2    1
ENDBRANCH    3    2
BRANCH   12   13
ATOM     13  C12 UNL A   1      33.648  24.236  26.185  1.00  0.00    +0.000 C 
ATOM    103  H10 UNL A   1      34.104  24.922  26.867  1.00  0.00    +0.000 H 
ATOM    104  H11 UNL A   1      34.337  23.560  25.724  1.00  0.00    +0.000 H 
BRANCH   13   14
ATOM    105  H12 UNL A   1      31.831  23.113  26.363  1.00  0.00    +0.000 H 
ATOM    106  H13 UNL A   1      32.334  23.895  27.843  1.00  0.00    +0.000 H 
ATOM    107  H14 UNL A   1      33.165  22.462  27.286  1.00  0.00    +0.000 H 
ATOM     14  C13 UNL A   1      32.671  23.360  26.979  1.00  0.00    +0.000 C 
ENDBRANCH   13   14
ENDBRANCH   12   13
ENDBRANCH   15   12
ENDBRANCH   16   15
ENDBRANCH   18   16
ENDBRANCH   19   18
ENDBRANCH   20   19
ENDBRANCH   21   20
ENDBRANCH   22   21
ENDBRANCH   23   22
ENDBRANCH   24   23
ENDBRANCH   25   24
ENDBRANCH   26   25
ENDBRANCH   28   26
ENDBRANCH   32   31
BRANCH   36   37
ATOM     37  C31 UNL A   1      45.078  31.419  27.539  1.00  0.00    +0.000 C 
ATOM     38  C32 UNL A   1      46.362  31.564  26.969  1.00  0.00    +0.000 C 
ATOM     39  F1  UNL A   1      47.149  30.496  26.775  1.00  0.00    +0.000 F 
ATOM     40  C33 UNL A   1      46.903  32.819  26.668  1.00  0.00    +0.000 C 
ATOM     41  F2  UNL A   1      48.169  32.915  26.240  1.00  0.00    +0.000 F 
ATOM     42  C34 UNL A   1      46.164  33.969  26.875  1.00  0.00    +0.000 C 
ATOM     43  F3  UNL A   1      46.699  35.174  26.643  1.00  0.00    +0.000 F 
ATOM     44  C35 UNL A   1      44.882  33.864  27.368  1.00  0.00    +0.000 C 
ATOM     45  F4  UNL A   1      44.158  34.970  27.599  1.00  0.00    +0.000 F 
ATOM     46  C36 UNL A   1      44.355  32.619  27.711  1.00  0.00    +0.000 C 
ATOM     47  F5  UNL A   1      43.166  32.655  28.320  1.00  0.00    +0.000 F 
ENDBRANCH   36   37
BRANCH   53   54
ATOM     54  C42 UNL A   1      42.703  29.543  33.743  1.00  0.00    +0.000 C 
ATOM     55  C43 UNL A   1      42.011  28.327  33.652  1.00  0.00    +0.000 C 
ATOM     56  F6  UNL A   1      41.533  27.895  32.475  1.00  0.00    +0.000 F 
ATOM     57  C44 UNL A   1      41.842  27.517  34.774  1.00  0.00    +0.000 C 
ATOM     58  F7  UNL A   1      41.170  26.361  34.674  1.00  0.00    +0.000 F 
ATOM     59  C45 UNL A   1      42.395  27.888  35.991  1.00  0.00    +0.000 C 
ATOM     60  F8  UNL A   1      42.269  27.090  37.060  1.00  0.00    +0.000 F 
ATOM     61  C46 UNL A   1      43.099  29.076  36.096  1.00  0.00    +0.000 C 
ATOM     62  F9  UNL A   1      43.669  29.422  37.258  1.00  0.00    +0.000 F 
ATOM     63  C47 UNL A   1      43.238  29.902  34.987  1.00  0.00    +0.000 C 
ATOM     64  F10 UNL A   1      43.934  31.042  35.116  1.00  0.00    +0.000 F 
ENDBRANCH   53   54
BRANCH   68   69
ATOM     69  C51 UNL A   1      37.603  32.374  31.269  1.00  0.00    +0.000 C 
ATOM     70  C52 UNL A   1      37.337  33.151  30.128  1.00  0.00    +0.000 C 
ATOM     71  F11 UNL A   1      38.263  33.277  29.165  1.00  0.00    +0.000 F 
ATOM     72  C53 UNL A   1      36.085  33.737  29.914  1.00  0.00    +0.000 C 
ATOM     73  F12 UNL A   1      35.843  34.397  28.773  1.00  0.00    +0.000 F 
ATOM     74  C54 UNL A   1      35.071  33.574  30.842  1.00  0.00    +0.000 C 
ATOM     75  F13 UNL A   1      33.847  34.061  30.599  1.00  0.00    +0.000 F 
ATOM     76  C55 UNL A   1      35.320  32.863  32.003  1.00  0.00    +0.000 C 
ATOM     77  F14 UNL A   1      34.336  32.674  32.893  1.00  0.00    +0.000 F 
ATOM     78  C56 UNL A   1      36.568  32.276  32.216  1.00  0.00    +0.000 C 
ATOM     79  F15 UNL A   1      36.714  31.522  33.315  1.00  0.00    +0.000 F 
ENDBRANCH   68   69
TORSDOF 20
ENDMDL
MODEL 2
REMARK VINA RESULT:     -11.6      1.111      2.076
ROOT
ATOM    129  H36 UNL A   1      37.004  28.589  31.624  1.00  0.00    +0.000 H 
ATOM    130  H37 UNL A   1      38.283  26.812  30.320  1.00  0.00    +0.000 H 
ATOM    131  H38 UNL A   1      40.843  30.060  30.807  1.00  0.00    +0.000 H 
ATOM    132  H39 UNL A   1      40.227  33.231  31.311  1.00  0.00    +0.000 H 
ATOM    133  H40 UNL A   1      42.678  32.873  32.039  1.00  0.00    +0.000 H 
ATOM    134  H41 UNL A   1      43.515  29.924  26.241  1.00  0.00    +0.000 H 
ATOM    135  H42 UNL A   1      41.180  28.862  26.494  1.00  0.00    +0.000 H 
ATOM     32  C27 UNL A   1      40.735  27.816  29.151  1.00  0.00    +0.000 C 
ATOM     33  C28 UNL A   1      41.876  28.621  28.640  1.00  0.00    +0.000 C 
ATOM     34  N4  UNL A   1      42.967  28.897  29.275  1.00  0.00    +0.000 N 
ATOM     35  C29 UNL A   1      43.719  29.690  28.415  1.00  0.00    +0.000 C 
ATOM     36  C30 UNL A   1      44.624  30.570  28.923  1.00  0.00    +0.000 C 
ATOM     48  C37 UNL A   1      44.923  30.264  30.298  1.00  0.00    +0.000 C 
ATOM     49  C38 UNL A   1      45.746  29.406  30.992  1.00  0.00    +0.000 C 
ATOM     50  C39 UNL A   1      45.195  29.289  32.304  1.00  0.00    +0.000 C 
ATOM     51  C40 UNL A   1      44.070  30.102  32.390  1.00  0.00    +0.000 C 
ATOM     52  N5  UNL A   1      43.974  30.714  31.171  1.00  0.00    +0.000 N 
ATOM     53  C41 UNL A   1      42.969  30.200  33.315  1.00  0.00    +0.000 C 
ATOM     65  C48 UNL A   1      41.975  31.121  33.184  1.00  0.00    +0.000 C 
ATOM     66  N6  UNL A   1      40.683  30.811  33.549  1.00  0.00    +0.000 N 
ATOM     67  C49 UNL A   1      39.949  31.441  32.674  1.00  0.00    +0.000 C 
ATOM     68  C50 UNL A   1      38.634  30.940  32.218  1.00  0.00    +0.000 C 
ATOM     80  C57 UNL A   1      38.851  29.805  31.508  1.00  0.00    +0.000 C 
ATOM     81  C58 UNL A   1      37.972  28.677  31.279  1.00  0.00    +0.000 C 
ATOM     82  C59 UNL A   1      38.629  27.759  30.538  1.00  0.00    +0.000 C 
ATOM     83  C60 UNL A   1      39.906  28.314  30.092  1.00  0.00    +0.000 C 
ATOM     84  N7  UNL A   1      40.032  29.502  30.800  1.00  0.00    +0.000 N 
ATOM     85  C61 UNL A   1      40.616  32.511  31.941  1.00  0.00    +0.000 C 
ATOM     86  C62 UNL A   1      41.876  32.289  32.322  1.00  0.00    +0.000 C 
ATOM     87  C63 UNL A   1      43.095  29.590  27.122  1.00  0.00    +0.000 C 
ATOM     88  C64 UNL A   1      41.898  29.006  27.221  1.00  0.00    +0.000 C 
ATOM    126  H33 UNL A   1      46.595  28.940  30.634  1.00  0.00    +0.000 H 
ATOM    127  H34 UNL A   1      45.570  28.699  33.064  1.00  0.00    +0.000 H 
ATOM    128  H35 UNL A   1      43.301  31.398  30.949  1.00  0.00    +0.000 H 
ENDROOT
BRANCH   32   31
ATOM    136  H43 UNL A   1      42.460  25.695  29.213  1.00  0.00    +0.000 H 
ATOM    137  H44 UNL A   1      42.130  23.541  28.159  1.00  0.00    +0.000 H 
ATOM    124  H31 UNL A   1      38.293  24.705  26.936  1.00  0.00    +0.000 H 
ATOM    125  H32 UNL A   1      38.703  26.920  27.795  1.00  0.00    +0.000 H 
ATOM     89  C65 UNL A   1      41.601  25.509  28.671  1.00  0.00    +0.000 C 
ATOM     90  C66 UNL A   1      41.399  24.264  28.077  1.00  0.00    +0.000 C 
ATOM     28  C23 UNL A   1      40.218  23.972  27.368  1.00  0.00    +0.000 C 
ATOM     29  C24 UNL A   1      39.211  24.933  27.348  1.00  0.00    +0.000 C 
ATOM     30  C25 UNL A   1      39.432  26.195  27.879  1.00  0.00    +0.000 C 
ATOM     31  C26 UNL A   1      40.636  26.496  28.527  1.00  0.00    +0.000 C 
BRANCH   28   26
ATOM     26  C22 UNL A   1      40.178  22.667  26.649  1.00  0.00    +0.000 C 
ATOM     27  O2  UNL A   1      41.216  22.251  26.120  1.00  0.00    +0.000 O 
BRANCH   26   25
ATOM     25  N3  UNL A   1      39.052  21.911  26.467  1.00  0.00    +0.000 N 
ATOM    123  H30 UNL A   1      38.730  21.483  27.293  1.00  0.00    +0.000 H 
BRANCH   25   24
ATOM    121  H28 UNL A   1      38.830  21.744  24.430  1.00  0.00    +0.000 H 
ATOM    122  H29 UNL A   1      37.897  20.600  25.419  1.00  0.00    +0.000 H 
ATOM     24  C21 UNL A   1      38.235  21.609  25.310  1.00  0.00    +0.000 C 
BRANCH   24   23
ATOM    119  H26 UNL A   1      37.155  23.378  25.774  1.00  0.00    +0.000 H 
ATOM     23  C20 UNL A   1      36.990  22.494  25.193  1.00  0.00    +0.000 C 
ATOM    120  H27 UNL A   1      36.859  22.693  24.150  1.00  0.00    +0.000 H 
BRANCH   23   22
ATOM    118  H25 UNL A   1      35.307  22.471  26.449  1.00  0.00    +0.000 H 
ATOM    117  H24 UNL A   1      35.917  20.855  26.009  1.00  0.00    +0.000 H 
ATOM     22  C19 UNL A   1      35.692  21.845  25.672  1.00  0.00    +0.000 C 
BRANCH   22   21
ATOM    115  H22 UNL A   1      34.688  20.797  24.135  1.00  0.00    +0.000 H 
ATOM    116  H23 UNL A   1      33.676  21.897  25.112  1.00  0.00    +0.000 H 
ATOM     21  C18 UNL A   1      34.608  21.753  24.608  1.00  0.00    +0.000 C 
BRANCH   21   20
ATOM    113  H20 UNL A   1      34.915  23.766  23.996  1.00  0.00    +0.000 H 
ATOM    114  H21 UNL A   1      35.432  22.496  22.830  1.00  0.00    +0.000 H 
ATOM     20  C17 UNL A   1      34.685  22.837  23.517  1.00  0.00    +0.000 C 
BRANCH   20   19
ATOM     19  C16 UNL A   1      33.418  23.047  22.672  1.00  0.00    +0.000 C 
ATOM    111  H18 UNL A   1      33.394  22.287  21.918  1.00  0.00    +0.000 H 
ATOM    112  H19 UNL A   1      32.596  23.000  23.356  1.00  0.00    +0.000 H 
BRANCH   19   18
ATOM     18  N2  UNL A   1      33.316  24.341  22.010  1.00  0.00    +0.000 N 
ATOM    110  H17 UNL A   1      33.729  24.364  21.116  1.00  0.00    +0.000 H 
BRANCH   18   16
ATOM     17  O1  UNL A   1      31.681  25.847  21.883  1.00  0.00    +0.000 O 
ATOM     16  C15 UNL A   1      32.757  25.528  22.392  1.00  0.00    +0.000 C 
BRANCH   16   15
ATOM    108  H15 UNL A   1      34.486  26.113  23.409  1.00  0.00    +0.000 H 
ATOM    109  H16 UNL A   1      33.301  27.421  22.946  1.00  0.00    +0.000 H 
ATOM     15  C14 UNL A   1      33.471  26.447  23.356  1.00  0.00    +0.000 C 
BRANCH   15   12
ATOM      3  C3  UNL A   1      35.321  30.017  27.731  1.00  0.00    +0.000 C 
ATOM      4  C4  UNL A   1      34.890  31.285  28.192  1.00  0.00    +0.000 C 
ATOM      5  C5  UNL A   1      33.695  31.871  27.783  1.00  0.00    +0.000 C 
ATOM      6  C6  UNL A   1      32.851  31.195  26.918  1.00  0.00    +0.000 C 
ATOM      7  C7  UNL A   1      33.227  29.923  26.457  1.00  0.00    +0.000 C 
ATOM      8  C8  UNL A   1      32.549  28.951  25.701  1.00  0.00    +0.000 C 
ATOM      9  C9  UNL A   1      33.365  27.857  25.511  1.00  0.00    +0.000 C 
ATOM     10  N1  UNL A   1      34.530  28.128  26.196  1.00  0.00    +0.000 N 
ATOM     11  C10 UNL A   1      34.445  29.364  26.834  1.00  0.00    +0.000 C 
ATOM     12  C11 UNL A   1      32.961  26.571  24.810  1.00  0.00    +0.000 C 
ATOM    140  H47 UNL A   1      30.991  29.797  24.614  1.00  0.00    +0.000 H 
ATOM    141  H48 UNL A   1      30.529  29.106  26.157  1.00  0.00    +0.000 H 
ATOM    138  H45 UNL A   1      29.743  27.489  24.833  1.00  0.00    +0.000 H 
ATOM    139  H46 UNL A   1      30.987  27.861  23.568  1.00  0.00    +0.000 H 
ATOM     91  O3  UNL A   1      31.518  26.503  24.930  1.00  0.00    +0.000 O 
ATOM     92  C67 UNL A   1      30.769  27.686  24.602  1.00  0.00    +0.000 C 
ATOM     93  C68 UNL A   1      31.143  28.982  25.289  1.00  0.00    +0.000 C 
ATOM     99  H6  UNL A   1      35.488  31.797  28.858  1.00  0.00    +0.000 H 
ATOM    100  H7  UNL A   1      33.438  32.810  28.127  1.00  0.00    +0.000 H 
ATOM    101  H8  UNL A   1      31.960  31.619  26.614  1.00  0.00    +0.000 H 
ATOM    102  H9  UNL A   1      35.313  27.533  26.230  1.00  0.00    +0.000 H 
BRANCH    3    2
ATOM     97  H4  UNL A   1      36.689  29.579  29.263  1.00  0.00    +0.000 H 
ATOM      2  C2  UNL A   1      36.600  29.380  28.215  1.00  0.00    +0.000 C 
ATOM     98  H5  UNL A   1      36.514  28.342  27.970  1.00  0.00    +0.000 H 
BRANCH    2    1
ATOM      1  C1  UNL A   1      37.883  29.854  27.541  1.00  0.00    +0.000 C 
ATOM     94  H1  UNL A   1      37.735  29.898  26.482  1.00  0.00    +0.000 H 
ATOM     95  H2  UNL A   1      38.676  29.171  27.762  1.00  0.00    +0.000 H 
ATOM     96  H3  UNL A   1      38.138  30.828  27.906  1.00  0.00    +0.000 H 
ENDBRANCH    2    1
ENDBRANCH    3    2
BRANCH   12   13
ATOM     13  C12 UNL A   1      33.480  25.338  25.623  1.00  0.00    +0.000 C 
ATOM    103  H10 UNL A   1      34.111  25.702  26.407  1.00  0.00    +0.000 H 
ATOM    104  H11 UNL A   1      33.985  24.714  24.916  1.00  0.00    +0.000 H 
BRANCH   13   14
ATOM    105  H12 UNL A   1      31.439  24.924  26.127  1.00  0.00    +0.000 H 
ATOM    106  H13 UNL A   1      32.596  24.348  27.304  1.00  0.00    +0.000 H 
ATOM    107  H14 UNL A   1      32.394  23.499  25.790  1.00  0.00    +0.000 H 
ATOM     14  C13 UNL A   1      32.396  24.461  26.259  1.00  0.00    +0.000 C 
ENDBRANCH   13   14
ENDBRANCH   12   13
ENDBRANCH   15   12
ENDBRANCH   16   15
ENDBRANCH   18   16
ENDBRANCH   19   18
ENDBRANCH   20   19
ENDBRANCH   21   20
ENDBRANCH   22   21
ENDBRANCH   23   22
ENDBRANCH   24   23
ENDBRANCH   25   24
ENDBRANCH   26   25
ENDBRANCH   28   26
ENDBRANCH   32   31
BRANCH   36   37
ATOM     37  C31 UNL A   1      44.841  31.976  28.397  1.00  0.00    +0.000 C 
ATOM     38  C32 UNL A   1      43.776  32.901  28.462  1.00  0.00    +0.000 C 
ATOM     39  F1  UNL A   1      42.702  32.656  29.226  1.00  0.00    +0.000 F 
ATOM     40  C33 UNL A   1      43.750  34.059  27.676  1.00  0.00    +0.000 C 
ATOM     41  F2  UNL A   1      42.666  34.847  27.684  1.00  0.00    +0.000 F 
ATOM     42  C34 UNL A   1      44.806  34.362  26.838  1.00  0.00    +0.000 C 
ATOM     43  F3  UNL A   1      44.759  35.437  26.042  1.00  0.00    +0.000 F 
ATOM     44  C35 UNL A   1      45.894  33.517  26.795  1.00  0.00    +0.000 C 
ATOM     45  F4  UNL A   1      46.918  33.780  25.970  1.00  0.00    +0.000 F 
ATOM     46  C36 UNL A   1      45.905  32.340  27.543  1.00  0.00    +0.000 C 
ATOM     47  F5  UNL A   1      46.939  31.527  27.306  1.00  0.00    +0.000 F 
ENDBRANCH   36   37
BRANCH   53   54
ATOM     54  C42 UNL A   1      42.806  29.139  34.351  1.00  0.00    +0.000 C 
ATOM     55  C43 UNL A   1      42.055  27.967  34.178  1.00  0.00    +0.000 C 
ATOM     56  F6  UNL A   1      41.410  27.729  33.026  1.00  0.00    +0.000 F 
ATOM     57  C44 UNL A   1      41.998  27.001  35.181  1.00  0.00    +0.000 C 
ATOM     58  F7  UNL A   1      41.268  25.890  35.006  1.00  0.00    +0.000 F 
ATOM     59  C45 UNL A   1      42.720  27.171  36.354  1.00  0.00    +0.000 C 
ATOM     60  F8  UNL A   1      42.699  26.224  37.302  1.00  0.00    +0.000 F 
ATOM     61  C46 UNL A   1      43.484  28.312  36.535  1.00  0.00    +0.000 C 
ATOM     62  F9  UNL A   1      44.215  28.465  37.648  1.00  0.00    +0.000 F 
ATOM     63  C47 UNL A   1      43.514  29.292  35.551  1.00  0.00    +0.000 C 
ATOM     64  F10 UNL A   1      44.271  30.383  35.750  1.00  0.00    +0.000 F 
ENDBRANCH   53   54
BRANCH   68   69
ATOM     69  C51 UNL A   1      37.409  31.767  32.326  1.00  0.00    +0.000 C 
ATOM     70  C52 UNL A   1      36.901  32.139  33.583  1.00  0.00    +0.000 C 
ATOM     71  F11 UNL A   1      37.331  31.525  34.695  1.00  0.00    +0.000 F 
ATOM     72  C53 UNL A   1      36.012  33.209  33.727  1.00  0.00    +0.000 C 
ATOM     73  F12 UNL A   1      35.618  33.590  34.951  1.00  0.00    +0.000 F 
ATOM     74  C54 UNL A   1      35.595  33.925  32.618  1.00  0.00    +0.000 C 
ATOM     75  F13 UNL A   1      34.812  35.003  32.763  1.00  0.00    +0.000 F 
ATOM     76  C55 UNL A   1      36.032  33.545  31.361  1.00  0.00    +0.000 C 
ATOM     77  F14 UNL A   1      35.658  34.250  30.284  1.00  0.00    +0.000 F 
ATOM     78  C56 UNL A   1      36.922  32.480  31.215  1.00  0.00    +0.000 C 
ATOM     79  F15 UNL A   1      37.380  32.224  29.982  1.00  0.00    +0.000 F 
ENDBRANCH   68   69
TORSDOF 20
ENDMDL
MODEL 3
REMARK VINA RESULT:     -11.5      2.941      8.747
ROOT
ATOM    129  H36 UNL A   1      40.914  26.730  25.340  1.00  0.00    +0.000 H 
ATOM    130  H37 UNL A   1      39.469  28.512  26.449  1.00  0.00    +0.000 H 
ATOM    131  H38 UNL A   1      42.241  27.239  29.283  1.00  0.00    +0.000 H 
ATOM    132  H39 UNL A   1      43.901  24.436  29.565  1.00  0.00    +0.000 H 
ATOM    133  H40 UNL A   1      45.175  26.150  31.018  1.00  0.00    +0.000 H 
ATOM    134  H41 UNL A   1      39.358  27.538  33.711  1.00  0.00    +0.000 H 
ATOM    135  H42 UNL A   1      38.275  27.305  31.384  1.00  0.00    +0.000 H 
ATOM     32  C27 UNL A   1      39.815  28.619  29.322  1.00  0.00    +0.000 C 
ATOM     33  C28 UNL A   1      40.160  28.399  30.752  1.00  0.00    +0.000 C 
ATOM     34  N4  UNL A   1      41.182  28.880  31.380  1.00  0.00    +0.000 N 
ATOM     35  C29 UNL A   1      41.101  28.385  32.677  1.00  0.00    +0.000 C 
ATOM     36  C30 UNL A   1      42.233  28.241  33.419  1.00  0.00    +0.000 C 
ATOM     48  C37 UNL A   1      43.320  28.993  32.847  1.00  0.00    +0.000 C 
ATOM     49  C38 UNL A   1      43.776  30.292  32.865  1.00  0.00    +0.000 C 
ATOM     50  C39 UNL A   1      44.607  30.444  31.713  1.00  0.00    +0.000 C 
ATOM     51  C40 UNL A   1      44.665  29.228  31.041  1.00  0.00    +0.000 C 
ATOM     52  N5  UNL A   1      43.916  28.365  31.791  1.00  0.00    +0.000 N 
ATOM     53  C41 UNL A   1      45.089  28.828  29.723  1.00  0.00    +0.000 C 
ATOM     65  C48 UNL A   1      45.064  27.534  29.301  1.00  0.00    +0.000 C 
ATOM     66  N6  UNL A   1      44.777  27.232  27.988  1.00  0.00    +0.000 N 
ATOM     67  C49 UNL A   1      44.098  26.121  28.061  1.00  0.00    +0.000 C 
ATOM     68  C50 UNL A   1      43.042  25.758  27.090  1.00  0.00    +0.000 C 
ATOM     80  C57 UNL A   1      42.014  26.625  27.260  1.00  0.00    +0.000 C 
ATOM     81  C58 UNL A   1      41.005  27.057  26.314  1.00  0.00    +0.000 C 
ATOM     82  C59 UNL A   1      40.202  27.958  26.919  1.00  0.00    +0.000 C 
ATOM     83  C60 UNL A   1      40.531  28.029  28.342  1.00  0.00    +0.000 C 
ATOM     84  N7  UNL A   1      41.700  27.290  28.463  1.00  0.00    +0.000 N 
ATOM     85  C61 UNL A   1      44.219  25.386  29.315  1.00  0.00    +0.000 C 
ATOM     86  C62 UNL A   1      44.862  26.300  30.046  1.00  0.00    +0.000 C 
ATOM     87  C63 UNL A   1      39.782  27.826  32.816  1.00  0.00    +0.000 C 
ATOM     88  C64 UNL A   1      39.182  27.732  31.626  1.00  0.00    +0.000 C 
ATOM    126  H33 UNL A   1      43.560  31.013  33.571  1.00  0.00    +0.000 H 
ATOM    127  H34 UNL A   1      45.086  31.313  31.428  1.00  0.00    +0.000 H 
ATOM    128  H35 UNL A   1      43.818  27.406  31.594  1.00  0.00    +0.000 H 
ENDROOT
BRANCH   32   31
ATOM    136  H43 UNL A   1      39.593  31.327  29.629  1.00  0.00    +0.000 H 
ATOM    137  H44 UNL A   1      37.613  32.662  29.234  1.00  0.00    +0.000 H 
ATOM    124  H31 UNL A   1      35.574  29.267  27.860  1.00  0.00    +0.000 H 
ATOM    125  H32 UNL A   1      37.470  27.901  28.454  1.00  0.00    +0.000 H 
ATOM     89  C65 UNL A   1      38.719  30.877  29.316  1.00  0.00    +0.000 C 
ATOM     90  C66 UNL A   1      37.581  31.644  29.072  1.00  0.00    +0.000 C 
ATOM     28  C23 UNL A   1      36.387  31.059  28.606  1.00  0.00    +0.000 C 
ATOM     29  C24 UNL A   1      36.396  29.699  28.310  1.00  0.00    +0.000 C 
ATOM     30  C25 UNL A   1      37.503  28.920  28.614  1.00  0.00    +0.000 C 
ATOM     31  C26 UNL A   1      38.664  29.502  29.137  1.00  0.00    +0.000 C 
BRANCH   28   26
ATOM     26  C22 UNL A   1      35.196  31.950  28.526  1.00  0.00    +0.000 C 
ATOM     27  O2  UNL A   1      35.009  32.772  29.432  1.00  0.00    +0.000 O 
BRANCH   26   25
ATOM     25  N3  UNL A   1      34.239  31.888  27.549  1.00  0.00    +0.000 N 
ATOM    123  H30 UNL A   1      34.387  32.527  26.815  1.00  0.00    +0.000 H 
BRANCH   25   24
ATOM    121  H28 UNL A   1      32.550  31.000  28.313  1.00  0.00    +0.000 H 
ATOM    122  H29 UNL A   1      32.451  31.558  26.629  1.00  0.00    +0.000 H 
ATOM     24  C21 UNL A   1      33.052  31.076  27.371  1.00  0.00    +0.000 C 
BRANCH   24   23
ATOM    119  H26 UNL A   1      34.390  29.463  27.025  1.00  0.00    +0.000 H 
ATOM     23  C20 UNL A   1      33.351  29.661  26.865  1.00  0.00    +0.000 C 
ATOM    120  H27 UNL A   1      32.706  29.004  27.410  1.00  0.00    +0.000 H 
BRANCH   23   22
ATOM    118  H25 UNL A   1      33.627  28.585  25.083  1.00  0.00    +0.000 H 
ATOM    117  H24 UNL A   1      33.296  30.321  24.848  1.00  0.00    +0.000 H 
ATOM     22  C19 UNL A   1      33.046  29.430  25.385  1.00  0.00    +0.000 C 
BRANCH   22   21
ATOM    115  H22 UNL A   1      30.993  29.936  25.347  1.00  0.00    +0.000 H 
ATOM    116  H23 UNL A   1      31.545  28.836  24.053  1.00  0.00    +0.000 H 
ATOM     21  C18 UNL A   1      31.592  29.088  25.091  1.00  0.00    +0.000 C 
BRANCH   21   20
ATOM    113  H20 UNL A   1      31.851  27.477  26.455  1.00  0.00    +0.000 H 
ATOM    114  H21 UNL A   1      30.219  28.235  26.425  1.00  0.00    +0.000 H 
ATOM     20  C17 UNL A   1      31.051  27.869  25.861  1.00  0.00    +0.000 C 
BRANCH   20   19
ATOM     19  C16 UNL A   1      30.493  26.716  25.009  1.00  0.00    +0.000 C 
ATOM    111  H18 UNL A   1      29.570  27.043  24.576  1.00  0.00    +0.000 H 
ATOM    112  H19 UNL A   1      31.250  26.489  24.288  1.00  0.00    +0.000 H 
BRANCH   19   18
ATOM     18  N2  UNL A   1      30.238  25.475  25.728  1.00  0.00    +0.000 N 
ATOM    110  H17 UNL A   1      29.286  25.321  25.932  1.00  0.00    +0.000 H 
BRANCH   18   16
ATOM     17  O1  UNL A   1      30.553  23.418  26.520  1.00  0.00    +0.000 O 
ATOM     16  C15 UNL A   1      31.066  24.484  26.176  1.00  0.00    +0.000 C 
BRANCH   16   15
ATOM    108  H15 UNL A   1      32.683  25.719  26.649  1.00  0.00    +0.000 H 
ATOM    109  H16 UNL A   1      32.873  23.931  26.959  1.00  0.00    +0.000 H 
ATOM     15  C14 UNL A   1      32.554  24.714  26.304  1.00  0.00    +0.000 C 
BRANCH   15   12
ATOM      3  C3  UNL A   1      38.222  22.964  25.968  1.00  0.00    +0.000 C 
ATOM      4  C4  UNL A   1      38.834  21.707  25.745  1.00  0.00    +0.000 C 
ATOM      5  C5  UNL A   1      38.127  20.588  25.311  1.00  0.00    +0.000 C 
ATOM      6  C6  UNL A   1      36.772  20.686  25.041  1.00  0.00    +0.000 C 
ATOM      7  C7  UNL A   1      36.130  21.922  25.223  1.00  0.00    +0.000 C 
ATOM      8  C8  UNL A   1      34.833  22.369  24.916  1.00  0.00    +0.000 C 
ATOM      9  C9  UNL A   1      34.694  23.685  25.299  1.00  0.00    +0.000 C 
ATOM     10  N1  UNL A   1      35.922  24.070  25.794  1.00  0.00    +0.000 N 
ATOM     11  C10 UNL A   1      36.835  23.023  25.701  1.00  0.00    +0.000 C 
ATOM     12  C11 UNL A   1      33.462  24.542  25.063  1.00  0.00    +0.000 C 
ATOM    140  H47 UNL A   1      33.514  20.774  24.721  1.00  0.00    +0.000 H 
ATOM    141  H48 UNL A   1      34.208  21.351  23.218  1.00  0.00    +0.000 H 
ATOM    138  H45 UNL A   1      32.176  22.247  22.997  1.00  0.00    +0.000 H 
ATOM    139  H46 UNL A   1      31.977  22.346  24.796  1.00  0.00    +0.000 H 
ATOM     91  O3  UNL A   1      32.789  23.947  23.926  1.00  0.00    +0.000 O 
ATOM     92  C67 UNL A   1      32.597  22.522  23.942  1.00  0.00    +0.000 C 
ATOM     93  C68 UNL A   1      33.807  21.641  24.167  1.00  0.00    +0.000 C 
ATOM     99  H6  UNL A   1      39.847  21.614  25.913  1.00  0.00    +0.000 H 
ATOM    100  H7  UNL A   1      38.614  19.685  25.189  1.00  0.00    +0.000 H 
ATOM    101  H8  UNL A   1      36.241  19.864  24.713  1.00  0.00    +0.000 H 
ATOM    102  H9  UNL A   1      36.125  24.960  26.162  1.00  0.00    +0.000 H 
BRANCH    3    2
ATOM     97  H4  UNL A   1      40.050  23.950  26.276  1.00  0.00    +0.000 H 
ATOM      2  C2  UNL A   1      39.012  24.175  26.400  1.00  0.00    +0.000 C 
ATOM     98  H5  UNL A   1      38.659  24.980  25.791  1.00  0.00    +0.000 H 
BRANCH    2    1
ATOM      1  C1  UNL A   1      38.804  24.631  27.841  1.00  0.00    +0.000 C 
ATOM     94  H1  UNL A   1      39.442  24.068  28.489  1.00  0.00    +0.000 H 
ATOM     95  H2  UNL A   1      37.783  24.475  28.121  1.00  0.00    +0.000 H 
ATOM     96  H3  UNL A   1      39.041  25.672  27.922  1.00  0.00    +0.000 H 
ENDBRANCH    2    1
ENDBRANCH    3    2
BRANCH   12   13
ATOM     13  C12 UNL A   1      33.891  25.963  24.566  1.00  0.00    +0.000 C 
ATOM    103  H10 UNL A   1      34.953  26.043  24.673  1.00  0.00    +0.000 H 
ATOM    104  H11 UNL A   1      33.342  26.661  25.162  1.00  0.00    +0.000 H 
BRANCH   13   14
ATOM    105  H12 UNL A   1      33.354  27.338  23.012  1.00  0.00    +0.000 H 
ATOM    106  H13 UNL A   1      32.661  25.745  22.825  1.00  0.00    +0.000 H 
ATOM    107  H14 UNL A   1      34.352  26.009  22.474  1.00  0.00    +0.000 H 
ATOM     14  C13 UNL A   1      33.538  26.288  23.109  1.00  0.00    +0.000 C 
ENDBRANCH   13   14
ENDBRANCH   12   13
ENDBRANCH   15   12
ENDBRANCH   16   15
ENDBRANCH   18   16
ENDBRANCH   19   18
ENDBRANCH   20   19
ENDBRANCH   21   20
ENDBRANCH   22   21
ENDBRANCH   23   22
ENDBRANCH   24   23
ENDBRANCH   25   24
ENDBRANCH   26   25
ENDBRANCH   28   26
ENDBRANCH   32   31
BRANCH   36   37
ATOM     37  C31 UNL A   1      42.523  27.056  34.318  1.00  0.00    +0.000 C 
ATOM     38  C32 UNL A   1      42.259  27.166  35.701  1.00  0.00    +0.000 C 
ATOM     39  F1  UNL A   1      41.504  28.167  36.176  1.00  0.00    +0.000 F 
ATOM     40  C33 UNL A   1      42.838  26.302  36.638  1.00  0.00    +0.000 C 
ATOM     41  F2  UNL A   1      42.652  26.518  37.948  1.00  0.00    +0.000 F 
ATOM     42  C34 UNL A   1      43.656  25.267  36.227  1.00  0.00    +0.000 C 
ATOM     43  F3  UNL A   1      44.257  24.475  37.124  1.00  0.00    +0.000 F 
ATOM     44  C35 UNL A   1      43.886  25.086  34.880  1.00  0.00    +0.000 C 
ATOM     45  F4  UNL A   1      44.696  24.103  34.463  1.00  0.00    +0.000 F 
ATOM     46  C36 UNL A   1      43.347  25.971  33.946  1.00  0.00    +0.000 C 
ATOM     47  F5  UNL A   1      43.760  25.787  32.688  1.00  0.00    +0.000 F 
ENDBRANCH   36   37
BRANCH   53   54
ATOM     54  C42 UNL A   1      45.393  29.885  28.715  1.00  0.00    +0.000 C 
ATOM     55  C43 UNL A   1      44.435  30.506  27.900  1.00  0.00    +0.000 C 
ATOM     56  F6  UNL A   1      43.140  30.164  27.980  1.00  0.00    +0.000 F 
ATOM     57  C44 UNL A   1      44.799  31.524  27.020  1.00  0.00    +0.000 C 
ATOM     58  F7  UNL A   1      43.874  32.101  26.239  1.00  0.00    +0.000 F 
ATOM     59  C45 UNL A   1      46.114  31.964  26.968  1.00  0.00    +0.000 C 
ATOM     60  F8  UNL A   1      46.456  32.971  26.153  1.00  0.00    +0.000 F 
ATOM     61  C46 UNL A   1      47.070  31.378  27.780  1.00  0.00    +0.000 C 
ATOM     62  F9  UNL A   1      48.334  31.824  27.765  1.00  0.00    +0.000 F 
ATOM     63  C47 UNL A   1      46.717  30.339  28.633  1.00  0.00    +0.000 C 
ATOM     64  F10 UNL A   1      47.663  29.796  29.415  1.00  0.00    +0.000 F 
ENDBRANCH   53   54
BRANCH   68   69
ATOM     69  C51 UNL A   1      43.090  24.486  26.332  1.00  0.00    +0.000 C 
ATOM     70  C52 UNL A   1      43.960  24.333  25.238  1.00  0.00    +0.000 C 
ATOM     71  F11 UNL A   1      44.542  25.406  24.681  1.00  0.00    +0.000 F 
ATOM     72  C53 UNL A   1      44.319  23.070  24.756  1.00  0.00    +0.000 C 
ATOM     73  F12 UNL A   1      45.219  22.962  23.769  1.00  0.00    +0.000 F 
ATOM     74  C54 UNL A   1      43.805  21.927  25.345  1.00  0.00    +0.000 C 
ATOM     75  F13 UNL A   1      44.213  20.716  24.942  1.00  0.00    +0.000 F 
ATOM     76  C55 UNL A   1      42.900  22.046  26.385  1.00  0.00    +0.000 C 
ATOM     77  F14 UNL A   1      42.420  20.946  26.982  1.00  0.00    +0.000 F 
ATOM     78  C56 UNL A   1      42.544  23.306  26.869  1.00  0.00    +0.000 C 
ATOM     79  F15 UNL A   1      41.738  23.350  27.939  1.00  0.00    +0.000 F 
ENDBRANCH   68   69
TORSDOF 20
ENDMDL
MODEL 4
REMARK VINA RESULT:     -11.3      3.921      7.328
ROOT
ATOM    129  H36 UNL A   1      36.618  28.688  30.657  1.00  0.00    +0.000 H 
ATOM    130  H37 UNL A   1      38.130  26.898  29.655  1.00  0.00    +0.000 H 
ATOM    131  H38 UNL A   1      40.379  30.391  29.931  1.00  0.00    +0.000 H 
ATOM    132  H39 UNL A   1      39.476  33.531  30.023  1.00  0.00    +0.000 H 
ATOM    133  H40 UNL A   1      41.886  33.472  30.948  1.00  0.00    +0.000 H 
ATOM    134  H41 UNL A   1      43.389  29.991  25.597  1.00  0.00    +0.000 H 
ATOM    135  H42 UNL A   1      41.134  28.762  25.817  1.00  0.00    +0.000 H 
ATOM     32  C27 UNL A   1      40.575  27.978  28.541  1.00  0.00    +0.000 C 
ATOM     33  C28 UNL A   1      41.684  28.819  28.017  1.00  0.00    +0.000 C 
ATOM     34  N4  UNL A   1      42.698  29.257  28.687  1.00  0.00    +0.000 N 
ATOM     35  C29 UNL A   1      43.447  30.015  27.792  1.00  0.00    +0.000 C 
ATOM     36  C30 UNL A   1      44.238  31.021  28.254  1.00  0.00    +0.000 C 
ATOM     48  C37 UNL A   1      44.456  30.894  29.672  1.00  0.00    +0.000 C 
ATOM     49  C38 UNL A   1      45.290  30.194  30.512  1.00  0.00    +0.000 C 
ATOM     50  C39 UNL A   1      44.653  30.173  31.790  1.00  0.00    +0.000 C 
ATOM     51  C40 UNL A   1      43.464  30.889  31.707  1.00  0.00    +0.000 C 
ATOM     52  N5  UNL A   1      43.411  31.353  30.423  1.00  0.00    +0.000 N 
ATOM     53  C41 UNL A   1      42.291  30.990  32.540  1.00  0.00    +0.000 C 
ATOM     65  C48 UNL A   1      41.240  31.801  32.239  1.00  0.00    +0.000 C 
ATOM     66  N6  UNL A   1      39.954  31.421  32.551  1.00  0.00    +0.000 N 
ATOM     67  C49 UNL A   1      39.239  31.885  31.562  1.00  0.00    +0.000 C 
ATOM     68  C50 UNL A   1      38.007  31.223  31.082  1.00  0.00    +0.000 C 
ATOM     80  C57 UNL A   1      38.366  30.041  30.524  1.00  0.00    +0.000 C 
ATOM     81  C58 UNL A   1      37.600  28.822  30.369  1.00  0.00    +0.000 C 
ATOM     82  C59 UNL A   1      38.382  27.889  29.784  1.00  0.00    +0.000 C 
ATOM     83  C60 UNL A   1      39.640  28.502  29.362  1.00  0.00    +0.000 C 
ATOM     84  N7  UNL A   1      39.617  29.767  29.935  1.00  0.00    +0.000 N 
ATOM     85  C61 UNL A   1      39.872  32.922  30.756  1.00  0.00    +0.000 C 
ATOM     86  C62 UNL A   1      41.113  32.855  31.243  1.00  0.00    +0.000 C 
ATOM     87  C63 UNL A   1      42.933  29.719  26.481  1.00  0.00    +0.000 C 
ATOM     88  C64 UNL A   1      41.782  29.047  26.568  1.00  0.00    +0.000 C 
ATOM    126  H33 UNL A   1      46.198  29.767  30.267  1.00  0.00    +0.000 H 
ATOM    127  H34 UNL A   1      45.016  29.705  32.636  1.00  0.00    +0.000 H 
ATOM    128  H35 UNL A   1      42.704  31.946  30.079  1.00  0.00    +0.000 H 
ENDROOT
BRANCH   32   31
ATOM    136  H43 UNL A   1      39.304  26.773  26.440  1.00  0.00    +0.000 H 
ATOM    137  H44 UNL A   1      39.537  24.464  25.751  1.00  0.00    +0.000 H 
ATOM    124  H31 UNL A   1      42.477  23.866  28.679  1.00  0.00    +0.000 H 
ATOM    125  H32 UNL A   1      42.093  26.098  29.506  1.00  0.00    +0.000 H 
ATOM     89  C65 UNL A   1      39.930  26.138  26.960  1.00  0.00    +0.000 C 
ATOM     90  C66 UNL A   1      40.080  24.812  26.557  1.00  0.00    +0.000 C 
ATOM     28  C23 UNL A   1      40.958  23.936  27.224  1.00  0.00    +0.000 C 
ATOM     29  C24 UNL A   1      41.744  24.453  28.250  1.00  0.00    +0.000 C 
ATOM     30  C25 UNL A   1      41.552  25.751  28.699  1.00  0.00    +0.000 C 
ATOM     31  C26 UNL A   1      40.629  26.595  28.069  1.00  0.00    +0.000 C 
BRANCH   28   26
ATOM     26  C22 UNL A   1      40.922  22.507  26.801  1.00  0.00    +0.000 C 
ATOM     27  O2  UNL A   1      40.171  21.731  27.405  1.00  0.00    +0.000 O 
BRANCH   26   25
ATOM     25  N3  UNL A   1      41.715  21.961  25.829  1.00  0.00    +0.000 N 
ATOM    123  H30 UNL A   1      41.517  22.300  24.926  1.00  0.00    +0.000 H 
BRANCH   25   24
ATOM    121  H28 UNL A   1      42.765  20.482  26.796  1.00  0.00    +0.000 H 
ATOM    122  H29 UNL A   1      42.621  20.319  25.032  1.00  0.00    +0.000 H 
ATOM     24  C21 UNL A   1      42.786  20.987  25.852  1.00  0.00    +0.000 C 
BRANCH   24   23
ATOM    119  H26 UNL A   1      44.411  22.171  26.538  1.00  0.00    +0.000 H 
ATOM     23  C20 UNL A   1      44.176  21.602  25.662  1.00  0.00    +0.000 C 
ATOM    120  H27 UNL A   1      44.847  20.785  25.497  1.00  0.00    +0.000 H 
BRANCH   23   22
ATOM    118  H25 UNL A   1      43.342  22.588  24.006  1.00  0.00    +0.000 H 
ATOM    117  H24 UNL A   1      45.043  22.098  23.789  1.00  0.00    +0.000 H 
ATOM     22  C19 UNL A   1      44.313  22.521  24.448  1.00  0.00    +0.000 C 
BRANCH   22   21
ATOM    115  H22 UNL A   1      45.359  23.906  25.656  1.00  0.00    +0.000 H 
ATOM    116  H23 UNL A   1      45.249  24.317  23.922  1.00  0.00    +0.000 H 
ATOM     21  C18 UNL A   1      44.740  23.943  24.784  1.00  0.00    +0.000 C 
BRANCH   21   20
ATOM    113  H20 UNL A   1      42.945  24.919  24.197  1.00  0.00    +0.000 H 
ATOM    114  H21 UNL A   1      43.108  24.551  25.951  1.00  0.00    +0.000 H 
ATOM     20  C17 UNL A   1      43.577  24.914  25.060  1.00  0.00    +0.000 C 
BRANCH   20   19
ATOM     19  C16 UNL A   1      43.963  26.371  25.366  1.00  0.00    +0.000 C 
ATOM    111  H18 UNL A   1      43.986  26.907  24.440  1.00  0.00    +0.000 H 
ATOM    112  H19 UNL A   1      43.228  26.733  26.055  1.00  0.00    +0.000 H 
BRANCH   19   18
ATOM     18  N2  UNL A   1      45.251  26.551  26.022  1.00  0.00    +0.000 N 
ATOM    110  H17 UNL A   1      45.986  26.046  25.603  1.00  0.00    +0.000 H 
BRANCH   18   16
ATOM     17  O1  UNL A   1      46.423  28.215  26.925  1.00  0.00    +0.000 O 
ATOM     16  C15 UNL A   1      45.635  27.286  27.109  1.00  0.00    +0.000 C 
BRANCH   16   15
ATOM    108  H15 UNL A   1      45.085  27.841  29.047  1.00  0.00    +0.000 H 
ATOM    109  H16 UNL A   1      44.248  26.393  28.318  1.00  0.00    +0.000 H 
ATOM     15  C14 UNL A   1      45.159  26.926  28.497  1.00  0.00    +0.000 C 
BRANCH   15   12
ATOM      3  C3  UNL A   1      44.572  25.485  34.232  1.00  0.00    +0.000 C 
ATOM      4  C4  UNL A   1      43.900  24.434  34.901  1.00  0.00    +0.000 C 
ATOM      5  C5  UNL A   1      43.386  23.323  34.237  1.00  0.00    +0.000 C 
ATOM      6  C6  UNL A   1      43.554  23.194  32.868  1.00  0.00    +0.000 C 
ATOM      7  C7  UNL A   1      44.239  24.201  32.169  1.00  0.00    +0.000 C 
ATOM      8  C8  UNL A   1      44.680  24.297  30.838  1.00  0.00    +0.000 C 
ATOM      9  C9  UNL A   1      45.310  25.507  30.644  1.00  0.00    +0.000 C 
ATOM     10  N1  UNL A   1      45.307  26.138  31.870  1.00  0.00    +0.000 N 
ATOM     11  C10 UNL A   1      44.709  25.330  32.833  1.00  0.00    +0.000 C 
ATOM     12  C11 UNL A   1      45.990  25.946  29.358  1.00  0.00    +0.000 C 
ATOM    140  H47 UNL A   1      43.620  23.005  29.600  1.00  0.00    +0.000 H 
ATOM    141  H48 UNL A   1      45.145  22.378  30.196  1.00  0.00    +0.000 H 
ATOM    138  H45 UNL A   1      45.786  22.849  28.110  1.00  0.00    +0.000 H 
ATOM    139  H46 UNL A   1      44.553  24.172  27.984  1.00  0.00    +0.000 H 
ATOM     91  O3  UNL A   1      46.344  24.721  28.670  1.00  0.00    +0.000 O 
ATOM     92  C67 UNL A   1      45.330  23.708  28.556  1.00  0.00    +0.000 C 
ATOM     93  C68 UNL A   1      44.639  23.243  29.821  1.00  0.00    +0.000 C 
ATOM     99  H6  UNL A   1      43.786  24.493  35.924  1.00  0.00    +0.000 H 
ATOM    100  H7  UNL A   1      42.879  22.595  34.766  1.00  0.00    +0.000 H 
ATOM    101  H8  UNL A   1      43.181  22.370  32.369  1.00  0.00    +0.000 H 
ATOM    102  H9  UNL A   1      45.677  27.035  32.040  1.00  0.00    +0.000 H 
BRANCH    3    2
ATOM     97  H4  UNL A   1      46.143  26.833  34.590  1.00  0.00    +0.000 H 
ATOM      2  C2  UNL A   1      45.158  26.662  34.973  1.00  0.00    +0.000 C 
ATOM     98  H5  UNL A   1      44.477  27.471  34.811  1.00  0.00    +0.000 H 
BRANCH    2    1
ATOM      1  C1  UNL A   1      45.267  26.515  36.487  1.00  0.00    +0.000 C 
ATOM     94  H1  UNL A   1      46.030  27.168  36.855  1.00  0.00    +0.000 H 
ATOM     95  H2  UNL A   1      45.515  25.503  36.730  1.00  0.00    +0.000 H 
ATOM     96  H3  UNL A   1      44.330  26.771  36.938  1.00  0.00    +0.000 H 
ENDBRANCH    2    1
ENDBRANCH    3    2
BRANCH   12   13
ATOM     13  C12 UNL A   1      47.363  26.622  29.688  1.00  0.00    +0.000 C 
ATOM    103  H10 UNL A   1      47.278  27.087  30.648  1.00  0.00    +0.000 H 
ATOM    104  H11 UNL A   1      47.551  27.308  28.889  1.00  0.00    +0.000 H 
BRANCH   13   14
ATOM    105  H12 UNL A   1      49.429  26.212  30.083  1.00  0.00    +0.000 H 
ATOM    106  H13 UNL A   1      48.767  25.312  28.739  1.00  0.00    +0.000 H 
ATOM    107  H14 UNL A   1      48.363  24.858  30.377  1.00  0.00    +0.000 H 
ATOM     14  C13 UNL A   1      48.571  25.680  29.725  1.00  0.00    +0.000 C 
ENDBRANCH   13   14
ENDBRANCH   12   13
ENDBRANCH   15   12
ENDBRANCH   16   15
ENDBRANCH   18   16
ENDBRANCH   19   18
ENDBRANCH   20   19
ENDBRANCH   21   20
ENDBRANCH   22   21
ENDBRANCH   23   22
ENDBRANCH   24   23
ENDBRANCH   25   24
ENDBRANCH   26   25
ENDBRANCH   28   26
ENDBRANCH   32   31
BRANCH   36   37
ATOM     37  C31 UNL A   1      44.381  32.375  27.584  1.00  0.00    +0.000 C 
ATOM     38  C32 UNL A   1      45.487  32.604  26.737  1.00  0.00    +0.000 C 
ATOM     39  F1  UNL A   1      46.233  31.582  26.293  1.00  0.00    +0.000 F 
ATOM     40  C33 UNL A   1      45.906  33.895  26.396  1.00  0.00    +0.000 C 
ATOM     41  F2  UNL A   1      47.029  34.066  25.686  1.00  0.00    +0.000 F 
ATOM     42  C34 UNL A   1      45.208  35.000  26.844  1.00  0.00    +0.000 C 
ATOM     43  F3  UNL A   1      45.638  36.237  26.569  1.00  0.00    +0.000 F 
ATOM     44  C35 UNL A   1      44.084  34.816  27.621  1.00  0.00    +0.000 C 
ATOM     45  F4  UNL A   1      43.407  35.876  28.086  1.00  0.00    +0.000 F 
ATOM     46  C36 UNL A   1      43.689  33.533  27.999  1.00  0.00    +0.000 C 
ATOM     47  F5  UNL A   1      42.679  33.486  28.873  1.00  0.00    +0.000 F 
ENDBRANCH   36   37
BRANCH   53   54
ATOM     54  C42 UNL A   1      42.136  30.039  33.679  1.00  0.00    +0.000 C 
ATOM     55  C43 UNL A   1      41.743  28.699  33.547  1.00  0.00    +0.000 C 
ATOM     56  F6  UNL A   1      41.466  28.180  32.342  1.00  0.00    +0.000 F 
ATOM     57  C44 UNL A   1      41.673  27.864  34.661  1.00  0.00    +0.000 C 
ATOM     58  F7  UNL A   1      41.285  26.588  34.522  1.00  0.00    +0.000 F 
ATOM     59  C45 UNL A   1      42.032  28.340  35.914  1.00  0.00    +0.000 C 
ATOM     60  F8  UNL A   1      42.005  27.526  36.978  1.00  0.00    +0.000 F 
ATOM     61  C46 UNL A   1      42.443  29.655  36.061  1.00  0.00    +0.000 C 
ATOM     62  F9  UNL A   1      42.830  30.111  37.260  1.00  0.00    +0.000 F 
ATOM     63  C47 UNL A   1      42.479  30.499  34.958  1.00  0.00    +0.000 C 
ATOM     64  F10 UNL A   1      42.892  31.765  35.128  1.00  0.00    +0.000 F 
ENDBRANCH   53   54
BRANCH   68   69
ATOM     69  C51 UNL A   1      36.715  31.946  31.012  1.00  0.00    +0.000 C 
ATOM     70  C52 UNL A   1      35.897  32.070  32.150  1.00  0.00    +0.000 C 
ATOM     71  F11 UNL A   1      36.118  31.301  33.227  1.00  0.00    +0.000 F 
ATOM     72  C53 UNL A   1      34.899  33.045  32.234  1.00  0.00    +0.000 C 
ATOM     73  F12 UNL A   1      34.199  33.189  33.368  1.00  0.00    +0.000 F 
ATOM     74  C54 UNL A   1      34.681  33.913  31.177  1.00  0.00    +0.000 C 
ATOM     75  F13 UNL A   1      33.784  34.903  31.288  1.00  0.00    +0.000 F 
ATOM     76  C55 UNL A   1      35.430  33.779  30.021  1.00  0.00    +0.000 C 
ATOM     77  F14 UNL A   1      35.247  34.633  29.005  1.00  0.00    +0.000 F 
ATOM     78  C56 UNL A   1      36.429  32.808  29.937  1.00  0.00    +0.000 C 
ATOM     79  F15 UNL A   1      37.181  32.792  28.828  1.00  0.00    +0.000 F 
ENDBRANCH   68   69
TORSDOF 20
ENDMDL
MODEL 5
REMARK VINA RESULT:     -11.1      3.889      7.707
ROOT
ATOM    129  H36 UNL A   1      36.966  29.407  30.404  1.00  0.00    +0.000 H 
ATOM    130  H37 UNL A   1      38.305  27.481  29.407  1.00  0.00    +0.000 H 
ATOM    131  H38 UNL A   1      40.943  30.654  29.963  1.00  0.00    +0.000 H 
ATOM    132  H39 UNL A   1      40.427  33.876  30.146  1.00  0.00    +0.000 H 
ATOM    133  H40 UNL A   1      42.752  33.482  31.198  1.00  0.00    +0.000 H 
ATOM    134  H41 UNL A   1      44.138  30.044  25.787  1.00  0.00    +0.000 H 
ATOM    135  H42 UNL A   1      41.740  29.099  25.828  1.00  0.00    +0.000 H 
ATOM     32  C27 UNL A   1      40.926  28.289  28.479  1.00  0.00    +0.000 C 
ATOM     33  C28 UNL A   1      42.159  29.004  28.055  1.00  0.00    +0.000 C 
ATOM     34  N4  UNL A   1      43.177  29.287  28.799  1.00  0.00    +0.000 N 
ATOM     35  C29 UNL A   1      44.066  29.979  27.981  1.00  0.00    +0.000 C 
ATOM     36  C30 UNL A   1      44.945  30.861  28.531  1.00  0.00    +0.000 C 
ATOM     48  C37 UNL A   1      45.059  30.654  29.951  1.00  0.00    +0.000 C 
ATOM     49  C38 UNL A   1      45.750  29.824  30.804  1.00  0.00    +0.000 C 
ATOM     50  C39 UNL A   1      45.039  29.834  32.043  1.00  0.00    +0.000 C 
ATOM     51  C40 UNL A   1      43.953  30.696  31.927  1.00  0.00    +0.000 C 
ATOM     52  N5  UNL A   1      44.035  31.210  30.663  1.00  0.00    +0.000 N 
ATOM     53  C41 UNL A   1      42.754  30.911  32.698  1.00  0.00    +0.000 C 
ATOM     65  C48 UNL A   1      41.830  31.857  32.376  1.00  0.00    +0.000 C 
ATOM     66  N6  UNL A   1      40.490  31.629  32.599  1.00  0.00    +0.000 N 
ATOM     67  C49 UNL A   1      39.899  32.215  31.594  1.00  0.00    +0.000 C 
ATOM     68  C50 UNL A   1      38.626  31.731  31.017  1.00  0.00    +0.000 C 
ATOM     80  C57 UNL A   1      38.871  30.535  30.428  1.00  0.00    +0.000 C 
ATOM     81  C58 UNL A   1      37.971  29.428  30.177  1.00  0.00    +0.000 C 
ATOM     82  C59 UNL A   1      38.668  28.428  29.594  1.00  0.00    +0.000 C 
ATOM     83  C60 UNL A   1      40.014  28.894  29.270  1.00  0.00    +0.000 C 
ATOM     84  N7  UNL A   1      40.112  30.129  29.896  1.00  0.00    +0.000 N 
ATOM     85  C61 UNL A   1      40.701  33.195  30.871  1.00  0.00    +0.000 C 
ATOM     86  C62 UNL A   1      41.893  32.955  31.422  1.00  0.00    +0.000 C 
ATOM     87  C63 UNL A   1      43.599  29.799  26.632  1.00  0.00    +0.000 C 
ATOM     88  C64 UNL A   1      42.371  29.273  26.625  1.00  0.00    +0.000 C 
ATOM    126  H33 UNL A   1      46.611  29.297  30.591  1.00  0.00    +0.000 H 
ATOM    127  H34 UNL A   1      45.290  29.293  32.886  1.00  0.00    +0.000 H 
ATOM    128  H35 UNL A   1      43.428  31.900  30.309  1.00  0.00    +0.000 H 
ENDROOT
BRANCH   32   31
ATOM    136  H43 UNL A   1      39.688  27.340  26.233  1.00  0.00    +0.000 H 
ATOM    137  H44 UNL A   1      39.675  25.047  25.458  1.00  0.00    +0.000 H 
ATOM    124  H31 UNL A   1      42.260  23.958  28.573  1.00  0.00    +0.000 H 
ATOM    125  H32 UNL A   1      42.102  26.191  29.470  1.00  0.00    +0.000 H 
ATOM     89  C65 UNL A   1      40.180  26.609  26.770  1.00  0.00    +0.000 C 
ATOM     90  C66 UNL A   1      40.190  25.290  26.318  1.00  0.00    +0.000 C 
ATOM     28  C23 UNL A   1      40.888  24.282  27.010  1.00  0.00    +0.000 C 
ATOM     29  C24 UNL A   1      41.648  24.652  28.117  1.00  0.00    +0.000 C 
ATOM     30  C25 UNL A   1      41.589  25.947  28.609  1.00  0.00    +0.000 C 
ATOM     31  C26 UNL A   1      40.839  26.929  27.949  1.00  0.00    +0.000 C 
BRANCH   28   26
ATOM     26  C22 UNL A   1      40.702  22.887  26.520  1.00  0.00    +0.000 C 
ATOM     27  O2  UNL A   1      39.629  22.316  26.752  1.00  0.00    +0.000 O 
BRANCH   26   25
ATOM     25  N3  UNL A   1      41.663  22.149  25.883  1.00  0.00    +0.000 N 
ATOM    123  H30 UNL A   1      41.294  21.450  25.296  1.00  0.00    +0.000 H 
BRANCH   25   24
ATOM    121  H28 UNL A   1      43.432  22.651  26.801  1.00  0.00    +0.000 H 
ATOM    122  H29 UNL A   1      43.449  21.170  25.818  1.00  0.00    +0.000 H 
ATOM     24  C21 UNL A   1      43.111  22.182  25.894  1.00  0.00    +0.000 C 
BRANCH   24   23
ATOM    119  H26 UNL A   1      44.298  22.266  24.134  1.00  0.00    +0.000 H 
ATOM     23  C20 UNL A   1      43.712  22.950  24.712  1.00  0.00    +0.000 C 
ATOM    120  H27 UNL A   1      42.887  23.362  24.169  1.00  0.00    +0.000 H 
BRANCH   23   22
ATOM    118  H25 UNL A   1      45.311  24.250  24.304  1.00  0.00    +0.000 H 
ATOM    117  H24 UNL A   1      45.065  23.908  26.037  1.00  0.00    +0.000 H 
ATOM     22  C19 UNL A   1      44.604  24.130  25.098  1.00  0.00    +0.000 C 
BRANCH   22   21
ATOM    115  H22 UNL A   1      43.572  25.770  24.250  1.00  0.00    +0.000 H 
ATOM    116  H23 UNL A   1      43.038  25.276  25.881  1.00  0.00    +0.000 H 
ATOM     21  C18 UNL A   1      43.866  25.455  25.229  1.00  0.00    +0.000 C 
BRANCH   21   20
ATOM    113  H20 UNL A   1      44.017  27.198  26.437  1.00  0.00    +0.000 H 
ATOM    114  H21 UNL A   1      45.442  26.098  26.452  1.00  0.00    +0.000 H 
ATOM     20  C17 UNL A   1      44.689  26.588  25.870  1.00  0.00    +0.000 C 
BRANCH   20   19
ATOM     19  C16 UNL A   1      45.454  27.507  24.903  1.00  0.00    +0.000 C 
ATOM    111  H18 UNL A   1      45.088  27.324  23.914  1.00  0.00    +0.000 H 
ATOM    112  H19 UNL A   1      45.281  28.506  25.248  1.00  0.00    +0.000 H 
BRANCH   19   18
ATOM     18  N2  UNL A   1      46.900  27.332  24.887  1.00  0.00    +0.000 N 
ATOM    110  H17 UNL A   1      47.210  26.635  24.264  1.00  0.00    +0.000 H 
BRANCH   18   16
ATOM     17  O1  UNL A   1      48.957  28.181  24.967  1.00  0.00    +0.000 O 
ATOM     16  C15 UNL A   1      47.909  27.948  25.573  1.00  0.00    +0.000 C 
BRANCH   16   15
ATOM    108  H15 UNL A   1      48.351  29.149  27.225  1.00  0.00    +0.000 H 
ATOM    109  H16 UNL A   1      46.707  28.360  27.176  1.00  0.00    +0.000 H 
ATOM     15  C14 UNL A   1      47.765  28.273  27.042  1.00  0.00    +0.000 C 
BRANCH   15   12
ATOM      3  C3  UNL A   1      44.407  25.259  30.908  1.00  0.00    +0.000 C 
ATOM      4  C4  UNL A   1      43.797  23.982  30.869  1.00  0.00    +0.000 C 
ATOM      5  C5  UNL A   1      44.093  23.033  29.894  1.00  0.00    +0.000 C 
ATOM      6  C6  UNL A   1      45.049  23.305  28.928  1.00  0.00    +0.000 C 
ATOM      7  C7  UNL A   1      45.697  24.551  28.946  1.00  0.00    +0.000 C 
ATOM      8  C8  UNL A   1      46.777  25.066  28.209  1.00  0.00    +0.000 C 
ATOM      9  C9  UNL A   1      47.037  26.359  28.608  1.00  0.00    +0.000 C 
ATOM     10  N1  UNL A   1      46.153  26.626  29.631  1.00  0.00    +0.000 N 
ATOM     11  C10 UNL A   1      45.362  25.511  29.896  1.00  0.00    +0.000 C 
ATOM     12  C11 UNL A   1      48.178  27.222  28.099  1.00  0.00    +0.000 C 
ATOM    140  H47 UNL A   1      47.036  24.024  26.428  1.00  0.00    +0.000 H 
ATOM    141  H48 UNL A   1      48.038  23.479  27.759  1.00  0.00    +0.000 H 
ATOM    138  H45 UNL A   1      49.603  24.584  26.614  1.00  0.00    +0.000 H 
ATOM    139  H46 UNL A   1      48.361  25.705  25.916  1.00  0.00    +0.000 H 
ATOM     91  O3  UNL A   1      49.188  26.292  27.634  1.00  0.00    +0.000 O 
ATOM     92  C67 UNL A   1      48.756  25.217  26.782  1.00  0.00    +0.000 C 
ATOM     93  C68 UNL A   1      47.626  24.334  27.266  1.00  0.00    +0.000 C 
ATOM     99  H6  UNL A   1      43.102  23.744  31.593  1.00  0.00    +0.000 H 
ATOM    100  H7  UNL A   1      43.601  22.125  29.892  1.00  0.00    +0.000 H 
ATOM    101  H8  UNL A   1      45.279  22.605  28.205  1.00  0.00    +0.000 H 
ATOM    102  H9  UNL A   1      46.089  27.485  30.108  1.00  0.00    +0.000 H 
BRANCH    3    2
ATOM     97  H4  UNL A   1      44.639  27.159  31.773  1.00  0.00    +0.000 H 
ATOM      2  C2  UNL A   1      44.102  26.260  31.995  1.00  0.00    +0.000 C 
ATOM     98  H5  UNL A   1      43.038  26.371  31.994  1.00  0.00    +0.000 H 
BRANCH    2    1
ATOM      1  C1  UNL A   1      44.467  25.840  33.416  1.00  0.00    +0.000 C 
ATOM     94  H1  UNL A   1      43.595  25.874  34.033  1.00  0.00    +0.000 H 
ATOM     95  H2  UNL A   1      45.207  26.507  33.806  1.00  0.00    +0.000 H 
ATOM     96  H3  UNL A   1      44.857  24.843  33.403  1.00  0.00    +0.000 H 
ENDBRANCH    2    1
ENDBRANCH    3    2
BRANCH   12   13
ATOM     13  C12 UNL A   1      48.855  27.969  29.297  1.00  0.00    +0.000 C 
ATOM    103  H10 UNL A   1      48.089  28.482  29.840  1.00  0.00    +0.000 H 
ATOM    104  H11 UNL A   1      49.587  28.616  28.863  1.00  0.00    +0.000 H 
BRANCH   13   14
ATOM    105  H12 UNL A   1      49.174  26.102  30.301  1.00  0.00    +0.000 H 
ATOM    106  H13 UNL A   1      49.567  27.507  31.265  1.00  0.00    +0.000 H 
ATOM    107  H14 UNL A   1      50.639  27.000  29.982  1.00  0.00    +0.000 H 
ATOM     14  C13 UNL A   1      49.616  27.077  30.286  1.00  0.00    +0.000 C 
ENDBRANCH   13   14
ENDBRANCH   12   13
ENDBRANCH   15   12
ENDBRANCH   16   15
ENDBRANCH   18   16
ENDBRANCH   19   18
ENDBRANCH   20   19
ENDBRANCH   21   20
ENDBRANCH   22   21
ENDBRANCH   23   22
ENDBRANCH   24   23
ENDBRANCH   25   24
ENDBRANCH   26   25
ENDBRANCH   28   26
ENDBRANCH   32   31
BRANCH   36   37
ATOM     37  C31 UNL A   1      45.292  32.209  27.932  1.00  0.00    +0.000 C 
ATOM     38  C32 UNL A   1      44.257  33.142  27.701  1.00  0.00    +0.000 C 
ATOM     39  F1  UNL A   1      43.049  32.974  28.257  1.00  0.00    +0.000 F 
ATOM     40  C33 UNL A   1      44.412  34.220  26.823  1.00  0.00    +0.000 C 
ATOM     41  F2  UNL A   1      43.365  35.010  26.545  1.00  0.00    +0.000 F 
ATOM     42  C34 UNL A   1      45.618  34.438  26.185  1.00  0.00    +0.000 C 
ATOM     43  F3  UNL A   1      45.752  35.434  25.300  1.00  0.00    +0.000 F 
ATOM     44  C35 UNL A   1      46.674  33.588  26.434  1.00  0.00    +0.000 C 
ATOM     45  F4  UNL A   1      47.845  33.767  25.806  1.00  0.00    +0.000 F 
ATOM     46  C36 UNL A   1      46.511  32.486  27.274  1.00  0.00    +0.000 C 
ATOM     47  F5  UNL A   1      47.553  31.650  27.321  1.00  0.00    +0.000 F 
ENDBRANCH   36   37
BRANCH   53   54
ATOM     54  C42 UNL A   1      42.415  29.944  33.783  1.00  0.00    +0.000 C 
ATOM     55  C43 UNL A   1      41.809  28.697  33.574  1.00  0.00    +0.000 C 
ATOM     56  F6  UNL A   1      41.480  28.291  32.339  1.00  0.00    +0.000 F 
ATOM     57  C44 UNL A   1      41.574  27.831  34.642  1.00  0.00    +0.000 C 
ATOM     58  F7  UNL A   1      40.984  26.646  34.430  1.00  0.00    +0.000 F 
ATOM     59  C45 UNL A   1      41.976  28.179  35.923  1.00  0.00    +0.000 C 
ATOM     60  F8  UNL A   1      41.789  27.330  36.943  1.00  0.00    +0.000 F 
ATOM     61  C46 UNL A   1      42.595  29.398  36.145  1.00  0.00    +0.000 C 
ATOM     62  F9  UNL A   1      43.022  29.724  37.373  1.00  0.00    +0.000 F 
ATOM     63  C47 UNL A   1      42.798  30.278  35.089  1.00  0.00    +0.000 C 
ATOM     64  F10 UNL A   1      43.410  31.447  35.332  1.00  0.00    +0.000 F 
ENDBRANCH   53   54
BRANCH   68   69
ATOM     69  C51 UNL A   1      37.439  32.612  30.909  1.00  0.00    +0.000 C 
ATOM     70  C52 UNL A   1      37.151  33.288  29.710  1.00  0.00    +0.000 C 
ATOM     71  F11 UNL A   1      38.081  33.385  28.748  1.00  0.00    +0.000 F 
ATOM     72  C53 UNL A   1      35.876  33.796  29.442  1.00  0.00    +0.000 C 
ATOM     73  F12 UNL A   1      35.616  34.355  28.252  1.00  0.00    +0.000 F 
ATOM     74  C54 UNL A   1      34.859  33.655  30.371  1.00  0.00    +0.000 C 
ATOM     75  F13 UNL A   1      33.616  34.063  30.081  1.00  0.00    +0.000 F 
ATOM     76  C55 UNL A   1      35.127  33.047  31.585  1.00  0.00    +0.000 C 
ATOM     77  F14 UNL A   1      34.142  32.879  32.478  1.00  0.00    +0.000 F 
ATOM     78  C56 UNL A   1      36.398  32.537  31.853  1.00  0.00    +0.000 C 
ATOM     79  F15 UNL A   1      36.567  31.876  33.006  1.00  0.00    +0.000 F 
ENDBRANCH   68   69
TORSDOF 20
ENDMDL
MODEL 6
REMARK VINA RESULT:     -11.1      1.192      2.178
ROOT
ATOM    129  H36 UNL A   1      36.924  29.073  30.618  1.00  0.00    +0.000 H 
ATOM    130  H37 UNL A   1      38.148  27.074  29.618  1.00  0.00    +0.000 H 
ATOM    131  H38 UNL A   1      40.895  30.191  29.882  1.00  0.00    +0.000 H 
ATOM    132  H39 UNL A   1      40.474  33.432  29.967  1.00  0.00    +0.000 H 
ATOM    133  H40 UNL A   1      42.850  33.013  30.889  1.00  0.00    +0.000 H 
ATOM    134  H41 UNL A   1      43.804  29.334  25.544  1.00  0.00    +0.000 H 
ATOM    135  H42 UNL A   1      41.390  28.458  25.770  1.00  0.00    +0.000 H 
ATOM     32  C27 UNL A   1      40.725  27.773  28.497  1.00  0.00    +0.000 C 
ATOM     33  C28 UNL A   1      41.946  28.437  27.970  1.00  0.00    +0.000 C 
ATOM     34  N4  UNL A   1      43.016  28.720  28.637  1.00  0.00    +0.000 N 
ATOM     35  C29 UNL A   1      43.869  29.354  27.739  1.00  0.00    +0.000 C 
ATOM     36  C30 UNL A   1      44.803  30.232  28.197  1.00  0.00    +0.000 C 
ATOM     48  C37 UNL A   1      45.001  30.077  29.615  1.00  0.00    +0.000 C 
ATOM     49  C38 UNL A   1      45.723  29.261  30.456  1.00  0.00    +0.000 C 
ATOM     50  C39 UNL A   1      45.092  29.338  31.735  1.00  0.00    +0.000 C 
ATOM     51  C40 UNL A   1      44.024  30.224  31.652  1.00  0.00    +0.000 C 
ATOM     52  N5  UNL A   1      44.039  30.688  30.366  1.00  0.00    +0.000 N 
ATOM     53  C41 UNL A   1      42.881  30.502  32.486  1.00  0.00    +0.000 C 
ATOM     65  C48 UNL A   1      41.963  31.461  32.185  1.00  0.00    +0.000 C 
ATOM     66  N6  UNL A   1      40.635  31.279  32.500  1.00  0.00    +0.000 N 
ATOM     67  C49 UNL A   1      39.996  31.842  31.511  1.00  0.00    +0.000 C 
ATOM     68  C50 UNL A   1      38.677  31.372  31.034  1.00  0.00    +0.000 C 
ATOM     80  C57 UNL A   1      38.855  30.148  30.479  1.00  0.00    +0.000 C 
ATOM     81  C58 UNL A   1      37.913  29.057  30.328  1.00  0.00    +0.000 C 
ATOM     82  C59 UNL A   1      38.546  28.017  29.744  1.00  0.00    +0.000 C 
ATOM     83  C60 UNL A   1      39.881  28.433  29.319  1.00  0.00    +0.000 C 
ATOM     84  N7  UNL A   1      40.049  29.688  29.888  1.00  0.00    +0.000 N 
ATOM     85  C61 UNL A   1      40.776  32.771  30.701  1.00  0.00    +0.000 C 
ATOM     86  C62 UNL A   1      41.994  32.519  31.186  1.00  0.00    +0.000 C 
ATOM     87  C63 UNL A   1      43.313  29.136  26.430  1.00  0.00    +0.000 C 
ATOM     88  C64 UNL A   1      42.075  28.644  26.519  1.00  0.00    +0.000 C 
ATOM    126  H33 UNL A   1      46.556  28.702  30.211  1.00  0.00    +0.000 H 
ATOM    127  H34 UNL A   1      45.382  28.823  32.581  1.00  0.00    +0.000 H 
ATOM    128  H35 UNL A   1      43.428  31.380  30.023  1.00  0.00    +0.000 H 
ENDROOT
BRANCH   32   31
ATOM    136  H43 UNL A   1      42.169  25.528  29.091  1.00  0.00    +0.000 H 
ATOM    137  H44 UNL A   1      41.755  23.291  28.263  1.00  0.00    +0.000 H 
ATOM    124  H31 UNL A   1      38.299  24.633  26.306  1.00  0.00    +0.000 H 
ATOM    125  H32 UNL A   1      38.827  26.896  26.949  1.00  0.00    +0.000 H 
ATOM     89  C65 UNL A   1      41.384  25.351  28.444  1.00  0.00    +0.000 C 
ATOM     90  C66 UNL A   1      41.132  24.062  27.979  1.00  0.00    +0.000 C 
ATOM     28  C23 UNL A   1      40.043  23.788  27.128  1.00  0.00    +0.000 C 
ATOM     29  C24 UNL A   1      39.166  24.828  26.831  1.00  0.00    +0.000 C 
ATOM     30  C25 UNL A   1      39.448  26.124  27.236  1.00  0.00    +0.000 C 
ATOM     31  C26 UNL A   1      40.570  26.396  28.029  1.00  0.00    +0.000 C 
BRANCH   28   26
ATOM     26  C22 UNL A   1      39.961  22.407  26.574  1.00  0.00    +0.000 C 
ATOM     27  O2  UNL A   1      41.012  21.827  26.272  1.00  0.00    +0.000 O 
BRANCH   26   25
ATOM     25  N3  UNL A   1      38.796  21.742  26.305  1.00  0.00    +0.000 N 
ATOM    123  H30 UNL A   1      38.408  21.297  27.093  1.00  0.00    +0.000 H 
BRANCH   25   24
ATOM    121  H28 UNL A   1      38.685  21.397  24.281  1.00  0.00    +0.000 H 
ATOM    122  H29 UNL A   1      37.373  20.717  25.267  1.00  0.00    +0.000 H 
ATOM     24  C21 UNL A   1      38.014  21.556  25.100  1.00  0.00    +0.000 C 
BRANCH   24   23
ATOM    119  H26 UNL A   1      36.316  22.777  25.474  1.00  0.00    +0.000 H 
ATOM     23  C20 UNL A   1      37.117  22.752  24.764  1.00  0.00    +0.000 C 
ATOM    120  H27 UNL A   1      37.743  23.619  24.804  1.00  0.00    +0.000 H 
BRANCH   23   22
ATOM    118  H25 UNL A   1      36.534  21.709  23.037  1.00  0.00    +0.000 H 
ATOM    117  H24 UNL A   1      37.081  23.379  22.737  1.00  0.00    +0.000 H 
ATOM     22  C19 UNL A   1      36.508  22.727  23.363  1.00  0.00    +0.000 C 
BRANCH   22   21
ATOM    115  H22 UNL A   1      34.963  24.091  23.835  1.00  0.00    +0.000 H 
ATOM    116  H23 UNL A   1      34.802  23.249  22.268  1.00  0.00    +0.000 H 
ATOM     21  C18 UNL A   1      35.052  23.166  23.305  1.00  0.00    +0.000 C 
BRANCH   21   20
ATOM    113  H20 UNL A   1      33.325  21.934  23.166  1.00  0.00    +0.000 H 
ATOM    114  H21 UNL A   1      34.644  21.331  24.231  1.00  0.00    +0.000 H 
ATOM     20  C17 UNL A   1      34.054  22.165  23.915  1.00  0.00    +0.000 C 
BRANCH   20   19
ATOM     19  C16 UNL A   1      33.300  22.632  25.171  1.00  0.00    +0.000 C 
ATOM    111  H18 UNL A   1      33.295  21.824  25.873  1.00  0.00    +0.000 H 
ATOM    112  H19 UNL A   1      33.818  23.502  25.520  1.00  0.00    +0.000 H 
BRANCH   19   18
ATOM     18  N2  UNL A   1      31.920  23.047  24.954  1.00  0.00    +0.000 N 
ATOM    110  H17 UNL A   1      31.327  22.318  24.660  1.00  0.00    +0.000 H 
BRANCH   18   16
ATOM     17  O1  UNL A   1      31.020  24.646  26.215  1.00  0.00    +0.000 O 
ATOM     16  C15 UNL A   1      31.292  24.255  25.079  1.00  0.00    +0.000 C 
BRANCH   16   15
ATOM    108  H15 UNL A   1      30.825  24.358  23.045  1.00  0.00    +0.000 H 
ATOM    109  H16 UNL A   1      29.980  25.528  24.161  1.00  0.00    +0.000 H 
ATOM     15  C14 UNL A   1      30.888  25.050  23.859  1.00  0.00    +0.000 C 
BRANCH   15   12
ATOM      3  C3  UNL A   1      29.987  30.906  24.309  1.00  0.00    +0.000 C 
ATOM      4  C4  UNL A   1      30.390  31.876  25.258  1.00  0.00    +0.000 C 
ATOM      5  C5  UNL A   1      31.347  31.623  26.238  1.00  0.00    +0.000 C 
ATOM      6  C6  UNL A   1      31.978  30.390  26.289  1.00  0.00    +0.000 C 
ATOM      7  C7  UNL A   1      31.627  29.408  25.349  1.00  0.00    +0.000 C 
ATOM      8  C8  UNL A   1      32.163  28.141  25.060  1.00  0.00    +0.000 C 
ATOM      9  C9  UNL A   1      31.452  27.560  24.033  1.00  0.00    +0.000 C 
ATOM     10  N1  UNL A   1      30.508  28.489  23.650  1.00  0.00    +0.000 N 
ATOM     11  C10 UNL A   1      30.636  29.653  24.403  1.00  0.00    +0.000 C 
ATOM     12  C11 UNL A   1      31.777  26.224  23.385  1.00  0.00    +0.000 C 
ATOM    140  H47 UNL A   1      33.243  27.395  26.672  1.00  0.00    +0.000 H 
ATOM    141  H48 UNL A   1      34.199  28.220  25.457  1.00  0.00    +0.000 H 
ATOM    138  H45 UNL A   1      34.746  26.123  24.924  1.00  0.00    +0.000 H 
ATOM    139  H46 UNL A   1      33.160  25.506  25.547  1.00  0.00    +0.000 H 
ATOM     91  O3  UNL A   1      33.192  26.016  23.618  1.00  0.00    +0.000 O 
ATOM     92  C67 UNL A   1      33.681  26.228  24.954  1.00  0.00    +0.000 C 
ATOM     93  C68 UNL A   1      33.380  27.552  25.623  1.00  0.00    +0.000 C 
ATOM     99  H6  UNL A   1      29.956  32.810  25.224  1.00  0.00    +0.000 H 
ATOM    100  H7  UNL A   1      31.588  32.355  26.925  1.00  0.00    +0.000 H 
ATOM    101  H8  UNL A   1      32.693  30.196  27.008  1.00  0.00    +0.000 H 
ATOM    102  H9  UNL A   1      29.838  28.349  22.943  1.00  0.00    +0.000 H 
BRANCH    3    2
ATOM     97  H4  UNL A   1      29.208  32.175  22.829  1.00  0.00    +0.000 H 
ATOM      2  C2  UNL A   1      28.977  31.211  23.230  1.00  0.00    +0.000 C 
ATOM     98  H5  UNL A   1      29.060  30.410  22.525  1.00  0.00    +0.000 H 
BRANCH    2    1
ATOM      1  C1  UNL A   1      27.515  31.224  23.664  1.00  0.00    +0.000 C 
ATOM     94  H1  UNL A   1      27.149  30.220  23.717  1.00  0.00    +0.000 H 
ATOM     95  H2  UNL A   1      26.938  31.778  22.954  1.00  0.00    +0.000 H 
ATOM     96  H3  UNL A   1      27.434  31.685  24.627  1.00  0.00    +0.000 H 
ENDBRANCH    2    1
ENDBRANCH    3    2
BRANCH   12   13
ATOM     13  C12 UNL A   1      31.649  26.344  21.830  1.00  0.00    +0.000 C 
ATOM    103  H10 UNL A   1      31.710  27.380  21.573  1.00  0.00    +0.000 H 
ATOM    104  H11 UNL A   1      30.714  25.889  21.577  1.00  0.00    +0.000 H 
BRANCH   13   14
ATOM    105  H12 UNL A   1      32.805  26.041  20.051  1.00  0.00    +0.000 H 
ATOM    106  H13 UNL A   1      32.421  24.569  20.911  1.00  0.00    +0.000 H 
ATOM    107  H14 UNL A   1      33.651  25.644  21.529  1.00  0.00    +0.000 H 
ATOM     14  C13 UNL A   1      32.712  25.593  21.019  1.00  0.00    +0.000 C 
ENDBRANCH   13   14
ENDBRANCH   12   13
ENDBRANCH   15   12
ENDBRANCH   16   15
ENDBRANCH   18   16
ENDBRANCH   19   18
ENDBRANCH   20   19
ENDBRANCH   21   20
ENDBRANCH   22   21
ENDBRANCH   23   22
ENDBRANCH   24   23
ENDBRANCH   25   24
ENDBRANCH   26   25
ENDBRANCH   28   26
ENDBRANCH   32   31
BRANCH   36   37
ATOM     37  C31 UNL A   1      45.146  31.546  27.524  1.00  0.00    +0.000 C 
ATOM     38  C32 UNL A   1      46.443  31.726  26.996  1.00  0.00    +0.000 C 
ATOM     39  F1  UNL A   1      47.263  30.678  26.823  1.00  0.00    +0.000 F 
ATOM     40  C33 UNL A   1      46.962  32.995  26.717  1.00  0.00    +0.000 C 
ATOM     41  F2  UNL A   1      48.239  33.124  26.330  1.00  0.00    +0.000 F 
ATOM     42  C34 UNL A   1      46.189  34.125  26.904  1.00  0.00    +0.000 C 
ATOM     43  F3  UNL A   1      46.701  35.344  26.693  1.00  0.00    +0.000 F 
ATOM     44  C35 UNL A   1      44.894  33.987  27.356  1.00  0.00    +0.000 C 
ATOM     45  F4  UNL A   1      44.137  35.073  27.567  1.00  0.00    +0.000 F 
ATOM     46  C36 UNL A   1      44.389  32.728  27.677  1.00  0.00    +0.000 C 
ATOM     47  F5  UNL A   1      43.180  32.732  28.247  1.00  0.00    +0.000 F 
ENDBRANCH   36   37
BRANCH   53   54
ATOM     54  C42 UNL A   1      42.587  29.588  33.628  1.00  0.00    +0.000 C 
ATOM     55  C43 UNL A   1      41.877  28.383  33.519  1.00  0.00    +0.000 C 
ATOM     56  F6  UNL A   1      41.398  27.974  32.334  1.00  0.00    +0.000 F 
ATOM     57  C44 UNL A   1      41.692  27.562  34.629  1.00  0.00    +0.000 C 
ATOM     58  F7  UNL A   1      41.002  26.418  34.512  1.00  0.00    +0.000 F 
ATOM     59  C45 UNL A   1      42.244  27.908  35.854  1.00  0.00    +0.000 C 
ATOM     60  F8  UNL A   1      42.102  27.098  36.912  1.00  0.00    +0.000 F 
ATOM     61  C46 UNL A   1      42.966  29.084  35.977  1.00  0.00    +0.000 C 
ATOM     62  F9  UNL A   1      43.537  29.406  37.146  1.00  0.00    +0.000 F 
ATOM     63  C47 UNL A   1      43.122  29.922  34.880  1.00  0.00    +0.000 C 
ATOM     64  F10 UNL A   1      43.836  31.050  35.025  1.00  0.00    +0.000 F 
ENDBRANCH   53   54
BRANCH   68   69
ATOM     69  C51 UNL A   1      37.509  32.281  30.965  1.00  0.00    +0.000 C 
ATOM     70  C52 UNL A   1      37.240  33.020  29.799  1.00  0.00    +0.000 C 
ATOM     71  F11 UNL A   1      38.176  33.144  28.846  1.00  0.00    +0.000 F 
ATOM     72  C53 UNL A   1      35.976  33.565  29.551  1.00  0.00    +0.000 C 
ATOM     73  F12 UNL A   1      35.733  34.187  28.388  1.00  0.00    +0.000 F 
ATOM     74  C54 UNL A   1      34.953  33.401  30.468  1.00  0.00    +0.000 C 
ATOM     75  F13 UNL A   1      33.719  33.847  30.194  1.00  0.00    +0.000 F 
ATOM     76  C55 UNL A   1      35.203  32.729  31.652  1.00  0.00    +0.000 C 
ATOM     77  F14 UNL A   1      34.211  32.537  32.533  1.00  0.00    +0.000 F 
ATOM     78  C56 UNL A   1      36.462  32.181  31.900  1.00  0.00    +0.000 C 
ATOM     79  F15 UNL A   1      36.612  31.462  33.020  1.00  0.00    +0.000 F 
ENDBRANCH   68   69
TORSDOF 20
ENDMDL
MODEL 7
REMARK VINA RESULT:     -11.1      4.632     10.650
ROOT
ATOM    129  H36 UNL A   1      41.036  26.963  25.309  1.00  0.00    +0.000 H 
ATOM    130  H37 UNL A   1      39.498  28.700  26.363  1.00  0.00    +0.000 H 
ATOM    131  H38 UNL A   1      42.343  27.679  29.226  1.00  0.00    +0.000 H 
ATOM    132  H39 UNL A   1      44.155  24.983  29.596  1.00  0.00    +0.000 H 
ATOM    133  H40 UNL A   1      45.336  26.812  30.984  1.00  0.00    +0.000 H 
ATOM    134  H41 UNL A   1      39.459  27.970  33.654  1.00  0.00    +0.000 H 
ATOM    135  H42 UNL A   1      38.384  27.599  31.341  1.00  0.00    +0.000 H 
ATOM     32  C27 UNL A   1      39.845  28.924  29.229  1.00  0.00    +0.000 C 
ATOM     33  C28 UNL A   1      40.204  28.772  30.664  1.00  0.00    +0.000 C 
ATOM     34  N4  UNL A   1      41.200  29.330  31.270  1.00  0.00    +0.000 N 
ATOM     35  C29 UNL A   1      41.150  28.876  32.584  1.00  0.00    +0.000 C 
ATOM     36  C30 UNL A   1      42.290  28.820  33.325  1.00  0.00    +0.000 C 
ATOM     48  C37 UNL A   1      43.332  29.611  32.724  1.00  0.00    +0.000 C 
ATOM     49  C38 UNL A   1      43.716  30.932  32.695  1.00  0.00    +0.000 C 
ATOM     50  C39 UNL A   1      44.535  31.091  31.535  1.00  0.00    +0.000 C 
ATOM     51  C40 UNL A   1      44.658  29.857  30.905  1.00  0.00    +0.000 C 
ATOM     52  N5  UNL A   1      43.959  28.981  31.687  1.00  0.00    +0.000 N 
ATOM     53  C41 UNL A   1      45.100  29.436  29.599  1.00  0.00    +0.000 C 
ATOM     65  C48 UNL A   1      45.146  28.129  29.221  1.00  0.00    +0.000 C 
ATOM     66  N6  UNL A   1      44.871  27.767  27.921  1.00  0.00    +0.000 N 
ATOM     67  C49 UNL A   1      44.255  26.623  28.035  1.00  0.00    +0.000 C 
ATOM     68  C50 UNL A   1      43.219  26.170  27.082  1.00  0.00    +0.000 C 
ATOM     80  C57 UNL A   1      42.145  26.985  27.226  1.00  0.00    +0.000 C 
ATOM     81  C58 UNL A   1      41.111  27.328  26.270  1.00  0.00    +0.000 C 
ATOM     82  C59 UNL A   1      40.261  28.203  26.848  1.00  0.00    +0.000 C 
ATOM     83  C60 UNL A   1      40.589  28.341  28.266  1.00  0.00    +0.000 C 
ATOM     84  N7  UNL A   1      41.798  27.672  28.407  1.00  0.00    +0.000 N 
ATOM     85  C61 UNL A   1      44.420  25.940  29.313  1.00  0.00    +0.000 C 
ATOM     86  C62 UNL A   1      45.013  26.912  30.009  1.00  0.00    +0.000 C 
ATOM     87  C63 UNL A   1      39.864  28.251  32.748  1.00  0.00    +0.000 C 
ATOM     88  C64 UNL A   1      39.268  28.083  31.564  1.00  0.00    +0.000 C 
ATOM    126  H33 UNL A   1      43.463  31.664  33.377  1.00  0.00    +0.000 H 
ATOM    127  H34 UNL A   1      44.965  31.974  31.218  1.00  0.00    +0.000 H 
ATOM    128  H35 UNL A   1      43.914  28.011  31.523  1.00  0.00    +0.000 H 
ENDROOT
BRANCH   32   31
ATOM    136  H43 UNL A   1      39.434  31.603  29.593  1.00  0.00    +0.000 H 
ATOM    137  H44 UNL A   1      37.387  32.817  29.151  1.00  0.00    +0.000 H 
ATOM    124  H31 UNL A   1      35.631  29.336  27.612  1.00  0.00    +0.000 H 
ATOM    125  H32 UNL A   1      37.588  28.080  28.248  1.00  0.00    +0.000 H 
ATOM     89  C65 UNL A   1      38.603  31.106  29.234  1.00  0.00    +0.000 C 
ATOM     90  C66 UNL A   1      37.428  31.804  28.963  1.00  0.00    +0.000 C 
ATOM     28  C23 UNL A   1      36.294  31.156  28.434  1.00  0.00    +0.000 C 
ATOM     29  C24 UNL A   1      36.404  29.808  28.105  1.00  0.00    +0.000 C 
ATOM     30  C25 UNL A   1      37.547  29.094  28.435  1.00  0.00    +0.000 C 
ATOM     31  C26 UNL A   1      38.646  29.735  29.019  1.00  0.00    +0.000 C 
BRANCH   28   26
ATOM     26  C22 UNL A   1      35.051  31.970  28.327  1.00  0.00    +0.000 C 
ATOM     27  O2  UNL A   1      34.044  31.450  27.830  1.00  0.00    +0.000 O 
BRANCH   26   25
ATOM     25  N3  UNL A   1      34.949  33.289  28.679  1.00  0.00    +0.000 N 
ATOM    123  H30 UNL A   1      35.506  33.885  28.128  1.00  0.00    +0.000 H 
BRANCH   25   24
ATOM    121  H28 UNL A   1      34.224  35.038  29.480  1.00  0.00    +0.000 H 
ATOM    122  H29 UNL A   1      33.195  33.601  29.668  1.00  0.00    +0.000 H 
ATOM     24  C21 UNL A   1      34.191  33.990  29.695  1.00  0.00    +0.000 C 
BRANCH   24   23
ATOM    119  H26 UNL A   1      34.384  32.813  31.454  1.00  0.00    +0.000 H 
ATOM     23  C20 UNL A   1      34.725  33.770  31.115  1.00  0.00    +0.000 C 
ATOM    120  H27 UNL A   1      35.790  33.839  31.050  1.00  0.00    +0.000 H 
BRANCH   23   22
ATOM    118  H25 UNL A   1      33.219  34.805  32.150  1.00  0.00    +0.000 H 
ATOM    117  H24 UNL A   1      34.689  35.765  31.837  1.00  0.00    +0.000 H 
ATOM     22  C19 UNL A   1      34.288  34.819  32.136  1.00  0.00    +0.000 C 
BRANCH   22   21
ATOM    115  H22 UNL A   1      35.440  35.299  33.844  1.00  0.00    +0.000 H 
ATOM    116  H23 UNL A   1      33.864  34.523  34.164  1.00  0.00    +0.000 H 
ATOM     21  C18 UNL A   1      34.746  34.535  33.560  1.00  0.00    +0.000 C 
BRANCH   21   20
ATOM    113  H20 UNL A   1      34.711  32.506  34.192  1.00  0.00    +0.000 H 
ATOM    114  H21 UNL A   1      35.765  32.877  32.782  1.00  0.00    +0.000 H 
ATOM     20  C17 UNL A   1      35.428  33.169  33.755  1.00  0.00    +0.000 C 
BRANCH   20   19
ATOM     19  C16 UNL A   1      36.683  33.153  34.645  1.00  0.00    +0.000 C 
ATOM    111  H18 UNL A   1      37.147  34.115  34.578  1.00  0.00    +0.000 H 
ATOM    112  H19 UNL A   1      36.343  32.907  35.629  1.00  0.00    +0.000 H 
BRANCH   19   18
ATOM     18  N2  UNL A   1      37.680  32.148  34.300  1.00  0.00    +0.000 N 
ATOM    110  H17 UNL A   1      38.097  31.717  35.081  1.00  0.00    +0.000 H 
BRANCH   18   16
ATOM     17  O1  UNL A   1      37.416  30.948  32.443  1.00  0.00    +0.000 O 
ATOM     16  C15 UNL A   1      38.148  31.690  33.100  1.00  0.00    +0.000 C 
BRANCH   16   15
ATOM    108  H15 UNL A   1      40.223  31.534  33.287  1.00  0.00    +0.000 H 
ATOM    109  H16 UNL A   1      39.544  31.724  31.604  1.00  0.00    +0.000 H 
ATOM     15  C14 UNL A   1      39.542  32.033  32.629  1.00  0.00    +0.000 C 
BRANCH   15   12
ATOM      3  C3  UNL A   1      43.739  34.594  29.292  1.00  0.00    +0.000 C 
ATOM      4  C4  UNL A   1      43.710  35.253  28.040  1.00  0.00    +0.000 C 
ATOM      5  C5  UNL A   1      42.526  35.637  27.415  1.00  0.00    +0.000 C 
ATOM      6  C6  UNL A   1      41.309  35.411  28.038  1.00  0.00    +0.000 C 
ATOM      7  C7  UNL A   1      41.294  34.783  29.294  1.00  0.00    +0.000 C 
ATOM      8  C8  UNL A   1      40.263  34.541  30.218  1.00  0.00    +0.000 C 
ATOM      9  C9  UNL A   1      40.771  33.880  31.316  1.00  0.00    +0.000 C 
ATOM     10  N1  UNL A   1      42.126  33.761  31.096  1.00  0.00    +0.000 N 
ATOM     11  C10 UNL A   1      42.479  34.361  29.889  1.00  0.00    +0.000 C 
ATOM     12  C11 UNL A   1      39.982  33.514  32.562  1.00  0.00    +0.000 C 
ATOM    140  H47 UNL A   1      38.400  34.593  29.298  1.00  0.00    +0.000 H 
ATOM    141  H48 UNL A   1      38.898  36.096  30.051  1.00  0.00    +0.000 H 
ATOM    138  H45 UNL A   1      37.423  35.439  31.592  1.00  0.00    +0.000 H 
ATOM    139  H46 UNL A   1      37.709  33.696  31.185  1.00  0.00    +0.000 H 
ATOM     91  O3  UNL A   1      38.879  34.453  32.611  1.00  0.00    +0.000 O 
ATOM     92  C67 UNL A   1      38.128  34.656  31.402  1.00  0.00    +0.000 C 
ATOM     93  C68 UNL A   1      38.885  35.030  30.145  1.00  0.00    +0.000 C 
ATOM     99  H6  UNL A   1      44.604  35.458  27.568  1.00  0.00    +0.000 H 
ATOM    100  H7  UNL A   1      42.555  36.091  26.488  1.00  0.00    +0.000 H 
ATOM    101  H8  UNL A   1      40.426  35.697  27.585  1.00  0.00    +0.000 H 
ATOM    102  H9  UNL A   1      42.757  33.315  31.706  1.00  0.00    +0.000 H 
BRANCH    3    2
ATOM     97  H4  UNL A   1      44.905  34.366  31.025  1.00  0.00    +0.000 H 
ATOM      2  C2  UNL A   1      45.034  34.221  29.972  1.00  0.00    +0.000 C 
ATOM     98  H5  UNL A   1      45.226  33.208  29.688  1.00  0.00    +0.000 H 
BRANCH    2    1
ATOM      1  C1  UNL A   1      46.268  35.008  29.542  1.00  0.00    +0.000 C 
ATOM     94  H1  UNL A   1      47.134  34.605  30.025  1.00  0.00    +0.000 H 
ATOM     95  H2  UNL A   1      46.150  36.034  29.817  1.00  0.00    +0.000 H 
ATOM     96  H3  UNL A   1      46.385  34.933  28.481  1.00  0.00    +0.000 H 
ENDBRANCH    2    1
ENDBRANCH    3    2
BRANCH   12   13
ATOM     13  C12 UNL A   1      40.829  33.836  33.839  1.00  0.00    +0.000 C 
ATOM    103  H10 UNL A   1      41.787  33.374  33.724  1.00  0.00    +0.000 H 
ATOM    104  H11 UNL A   1      40.264  33.460  34.667  1.00  0.00    +0.000 H 
BRANCH   13   14
ATOM    105  H12 UNL A   1      41.630  35.433  35.021  1.00  0.00    +0.000 H 
ATOM    106  H13 UNL A   1      40.107  35.811  34.251  1.00  0.00    +0.000 H 
ATOM    107  H14 UNL A   1      41.577  35.771  33.307  1.00  0.00    +0.000 H 
ATOM     14  C13 UNL A   1      41.053  35.325  34.126  1.00  0.00    +0.000 C 
ENDBRANCH   13   14
ENDBRANCH   12   13
ENDBRANCH   15   12
ENDBRANCH   16   15
ENDBRANCH   18   16
ENDBRANCH   19   18
ENDBRANCH   20   19
ENDBRANCH   21   20
ENDBRANCH   22   21
ENDBRANCH   23   22
ENDBRANCH   24   23
ENDBRANCH   25   24
ENDBRANCH   26   25
ENDBRANCH   28   26
ENDBRANCH   32   31
BRANCH   36   37
ATOM     37  C31 UNL A   1      42.647  27.684  34.263  1.00  0.00    +0.000 C 
ATOM     38  C32 UNL A   1      43.131  26.475  33.718  1.00  0.00    +0.000 C 
ATOM     39  F1  UNL A   1      43.546  26.416  32.444  1.00  0.00    +0.000 F 
ATOM     40  C33 UNL A   1      43.118  25.276  34.441  1.00  0.00    +0.000 C 
ATOM     41  F2  UNL A   1      43.476  24.132  33.843  1.00  0.00    +0.000 F 
ATOM     42  C34 UNL A   1      42.671  25.251  35.748  1.00  0.00    +0.000 C 
ATOM     43  F3  UNL A   1      42.601  24.097  36.424  1.00  0.00    +0.000 F 
ATOM     44  C35 UNL A   1      42.251  26.424  36.338  1.00  0.00    +0.000 C 
ATOM     45  F4  UNL A   1      41.791  26.416  37.597  1.00  0.00    +0.000 F 
ATOM     46  C36 UNL A   1      42.222  27.612  35.607  1.00  0.00    +0.000 C 
ATOM     47  F5  UNL A   1      41.655  28.648  36.233  1.00  0.00    +0.000 F 
ENDBRANCH   36   37
BRANCH   53   54
ATOM     54  C42 UNL A   1      45.343  30.474  28.554  1.00  0.00    +0.000 C 
ATOM     55  C43 UNL A   1      44.347  31.025  27.735  1.00  0.00    +0.000 C 
ATOM     56  F6  UNL A   1      43.070  30.629  27.845  1.00  0.00    +0.000 F 
ATOM     57  C44 UNL A   1      44.653  32.029  26.818  1.00  0.00    +0.000 C 
ATOM     58  F7  UNL A   1      43.693  32.540  26.034  1.00  0.00    +0.000 F 
ATOM     59  C45 UNL A   1      45.946  32.526  26.733  1.00  0.00    +0.000 C 
ATOM     60  F8  UNL A   1      46.232  33.520  25.882  1.00  0.00    +0.000 F 
ATOM     61  C46 UNL A   1      46.939  32.008  27.548  1.00  0.00    +0.000 C 
ATOM     62  F9  UNL A   1      48.181  32.510  27.501  1.00  0.00    +0.000 F 
ATOM     63  C47 UNL A   1      46.644  30.982  28.438  1.00  0.00    +0.000 C 
ATOM     64  F10 UNL A   1      47.623  30.507  29.223  1.00  0.00    +0.000 F 
ENDBRANCH   53   54
BRANCH   68   69
ATOM     69  C51 UNL A   1      43.335  24.877  26.367  1.00  0.00    +0.000 C 
ATOM     70  C52 UNL A   1      44.279  24.706  25.339  1.00  0.00    +0.000 C 
ATOM     71  F11 UNL A   1      44.882  25.771  24.790  1.00  0.00    +0.000 F 
ATOM     72  C53 UNL A   1      44.686  23.435  24.920  1.00  0.00    +0.000 C 
ATOM     73  F12 UNL A   1      45.652  23.312  23.999  1.00  0.00    +0.000 F 
ATOM     74  C54 UNL A   1      44.149  22.302  25.507  1.00  0.00    +0.000 C 
ATOM     75  F13 UNL A   1      44.599  21.086  25.169  1.00  0.00    +0.000 F 
ATOM     76  C55 UNL A   1      43.175  22.437  26.481  1.00  0.00    +0.000 C 
ATOM     77  F14 UNL A   1      42.671  21.348  27.077  1.00  0.00    +0.000 F 
ATOM     78  C56 UNL A   1      42.770  23.705  26.902  1.00  0.00    +0.000 C 
ATOM     79  F15 UNL A   1      41.893  23.768  27.914  1.00  0.00    +0.000 F 
ENDBRANCH   68   69
TORSDOF 20
ENDMDL
MODEL 8
REMARK VINA RESULT:     -11.1      1.090      2.024
ROOT
ATOM    129  H36 UNL A   1      36.884  28.619  30.593  1.00  0.00    +0.000 H 
ATOM    130  H37 UNL A   1      38.546  26.879  29.753  1.00  0.00    +0.000 H 
ATOM    131  H38 UNL A   1      40.536  30.535  29.849  1.00  0.00    +0.000 H 
ATOM    132  H39 UNL A   1      39.414  33.602  29.706  1.00  0.00    +0.000 H 
ATOM    133  H40 UNL A   1      41.794  33.776  30.693  1.00  0.00    +0.000 H 
ATOM    134  H41 UNL A   1      43.696  30.068  25.629  1.00  0.00    +0.000 H 
ATOM    135  H42 UNL A   1      41.527  28.698  25.875  1.00  0.00    +0.000 H 
ATOM     32  C27 UNL A   1      40.942  28.056  28.631  1.00  0.00    +0.000 C 
ATOM     33  C28 UNL A   1      42.005  28.938  28.080  1.00  0.00    +0.000 C 
ATOM     34  N4  UNL A   1      42.966  29.492  28.744  1.00  0.00    +0.000 N 
ATOM     35  C29 UNL A   1      43.686  30.240  27.819  1.00  0.00    +0.000 C 
ATOM     36  C30 UNL A   1      44.391  31.329  28.231  1.00  0.00    +0.000 C 
ATOM     48  C37 UNL A   1      44.574  31.311  29.659  1.00  0.00    +0.000 C 
ATOM     49  C38 UNL A   1      45.430  30.729  30.566  1.00  0.00    +0.000 C 
ATOM     50  C39 UNL A   1      44.758  30.746  31.826  1.00  0.00    +0.000 C 
ATOM     51  C40 UNL A   1      43.524  31.368  31.665  1.00  0.00    +0.000 C 
ATOM     52  N5  UNL A   1      43.478  31.742  30.351  1.00  0.00    +0.000 N 
ATOM     53  C41 UNL A   1      42.323  31.440  32.459  1.00  0.00    +0.000 C 
ATOM     65  C48 UNL A   1      41.228  32.152  32.077  1.00  0.00    +0.000 C 
ATOM     66  N6  UNL A   1      39.962  31.702  32.381  1.00  0.00    +0.000 N 
ATOM     67  C49 UNL A   1      39.247  32.047  31.346  1.00  0.00    +0.000 C 
ATOM     68  C50 UNL A   1      38.078  31.269  30.880  1.00  0.00    +0.000 C 
ATOM     80  C57 UNL A   1      38.536  30.082  30.413  1.00  0.00    +0.000 C 
ATOM     81  C58 UNL A   1      37.861  28.803  30.322  1.00  0.00    +0.000 C 
ATOM     82  C59 UNL A   1      38.724  27.893  29.821  1.00  0.00    +0.000 C 
ATOM     83  C60 UNL A   1      39.949  28.565  29.391  1.00  0.00    +0.000 C 
ATOM     84  N7  UNL A   1      39.821  29.860  29.876  1.00  0.00    +0.000 N 
ATOM     85  C61 UNL A   1      39.830  33.073  30.488  1.00  0.00    +0.000 C 
ATOM     86  C62 UNL A   1      41.057  33.126  31.009  1.00  0.00    +0.000 C 
ATOM     87  C63 UNL A   1      43.233  29.823  26.518  1.00  0.00    +0.000 C 
ATOM     88  C64 UNL A   1      42.130  29.077  26.621  1.00  0.00    +0.000 C 
ATOM    126  H33 UNL A   1      46.372  30.354  30.374  1.00  0.00    +0.000 H 
ATOM    127  H34 UNL A   1      45.127  30.363  32.711  1.00  0.00    +0.000 H 
ATOM    128  H35 UNL A   1      42.742  32.260  29.951  1.00  0.00    +0.000 H 
ENDROOT
BRANCH   32   31
ATOM    136  H43 UNL A   1      42.672  26.162  29.577  1.00  0.00    +0.000 H 
ATOM    137  H44 UNL A   1      42.791  23.847  28.880  1.00  0.00    +0.000 H 
ATOM    124  H31 UNL A   1      39.457  24.401  26.400  1.00  0.00    +0.000 H 
ATOM    125  H32 UNL A   1      39.470  26.754  26.926  1.00  0.00    +0.000 H 
ATOM     89  C65 UNL A   1      42.030  25.805  28.851  1.00  0.00    +0.000 C 
ATOM     90  C66 UNL A   1      42.084  24.469  28.459  1.00  0.00    +0.000 C 
ATOM     28  C23 UNL A   1      41.193  23.948  27.501  1.00  0.00    +0.000 C 
ATOM     29  C24 UNL A   1      40.192  24.785  27.014  1.00  0.00    +0.000 C 
ATOM     30  C25 UNL A   1      40.175  26.130  27.349  1.00  0.00    +0.000 C 
ATOM     31  C26 UNL A   1      41.107  26.653  28.255  1.00  0.00    +0.000 C 
BRANCH   28   26
ATOM     26  C22 UNL A   1      41.442  22.550  27.050  1.00  0.00    +0.000 C 
ATOM     27  O2  UNL A   1      42.389  21.928  27.546  1.00  0.00    +0.000 O 
BRANCH   26   25
ATOM     25  N3  UNL A   1      40.736  21.909  26.067  1.00  0.00    +0.000 N 
ATOM    123  H30 UNL A   1      41.082  22.081  25.162  1.00  0.00    +0.000 H 
BRANCH   25   24
ATOM    121  H28 UNL A   1      39.895  20.058  25.762  1.00  0.00    +0.000 H 
ATOM    122  H29 UNL A   1      39.208  21.025  27.085  1.00  0.00    +0.000 H 
ATOM     24  C21 UNL A   1      39.585  21.031  26.084  1.00  0.00    +0.000 C 
BRANCH   24   23
ATOM    119  H26 UNL A   1      38.838  22.234  24.501  1.00  0.00    +0.000 H 
ATOM     23  C20 UNL A   1      38.445  21.501  25.174  1.00  0.00    +0.000 C 
ATOM    120  H27 UNL A   1      38.076  20.627  24.678  1.00  0.00    +0.000 H 
BRANCH   23   22
ATOM    118  H25 UNL A   1      37.110  23.092  25.487  1.00  0.00    +0.000 H 
ATOM    117  H24 UNL A   1      37.473  22.139  26.950  1.00  0.00    +0.000 H 
ATOM     22  C19 UNL A   1      37.251  22.117  25.903  1.00  0.00    +0.000 C 
BRANCH   22   21
ATOM    115  H22 UNL A   1      36.142  20.503  25.107  1.00  0.00    +0.000 H 
ATOM    116  H23 UNL A   1      35.585  21.123  26.686  1.00  0.00    +0.000 H 
ATOM     21  C18 UNL A   1      35.943  21.365  25.708  1.00  0.00    +0.000 C 
BRANCH   21   20
ATOM    113  H20 UNL A   1      33.970  21.547  24.938  1.00  0.00    +0.000 H 
ATOM    114  H21 UNL A   1      34.684  23.039  25.646  1.00  0.00    +0.000 H 
ATOM     20  C17 UNL A   1      34.828  22.180  25.026  1.00  0.00    +0.000 C 
BRANCH   20   19
ATOM     19  C16 UNL A   1      35.147  22.734  23.627  1.00  0.00    +0.000 C 
ATOM    111  H18 UNL A   1      35.739  23.617  23.749  1.00  0.00    +0.000 H 
ATOM    112  H19 UNL A   1      35.650  21.947  23.105  1.00  0.00    +0.000 H 
BRANCH   19   18
ATOM     18  N2  UNL A   1      33.988  23.079  22.814  1.00  0.00    +0.000 N 
ATOM    110  H17 UNL A   1      34.015  22.705  21.903  1.00  0.00    +0.000 H 
BRANCH   18   16
ATOM     17  O1  UNL A   1      31.775  23.324  22.814  1.00  0.00    +0.000 O 
ATOM     16  C15 UNL A   1      32.871  23.824  23.072  1.00  0.00    +0.000 C 
BRANCH   16   15
ATOM    108  H15 UNL A   1      34.028  25.442  23.711  1.00  0.00    +0.000 H 
ATOM    109  H16 UNL A   1      32.454  25.816  22.869  1.00  0.00    +0.000 H 
ATOM     15  C14 UNL A   1      32.985  25.237  23.596  1.00  0.00    +0.000 C 
BRANCH   15   12
ATOM      3  C3  UNL A   1      34.021  29.823  27.229  1.00  0.00    +0.000 C 
ATOM      4  C4  UNL A   1      33.441  31.108  27.354  1.00  0.00    +0.000 C 
ATOM      5  C5  UNL A   1      32.258  31.468  26.712  1.00  0.00    +0.000 C 
ATOM      6  C6  UNL A   1      31.577  30.541  25.941  1.00  0.00    +0.000 C 
ATOM      7  C7  UNL A   1      32.105  29.246  25.812  1.00  0.00    +0.000 C 
ATOM      8  C8  UNL A   1      31.599  28.071  25.228  1.00  0.00    +0.000 C 
ATOM      9  C9  UNL A   1      32.516  27.052  25.365  1.00  0.00    +0.000 C 
ATOM     10  N1  UNL A   1      33.568  27.581  26.082  1.00  0.00    +0.000 N 
ATOM     11  C10 UNL A   1      33.311  28.908  26.418  1.00  0.00    +0.000 C 
ATOM     12  C11 UNL A   1      32.300  25.613  24.930  1.00  0.00    +0.000 C 
ATOM    140  H47 UNL A   1      30.116  28.503  23.835  1.00  0.00    +0.000 H 
ATOM    141  H48 UNL A   1      29.534  28.110  25.441  1.00  0.00    +0.000 H 
ATOM    138  H45 UNL A   1      29.039  26.177  24.439  1.00  0.00    +0.000 H 
ATOM    139  H46 UNL A   1      30.388  26.400  23.249  1.00  0.00    +0.000 H 
ATOM     91  O3  UNL A   1      30.863  25.423  24.923  1.00  0.00    +0.000 O 
ATOM     92  C67 UNL A   1      30.066  26.426  24.270  1.00  0.00    +0.000 C 
ATOM     93  C68 UNL A   1      30.253  27.869  24.686  1.00  0.00    +0.000 C 
ATOM     99  H6  UNL A   1      33.914  31.808  27.944  1.00  0.00    +0.000 H 
ATOM    100  H7  UNL A   1      31.889  32.427  26.813  1.00  0.00    +0.000 H 
ATOM    101  H8  UNL A   1      30.697  30.797  25.467  1.00  0.00    +0.000 H 
ATOM    102  H9  UNL A   1      34.387  27.090  26.322  1.00  0.00    +0.000 H 
BRANCH    3    2
ATOM     97  H4  UNL A   1      35.248  29.891  28.932  1.00  0.00    +0.000 H 
ATOM      2  C2  UNL A   1      35.282  29.438  27.963  1.00  0.00    +0.000 C 
ATOM     98  H5  UNL A   1      35.291  28.368  27.978  1.00  0.00    +0.000 H 
BRANCH    2    1
ATOM      1  C1  UNL A   1      36.595  29.848  27.303  1.00  0.00    +0.000 C 
ATOM     94  H1  UNL A   1      37.415  29.440  27.856  1.00  0.00    +0.000 H 
ATOM     95  H2  UNL A   1      36.669  30.915  27.290  1.00  0.00    +0.000 H 
ATOM     96  H3  UNL A   1      36.621  29.476  26.300  1.00  0.00    +0.000 H 
ENDBRANCH    2    1
ENDBRANCH    3    2
BRANCH   12   13
ATOM     13  C12 UNL A   1      32.818  24.640  26.042  1.00  0.00    +0.000 C 
ATOM    103  H10 UNL A   1      33.241  25.232  26.827  1.00  0.00    +0.000 H 
ATOM    104  H11 UNL A   1      33.521  23.993  25.560  1.00  0.00    +0.000 H 
BRANCH   13   14
ATOM    105  H12 UNL A   1      32.056  23.452  27.655  1.00  0.00    +0.000 H 
ATOM    106  H13 UNL A   1      31.663  22.835  26.068  1.00  0.00    +0.000 H 
ATOM    107  H14 UNL A   1      30.820  24.231  26.697  1.00  0.00    +0.000 H 
ATOM     14  C13 UNL A   1      31.759  23.720  26.662  1.00  0.00    +0.000 C 
ENDBRANCH   13   14
ENDBRANCH   12   13
ENDBRANCH   15   12
ENDBRANCH   16   15
ENDBRANCH   18   16
ENDBRANCH   19   18
ENDBRANCH   20   19
ENDBRANCH   21   20
ENDBRANCH   22   21
ENDBRANCH   23   22
ENDBRANCH   24   23
ENDBRANCH   25   24
ENDBRANCH   26   25
ENDBRANCH   28   26
ENDBRANCH   32   31
BRANCH   36   37
ATOM     37  C31 UNL A   1      44.459  32.642  27.476  1.00  0.00    +0.000 C 
ATOM     38  C32 UNL A   1      45.563  32.886  26.629  1.00  0.00    +0.000 C 
ATOM     39  F1  UNL A   1      46.380  31.887  26.264  1.00  0.00    +0.000 F 
ATOM     40  C33 UNL A   1      45.904  34.177  26.209  1.00  0.00    +0.000 C 
ATOM     41  F2  UNL A   1      47.027  34.374  25.504  1.00  0.00    +0.000 F 
ATOM     42  C34 UNL A   1      45.130  35.261  26.574  1.00  0.00    +0.000 C 
ATOM     43  F3  UNL A   1      45.486  36.503  26.223  1.00  0.00    +0.000 F 
ATOM     44  C35 UNL A   1      44.007  35.056  27.346  1.00  0.00    +0.000 C 
ATOM     45  F4  UNL A   1      43.257  36.098  27.732  1.00  0.00    +0.000 F 
ATOM     46  C36 UNL A   1      43.688  33.778  27.803  1.00  0.00    +0.000 C 
ATOM     47  F5  UNL A   1      42.668  33.723  28.666  1.00  0.00    +0.000 F 
ENDBRANCH   36   37
BRANCH   53   54
ATOM     54  C42 UNL A   1      42.201  30.557  33.656  1.00  0.00    +0.000 C 
ATOM     55  C43 UNL A   1      42.363  30.988  34.981  1.00  0.00    +0.000 C 
ATOM     56  F6  UNL A   1      42.655  32.268  35.256  1.00  0.00    +0.000 F 
ATOM     57  C44 UNL A   1      42.179  30.106  36.045  1.00  0.00    +0.000 C 
ATOM     58  F7  UNL A   1      42.348  30.529  37.306  1.00  0.00    +0.000 F 
ATOM     59  C45 UNL A   1      41.794  28.795  35.805  1.00  0.00    +0.000 C 
ATOM     60  F8  UNL A   1      41.576  27.958  36.829  1.00  0.00    +0.000 F 
ATOM     61  C46 UNL A   1      41.609  28.357  34.504  1.00  0.00    +0.000 C 
ATOM     62  F9  UNL A   1      41.198  27.103  34.267  1.00  0.00    +0.000 F 
ATOM     63  C47 UNL A   1      41.826  29.224  33.441  1.00  0.00    +0.000 C 
ATOM     64  F10 UNL A   1      41.629  28.775  32.191  1.00  0.00    +0.000 F 
ENDBRANCH   53   54
BRANCH   68   69
ATOM     69  C51 UNL A   1      36.743  31.892  30.729  1.00  0.00    +0.000 C 
ATOM     70  C52 UNL A   1      35.863  31.982  31.823  1.00  0.00    +0.000 C 
ATOM     71  F11 UNL A   1      36.087  31.261  32.932  1.00  0.00    +0.000 F 
ATOM     72  C53 UNL A   1      34.793  32.883  31.832  1.00  0.00    +0.000 C 
ATOM     73  F12 UNL A   1      34.030  33.003  32.927  1.00  0.00    +0.000 F 
ATOM     74  C54 UNL A   1      34.563  33.704  30.742  1.00  0.00    +0.000 C 
ATOM     75  F13 UNL A   1      33.592  34.627  30.782  1.00  0.00    +0.000 F 
ATOM     76  C55 UNL A   1      35.376  33.597  29.627  1.00  0.00    +0.000 C 
ATOM     77  F14 UNL A   1      35.181  34.409  28.579  1.00  0.00    +0.000 F 
ATOM     78  C56 UNL A   1      36.446  32.702  29.618  1.00  0.00    +0.000 C 
ATOM     79  F15 UNL A   1      37.252  32.714  28.546  1.00  0.00    +0.000 F 
ENDBRANCH   68   69
TORSDOF 20
ENDMDL
MODEL 9
REMARK VINA RESULT:     -10.7      2.941      8.457
ROOT
ATOM    129  H36 UNL A   1      41.755  27.012  25.277  1.00  0.00    +0.000 H 
ATOM    130  H37 UNL A   1      39.991  28.607  26.194  1.00  0.00    +0.000 H 
ATOM    131  H38 UNL A   1      42.639  27.787  29.300  1.00  0.00    +0.000 H 
ATOM    132  H39 UNL A   1      44.624  25.242  29.823  1.00  0.00    +0.000 H 
ATOM    133  H40 UNL A   1      45.522  27.145  31.320  1.00  0.00    +0.000 H 
ATOM    134  H41 UNL A   1      39.353  27.795  33.449  1.00  0.00    +0.000 H 
ATOM    135  H42 UNL A   1      38.525  27.364  31.046  1.00  0.00    +0.000 H 
ATOM     32  C27 UNL A   1      40.058  28.826  29.081  1.00  0.00    +0.000 C 
ATOM     33  C28 UNL A   1      40.298  28.688  30.542  1.00  0.00    +0.000 C 
ATOM     34  N4  UNL A   1      41.186  29.318  31.238  1.00  0.00    +0.000 N 
ATOM     35  C29 UNL A   1      41.054  28.846  32.540  1.00  0.00    +0.000 C 
ATOM     36  C30 UNL A   1      42.123  28.874  33.382  1.00  0.00    +0.000 C 
ATOM     48  C37 UNL A   1      43.148  29.753  32.881  1.00  0.00    +0.000 C 
ATOM     49  C38 UNL A   1      43.424  31.101  32.892  1.00  0.00    +0.000 C 
ATOM     50  C39 UNL A   1      44.329  31.338  31.812  1.00  0.00    +0.000 C 
ATOM     51  C40 UNL A   1      44.608  30.126  31.191  1.00  0.00    +0.000 C 
ATOM     52  N5  UNL A   1      43.915  29.187  31.903  1.00  0.00    +0.000 N 
ATOM     53  C41 UNL A   1      45.199  29.756  29.929  1.00  0.00    +0.000 C 
ATOM     65  C48 UNL A   1      45.385  28.461  29.552  1.00  0.00    +0.000 C 
ATOM     66  N6  UNL A   1      45.260  28.093  28.231  1.00  0.00    +0.000 N 
ATOM     67  C49 UNL A   1      44.731  26.902  28.284  1.00  0.00    +0.000 C 
ATOM     68  C50 UNL A   1      43.825  26.377  27.239  1.00  0.00    +0.000 C 
ATOM     80  C57 UNL A   1      42.680  27.101  27.287  1.00  0.00    +0.000 C 
ATOM     81  C58 UNL A   1      41.713  27.371  26.243  1.00  0.00    +0.000 C 
ATOM     82  C59 UNL A   1      40.745  28.168  26.745  1.00  0.00    +0.000 C 
ATOM     83  C60 UNL A   1      40.932  28.316  28.187  1.00  0.00    +0.000 C 
ATOM     84  N7  UNL A   1      42.173  27.745  28.435  1.00  0.00    +0.000 N 
ATOM     85  C61 UNL A   1      44.835  26.220  29.569  1.00  0.00    +0.000 C 
ATOM     86  C62 UNL A   1      45.282  27.229  30.320  1.00  0.00    +0.000 C 
ATOM     87  C63 UNL A   1      39.814  28.117  32.584  1.00  0.00    +0.000 C 
ATOM     88  C64 UNL A   1      39.343  27.915  31.350  1.00  0.00    +0.000 C 
ATOM    126  H33 UNL A   1      43.051  31.803  33.551  1.00  0.00    +0.000 H 
ATOM    127  H34 UNL A   1      44.712  32.257  31.539  1.00  0.00    +0.000 H 
ATOM    128  H35 UNL A   1      43.964  28.219  31.731  1.00  0.00    +0.000 H 
ENDROOT
BRANCH   32   31
ATOM    136  H43 UNL A   1      37.744  27.935  27.927  1.00  0.00    +0.000 H 
ATOM    137  H44 UNL A   1      35.749  29.241  27.512  1.00  0.00    +0.000 H 
ATOM    124  H31 UNL A   1      37.479  32.536  29.442  1.00  0.00    +0.000 H 
ATOM    125  H32 UNL A   1      39.542  31.309  29.664  1.00  0.00    +0.000 H 
ATOM     89  C65 UNL A   1      37.714  28.933  28.190  1.00  0.00    +0.000 C 
ATOM     90  C66 UNL A   1      36.561  29.685  27.968  1.00  0.00    +0.000 C 
ATOM     28  C23 UNL A   1      36.480  31.036  28.354  1.00  0.00    +0.000 C 
ATOM     29  C24 UNL A   1      37.555  31.586  29.047  1.00  0.00    +0.000 C 
ATOM     30  C25 UNL A   1      38.729  30.865  29.211  1.00  0.00    +0.000 C 
ATOM     31  C26 UNL A   1      38.821  29.540  28.765  1.00  0.00    +0.000 C 
BRANCH   28   26
ATOM     26  C22 UNL A   1      35.258  31.778  27.931  1.00  0.00    +0.000 C 
ATOM     27  O2  UNL A   1      35.361  32.981  27.661  1.00  0.00    +0.000 O 
BRANCH   26   25
ATOM     25  N3  UNL A   1      33.999  31.244  27.881  1.00  0.00    +0.000 N 
ATOM    123  H30 UNL A   1      33.492  31.358  28.718  1.00  0.00    +0.000 H 
BRANCH   25   24
ATOM    121  H28 UNL A   1      32.246  30.895  26.867  1.00  0.00    +0.000 H 
ATOM    122  H29 UNL A   1      33.743  30.749  25.921  1.00  0.00    +0.000 H 
ATOM     24  C21 UNL A   1      33.257  30.545  26.852  1.00  0.00    +0.000 C 
BRANCH   24   23
ATOM    119  H26 UNL A   1      33.551  28.577  26.110  1.00  0.00    +0.000 H 
ATOM     23  C20 UNL A   1      33.246  29.024  27.034  1.00  0.00    +0.000 C 
ATOM    120  H27 UNL A   1      33.912  28.813  27.845  1.00  0.00    +0.000 H 
BRANCH   23   22
ATOM    118  H25 UNL A   1      31.151  28.994  26.898  1.00  0.00    +0.000 H 
ATOM    117  H24 UNL A   1      31.792  28.500  28.488  1.00  0.00    +0.000 H 
ATOM     22  C19 UNL A   1      31.893  28.432  27.424  1.00  0.00    +0.000 C 
BRANCH   22   21
ATOM    115  H22 UNL A   1      32.542  26.689  26.418  1.00  0.00    +0.000 H 
ATOM    116  H23 UNL A   1      31.629  26.418  27.928  1.00  0.00    +0.000 H 
ATOM     21  C18 UNL A   1      31.706  26.976  27.020  1.00  0.00    +0.000 C 
BRANCH   21   20
ATOM    113  H20 UNL A   1      29.666  27.368  26.567  1.00  0.00    +0.000 H 
ATOM    114  H21 UNL A   1      30.689  26.814  25.194  1.00  0.00    +0.000 H 
ATOM     20  C17 UNL A   1      30.420  26.691  26.222  1.00  0.00    +0.000 C 
BRANCH   20   19
ATOM     19  C16 UNL A   1      29.853  25.266  26.329  1.00  0.00    +0.000 C 
ATOM    111  H18 UNL A   1      29.134  25.255  27.123  1.00  0.00    +0.000 H 
ATOM    112  H19 UNL A   1      29.436  25.041  25.369  1.00  0.00    +0.000 H 
BRANCH   19   18
ATOM     18  N2  UNL A   1      30.833  24.222  26.596  1.00  0.00    +0.000 N 
ATOM    110  H17 UNL A   1      31.544  24.493  27.222  1.00  0.00    +0.000 H 
BRANCH   18   16
ATOM     17  O1  UNL A   1      29.957  22.218  26.180  1.00  0.00    +0.000 O 
ATOM     16  C15 UNL A   1      30.956  22.937  26.144  1.00  0.00    +0.000 C 
BRANCH   16   15
ATOM    108  H15 UNL A   1      33.010  22.672  26.423  1.00  0.00    +0.000 H 
ATOM    109  H16 UNL A   1      32.107  21.359  25.536  1.00  0.00    +0.000 H 
ATOM     15  C14 UNL A   1      32.291  22.404  25.678  1.00  0.00    +0.000 C 
BRANCH   15   12
ATOM      3  C3  UNL A   1      31.705  27.610  22.875  1.00  0.00    +0.000 C 
ATOM      4  C4  UNL A   1      32.501  28.780  22.832  1.00  0.00    +0.000 C 
ATOM      5  C5  UNL A   1      33.802  28.827  23.327  1.00  0.00    +0.000 C 
ATOM      6  C6  UNL A   1      34.384  27.687  23.857  1.00  0.00    +0.000 C 
ATOM      7  C7  UNL A   1      33.638  26.498  23.895  1.00  0.00    +0.000 C 
ATOM      8  C8  UNL A   1      33.979  25.178  24.237  1.00  0.00    +0.000 C 
ATOM      9  C9  UNL A   1      32.873  24.366  24.110  1.00  0.00    +0.000 C 
ATOM     10  N1  UNL A   1      31.860  25.173  23.638  1.00  0.00    +0.000 N 
ATOM     11  C10 UNL A   1      32.323  26.472  23.441  1.00  0.00    +0.000 C 
ATOM     12  C11 UNL A   1      32.861  22.860  24.315  1.00  0.00    +0.000 C 
ATOM    140  H47 UNL A   1      35.680  25.125  25.431  1.00  0.00    +0.000 H 
ATOM    141  H48 UNL A   1      35.969  24.894  23.717  1.00  0.00    +0.000 H 
ATOM    138  H45 UNL A   1      36.205  22.772  24.371  1.00  0.00    +0.000 H 
ATOM    139  H46 UNL A   1      35.085  23.034  25.772  1.00  0.00    +0.000 H 
ATOM     91  O3  UNL A   1      34.224  22.428  24.078  1.00  0.00    +0.000 O 
ATOM     92  C67 UNL A   1      35.275  23.164  24.727  1.00  0.00    +0.000 C 
ATOM     93  C68 UNL A   1      35.318  24.665  24.536  1.00  0.00    +0.000 C 
ATOM     99  H6  UNL A   1      32.101  29.635  22.417  1.00  0.00    +0.000 H 
ATOM    100  H7  UNL A   1      34.333  29.712  23.297  1.00  0.00    +0.000 H 
ATOM    101  H8  UNL A   1      35.350  27.711  24.221  1.00  0.00    +0.000 H 
ATOM    102  H9  UNL A   1      30.939  24.873  23.463  1.00  0.00    +0.000 H 
BRANCH    3    2
ATOM     97  H4  UNL A   1      30.351  27.981  21.313  1.00  0.00    +0.000 H 
ATOM      2  C2  UNL A   1      30.311  27.567  22.298  1.00  0.00    +0.000 C 
ATOM     98  H5  UNL A   1      30.018  26.538  22.332  1.00  0.00    +0.000 H 
BRANCH    2    1
ATOM      1  C1  UNL A   1      29.239  28.323  23.077  1.00  0.00    +0.000 C 
ATOM     94  H1  UNL A   1      28.285  28.158  22.622  1.00  0.00    +0.000 H 
ATOM     95  H2  UNL A   1      29.463  29.369  23.068  1.00  0.00    +0.000 H 
ATOM     96  H3  UNL A   1      29.218  27.971  24.087  1.00  0.00    +0.000 H 
ENDBRANCH    2    1
ENDBRANCH    3    2
BRANCH   12   13
ATOM     13  C12 UNL A   1      32.029  22.177  23.178  1.00  0.00    +0.000 C 
ATOM    103  H10 UNL A   1      32.291  22.644  22.252  1.00  0.00    +0.000 H 
ATOM    104  H11 UNL A   1      31.003  22.301  23.451  1.00  0.00    +0.000 H 
BRANCH   13   14
ATOM    105  H12 UNL A   1      32.852  20.306  23.823  1.00  0.00    +0.000 H 
ATOM    106  H13 UNL A   1      32.726  20.469  22.088  1.00  0.00    +0.000 H 
ATOM    107  H14 UNL A   1      31.294  20.169  23.044  1.00  0.00    +0.000 H 
ATOM     14  C13 UNL A   1      32.241  20.666  23.021  1.00  0.00    +0.000 C 
ENDBRANCH   13   14
ENDBRANCH   12   13
ENDBRANCH   15   12
ENDBRANCH   16   15
ENDBRANCH   18   16
ENDBRANCH   19   18
ENDBRANCH   20   19
ENDBRANCH   21   20
ENDBRANCH   22   21
ENDBRANCH   23   22
ENDBRANCH   24   23
ENDBRANCH   25   24
ENDBRANCH   26   25
ENDBRANCH   28   26
ENDBRANCH   32   31
BRANCH   36   37
ATOM     37  C31 UNL A   1      42.486  27.760  34.344  1.00  0.00    +0.000 C 
ATOM     38  C32 UNL A   1      43.015  26.557  33.828  1.00  0.00    +0.000 C 
ATOM     39  F1  UNL A   1      43.464  26.493  32.566  1.00  0.00    +0.000 F 
ATOM     40  C33 UNL A   1      43.013  25.368  34.567  1.00  0.00    +0.000 C 
ATOM     41  F2  UNL A   1      43.417  24.226  33.994  1.00  0.00    +0.000 F 
ATOM     42  C34 UNL A   1      42.534  25.348  35.862  1.00  0.00    +0.000 C 
ATOM     43  F3  UNL A   1      42.477  24.202  36.552  1.00  0.00    +0.000 F 
ATOM     44  C35 UNL A   1      42.069  26.517  36.425  1.00  0.00    +0.000 C 
ATOM     45  F4  UNL A   1      41.576  26.513  37.672  1.00  0.00    +0.000 F 
ATOM     46  C36 UNL A   1      42.028  27.694  35.678  1.00  0.00    +0.000 C 
ATOM     47  F5  UNL A   1      41.418  28.723  36.275  1.00  0.00    +0.000 F 
ENDBRANCH   36   37
BRANCH   53   54
ATOM     54  C42 UNL A   1      45.451  30.822  28.915  1.00  0.00    +0.000 C 
ATOM     55  C43 UNL A   1      46.697  31.425  28.689  1.00  0.00    +0.000 C 
ATOM     56  F6  UNL A   1      47.773  31.067  29.406  1.00  0.00    +0.000 F 
ATOM     57  C44 UNL A   1      46.856  32.378  27.684  1.00  0.00    +0.000 C 
ATOM     58  F7  UNL A   1      48.050  32.954  27.486  1.00  0.00    +0.000 F 
ATOM     59  C45 UNL A   1      45.787  32.713  26.865  1.00  0.00    +0.000 C 
ATOM     60  F8  UNL A   1      45.950  33.598  25.872  1.00  0.00    +0.000 F 
ATOM     61  C46 UNL A   1      44.554  32.113  27.060  1.00  0.00    +0.000 C 
ATOM     62  F9  UNL A   1      43.527  32.402  26.248  1.00  0.00    +0.000 F 
ATOM     63  C47 UNL A   1      44.384  31.189  28.084  1.00  0.00    +0.000 C 
ATOM     64  F10 UNL A   1      43.180  30.616  28.242  1.00  0.00    +0.000 F 
ENDBRANCH   53   54
BRANCH   68   69
ATOM     69  C51 UNL A   1      44.110  25.106  26.533  1.00  0.00    +0.000 C 
ATOM     70  C52 UNL A   1      43.107  24.135  26.365  1.00  0.00    +0.000 C 
ATOM     71  F11 UNL A   1      41.974  24.203  27.081  1.00  0.00    +0.000 F 
ATOM     72  C53 UNL A   1      43.211  23.131  25.397  1.00  0.00    +0.000 C 
ATOM     73  F12 UNL A   1      42.195  22.278  25.208  1.00  0.00    +0.000 F 
ATOM     74  C54 UNL A   1      44.327  23.062  24.581  1.00  0.00    +0.000 C 
ATOM     75  F13 UNL A   1      44.391  22.155  23.597  1.00  0.00    +0.000 F 
ATOM     76  C55 UNL A   1      45.358  23.968  24.761  1.00  0.00    +0.000 C 
ATOM     77  F14 UNL A   1      46.429  23.928  23.956  1.00  0.00    +0.000 F 
ATOM     78  C56 UNL A   1      45.254  24.972  25.725  1.00  0.00    +0.000 C 
ATOM     79  F15 UNL A   1      46.244  25.874  25.784  1.00  0.00    +0.000 F 
ENDBRANCH   68   69
TORSDOF 20
ENDMDL
MODEL 10
REMARK VINA RESULT:     -10.5     26.441     32.787
ROOT
ATOM    129  H36 UNL A   1      25.725  20.654   6.080  1.00  0.00    +0.000 H 
ATOM    130  H37 UNL A   1      23.244  21.047   5.651  1.00  0.00    +0.000 H 
ATOM    131  H38 UNL A   1      23.800  16.932   5.962  1.00  0.00    +0.000 H 
ATOM    132  H39 UNL A   1      26.444  15.074   5.471  1.00  0.00    +0.000 H 
ATOM    133  H40 UNL A   1      24.833  13.634   6.886  1.00  0.00    +0.000 H 
ATOM    134  H41 UNL A   1      20.255  15.172   2.449  1.00  0.00    +0.000 H 
ATOM    135  H42 UNL A   1      21.229  17.556   2.336  1.00  0.00    +0.000 H 
ATOM     32  C27 UNL A   1      21.820  18.623   4.956  1.00  0.00    +0.000 C 
ATOM     33  C28 UNL A   1      21.387  17.251   4.579  1.00  0.00    +0.000 C 
ATOM     34  N4  UNL A   1      21.065  16.297   5.389  1.00  0.00    +0.000 N 
ATOM     35  C29 UNL A   1      20.759  15.202   4.586  1.00  0.00    +0.000 C 
ATOM     36  C30 UNL A   1      20.905  13.941   5.077  1.00  0.00    +0.000 C 
ATOM     48  C37 UNL A   1      21.008  13.958   6.513  1.00  0.00    +0.000 C 
ATOM     49  C38 UNL A   1      20.155  14.006   7.591  1.00  0.00    +0.000 C 
ATOM     50  C39 UNL A   1      20.927  14.475   8.698  1.00  0.00    +0.000 C 
ATOM     51  C40 UNL A   1      22.238  14.668   8.276  1.00  0.00    +0.000 C 
ATOM     52  N5  UNL A   1      22.254  14.292   6.963  1.00  0.00    +0.000 N 
ATOM     53  C41 UNL A   1      23.378  15.362   8.823  1.00  0.00    +0.000 C 
ATOM     65  C48 UNL A   1      24.591  15.386   8.208  1.00  0.00    +0.000 C 
ATOM     66  N6  UNL A   1      25.391  16.505   8.284  1.00  0.00    +0.000 N 
ATOM     67  C49 UNL A   1      25.972  16.558   7.117  1.00  0.00    +0.000 C 
ATOM     68  C50 UNL A   1      26.365  17.830   6.472  1.00  0.00    +0.000 C 
ATOM     80  C57 UNL A   1      25.228  18.497   6.154  1.00  0.00    +0.000 C 
ATOM     81  C58 UNL A   1      25.006  19.919   5.993  1.00  0.00    +0.000 C 
ATOM     82  C59 UNL A   1      23.702  20.124   5.706  1.00  0.00    +0.000 C 
ATOM     83  C60 UNL A   1      23.041  18.839   5.488  1.00  0.00    +0.000 C 
ATOM     84  N7  UNL A   1      23.981  17.896   5.882  1.00  0.00    +0.000 N 
ATOM     85  C61 UNL A   1      25.948  15.324   6.341  1.00  0.00    +0.000 C 
ATOM     86  C62 UNL A   1      25.098  14.611   7.084  1.00  0.00    +0.000 C 
ATOM     87  C63 UNL A   1      20.642  15.705   3.243  1.00  0.00    +0.000 C 
ATOM     88  C64 UNL A   1      21.104  16.956   3.166  1.00  0.00    +0.000 C 
ATOM    126  H33 UNL A   1      19.154  13.754   7.599  1.00  0.00    +0.000 H 
ATOM    127  H34 UNL A   1      20.571  14.641   9.653  1.00  0.00    +0.000 H 
ATOM    128  H35 UNL A   1      23.066  14.265   6.406  1.00  0.00    +0.000 H 
ENDROOT
BRANCH   32   31
ATOM    136  H43 UNL A   1      21.908  20.811   3.317  1.00  0.00    +0.000 H 
ATOM    137  H44 UNL A   1      20.115  22.390   2.929  1.00  0.00    +0.000 H 
ATOM    124  H31 UNL A   1      17.547  20.092   5.316  1.00  0.00    +0.000 H 
ATOM    125  H32 UNL A   1      19.387  18.638   5.877  1.00  0.00    +0.000 H 
ATOM     89  C65 UNL A   1      21.001  20.694   3.796  1.00  0.00    +0.000 C 
ATOM     90  C66 UNL A   1      19.961  21.591   3.563  1.00  0.00    +0.000 C 
ATOM     28  C23 UNL A   1      18.701  21.430   4.172  1.00  0.00    +0.000 C 
ATOM     29  C24 UNL A   1      18.491  20.295   4.951  1.00  0.00    +0.000 C 
ATOM     30  C25 UNL A   1      19.540  19.436   5.241  1.00  0.00    +0.000 C 
ATOM     31  C26 UNL A   1      20.807  19.642   4.681  1.00  0.00    +0.000 C 
BRANCH   28   26
ATOM     26  C22 UNL A   1      17.717  22.530   3.969  1.00  0.00    +0.000 C 
ATOM     27  O2  UNL A   1      18.112  23.700   4.048  1.00  0.00    +0.000 O 
BRANCH   26   25
ATOM     25  N3  UNL A   1      16.376  22.349   3.764  1.00  0.00    +0.000 N 
ATOM    123  H30 UNL A   1      15.893  22.058   4.571  1.00  0.00    +0.000 H 
BRANCH   25   24
ATOM    121  H28 UNL A   1      14.545  22.131   2.855  1.00  0.00    +0.000 H 
ATOM    122  H29 UNL A   1      15.510  23.537   2.353  1.00  0.00    +0.000 H 
ATOM     24  C21 UNL A   1      15.520  22.497   2.605  1.00  0.00    +0.000 C 
BRANCH   24   23
ATOM    119  H26 UNL A   1      16.866  21.148   1.668  1.00  0.00    +0.000 H 
ATOM     23  C20 UNL A   1      16.022  21.737   1.374  1.00  0.00    +0.000 C 
ATOM    120  H27 UNL A   1      15.198  21.150   1.025  1.00  0.00    +0.000 H 
BRANCH   23   22
ATOM    118  H25 UNL A   1      15.601  23.230  -0.042  1.00  0.00    +0.000 H 
ATOM    117  H24 UNL A   1      16.745  21.983  -0.607  1.00  0.00    +0.000 H 
ATOM     22  C19 UNL A   1      16.445  22.620   0.200  1.00  0.00    +0.000 C 
BRANCH   22   21
ATOM    115  H22 UNL A   1      17.557  24.377  -0.187  1.00  0.00    +0.000 H 
ATOM    116  H23 UNL A   1      17.460  23.882   1.526  1.00  0.00    +0.000 H 
ATOM     21  C18 UNL A   1      17.594  23.568   0.513  1.00  0.00    +0.000 C 
BRANCH   21   20
ATOM    113  H20 UNL A   1      18.987  22.054   1.051  1.00  0.00    +0.000 H 
ATOM    114  H21 UNL A   1      19.163  22.740  -0.604  1.00  0.00    +0.000 H 
ATOM     20  C17 UNL A   1      18.993  22.930   0.435  1.00  0.00    +0.000 C 
BRANCH   20   19
ATOM     19  C16 UNL A   1      20.171  23.810   0.887  1.00  0.00    +0.000 C 
ATOM    111  H18 UNL A   1      19.797  24.798   1.060  1.00  0.00    +0.000 H 
ATOM    112  H19 UNL A   1      20.571  23.342   1.762  1.00  0.00    +0.000 H 
BRANCH   19   18
ATOM     18  N2  UNL A   1      21.276  23.907  -0.058  1.00  0.00    +0.000 N 
ATOM    110  H17 UNL A   1      22.080  23.409   0.218  1.00  0.00    +0.000 H 
BRANCH   18   16
ATOM     17  O1  UNL A   1      21.472  23.873  -2.275  1.00  0.00    +0.000 O 
ATOM     16  C15 UNL A   1      21.411  24.558  -1.253  1.00  0.00    +0.000 C 
BRANCH   16   15
ATOM    108  H15 UNL A   1      21.634  26.401  -0.296  1.00  0.00    +0.000 H 
ATOM    109  H16 UNL A   1      22.392  26.214  -1.945  1.00  0.00    +0.000 H 
ATOM     15  C14 UNL A   1      21.547  26.061  -1.306  1.00  0.00    +0.000 C 
BRANCH   15   12
ATOM      3  C3  UNL A   1      19.087  31.171   0.469  1.00  0.00    +0.000 C 
ATOM      4  C4  UNL A   1      19.354  32.528   0.168  1.00  0.00    +0.000 C 
ATOM      5  C5  UNL A   1      20.193  32.921  -0.873  1.00  0.00    +0.000 C 
ATOM      6  C6  UNL A   1      20.777  31.967  -1.690  1.00  0.00    +0.000 C 
ATOM      7  C7  UNL A   1      20.518  30.609  -1.442  1.00  0.00    +0.000 C 
ATOM      8  C8  UNL A   1      20.842  29.439  -2.151  1.00  0.00    +0.000 C 
ATOM      9  C9  UNL A   1      20.353  28.340  -1.480  1.00  0.00    +0.000 C 
ATOM     10  N1  UNL A   1      19.679  28.832  -0.383  1.00  0.00    +0.000 N 
ATOM     11  C10 UNL A   1      19.716  30.224  -0.372  1.00  0.00    +0.000 C 
ATOM     12  C11 UNL A   1      20.433  26.904  -1.971  1.00  0.00    +0.000 C 
ATOM    140  H47 UNL A   1      22.454  29.755  -3.426  1.00  0.00    +0.000 H 
ATOM    141  H48 UNL A   1      20.875  29.924  -4.170  1.00  0.00    +0.000 H 
ATOM    138  H45 UNL A   1      21.409  27.924  -5.005  1.00  0.00    +0.000 H 
ATOM    139  H46 UNL A   1      22.459  27.559  -3.573  1.00  0.00    +0.000 H 
ATOM     91  O3  UNL A   1      20.552  26.995  -3.413  1.00  0.00    +0.000 O 
ATOM     92  C67 UNL A   1      21.521  27.919  -3.941  1.00  0.00    +0.000 C 
ATOM     93  C68 UNL A   1      21.461  29.358  -3.476  1.00  0.00    +0.000 C 
ATOM     99  H6  UNL A   1      18.909  33.259   0.744  1.00  0.00    +0.000 H 
ATOM    100  H7  UNL A   1      20.377  33.924  -1.036  1.00  0.00    +0.000 H 
ATOM    101  H8  UNL A   1      21.396  32.249  -2.467  1.00  0.00    +0.000 H 
ATOM    102  H9  UNL A   1      19.234  28.277   0.298  1.00  0.00    +0.000 H 
BRANCH    3    2
ATOM     97  H4  UNL A   1      17.319  30.251   1.130  1.00  0.00    +0.000 H 
ATOM      2  C2  UNL A   1      18.145  30.765   1.575  1.00  0.00    +0.000 C 
ATOM     98  H5  UNL A   1      18.727  30.166   2.244  1.00  0.00    +0.000 H 
BRANCH    2    1
ATOM      1  C1  UNL A   1      17.582  31.899   2.427  1.00  0.00    +0.000 C 
ATOM     94  H1  UNL A   1      18.343  32.634   2.590  1.00  0.00    +0.000 H 
ATOM     95  H2  UNL A   1      17.255  31.509   3.368  1.00  0.00    +0.000 H 
ATOM     96  H3  UNL A   1      16.754  32.349   1.919  1.00  0.00    +0.000 H 
ENDBRANCH    2    1
ENDBRANCH    3    2
BRANCH   12   13
ATOM     13  C12 UNL A   1      19.063  26.185  -1.736  1.00  0.00    +0.000 C 
ATOM    103  H10 UNL A   1      18.767  26.363  -0.723  1.00  0.00    +0.000 H 
ATOM    104  H11 UNL A   1      19.231  25.154  -1.964  1.00  0.00    +0.000 H 
BRANCH   13   14
ATOM    105  H12 UNL A   1      17.629  25.825  -3.287  1.00  0.00    +0.000 H 
ATOM    106  H13 UNL A   1      18.237  27.463  -3.244  1.00  0.00    +0.000 H 
ATOM    107  H14 UNL A   1      17.079  26.929  -2.050  1.00  0.00    +0.000 H 
ATOM     14  C13 UNL A   1      17.915  26.635  -2.648  1.00  0.00    +0.000 C 
ENDBRANCH   13   14
ENDBRANCH   12   13
ENDBRANCH   15   12
ENDBRANCH   16   15
ENDBRANCH   18   16
ENDBRANCH   19   18
ENDBRANCH   20   19
ENDBRANCH   21   20
ENDBRANCH   22   21
ENDBRANCH   23   22
ENDBRANCH   24   23
ENDBRANCH   25   24
ENDBRANCH   26   25
ENDBRANCH   28   26
ENDBRANCH   32   31
BRANCH   36   37
ATOM     37  C31 UNL A   1      21.476  12.777   4.290  1.00  0.00    +0.000 C 
ATOM     38  C32 UNL A   1      22.789  12.874   3.781  1.00  0.00    +0.000 C 
ATOM     39  F1  UNL A   1      23.623  13.830   4.218  1.00  0.00    +0.000 F 
ATOM     40  C33 UNL A   1      23.248  12.049   2.748  1.00  0.00    +0.000 C 
ATOM     41  F2  UNL A   1      24.461  12.256   2.218  1.00  0.00    +0.000 F 
ATOM     42  C34 UNL A   1      22.433  11.064   2.223  1.00  0.00    +0.000 C 
ATOM     43  F3  UNL A   1      22.848  10.311   1.196  1.00  0.00    +0.000 F 
ATOM     44  C35 UNL A   1      21.166  10.894   2.738  1.00  0.00    +0.000 C 
ATOM     45  F4  UNL A   1      20.352   9.961   2.225  1.00  0.00    +0.000 F 
ATOM     46  C36 UNL A   1      20.690  11.743   3.737  1.00  0.00    +0.000 C 
ATOM     47  F5  UNL A   1      19.400  11.582   4.050  1.00  0.00    +0.000 F 
ENDBRANCH   36   37
BRANCH   53   54
ATOM     54  C42 UNL A   1      23.179  16.241  10.012  1.00  0.00    +0.000 C 
ATOM     55  C43 UNL A   1      22.647  17.538   9.961  1.00  0.00    +0.000 C 
ATOM     56  F6  UNL A   1      22.278  18.084   8.793  1.00  0.00    +0.000 F 
ATOM     57  C44 UNL A   1      22.447  18.273  11.129  1.00  0.00    +0.000 C 
ATOM     58  F7  UNL A   1      21.948  19.515  11.065  1.00  0.00    +0.000 F 
ATOM     59  C45 UNL A   1      22.737  17.712  12.364  1.00  0.00    +0.000 C 
ATOM     60  F8  UNL A   1      22.506  18.401  13.490  1.00  0.00    +0.000 F 
ATOM     61  C46 UNL A   1      23.245  16.425  12.436  1.00  0.00    +0.000 C 
ATOM     62  F9  UNL A   1      23.490  15.861  13.627  1.00  0.00    +0.000 F 
ATOM     63  C47 UNL A   1      23.478  15.703  11.271  1.00  0.00    +0.000 C 
ATOM     64  F10 UNL A   1      23.960  14.455  11.371  1.00  0.00    +0.000 F 
ENDBRANCH   53   54
BRANCH   68   69
ATOM     69  C51 UNL A   1      27.760  18.082   6.041  1.00  0.00    +0.000 C 
ATOM     70  C52 UNL A   1      28.790  18.230   6.987  1.00  0.00    +0.000 C 
ATOM     71  F11 UNL A   1      28.495  18.435   8.280  1.00  0.00    +0.000 F 
ATOM     72  C53 UNL A   1      30.135  18.077   6.638  1.00  0.00    +0.000 C 
ATOM     73  F12 UNL A   1      31.082  18.137   7.584  1.00  0.00    +0.000 F 
ATOM     74  C54 UNL A   1      30.488  17.790   5.331  1.00  0.00    +0.000 C 
ATOM     75  F13 UNL A   1      31.768  17.558   5.010  1.00  0.00    +0.000 F 
ATOM     76  C55 UNL A   1      29.501  17.697   4.365  1.00  0.00    +0.000 C 
ATOM     77  F14 UNL A   1      29.830  17.389   3.102  1.00  0.00    +0.000 F 
ATOM     78  C56 UNL A   1      28.158  17.846   4.713  1.00  0.00    +0.000 C 
ATOM     79  F15 UNL A   1      27.246  17.650   3.750  1.00  0.00    +0.000 F 
ENDBRANCH   68   69
TORSDOF 20
ENDMDL
