MODEL 1
REMARK VINA RESULT:      -9.0      0.000      0.000
ROOT
ATOM     28  C20 UNL A   1      13.275  49.413   3.377  1.00  0.00    +0.000 C 
ATOM     29  C21 UNL A   1      13.354  50.753   4.059  1.00  0.00    +0.000 C 
ATOM     30  N4  UNL A   1      14.009  51.829   3.696  1.00  0.00    +0.000 N 
ATOM     31  C22 UNL A   1      13.733  52.788   4.663  1.00  0.00    +0.000 C 
ATOM     32  C23 UNL A   1      14.200  54.056   4.754  1.00  0.00    +0.000 C 
ATOM     44  C30 UNL A   1      15.119  54.656   3.822  1.00  0.00    +0.000 C 
ATOM     45  C31 UNL A   1      15.659  55.931   3.844  1.00  0.00    +0.000 C 
ATOM     46  C32 UNL A   1      16.483  56.076   2.724  1.00  0.00    +0.000 C 
ATOM     47  C33 UNL A   1      16.483  54.881   2.023  1.00  0.00    +0.000 C 
ATOM     48  N5  UNL A   1      15.639  54.020   2.706  1.00  0.00    +0.000 N 
ATOM     49  C34 UNL A   1      17.194  54.547   0.816  1.00  0.00    +0.000 C 
ATOM     61  C41 UNL A   1      17.180  53.333   0.217  1.00  0.00    +0.000 C 
ATOM     62  N6  UNL A   1      16.497  52.186   0.592  1.00  0.00    +0.000 N 
ATOM     63  C42 UNL A   1      16.777  51.286  -0.319  1.00  0.00    +0.000 C 
ATOM     64  C43 UNL A   1      16.308  49.863  -0.421  1.00  0.00    +0.000 C 
ATOM     76  C50 UNL A   1      15.427  49.390   0.481  1.00  0.00    +0.000 C 
ATOM     77  C51 UNL A   1      14.878  48.038   0.496  1.00  0.00    +0.000 C 
ATOM     78  C52 UNL A   1      14.010  47.928   1.514  1.00  0.00    +0.000 C 
ATOM     79  C53 UNL A   1      13.983  49.190   2.255  1.00  0.00    +0.000 C 
ATOM     80  N7  UNL A   1      14.835  50.007   1.555  1.00  0.00    +0.000 N 
ATOM     81  C54 UNL A   1      17.674  51.765  -1.381  1.00  0.00    +0.000 C 
ATOM     82  C55 UNL A   1      17.912  53.010  -0.992  1.00  0.00    +0.000 C 
ATOM     83  C56 UNL A   1      12.834  52.178   5.618  1.00  0.00    +0.000 C 
ATOM     84  C57 UNL A   1      12.602  50.908   5.315  1.00  0.00    +0.000 C 
ATOM    109  H23 UNL A   1      15.485  56.650   4.563  1.00  0.00    +0.000 H 
ATOM    110  H24 UNL A   1      17.004  56.928   2.463  1.00  0.00    +0.000 H 
ATOM    111  H25 UNL A   1      15.439  53.093   2.439  1.00  0.00    +0.000 H 
ATOM    112  H26 UNL A   1      15.118  47.285  -0.168  1.00  0.00    +0.000 H 
ATOM    113  H27 UNL A   1      13.452  47.091   1.738  1.00  0.00    +0.000 H 
ATOM    114  H28 UNL A   1      15.006  50.946   1.800  1.00  0.00    +0.000 H 
ATOM    115  H29 UNL A   1      18.027  51.263  -2.211  1.00  0.00    +0.000 H 
ATOM    116  H30 UNL A   1      18.536  53.666  -1.487  1.00  0.00    +0.000 H 
ATOM    117  H31 UNL A   1      12.426  52.669   6.429  1.00  0.00    +0.000 H 
ATOM    118  H32 UNL A   1      12.041  50.210   5.827  1.00  0.00    +0.000 H 
ENDROOT
BRANCH   28   27
ATOM     27  C19 UNL A   1      12.479  48.310   3.977  1.00  0.00    +0.000 C 
ATOM    107  H21 UNL A   1      12.759  45.863   6.265  1.00  0.00    +0.000 H 
ATOM    108  H22 UNL A   1      14.063  47.600   5.188  1.00  0.00    +0.000 H 
ATOM     85  C58 UNL A   1      11.135  48.109   3.629  1.00  0.00    +0.000 C 
ATOM     86  C59 UNL A   1      10.359  47.182   4.330  1.00  0.00    +0.000 C 
ATOM    120  H34 UNL A   1       9.361  47.057   4.094  1.00  0.00    +0.000 H 
ATOM     24  C16 UNL A   1      10.938  46.425   5.352  1.00  0.00    +0.000 C 
ATOM     25  C17 UNL A   1      12.309  46.513   5.602  1.00  0.00    +0.000 C 
ATOM     26  C18 UNL A   1      13.064  47.486   4.952  1.00  0.00    +0.000 C 
ATOM    119  H33 UNL A   1      10.719  48.647   2.852  1.00  0.00    +0.000 H 
BRANCH   24   22
ATOM     22  C15 UNL A   1      10.068  45.587   6.204  1.00  0.00    +0.000 C 
ATOM     23  O3  UNL A   1       9.034  45.113   5.745  1.00  0.00    +0.000 O 
BRANCH   22   21
ATOM    106  H20 UNL A   1      10.956  44.596   7.711  1.00  0.00    +0.000 H 
ATOM     21  N3  UNL A   1      10.405  45.390   7.525  1.00  0.00    +0.000 N 
BRANCH   21   20
ATOM    105  H19 UNL A   1       9.190  45.754   9.128  1.00  0.00    +0.000 H 
ATOM     20  C14 UNL A   1      10.055  46.199   8.683  1.00  0.00    +0.000 C 
ATOM    104  H18 UNL A   1       9.873  47.201   8.355  1.00  0.00    +0.000 H 
BRANCH   20   19
ATOM     19  C13 UNL A   1      11.141  46.232   9.753  1.00  0.00    +0.000 C 
ATOM    102  H16 UNL A   1      11.086  47.178  10.250  1.00  0.00    +0.000 H 
ATOM    103  H17 UNL A   1      10.948  45.396  10.392  1.00  0.00    +0.000 H 
BRANCH   19   18
ATOM     18  C12 UNL A   1      12.572  46.050   9.246  1.00  0.00    +0.000 C 
ATOM    100  H14 UNL A   1      13.099  45.448   9.958  1.00  0.00    +0.000 H 
ATOM    101  H15 UNL A   1      12.484  45.601   8.279  1.00  0.00    +0.000 H 
BRANCH   18   17
ATOM     17  C11 UNL A   1      13.372  47.339   9.037  1.00  0.00    +0.000 C 
ATOM     98  H12 UNL A   1      14.024  47.188   8.202  1.00  0.00    +0.000 H 
ATOM     99  H13 UNL A   1      12.645  48.109   8.892  1.00  0.00    +0.000 H 
BRANCH   17   16
ATOM     97  H11 UNL A   1      14.177  47.013  10.950  1.00  0.00    +0.000 H 
ATOM     96  H10 UNL A   1      13.838  48.730  10.574  1.00  0.00    +0.000 H 
ATOM     16  C10 UNL A   1      14.230  47.798  10.224  1.00  0.00    +0.000 C 
BRANCH   16   15
ATOM     95  H9  UNL A   1      15.885  47.709   8.903  1.00  0.00    +0.000 H 
ATOM     94  H8  UNL A   1      16.288  47.387  10.591  1.00  0.00    +0.000 H 
ATOM     15  C9  UNL A   1      15.714  47.993   9.920  1.00  0.00    +0.000 C 
BRANCH   15   14
ATOM     93  H7  UNL A   1      16.055  49.786  10.969  1.00  0.00    +0.000 H 
ATOM     14  N2  UNL A   1      16.116  49.376  10.077  1.00  0.00    +0.000 N 
BRANCH   14    2
ATOM      1  O1  UNL A   1      17.683  50.676   9.003  1.00  0.00    +0.000 O 
ATOM      2  C1  UNL A   1      16.580  50.140   9.025  1.00  0.00    +0.000 C 
BRANCH    2    3
ATOM      3  C2  UNL A   1      15.576  50.294   7.883  1.00  0.00    +0.000 C 
ATOM     87  H1  UNL A   1      15.137  51.267   7.952  1.00  0.00    +0.000 H 
ATOM     88  H2  UNL A   1      14.859  49.507   7.995  1.00  0.00    +0.000 H 
BRANCH    3    4
ATOM      4  C3  UNL A   1      16.179  50.141   6.505  1.00  0.00    +0.000 C 
ATOM      5  C4  UNL A   1      16.263  48.794   5.974  1.00  0.00    +0.000 C 
ATOM      6  C5  UNL A   1      16.837  48.567   4.786  1.00  0.00    +0.000 C 
ATOM      7  N1  UNL A   1      17.356  49.604   4.032  1.00  0.00    +0.000 N 
ATOM     11  C7  UNL A   1      17.310  50.923   4.451  1.00  0.00    +0.000 C 
ATOM     12  O2  UNL A   1      17.777  51.884   3.849  1.00  0.00    +0.000 O 
ATOM     13  C8  UNL A   1      16.653  51.160   5.767  1.00  0.00    +0.000 C 
ATOM     89  H3  UNL A   1      15.877  48.005   6.515  1.00  0.00    +0.000 H 
ATOM     90  H4  UNL A   1      16.894  47.601   4.426  1.00  0.00    +0.000 H 
ATOM     92  H6  UNL A   1      16.558  52.126   6.118  1.00  0.00    +0.000 H 
BRANCH    7    8
ATOM      9  F1  UNL A   1      19.364  49.480   2.899  1.00  0.00    +0.000 F 
ATOM     10  F2  UNL A   1      17.766  48.078   2.360  1.00  0.00    +0.000 F 
ATOM     91  H5  UNL A   1      17.647  50.050   2.075  1.00  0.00    +0.000 H 
ATOM      8  C6  UNL A   1      18.021  49.340   2.783  1.00  0.00    +0.000 C 
ENDBRANCH    7    8
ENDBRANCH    3    4
ENDBRANCH    2    3
ENDBRANCH   14    2
ENDBRANCH   15   14
ENDBRANCH   16   15
ENDBRANCH   17   16
ENDBRANCH   18   17
ENDBRANCH   19   18
ENDBRANCH   20   19
ENDBRANCH   21   20
ENDBRANCH   22   21
ENDBRANCH   24   22
ENDBRANCH   28   27
BRANCH   32   33
ATOM     33  C24 UNL A   1      13.724  54.894   5.903  1.00  0.00    +0.000 C 
ATOM     34  C25 UNL A   1      14.254  54.738   7.191  1.00  0.00    +0.000 C 
ATOM     35  F3  UNL A   1      15.155  53.775   7.438  1.00  0.00    +0.000 F 
ATOM     36  C26 UNL A   1      13.843  55.561   8.238  1.00  0.00    +0.000 C 
ATOM     37  F4  UNL A   1      14.344  55.377   9.468  1.00  0.00    +0.000 F 
ATOM     38  C27 UNL A   1      12.915  56.566   8.010  1.00  0.00    +0.000 C 
ATOM     39  F5  UNL A   1      12.531  57.364   9.016  1.00  0.00    +0.000 F 
ATOM     40  C28 UNL A   1      12.383  56.741   6.742  1.00  0.00    +0.000 C 
ATOM     41  F6  UNL A   1      11.493  57.719   6.520  1.00  0.00    +0.000 F 
ATOM     42  C29 UNL A   1      12.776  55.907   5.698  1.00  0.00    +0.000 C 
ATOM     43  F7  UNL A   1      12.243  56.100   4.483  1.00  0.00    +0.000 F 
ENDBRANCH   32   33
BRANCH   49   50
ATOM     50  C35 UNL A   1      18.020  55.621   0.175  1.00  0.00    +0.000 C 
ATOM     51  C36 UNL A   1      17.548  56.333  -0.937  1.00  0.00    +0.000 C 
ATOM     52  F8  UNL A   1      16.367  56.017  -1.488  1.00  0.00    +0.000 F 
ATOM     53  C37 UNL A   1      18.305  57.355  -1.504  1.00  0.00    +0.000 C 
ATOM     54  F9  UNL A   1      17.850  58.001  -2.586  1.00  0.00    +0.000 F 
ATOM     55  C38 UNL A   1      19.532  57.699  -0.956  1.00  0.00    +0.000 C 
ATOM     56  F10 UNL A   1      20.254  58.688  -1.498  1.00  0.00    +0.000 F 
ATOM     57  C39 UNL A   1      20.012  57.014   0.151  1.00  0.00    +0.000 C 
ATOM     58  F11 UNL A   1      21.193  57.352   0.686  1.00  0.00    +0.000 F 
ATOM     59  C40 UNL A   1      19.269  55.977   0.707  1.00  0.00    +0.000 C 
ATOM     60  F12 UNL A   1      19.759  55.328   1.773  1.00  0.00    +0.000 F 
ENDBRANCH   49   50
BRANCH   64   65
ATOM     65  C44 UNL A   1      16.800  48.972  -1.499  1.00  0.00    +0.000 C 
ATOM     66  C45 UNL A   1      16.076  48.814  -2.687  1.00  0.00    +0.000 C 
ATOM     67  F13 UNL A   1      14.900  49.438  -2.842  1.00  0.00    +0.000 F 
ATOM     68  C46 UNL A   1      16.547  47.995  -3.712  1.00  0.00    +0.000 C 
ATOM     69  F14 UNL A   1      15.824  47.839  -4.829  1.00  0.00    +0.000 F 
ATOM     70  C47 UNL A   1      17.761  47.337  -3.573  1.00  0.00    +0.000 C 
ATOM     71  F15 UNL A   1      18.219  46.559  -4.564  1.00  0.00    +0.000 F 
ATOM     72  C48 UNL A   1      18.496  47.481  -2.407  1.00  0.00    +0.000 C 
ATOM     73  F16 UNL A   1      19.674  46.857  -2.275  1.00  0.00    +0.000 F 
ATOM     74  C49 UNL A   1      18.015  48.281  -1.374  1.00  0.00    +0.000 C 
ATOM     75  F17 UNL A   1      18.742  48.400  -0.254  1.00  0.00    +0.000 F 
ENDBRANCH   64   65
TORSDOF 17
ENDMDL
MODEL 2
REMARK VINA RESULT:      -8.8     37.581     42.973
ROOT
ATOM     28  C20 UNL A   1      38.272  30.293  29.709  1.00  0.00    +0.000 C 
ATOM     29  C21 UNL A   1      38.481  30.749  31.129  1.00  0.00    +0.000 C 
ATOM     30  N4  UNL A   1      39.471  30.484  31.946  1.00  0.00    +0.000 N 
ATOM     31  C22 UNL A   1      39.185  31.162  33.124  1.00  0.00    +0.000 C 
ATOM     32  C23 UNL A   1      39.887  31.179  34.282  1.00  0.00    +0.000 C 
ATOM     44  C30 UNL A   1      41.109  30.451  34.507  1.00  0.00    +0.000 C 
ATOM     45  C31 UNL A   1      41.882  30.396  35.654  1.00  0.00    +0.000 C 
ATOM     46  C32 UNL A   1      42.988  29.580  35.398  1.00  0.00    +0.000 C 
ATOM     47  C33 UNL A   1      42.887  29.100  34.103  1.00  0.00    +0.000 C 
ATOM     48  N5  UNL A   1      41.732  29.645  33.566  1.00  0.00    +0.000 N 
ATOM     49  C34 UNL A   1      43.779  28.214  33.401  1.00  0.00    +0.000 C 
ATOM     61  C41 UNL A   1      43.583  27.749  32.144  1.00  0.00    +0.000 C 
ATOM     62  N6  UNL A   1      42.539  28.017  31.271  1.00  0.00    +0.000 N 
ATOM     63  C42 UNL A   1      42.813  27.361  30.170  1.00  0.00    +0.000 C 
ATOM     64  C43 UNL A   1      42.032  27.291  28.890  1.00  0.00    +0.000 C 
ATOM     76  C50 UNL A   1      40.911  28.025  28.756  1.00  0.00    +0.000 C 
ATOM     77  C51 UNL A   1      40.064  28.065  27.568  1.00  0.00    +0.000 C 
ATOM     78  C52 UNL A   1      39.055  28.925  27.778  1.00  0.00    +0.000 C 
ATOM     79  C53 UNL A   1      39.158  29.457  29.138  1.00  0.00    +0.000 C 
ATOM     80  N7  UNL A   1      40.303  28.887  29.634  1.00  0.00    +0.000 N 
ATOM     81  C54 UNL A   1      44.069  26.599  30.221  1.00  0.00    +0.000 C 
ATOM     82  C55 UNL A   1      44.485  26.848  31.456  1.00  0.00    +0.000 C 
ATOM     83  C56 UNL A   1      37.942  31.870  32.914  1.00  0.00    +0.000 C 
ATOM     84  C57 UNL A   1      37.443  31.614  31.712  1.00  0.00    +0.000 C 
ATOM    109  H23 UNL A   1      41.677  30.873  36.546  1.00  0.00    +0.000 H 
ATOM    110  H24 UNL A   1      43.751  29.371  36.061  1.00  0.00    +0.000 H 
ATOM    111  H25 UNL A   1      41.401  29.484  32.653  1.00  0.00    +0.000 H 
ATOM    112  H26 UNL A   1      40.215  27.518  26.706  1.00  0.00    +0.000 H 
ATOM    113  H27 UNL A   1      38.325  29.171  27.092  1.00  0.00    +0.000 H 
ATOM    114  H28 UNL A   1      40.655  29.079  30.534  1.00  0.00    +0.000 H 
ATOM    115  H29 UNL A   1      44.511  26.022  29.489  1.00  0.00    +0.000 H 
ATOM    116  H30 UNL A   1      45.342  26.453  31.872  1.00  0.00    +0.000 H 
ATOM    117  H31 UNL A   1      37.501  32.494  33.608  1.00  0.00    +0.000 H 
ATOM    118  H32 UNL A   1      36.557  31.938  31.294  1.00  0.00    +0.000 H 
ENDROOT
BRANCH   28   27
ATOM     27  C19 UNL A   1      37.054  30.702  28.961  1.00  0.00    +0.000 C 
ATOM    107  H21 UNL A   1      34.088  29.468  27.971  1.00  0.00    +0.000 H 
ATOM    108  H22 UNL A   1      36.132  28.802  29.092  1.00  0.00    +0.000 H 
ATOM     85  C58 UNL A   1      36.900  32.010  28.479  1.00  0.00    +0.000 C 
ATOM     86  C59 UNL A   1      35.680  32.419  27.934  1.00  0.00    +0.000 C 
ATOM    120  H34 UNL A   1      35.557  33.391  27.609  1.00  0.00    +0.000 H 
ATOM     24  C16 UNL A   1      34.626  31.507  27.831  1.00  0.00    +0.000 C 
ATOM     25  C17 UNL A   1      34.822  30.166  28.169  1.00  0.00    +0.000 C 
ATOM     26  C18 UNL A   1      36.013  29.777  28.777  1.00  0.00    +0.000 C 
ATOM    119  H33 UNL A   1      37.690  32.673  28.527  1.00  0.00    +0.000 H 
BRANCH   24   22
ATOM     22  C15 UNL A   1      33.291  31.996  27.427  1.00  0.00    +0.000 C 
ATOM     23  O3  UNL A   1      32.981  33.165  27.628  1.00  0.00    +0.000 O 
BRANCH   22   21
ATOM    106  H20 UNL A   1      31.491  31.116  27.276  1.00  0.00    +0.000 H 
ATOM     21  N3  UNL A   1      32.389  31.115  26.874  1.00  0.00    +0.000 N 
BRANCH   21   20
ATOM    105  H19 UNL A   1      33.563  29.762  25.888  1.00  0.00    +0.000 H 
ATOM     20  C14 UNL A   1      32.585  30.182  25.774  1.00  0.00    +0.000 C 
ATOM    104  H18 UNL A   1      32.478  30.716  24.853  1.00  0.00    +0.000 H 
BRANCH   20   19
ATOM     19  C13 UNL A   1      31.597  29.021  25.777  1.00  0.00    +0.000 C 
ATOM    102  H16 UNL A   1      30.686  29.365  26.221  1.00  0.00    +0.000 H 
ATOM    103  H17 UNL A   1      31.493  28.721  24.755  1.00  0.00    +0.000 H 
BRANCH   19   18
ATOM     18  C12 UNL A   1      32.048  27.772  26.535  1.00  0.00    +0.000 C 
ATOM    100  H14 UNL A   1      31.852  27.931  27.575  1.00  0.00    +0.000 H 
ATOM    101  H15 UNL A   1      31.500  26.958  26.109  1.00  0.00    +0.000 H 
BRANCH   18   17
ATOM     17  C11 UNL A   1      33.527  27.403  26.387  1.00  0.00    +0.000 C 
ATOM     98  H12 UNL A   1      34.066  28.297  26.150  1.00  0.00    +0.000 H 
ATOM     99  H13 UNL A   1      33.807  26.957  27.318  1.00  0.00    +0.000 H 
BRANCH   17   16
ATOM     97  H11 UNL A   1      34.858  26.561  24.998  1.00  0.00    +0.000 H 
ATOM     96  H10 UNL A   1      33.134  26.454  24.528  1.00  0.00    +0.000 H 
ATOM     16  C10 UNL A   1      33.855  26.358  25.312  1.00  0.00    +0.000 C 
BRANCH   16   15
ATOM     95  H9  UNL A   1      33.608  24.900  26.830  1.00  0.00    +0.000 H 
ATOM     94  H8  UNL A   1      34.812  24.479  25.611  1.00  0.00    +0.000 H 
ATOM     15  C9  UNL A   1      33.847  24.907  25.788  1.00  0.00    +0.000 C 
BRANCH   15   14
ATOM     93  H7  UNL A   1      33.152  23.434  24.454  1.00  0.00    +0.000 H 
ATOM     14  N2  UNL A   1      32.850  24.121  25.091  1.00  0.00    +0.000 N 
BRANCH   14    2
ATOM      1  O1  UNL A   1      30.970  24.408  26.387  1.00  0.00    +0.000 O 
ATOM      2  C1  UNL A   1      31.495  24.295  25.284  1.00  0.00    +0.000 C 
BRANCH    2    3
ATOM      3  C2  UNL A   1      30.682  24.303  23.990  1.00  0.00    +0.000 C 
ATOM     87  H1  UNL A   1      29.810  23.701  24.138  1.00  0.00    +0.000 H 
ATOM     88  H2  UNL A   1      31.323  23.923  23.222  1.00  0.00    +0.000 H 
BRANCH    3    4
ATOM      4  C3  UNL A   1      30.240  25.679  23.546  1.00  0.00    +0.000 C 
ATOM      5  C4  UNL A   1      31.241  26.514  22.910  1.00  0.00    +0.000 C 
ATOM      6  C5  UNL A   1      30.945  27.767  22.542  1.00  0.00    +0.000 C 
ATOM      7  N1  UNL A   1      29.684  28.295  22.748  1.00  0.00    +0.000 N 
ATOM     11  C7  UNL A   1      28.661  27.569  23.335  1.00  0.00    +0.000 C 
ATOM     12  O2  UNL A   1      27.533  27.985  23.575  1.00  0.00    +0.000 O 
ATOM     13  C8  UNL A   1      29.001  26.172  23.723  1.00  0.00    +0.000 C 
ATOM     89  H3  UNL A   1      32.187  26.141  22.740  1.00  0.00    +0.000 H 
ATOM     90  H4  UNL A   1      31.672  28.350  22.096  1.00  0.00    +0.000 H 
ATOM     92  H6  UNL A   1      28.272  25.569  24.135  1.00  0.00    +0.000 H 
BRANCH    7    8
ATOM      9  F1  UNL A   1      29.745  30.510  23.396  1.00  0.00    +0.000 F 
ATOM     10  F2  UNL A   1      30.072  30.025  21.282  1.00  0.00    +0.000 F 
ATOM     91  H5  UNL A   1      28.341  29.724  22.229  1.00  0.00    +0.000 H 
ATOM      8  C6  UNL A   1      29.396  29.662  22.399  1.00  0.00    +0.000 C 
ENDBRANCH    7    8
ENDBRANCH    3    4
ENDBRANCH    2    3
ENDBRANCH   14    2
ENDBRANCH   15   14
ENDBRANCH   16   15
ENDBRANCH   17   16
ENDBRANCH   18   17
ENDBRANCH   19   18
ENDBRANCH   20   19
ENDBRANCH   21   20
ENDBRANCH   22   21
ENDBRANCH   24   22
ENDBRANCH   28   27
BRANCH   32   33
ATOM     33  C24 UNL A   1      39.358  32.017  35.408  1.00  0.00    +0.000 C 
ATOM     34  C25 UNL A   1      38.529  31.472  36.399  1.00  0.00    +0.000 C 
ATOM     35  F3  UNL A   1      38.131  30.194  36.317  1.00  0.00    +0.000 F 
ATOM     36  C26 UNL A   1      38.090  32.249  37.469  1.00  0.00    +0.000 C 
ATOM     37  F4  UNL A   1      37.277  31.714  38.391  1.00  0.00    +0.000 F 
ATOM     38  C27 UNL A   1      38.489  33.572  37.579  1.00  0.00    +0.000 C 
ATOM     39  F5  UNL A   1      38.074  34.313  38.617  1.00  0.00    +0.000 F 
ATOM     40  C28 UNL A   1      39.313  34.129  36.614  1.00  0.00    +0.000 C 
ATOM     41  F6  UNL A   1      39.707  35.405  36.725  1.00  0.00    +0.000 F 
ATOM     42  C29 UNL A   1      39.738  33.362  35.532  1.00  0.00    +0.000 C 
ATOM     43  F7  UNL A   1      40.533  33.928  34.613  1.00  0.00    +0.000 F 
ENDBRANCH   32   33
BRANCH   49   50
ATOM     50  C35 UNL A   1      45.018  27.764  34.114  1.00  0.00    +0.000 C 
ATOM     51  C36 UNL A   1      46.201  28.516  34.059  1.00  0.00    +0.000 C 
ATOM     52  F8  UNL A   1      46.261  29.624  33.307  1.00  0.00    +0.000 F 
ATOM     53  C37 UNL A   1      47.337  28.111  34.755  1.00  0.00    +0.000 C 
ATOM     54  F9  UNL A   1      48.466  28.825  34.663  1.00  0.00    +0.000 F 
ATOM     55  C38 UNL A   1      47.303  26.966  35.537  1.00  0.00    +0.000 C 
ATOM     56  F10 UNL A   1      48.394  26.583  36.213  1.00  0.00    +0.000 F 
ATOM     57  C39 UNL A   1      46.139  26.214  35.614  1.00  0.00    +0.000 C 
ATOM     58  F11 UNL A   1      46.103  25.113  36.376  1.00  0.00    +0.000 F 
ATOM     59  C40 UNL A   1      45.009  26.603  34.901  1.00  0.00    +0.000 C 
ATOM     60  F12 UNL A   1      43.899  25.855  34.989  1.00  0.00    +0.000 F 
ENDBRANCH   49   50
BRANCH   64   65
ATOM     65  C44 UNL A   1      42.476  26.425  27.771  1.00  0.00    +0.000 C 
ATOM     66  C45 UNL A   1      41.961  25.132  27.614  1.00  0.00    +0.000 C 
ATOM     67  F13 UNL A   1      41.086  24.647  28.507  1.00  0.00    +0.000 F 
ATOM     68  C46 UNL A   1      42.360  24.324  26.551  1.00  0.00    +0.000 C 
ATOM     69  F14 UNL A   1      41.872  23.081  26.437  1.00  0.00    +0.000 F 
ATOM     70  C47 UNL A   1      43.266  24.803  25.616  1.00  0.00    +0.000 C 
ATOM     71  F15 UNL A   1      43.640  24.029  24.587  1.00  0.00    +0.000 F 
ATOM     72  C48 UNL A   1      43.786  26.080  25.749  1.00  0.00    +0.000 C 
ATOM     73  F16 UNL A   1      44.652  26.550  24.841  1.00  0.00    +0.000 F 
ATOM     74  C49 UNL A   1      43.406  26.880  26.824  1.00  0.00    +0.000 C 
ATOM     75  F17 UNL A   1      43.928  28.109  26.933  1.00  0.00    +0.000 F 
ENDBRANCH   64   65
TORSDOF 17
ENDMDL
MODEL 3
REMARK VINA RESULT:      -8.8     37.510     43.547
ROOT
ATOM     28  C20 UNL A   1      38.060  29.954  29.983  1.00  0.00    +0.000 C 
ATOM     29  C21 UNL A   1      39.128  29.065  29.404  1.00  0.00    +0.000 C 
ATOM     30  N4  UNL A   1      40.219  28.607  29.969  1.00  0.00    +0.000 N 
ATOM     31  C22 UNL A   1      40.845  27.822  29.008  1.00  0.00    +0.000 C 
ATOM     32  C23 UNL A   1      42.021  27.157  29.095  1.00  0.00    +0.000 C 
ATOM     44  C30 UNL A   1      42.877  27.159  30.253  1.00  0.00    +0.000 C 
ATOM     45  C31 UNL A   1      44.096  26.527  30.425  1.00  0.00    +0.000 C 
ATOM     46  C32 UNL A   1      44.548  26.793  31.722  1.00  0.00    +0.000 C 
ATOM     47  C33 UNL A   1      43.627  27.619  32.344  1.00  0.00    +0.000 C 
ATOM     48  N5  UNL A   1      42.605  27.832  31.434  1.00  0.00    +0.000 N 
ATOM     49  C34 UNL A   1      43.670  28.170  33.674  1.00  0.00    +0.000 C 
ATOM     61  C41 UNL A   1      42.749  29.015  34.195  1.00  0.00    +0.000 C 
ATOM     62  N6  UNL A   1      41.593  29.510  33.609  1.00  0.00    +0.000 N 
ATOM     63  C42 UNL A   1      41.021  30.260  34.519  1.00  0.00    +0.000 C 
ATOM     64  C43 UNL A   1      39.741  31.041  34.434  1.00  0.00    +0.000 C 
ATOM     76  C50 UNL A   1      38.989  30.963  33.321  1.00  0.00    +0.000 C 
ATOM     77  C51 UNL A   1      37.721  31.653  33.107  1.00  0.00    +0.000 C 
ATOM     78  C52 UNL A   1      37.237  31.319  31.900  1.00  0.00    +0.000 C 
ATOM     79  C53 UNL A   1      38.190  30.429  31.235  1.00  0.00    +0.000 C 
ATOM     80  N7  UNL A   1      39.186  30.253  32.162  1.00  0.00    +0.000 N 
ATOM     81  C54 UNL A   1      41.753  30.325  35.791  1.00  0.00    +0.000 C 
ATOM     82  C55 UNL A   1      42.813  29.571  35.532  1.00  0.00    +0.000 C 
ATOM     83  C56 UNL A   1      40.003  27.843  27.832  1.00  0.00    +0.000 C 
ATOM     84  C57 UNL A   1      38.952  28.631  28.009  1.00  0.00    +0.000 C 
ATOM    109  H23 UNL A   1      44.588  25.957  29.719  1.00  0.00    +0.000 H 
ATOM    110  H24 UNL A   1      45.420  26.436  32.143  1.00  0.00    +0.000 H 
ATOM    111  H25 UNL A   1      41.805  28.382  31.599  1.00  0.00    +0.000 H 
ATOM    112  H26 UNL A   1      37.269  32.297  33.775  1.00  0.00    +0.000 H 
ATOM    113  H27 UNL A   1      36.339  31.637  31.506  1.00  0.00    +0.000 H 
ATOM    114  H28 UNL A   1      39.968  29.672  32.011  1.00  0.00    +0.000 H 
ATOM    115  H29 UNL A   1      41.508  30.827  36.659  1.00  0.00    +0.000 H 
ATOM    116  H30 UNL A   1      43.583  29.400  36.196  1.00  0.00    +0.000 H 
ATOM    117  H31 UNL A   1      40.197  27.312  26.967  1.00  0.00    +0.000 H 
ATOM    118  H32 UNL A   1      38.204  28.876  27.342  1.00  0.00    +0.000 H 
ENDROOT
BRANCH   28   27
ATOM     27  C19 UNL A   1      36.900  30.373  29.153  1.00  0.00    +0.000 C 
ATOM    107  H21 UNL A   1      34.049  29.133  27.873  1.00  0.00    +0.000 H 
ATOM    108  H22 UNL A   1      36.007  28.455  29.132  1.00  0.00    +0.000 H 
ATOM     85  C58 UNL A   1      36.760  31.698  28.713  1.00  0.00    +0.000 C 
ATOM     86  C59 UNL A   1      35.581  32.109  28.085  1.00  0.00    +0.000 C 
ATOM    120  H34 UNL A   1      35.465  33.091  27.790  1.00  0.00    +0.000 H 
ATOM     24  C16 UNL A   1      34.557  31.184  27.860  1.00  0.00    +0.000 C 
ATOM     25  C17 UNL A   1      34.751  29.834  28.159  1.00  0.00    +0.000 C 
ATOM     26  C18 UNL A   1      35.896  29.440  28.847  1.00  0.00    +0.000 C 
ATOM    119  H33 UNL A   1      37.530  32.371  28.852  1.00  0.00    +0.000 H 
BRANCH   24   22
ATOM     22  C15 UNL A   1      33.250  31.667  27.366  1.00  0.00    +0.000 C 
ATOM     23  O3  UNL A   1      33.004  32.869  27.362  1.00  0.00    +0.000 O 
BRANCH   22   21
ATOM    106  H20 UNL A   1      31.664  30.469  27.656  1.00  0.00    +0.000 H 
ATOM     21  N3  UNL A   1      32.301  30.755  26.963  1.00  0.00    +0.000 N 
BRANCH   21   20
ATOM    105  H19 UNL A   1      32.357  30.905  24.925  1.00  0.00    +0.000 H 
ATOM     20  C14 UNL A   1      32.115  30.155  25.650  1.00  0.00    +0.000 C 
ATOM    104  H18 UNL A   1      31.100  29.825  25.569  1.00  0.00    +0.000 H 
BRANCH   20   19
ATOM     19  C13 UNL A   1      33.032  28.966  25.387  1.00  0.00    +0.000 C 
ATOM    102  H16 UNL A   1      33.021  28.767  24.336  1.00  0.00    +0.000 H 
ATOM    103  H17 UNL A   1      33.993  29.248  25.764  1.00  0.00    +0.000 H 
BRANCH   19   18
ATOM     18  C12 UNL A   1      32.660  27.673  26.114  1.00  0.00    +0.000 C 
ATOM    100  H14 UNL A   1      32.617  27.886  27.163  1.00  0.00    +0.000 H 
ATOM    101  H15 UNL A   1      31.727  27.361  25.696  1.00  0.00    +0.000 H 
BRANCH   18   17
ATOM     17  C11 UNL A   1      33.621  26.498  25.913  1.00  0.00    +0.000 C 
ATOM     98  H12 UNL A   1      34.505  26.875  25.442  1.00  0.00    +0.000 H 
ATOM     99  H13 UNL A   1      33.784  26.089  26.887  1.00  0.00    +0.000 H 
BRANCH   17   16
ATOM     97  H11 UNL A   1      32.096  25.604  24.779  1.00  0.00    +0.000 H 
ATOM     96  H10 UNL A   1      33.149  24.444  25.647  1.00  0.00    +0.000 H 
ATOM     16  C10 UNL A   1      33.094  25.336  25.060  1.00  0.00    +0.000 C 
BRANCH   16   15
ATOM     95  H9  UNL A   1      34.449  24.214  23.877  1.00  0.00    +0.000 H 
ATOM     94  H8  UNL A   1      34.455  25.946  23.538  1.00  0.00    +0.000 H 
ATOM     15  C9  UNL A   1      33.848  25.091  23.754  1.00  0.00    +0.000 C 
BRANCH   15   14
ATOM     93  H7  UNL A   1      32.555  23.970  22.528  1.00  0.00    +0.000 H 
ATOM     14  N2  UNL A   1      32.942  24.867  22.646  1.00  0.00    +0.000 N 
BRANCH   14    2
ATOM      1  O1  UNL A   1      32.315  25.654  20.576  1.00  0.00    +0.000 O 
ATOM      2  C1  UNL A   1      32.600  25.860  21.751  1.00  0.00    +0.000 C 
BRANCH    2    3
ATOM      3  C2  UNL A   1      32.638  27.268  22.346  1.00  0.00    +0.000 C 
ATOM     87  H1  UNL A   1      33.206  27.893  21.690  1.00  0.00    +0.000 H 
ATOM     88  H2  UNL A   1      33.077  27.179  23.318  1.00  0.00    +0.000 H 
BRANCH    3    4
ATOM      4  C3  UNL A   1      31.276  27.894  22.539  1.00  0.00    +0.000 C 
ATOM      5  C4  UNL A   1      30.279  27.094  23.225  1.00  0.00    +0.000 C 
ATOM      6  C5  UNL A   1      29.032  27.553  23.384  1.00  0.00    +0.000 C 
ATOM      7  N1  UNL A   1      28.661  28.798  22.909  1.00  0.00    +0.000 N 
ATOM     11  C7  UNL A   1      29.547  29.638  22.254  1.00  0.00    +0.000 C 
ATOM     12  O2  UNL A   1      29.277  30.736  21.782  1.00  0.00    +0.000 O 
ATOM     13  C8  UNL A   1      30.934  29.119  22.101  1.00  0.00    +0.000 C 
ATOM     89  H3  UNL A   1      30.534  26.165  23.594  1.00  0.00    +0.000 H 
ATOM     90  H4  UNL A   1      28.333  26.968  23.869  1.00  0.00    +0.000 H 
ATOM     92  H6  UNL A   1      31.650  29.711  21.650  1.00  0.00    +0.000 H 
BRANCH    7    8
ATOM      9  F1  UNL A   1      26.507  28.298  23.570  1.00  0.00    +0.000 F 
ATOM     10  F2  UNL A   1      27.237  30.349  23.835  1.00  0.00    +0.000 F 
ATOM     91  H5  UNL A   1      26.961  29.496  22.051  1.00  0.00    +0.000 H 
ATOM      8  C6  UNL A   1      27.302  29.256  23.036  1.00  0.00    +0.000 C 
ENDBRANCH    7    8
ENDBRANCH    3    4
ENDBRANCH    2    3
ENDBRANCH   14    2
ENDBRANCH   15   14
ENDBRANCH   16   15
ENDBRANCH   17   16
ENDBRANCH   18   17
ENDBRANCH   19   18
ENDBRANCH   20   19
ENDBRANCH   21   20
ENDBRANCH   22   21
ENDBRANCH   24   22
ENDBRANCH   28   27
BRANCH   32   33
ATOM     33  C24 UNL A   1      42.462  26.361  27.903  1.00  0.00    +0.000 C 
ATOM     34  C25 UNL A   1      41.962  25.074  27.657  1.00  0.00    +0.000 C 
ATOM     35  F3  UNL A   1      41.127  24.496  28.533  1.00  0.00    +0.000 F 
ATOM     36  C26 UNL A   1      42.338  24.367  26.517  1.00  0.00    +0.000 C 
ATOM     37  F4  UNL A   1      41.868  23.128  26.315  1.00  0.00    +0.000 F 
ATOM     38  C27 UNL A   1      43.199  24.941  25.594  1.00  0.00    +0.000 C 
ATOM     39  F5  UNL A   1      43.549  24.263  24.492  1.00  0.00    +0.000 F 
ATOM     40  C28 UNL A   1      43.700  26.215  25.814  1.00  0.00    +0.000 C 
ATOM     41  F6  UNL A   1      44.524  26.774  24.917  1.00  0.00    +0.000 F 
ATOM     42  C29 UNL A   1      43.343  26.916  26.963  1.00  0.00    +0.000 C 
ATOM     43  F7  UNL A   1      43.845  28.146  27.150  1.00  0.00    +0.000 F 
ENDBRANCH   32   33
BRANCH   49   50
ATOM     50  C35 UNL A   1      44.824  27.788  34.550  1.00  0.00    +0.000 C 
ATOM     51  C36 UNL A   1      45.980  28.579  34.613  1.00  0.00    +0.000 C 
ATOM     52  F8  UNL A   1      46.097  29.664  33.835  1.00  0.00    +0.000 F 
ATOM     53  C37 UNL A   1      47.034  28.237  35.457  1.00  0.00    +0.000 C 
ATOM     54  F9  UNL A   1      48.142  28.988  35.478  1.00  0.00    +0.000 F 
ATOM     55  C38 UNL A   1      46.939  27.117  36.269  1.00  0.00    +0.000 C 
ATOM     56  F10 UNL A   1      47.950  26.795  37.088  1.00  0.00    +0.000 F 
ATOM     57  C39 UNL A   1      45.800  26.327  36.230  1.00  0.00    +0.000 C 
ATOM     58  F11 UNL A   1      45.705  25.250  37.021  1.00  0.00    +0.000 F 
ATOM     59  C40 UNL A   1      44.754  26.652  35.371  1.00  0.00    +0.000 C 
ATOM     60  F12 UNL A   1      43.666  25.868  35.349  1.00  0.00    +0.000 F 
ENDBRANCH   49   50
BRANCH   64   65
ATOM     65  C44 UNL A   1      39.294  31.898  35.560  1.00  0.00    +0.000 C 
ATOM     66  C45 UNL A   1      38.415  31.405  36.533  1.00  0.00    +0.000 C 
ATOM     67  F13 UNL A   1      37.933  30.158  36.429  1.00  0.00    +0.000 F 
ATOM     68  C46 UNL A   1      38.011  32.199  37.604  1.00  0.00    +0.000 C 
ATOM     69  F14 UNL A   1      37.149  31.714  38.507  1.00  0.00    +0.000 F 
ATOM     70  C47 UNL A   1      38.494  33.493  37.731  1.00  0.00    +0.000 C 
ATOM     71  F15 UNL A   1      38.114  34.253  38.767  1.00  0.00    +0.000 F 
ATOM     72  C48 UNL A   1      39.368  34.001  36.781  1.00  0.00    +0.000 C 
ATOM     73  F16 UNL A   1      39.847  35.246  36.907  1.00  0.00    +0.000 F 
ATOM     74  C49 UNL A   1      39.754  33.216  35.698  1.00  0.00    +0.000 C 
ATOM     75  F17 UNL A   1      40.595  33.731  34.791  1.00  0.00    +0.000 F 
ENDBRANCH   64   65
TORSDOF 17
ENDMDL
MODEL 4
REMARK VINA RESULT:      -8.7     39.925     43.329
ROOT
ATOM     28  C20 UNL A   1      41.591  26.395  27.656  1.00  0.00    +0.000 C 
ATOM     29  C21 UNL A   1      40.948  27.474  28.486  1.00  0.00    +0.000 C 
ATOM     30  N4  UNL A   1      41.406  28.663  28.795  1.00  0.00    +0.000 N 
ATOM     31  C22 UNL A   1      40.416  29.264  29.564  1.00  0.00    +0.000 C 
ATOM     32  C23 UNL A   1      40.426  30.484  30.152  1.00  0.00    +0.000 C 
ATOM     44  C30 UNL A   1      41.525  31.412  30.087  1.00  0.00    +0.000 C 
ATOM     45  C31 UNL A   1      41.630  32.665  30.666  1.00  0.00    +0.000 C 
ATOM     46  C32 UNL A   1      42.870  33.208  30.313  1.00  0.00    +0.000 C 
ATOM     47  C33 UNL A   1      43.550  32.279  29.543  1.00  0.00    +0.000 C 
ATOM     48  N5  UNL A   1      42.712  31.184  29.409  1.00  0.00    +0.000 N 
ATOM     49  C34 UNL A   1      44.865  32.382  28.964  1.00  0.00    +0.000 C 
ATOM     61  C41 UNL A   1      45.483  31.404  28.261  1.00  0.00    +0.000 C 
ATOM     62  N6  UNL A   1      45.014  30.141  27.931  1.00  0.00    +0.000 N 
ATOM     63  C42 UNL A   1      45.961  29.580  27.219  1.00  0.00    +0.000 C 
ATOM     64  C43 UNL A   1      45.993  28.215  26.593  1.00  0.00    +0.000 C 
ATOM     76  C50 UNL A   1      44.910  27.421  26.681  1.00  0.00    +0.000 C 
ATOM     77  C51 UNL A   1      44.796  26.082  26.111  1.00  0.00    +0.000 C 
ATOM     78  C52 UNL A   1      43.570  25.599  26.365  1.00  0.00    +0.000 C 
ATOM     79  C53 UNL A   1      42.829  26.578  27.163  1.00  0.00    +0.000 C 
ATOM     80  N7  UNL A   1      43.694  27.637  27.280  1.00  0.00    +0.000 N 
ATOM     81  C54 UNL A   1      47.144  30.429  27.017  1.00  0.00    +0.000 C 
ATOM     82  C55 UNL A   1      46.812  31.519  27.696  1.00  0.00    +0.000 C 
ATOM     83  C56 UNL A   1      39.322  28.322  29.657  1.00  0.00    +0.000 C 
ATOM     84  C57 UNL A   1      39.618  27.183  29.044  1.00  0.00    +0.000 C 
ATOM    109  H23 UNL A   1      40.918  33.121  31.257  1.00  0.00    +0.000 H 
ATOM    110  H24 UNL A   1      43.219  34.142  30.580  1.00  0.00    +0.000 H 
ATOM    111  H25 UNL A   1      42.928  30.364  28.908  1.00  0.00    +0.000 H 
ATOM    112  H26 UNL A   1      45.540  25.584  25.596  1.00  0.00    +0.000 H 
ATOM    113  H27 UNL A   1      43.208  24.687  26.049  1.00  0.00    +0.000 H 
ATOM    114  H28 UNL A   1      43.464  28.472  27.748  1.00  0.00    +0.000 H 
ATOM    115  H29 UNL A   1      48.007  30.229  26.487  1.00  0.00    +0.000 H 
ATOM    116  H30 UNL A   1      47.422  32.344  27.806  1.00  0.00    +0.000 H 
ATOM    117  H31 UNL A   1      38.429  28.512  30.137  1.00  0.00    +0.000 H 
ATOM    118  H32 UNL A   1      39.060  26.318  28.977  1.00  0.00    +0.000 H 
ENDROOT
BRANCH   28   27
ATOM     27  C19 UNL A   1      40.897  25.098  27.442  1.00  0.00    +0.000 C 
ATOM    107  H21 UNL A   1      38.312  23.796  25.732  1.00  0.00    +0.000 H 
ATOM    108  H22 UNL A   1      39.400  25.914  26.188  1.00  0.00    +0.000 H 
ATOM     85  C58 UNL A   1      41.368  23.914  28.028  1.00  0.00    +0.000 C 
ATOM     86  C59 UNL A   1      40.808  22.683  27.675  1.00  0.00    +0.000 C 
ATOM    120  H34 UNL A   1      41.177  21.809  28.082  1.00  0.00    +0.000 H 
ATOM     24  C16 UNL A   1      39.746  22.640  26.767  1.00  0.00    +0.000 C 
ATOM     25  C17 UNL A   1      39.175  23.824  26.297  1.00  0.00    +0.000 C 
ATOM     26  C18 UNL A   1      39.778  25.043  26.594  1.00  0.00    +0.000 C 
ATOM    119  H33 UNL A   1      42.131  23.952  28.722  1.00  0.00    +0.000 H 
BRANCH   24   22
ATOM     22  C15 UNL A   1      39.286  21.328  26.263  1.00  0.00    +0.000 C 
ATOM     23  O3  UNL A   1      40.093  20.419  26.097  1.00  0.00    +0.000 O 
BRANCH   22   21
ATOM    106  H20 UNL A   1      37.323  21.226  26.683  1.00  0.00    +0.000 H 
ATOM     21  N3  UNL A   1      37.960  21.159  25.936  1.00  0.00    +0.000 N 
BRANCH   21   20
ATOM    105  H19 UNL A   1      37.096  19.862  24.613  1.00  0.00    +0.000 H 
ATOM     20  C14 UNL A   1      37.371  20.896  24.630  1.00  0.00    +0.000 C 
ATOM    104  H18 UNL A   1      38.093  21.136  23.878  1.00  0.00    +0.000 H 
BRANCH   20   19
ATOM     19  C13 UNL A   1      36.105  21.701  24.360  1.00  0.00    +0.000 C 
ATOM    102  H16 UNL A   1      35.608  21.261  23.520  1.00  0.00    +0.000 H 
ATOM    103  H17 UNL A   1      35.537  21.667  25.266  1.00  0.00    +0.000 H 
BRANCH   19   18
ATOM     18  C12 UNL A   1      36.319  23.184  24.055  1.00  0.00    +0.000 C 
ATOM    100  H14 UNL A   1      37.370  23.347  23.938  1.00  0.00    +0.000 H 
ATOM    101  H15 UNL A   1      35.747  23.386  23.175  1.00  0.00    +0.000 H 
BRANCH   18   17
ATOM     17  C11 UNL A   1      35.808  24.161  25.119  1.00  0.00    +0.000 C 
ATOM     98  H12 UNL A   1      36.659  24.590  25.604  1.00  0.00    +0.000 H 
ATOM     99  H13 UNL A   1      35.201  24.866  24.593  1.00  0.00    +0.000 H 
BRANCH   17   16
ATOM     97  H11 UNL A   1      35.339  23.839  27.140  1.00  0.00    +0.000 H 
ATOM     96  H10 UNL A   1      34.857  22.504  26.048  1.00  0.00    +0.000 H 
ATOM     16  C10 UNL A   1      34.903  23.562  26.203  1.00  0.00    +0.000 C 
BRANCH   16   15
ATOM     95  H9  UNL A   1      33.211  24.394  25.235  1.00  0.00    +0.000 H 
ATOM     94  H8  UNL A   1      33.426  24.928  26.903  1.00  0.00    +0.000 H 
ATOM     15  C9  UNL A   1      33.473  24.098  26.229  1.00  0.00    +0.000 C 
BRANCH   15   14
ATOM     93  H7  UNL A   1      32.546  22.800  27.603  1.00  0.00    +0.000 H 
ATOM     14  N2  UNL A   1      32.530  23.088  26.662  1.00  0.00    +0.000 N 
BRANCH   14    2
ATOM      1  O1  UNL A   1      30.439  22.300  26.108  1.00  0.00    +0.000 O 
ATOM      2  C1  UNL A   1      31.609  22.513  25.809  1.00  0.00    +0.000 C 
BRANCH    2    3
ATOM      3  C2  UNL A   1      32.186  22.127  24.447  1.00  0.00    +0.000 C 
ATOM     87  H1  UNL A   1      33.138  22.604  24.340  1.00  0.00    +0.000 H 
ATOM     88  H2  UNL A   1      31.477  22.444  23.712  1.00  0.00    +0.000 H 
BRANCH    3    4
ATOM      4  C3  UNL A   1      32.376  20.639  24.256  1.00  0.00    +0.000 C 
ATOM      5  C4  UNL A   1      32.814  19.881  25.413  1.00  0.00    +0.000 C 
ATOM      6  C5  UNL A   1      33.061  18.570  25.311  1.00  0.00    +0.000 C 
ATOM      7  N1  UNL A   1      32.899  17.901  24.112  1.00  0.00    +0.000 N 
ATOM     11  C7  UNL A   1      32.472  18.538  22.958  1.00  0.00    +0.000 C 
ATOM     12  O2  UNL A   1      32.337  18.014  21.858  1.00  0.00    +0.000 O 
ATOM     13  C8  UNL A   1      32.185  19.993  23.092  1.00  0.00    +0.000 C 
ATOM     89  H3  UNL A   1      32.935  20.356  26.321  1.00  0.00    +0.000 H 
ATOM     90  H4  UNL A   1      33.378  18.047  26.143  1.00  0.00    +0.000 H 
ATOM     92  H6  UNL A   1      31.831  20.517  22.276  1.00  0.00    +0.000 H 
BRANCH    7    8
ATOM      9  F1  UNL A   1      34.372  16.314  23.311  1.00  0.00    +0.000 F 
ATOM     10  F2  UNL A   1      33.374  15.947  25.230  1.00  0.00    +0.000 F 
ATOM     91  H5  UNL A   1      32.412  16.036  23.483  1.00  0.00    +0.000 H 
ATOM      8  C6  UNL A   1      33.222  16.503  24.002  1.00  0.00    +0.000 C 
ENDBRANCH    7    8
ENDBRANCH    3    4
ENDBRANCH    2    3
ENDBRANCH   14    2
ENDBRANCH   15   14
ENDBRANCH   16   15
ENDBRANCH   17   16
ENDBRANCH   18   17
ENDBRANCH   19   18
ENDBRANCH   20   19
ENDBRANCH   21   20
ENDBRANCH   22   21
ENDBRANCH   24   22
ENDBRANCH   28   27
BRANCH   32   33
ATOM     33  C24 UNL A   1      39.207  30.899  30.920  1.00  0.00    +0.000 C 
ATOM     34  C25 UNL A   1      38.130  31.540  30.291  1.00  0.00    +0.000 C 
ATOM     35  F3  UNL A   1      38.203  31.865  28.992  1.00  0.00    +0.000 F 
ATOM     36  C26 UNL A   1      36.980  31.870  31.005  1.00  0.00    +0.000 C 
ATOM     37  F4  UNL A   1      35.973  32.507  30.391  1.00  0.00    +0.000 F 
ATOM     38  C27 UNL A   1      36.877  31.546  32.350  1.00  0.00    +0.000 C 
ATOM     39  F5  UNL A   1      35.764  31.853  33.030  1.00  0.00    +0.000 F 
ATOM     40  C28 UNL A   1      37.928  30.905  32.988  1.00  0.00    +0.000 C 
ATOM     41  F6  UNL A   1      37.824  30.582  34.285  1.00  0.00    +0.000 F 
ATOM     42  C29 UNL A   1      39.087  30.592  32.283  1.00  0.00    +0.000 C 
ATOM     43  F7  UNL A   1      40.087  29.974  32.928  1.00  0.00    +0.000 F 
ENDBRANCH   32   33
BRANCH   49   50
ATOM     50  C35 UNL A   1      45.613  33.666  29.159  1.00  0.00    +0.000 C 
ATOM     51  C36 UNL A   1      45.469  34.733  28.261  1.00  0.00    +0.000 C 
ATOM     52  F8  UNL A   1      44.703  34.597  27.169  1.00  0.00    +0.000 F 
ATOM     53  C37 UNL A   1      46.138  35.937  28.470  1.00  0.00    +0.000 C 
ATOM     54  F9  UNL A   1      46.013  36.932  27.582  1.00  0.00    +0.000 F 
ATOM     55  C38 UNL A   1      46.940  36.102  29.589  1.00  0.00    +0.000 C 
ATOM     56  F10 UNL A   1      47.575  37.264  29.792  1.00  0.00    +0.000 F 
ATOM     57  C39 UNL A   1      47.087  35.063  30.496  1.00  0.00    +0.000 C 
ATOM     58  F11 UNL A   1      47.853  35.226  31.582  1.00  0.00    +0.000 F 
ATOM     59  C40 UNL A   1      46.437  33.851  30.279  1.00  0.00    +0.000 C 
ATOM     60  F12 UNL A   1      46.601  32.861  31.169  1.00  0.00    +0.000 F 
ENDBRANCH   49   50
BRANCH   64   65
ATOM     65  C44 UNL A   1      47.200  27.731  25.880  1.00  0.00    +0.000 C 
ATOM     66  C45 UNL A   1      48.274  27.172  26.583  1.00  0.00    +0.000 C 
ATOM     67  F13 UNL A   1      48.237  27.109  27.922  1.00  0.00    +0.000 F 
ATOM     68  C46 UNL A   1      49.400  26.695  25.915  1.00  0.00    +0.000 C 
ATOM     69  F14 UNL A   1      50.426  26.188  26.611  1.00  0.00    +0.000 F 
ATOM     70  C47 UNL A   1      49.462  26.752  24.530  1.00  0.00    +0.000 C 
ATOM     71  F15 UNL A   1      50.540  26.283  23.887  1.00  0.00    +0.000 F 
ATOM     72  C48 UNL A   1      48.409  27.299  23.813  1.00  0.00    +0.000 C 
ATOM     73  F16 UNL A   1      48.460  27.344  22.475  1.00  0.00    +0.000 F 
ATOM     74  C49 UNL A   1      47.294  27.796  24.482  1.00  0.00    +0.000 C 
ATOM     75  F17 UNL A   1      46.291  28.325  23.766  1.00  0.00    +0.000 F 
ENDBRANCH   64   65
TORSDOF 17
ENDMDL
MODEL 5
REMARK VINA RESULT:      -8.7      1.489      3.604
ROOT
ATOM     28  C20 UNL A   1      13.354  49.271   3.839  1.00  0.00    +0.000 C 
ATOM     29  C21 UNL A   1      13.418  50.641   4.460  1.00  0.00    +0.000 C 
ATOM     30  N4  UNL A   1      14.048  51.711   4.040  1.00  0.00    +0.000 N 
ATOM     31  C22 UNL A   1      13.769  52.706   4.967  1.00  0.00    +0.000 C 
ATOM     32  C23 UNL A   1      14.214  53.985   4.995  1.00  0.00    +0.000 C 
ATOM     44  C30 UNL A   1      15.110  54.559   4.025  1.00  0.00    +0.000 C 
ATOM     45  C31 UNL A   1      15.628  55.843   3.983  1.00  0.00    +0.000 C 
ATOM     46  C32 UNL A   1      16.434  55.952   2.846  1.00  0.00    +0.000 C 
ATOM     47  C33 UNL A   1      16.446  54.727   2.199  1.00  0.00    +0.000 C 
ATOM     48  N5  UNL A   1      15.626  53.883   2.931  1.00  0.00    +0.000 N 
ATOM     49  C34 UNL A   1      17.146  54.352   0.998  1.00  0.00    +0.000 C 
ATOM     61  C41 UNL A   1      17.146  53.112   0.453  1.00  0.00    +0.000 C 
ATOM     62  N6  UNL A   1      16.489  51.972   0.888  1.00  0.00    +0.000 N 
ATOM     63  C42 UNL A   1      16.772  51.037   0.014  1.00  0.00    +0.000 C 
ATOM     64  C43 UNL A   1      16.327  49.603  -0.017  1.00  0.00    +0.000 C 
ATOM     76  C50 UNL A   1      15.467  49.156   0.917  1.00  0.00    +0.000 C 
ATOM     77  C51 UNL A   1      14.942  47.796   0.999  1.00  0.00    +0.000 C 
ATOM     78  C52 UNL A   1      14.090  47.717   2.033  1.00  0.00    +0.000 C 
ATOM     79  C53 UNL A   1      14.050  49.011   2.717  1.00  0.00    +0.000 C 
ATOM     80  N7  UNL A   1      14.879  49.810   1.970  1.00  0.00    +0.000 N 
ATOM     81  C54 UNL A   1      17.646  51.483  -1.080  1.00  0.00    +0.000 C 
ATOM     82  C55 UNL A   1      17.867  52.749  -0.750  1.00  0.00    +0.000 C 
ATOM     83  C56 UNL A   1      12.893  52.125   5.961  1.00  0.00    +0.000 C 
ATOM     84  C57 UNL A   1      12.680  50.839   5.718  1.00  0.00    +0.000 C 
ATOM    109  H23 UNL A   1      15.450  56.590   4.672  1.00  0.00    +0.000 H 
ATOM    110  H24 UNL A   1      16.935  56.800   2.540  1.00  0.00    +0.000 H 
ATOM    111  H25 UNL A   1      15.439  52.942   2.708  1.00  0.00    +0.000 H 
ATOM    112  H26 UNL A   1      15.187  47.019   0.365  1.00  0.00    +0.000 H 
ATOM    113  H27 UNL A   1      13.550  46.881   2.302  1.00  0.00    +0.000 H 
ATOM    114  H28 UNL A   1      15.035  50.761   2.171  1.00  0.00    +0.000 H 
ATOM    115  H29 UNL A   1      17.997  50.951  -1.892  1.00  0.00    +0.000 H 
ATOM    116  H30 UNL A   1      18.473  53.392  -1.282  1.00  0.00    +0.000 H 
ATOM    117  H31 UNL A   1      12.487  52.644   6.756  1.00  0.00    +0.000 H 
ATOM    118  H32 UNL A   1      12.138  50.155   6.268  1.00  0.00    +0.000 H 
ENDROOT
BRANCH   28   27
ATOM     27  C19 UNL A   1      12.586  48.182   4.498  1.00  0.00    +0.000 C 
ATOM    107  H21 UNL A   1      13.044  45.586   6.584  1.00  0.00    +0.000 H 
ATOM    108  H22 UNL A   1      14.283  47.306   5.407  1.00  0.00    +0.000 H 
ATOM     85  C58 UNL A   1      11.193  48.083   4.355  1.00  0.00    +0.000 C 
ATOM     86  C59 UNL A   1      10.472  47.162   5.120  1.00  0.00    +0.000 C 
ATOM    120  H34 UNL A   1       9.444  47.112   5.037  1.00  0.00    +0.000 H 
ATOM     24  C16 UNL A   1      11.148  46.311   5.998  1.00  0.00    +0.000 C 
ATOM     25  C17 UNL A   1      12.544  46.302   6.034  1.00  0.00    +0.000 C 
ATOM     26  C18 UNL A   1      13.255  47.266   5.325  1.00  0.00    +0.000 C 
ATOM    119  H33 UNL A   1      10.701  48.691   3.682  1.00  0.00    +0.000 H 
BRANCH   24   22
ATOM     22  C15 UNL A   1      10.363  45.475   6.932  1.00  0.00    +0.000 C 
ATOM     23  O3  UNL A   1       9.438  44.788   6.509  1.00  0.00    +0.000 O 
BRANCH   22   21
ATOM    106  H20 UNL A   1      10.964  44.673   8.674  1.00  0.00    +0.000 H 
ATOM     21  N3  UNL A   1      10.649  45.517   8.278  1.00  0.00    +0.000 N 
BRANCH   21   20
ATOM    105  H19 UNL A   1       9.647  46.511   9.757  1.00  0.00    +0.000 H 
ATOM     20  C14 UNL A   1      10.548  46.643   9.195  1.00  0.00    +0.000 C 
ATOM    104  H18 UNL A   1      10.540  47.547   8.622  1.00  0.00    +0.000 H 
BRANCH   20   19
ATOM     19  C13 UNL A   1      11.695  46.717  10.197  1.00  0.00    +0.000 C 
ATOM    102  H16 UNL A   1      11.700  47.700  10.620  1.00  0.00    +0.000 H 
ATOM    103  H17 UNL A   1      11.512  45.941  10.910  1.00  0.00    +0.000 H 
BRANCH   19   18
ATOM     18  C12 UNL A   1      13.087  46.442   9.627  1.00  0.00    +0.000 C 
ATOM    100  H14 UNL A   1      13.645  45.907  10.368  1.00  0.00    +0.000 H 
ATOM    101  H15 UNL A   1      12.929  45.895   8.722  1.00  0.00    +0.000 H 
BRANCH   18   17
ATOM     17  C11 UNL A   1      13.898  47.679   9.231  1.00  0.00    +0.000 C 
ATOM     98  H12 UNL A   1      13.497  48.054   8.312  1.00  0.00    +0.000 H 
ATOM     99  H13 UNL A   1      13.813  48.355  10.054  1.00  0.00    +0.000 H 
BRANCH   17   16
ATOM     97  H11 UNL A   1      15.563  46.404   9.109  1.00  0.00    +0.000 H 
ATOM     96  H10 UNL A   1      15.923  48.028   9.772  1.00  0.00    +0.000 H 
ATOM     16  C10 UNL A   1      15.404  47.460   9.029  1.00  0.00    +0.000 C 
BRANCH   16   15
ATOM     95  H9  UNL A   1      15.529  47.203   6.929  1.00  0.00    +0.000 H 
ATOM     94  H8  UNL A   1      17.013  47.800   7.675  1.00  0.00    +0.000 H 
ATOM     15  C9  UNL A   1      15.944  47.865   7.660  1.00  0.00    +0.000 C 
BRANCH   15   14
ATOM     93  H7  UNL A   1      14.606  49.428   7.214  1.00  0.00    +0.000 H 
ATOM     14  N2  UNL A   1      15.562  49.218   7.312  1.00  0.00    +0.000 N 
BRANCH   14    2
ATOM      1  O1  UNL A   1      16.578  50.875   6.077  1.00  0.00    +0.000 O 
ATOM      2  C1  UNL A   1      16.486  50.225   7.113  1.00  0.00    +0.000 C 
BRANCH    2    3
ATOM      3  C2  UNL A   1      17.423  50.447   8.300  1.00  0.00    +0.000 C 
ATOM     87  H1  UNL A   1      18.138  51.194   8.027  1.00  0.00    +0.000 H 
ATOM     88  H2  UNL A   1      17.875  49.501   8.516  1.00  0.00    +0.000 H 
BRANCH    3    4
ATOM      4  C3  UNL A   1      16.725  50.895   9.564  1.00  0.00    +0.000 C 
ATOM      5  C4  UNL A   1      17.354  50.537  10.821  1.00  0.00    +0.000 C 
ATOM      6  C5  UNL A   1      16.768  50.845  11.985  1.00  0.00    +0.000 C 
ATOM      7  N1  UNL A   1      15.560  51.517  12.023  1.00  0.00    +0.000 N 
ATOM     11  C7  UNL A   1      14.892  51.911  10.875  1.00  0.00    +0.000 C 
ATOM     12  O2  UNL A   1      13.807  52.480  10.837  1.00  0.00    +0.000 O 
ATOM     13  C8  UNL A   1      15.565  51.575   9.590  1.00  0.00    +0.000 C 
ATOM     89  H3  UNL A   1      18.259  50.041  10.818  1.00  0.00    +0.000 H 
ATOM     90  H4  UNL A   1      17.227  50.577  12.870  1.00  0.00    +0.000 H 
ATOM     92  H6  UNL A   1      15.134  51.872   8.700  1.00  0.00    +0.000 H 
BRANCH    7    8
ATOM      9  F1  UNL A   1      15.091  50.777  14.158  1.00  0.00    +0.000 F 
ATOM     10  F2  UNL A   1      15.412  52.923  13.838  1.00  0.00    +0.000 F 
ATOM     91  H5  UNL A   1      13.871  51.909  13.074  1.00  0.00    +0.000 H 
ATOM      8  C6  UNL A   1      14.914  51.792  13.279  1.00  0.00    +0.000 C 
ENDBRANCH    7    8
ENDBRANCH    3    4
ENDBRANCH    2    3
ENDBRANCH   14    2
ENDBRANCH   15   14
ENDBRANCH   16   15
ENDBRANCH   17   16
ENDBRANCH   18   17
ENDBRANCH   19   18
ENDBRANCH   20   19
ENDBRANCH   21   20
ENDBRANCH   22   21
ENDBRANCH   24   22
ENDBRANCH   28   27
BRANCH   32   33
ATOM     33  C24 UNL A   1      13.739  54.865   6.113  1.00  0.00    +0.000 C 
ATOM     34  C25 UNL A   1      12.703  55.792   5.924  1.00  0.00    +0.000 C 
ATOM     35  F3  UNL A   1      12.162  55.961   4.708  1.00  0.00    +0.000 F 
ATOM     36  C26 UNL A   1      12.233  56.564   6.984  1.00  0.00    +0.000 C 
ATOM     37  F4  UNL A   1      11.260  57.462   6.776  1.00  0.00    +0.000 F 
ATOM     38  C27 UNL A   1      12.773  56.409   8.252  1.00  0.00    +0.000 C 
ATOM     39  F5  UNL A   1      12.310  57.144   9.273  1.00  0.00    +0.000 F 
ATOM     40  C28 UNL A   1      13.793  55.493   8.462  1.00  0.00    +0.000 C 
ATOM     41  F6  UNL A   1      14.308  55.335   9.689  1.00  0.00    +0.000 F 
ATOM     42  C29 UNL A   1      14.279  54.735   7.400  1.00  0.00    +0.000 C 
ATOM     43  F7  UNL A   1      15.267  53.859   7.633  1.00  0.00    +0.000 F 
ENDBRANCH   32   33
BRANCH   49   50
ATOM     50  C35 UNL A   1      17.945  55.411   0.298  1.00  0.00    +0.000 C 
ATOM     51  C36 UNL A   1      19.220  55.776   0.752  1.00  0.00    +0.000 C 
ATOM     52  F8  UNL A   1      19.723  55.225   1.866  1.00  0.00    +0.000 F 
ATOM     53  C37 UNL A   1      19.971  56.733   0.075  1.00  0.00    +0.000 C 
ATOM     54  F9  UNL A   1      21.174  57.091   0.543  1.00  0.00    +0.000 F 
ATOM     55  C38 UNL A   1      19.473  57.321  -1.079  1.00  0.00    +0.000 C 
ATOM     56  F10 UNL A   1      20.201  58.235  -1.734  1.00  0.00    +0.000 F 
ATOM     57  C39 UNL A   1      18.217  56.965  -1.550  1.00  0.00    +0.000 C 
ATOM     58  F11 UNL A   1      17.740  57.526  -2.669  1.00  0.00    +0.000 F 
ATOM     59  C40 UNL A   1      17.454  56.026  -0.863  1.00  0.00    +0.000 C 
ATOM     60  F12 UNL A   1      16.242  55.704  -1.338  1.00  0.00    +0.000 F 
ENDBRANCH   49   50
BRANCH   64   65
ATOM     65  C44 UNL A   1      16.821  48.674  -1.062  1.00  0.00    +0.000 C 
ATOM     66  C45 UNL A   1      17.999  47.940  -0.873  1.00  0.00    +0.000 C 
ATOM     67  F13 UNL A   1      18.718  48.106   0.246  1.00  0.00    +0.000 F 
ATOM     68  C46 UNL A   1      18.454  47.049  -1.843  1.00  0.00    +0.000 C 
ATOM     69  F14 UNL A   1      19.597  46.378  -1.650  1.00  0.00    +0.000 F 
ATOM     70  C47 UNL A   1      17.728  46.862  -3.010  1.00  0.00    +0.000 C 
ATOM     71  F15 UNL A   1      18.160  45.997  -3.938  1.00  0.00    +0.000 F 
ATOM     72  C48 UNL A   1      16.558  47.576  -3.218  1.00  0.00    +0.000 C 
ATOM     73  F16 UNL A   1      15.847  47.389  -4.339  1.00  0.00    +0.000 F 
ATOM     74  C49 UNL A   1      16.114  48.483  -2.259  1.00  0.00    +0.000 C 
ATOM     75  F17 UNL A   1      14.983  49.164  -2.486  1.00  0.00    +0.000 F 
ENDBRANCH   64   65
TORSDOF 17
ENDMDL
MODEL 6
REMARK VINA RESULT:      -8.6     37.490     43.545
ROOT
ATOM     28  C20 UNL A   1      37.967  30.168  29.961  1.00  0.00    +0.000 C 
ATOM     29  C21 UNL A   1      38.994  29.248  29.355  1.00  0.00    +0.000 C 
ATOM     30  N4  UNL A   1      40.064  28.728  29.903  1.00  0.00    +0.000 N 
ATOM     31  C22 UNL A   1      40.652  27.942  28.920  1.00  0.00    +0.000 C 
ATOM     32  C23 UNL A   1      41.798  27.223  28.985  1.00  0.00    +0.000 C 
ATOM     44  C30 UNL A   1      42.655  27.155  30.140  1.00  0.00    +0.000 C 
ATOM     45  C31 UNL A   1      43.845  26.465  30.292  1.00  0.00    +0.000 C 
ATOM     46  C32 UNL A   1      44.311  26.676  31.593  1.00  0.00    +0.000 C 
ATOM     47  C33 UNL A   1      43.429  27.525  32.241  1.00  0.00    +0.000 C 
ATOM     48  N5  UNL A   1      42.415  27.808  31.340  1.00  0.00    +0.000 N 
ATOM     49  C34 UNL A   1      43.498  28.037  33.585  1.00  0.00    +0.000 C 
ATOM     61  C41 UNL A   1      42.617  28.907  34.131  1.00  0.00    +0.000 C 
ATOM     62  N6  UNL A   1      41.483  29.469  33.563  1.00  0.00    +0.000 N 
ATOM     63  C42 UNL A   1      40.947  30.219  34.494  1.00  0.00    +0.000 C 
ATOM     64  C43 UNL A   1      39.703  31.058  34.435  1.00  0.00    +0.000 C 
ATOM     76  C50 UNL A   1      38.946  31.043  33.322  1.00  0.00    +0.000 C 
ATOM     77  C51 UNL A   1      37.709  31.795  33.131  1.00  0.00    +0.000 C 
ATOM     78  C52 UNL A   1      37.209  31.515  31.917  1.00  0.00    +0.000 C 
ATOM     79  C53 UNL A   1      38.120  30.603  31.225  1.00  0.00    +0.000 C 
ATOM     80  N7  UNL A   1      39.109  30.357  32.144  1.00  0.00    +0.000 N 
ATOM     81  C54 UNL A   1      41.683  30.216  35.766  1.00  0.00    +0.000 C 
ATOM     82  C55 UNL A   1      42.708  29.423  35.483  1.00  0.00    +0.000 C 
ATOM     83  C56 UNL A   1      39.810  28.032  27.747  1.00  0.00    +0.000 C 
ATOM     84  C57 UNL A   1      38.795  28.861  27.949  1.00  0.00    +0.000 C 
ATOM    109  H23 UNL A   1      44.310  25.894  29.569  1.00  0.00    +0.000 H 
ATOM    110  H24 UNL A   1      45.166  26.268  32.002  1.00  0.00    +0.000 H 
ATOM    111  H25 UNL A   1      41.641  28.388  31.522  1.00  0.00    +0.000 H 
ATOM    112  H26 UNL A   1      37.288  32.440  33.818  1.00  0.00    +0.000 H 
ATOM    113  H27 UNL A   1      36.326  31.884  31.534  1.00  0.00    +0.000 H 
ATOM    114  H28 UNL A   1      39.864  29.747  31.975  1.00  0.00    +0.000 H 
ATOM    115  H29 UNL A   1      41.462  30.704  36.648  1.00  0.00    +0.000 H 
ATOM    116  H30 UNL A   1      43.471  29.200  36.140  1.00  0.00    +0.000 H 
ATOM    117  H31 UNL A   1      39.979  27.517  26.868  1.00  0.00    +0.000 H 
ATOM    118  H32 UNL A   1      38.058  29.158  27.291  1.00  0.00    +0.000 H 
ENDROOT
BRANCH   28   27
ATOM     27  C19 UNL A   1      36.825  30.661  29.146  1.00  0.00    +0.000 C 
ATOM    107  H21 UNL A   1      33.905  29.593  27.867  1.00  0.00    +0.000 H 
ATOM    108  H22 UNL A   1      35.833  28.792  29.100  1.00  0.00    +0.000 H 
ATOM     85  C58 UNL A   1      36.752  31.998  28.728  1.00  0.00    +0.000 C 
ATOM     86  C59 UNL A   1      35.592  32.480  28.116  1.00  0.00    +0.000 C 
ATOM    120  H34 UNL A   1      35.526  33.472  27.838  1.00  0.00    +0.000 H 
ATOM     24  C16 UNL A   1      34.520  31.614  27.883  1.00  0.00    +0.000 C 
ATOM     25  C17 UNL A   1      34.644  30.251  28.159  1.00  0.00    +0.000 C 
ATOM     26  C18 UNL A   1      35.771  29.787  28.832  1.00  0.00    +0.000 C 
ATOM    119  H33 UNL A   1      37.557  32.628  28.873  1.00  0.00    +0.000 H 
BRANCH   24   22
ATOM     22  C15 UNL A   1      33.237  32.173  27.406  1.00  0.00    +0.000 C 
ATOM     23  O3  UNL A   1      33.113  33.385  27.261  1.00  0.00    +0.000 O 
BRANCH   22   21
ATOM    106  H20 UNL A   1      31.829  30.856  27.971  1.00  0.00    +0.000 H 
ATOM     21  N3  UNL A   1      32.175  31.327  27.179  1.00  0.00    +0.000 N 
BRANCH   21   20
ATOM    105  H19 UNL A   1      31.872  31.723  25.197  1.00  0.00    +0.000 H 
ATOM     20  C14 UNL A   1      31.494  31.037  25.926  1.00  0.00    +0.000 C 
ATOM    104  H18 UNL A   1      30.441  31.145  26.079  1.00  0.00    +0.000 H 
BRANCH   20   19
ATOM     19  C13 UNL A   1      31.763  29.631  25.399  1.00  0.00    +0.000 C 
ATOM    102  H16 UNL A   1      31.631  28.945  26.210  1.00  0.00    +0.000 H 
ATOM    103  H17 UNL A   1      31.076  29.484  24.592  1.00  0.00    +0.000 H 
BRANCH   19   18
ATOM     18  C12 UNL A   1      33.155  29.402  24.810  1.00  0.00    +0.000 C 
ATOM    100  H14 UNL A   1      33.077  29.470  23.745  1.00  0.00    +0.000 H 
ATOM    101  H15 UNL A   1      33.783  30.150  25.248  1.00  0.00    +0.000 H 
BRANCH   18   17
ATOM     17  C11 UNL A   1      33.807  28.059  25.149  1.00  0.00    +0.000 C 
ATOM     98  H12 UNL A   1      33.951  27.524  24.234  1.00  0.00    +0.000 H 
ATOM     99  H13 UNL A   1      34.713  28.300  25.663  1.00  0.00    +0.000 H 
BRANCH   17   16
ATOM     97  H11 UNL A   1      31.986  27.378  25.945  1.00  0.00    +0.000 H 
ATOM     96  H10 UNL A   1      33.354  27.350  27.100  1.00  0.00    +0.000 H 
ATOM     16  C10 UNL A   1      33.020  27.150  26.104  1.00  0.00    +0.000 C 
BRANCH   16   15
ATOM     95  H9  UNL A   1      33.785  25.242  26.617  1.00  0.00    +0.000 H 
ATOM     94  H8  UNL A   1      33.605  25.506  24.882  1.00  0.00    +0.000 H 
ATOM     15  C9  UNL A   1      33.166  25.652  25.847  1.00  0.00    +0.000 C 
BRANCH   15   14
ATOM     93  H7  UNL A   1      31.369  24.992  26.724  1.00  0.00    +0.000 H 
ATOM     14  N2  UNL A   1      31.886  24.974  25.887  1.00  0.00    +0.000 N 
BRANCH   14    2
ATOM      1  O1  UNL A   1      30.804  23.216  24.869  1.00  0.00    +0.000 O 
ATOM      2  C1  UNL A   1      31.363  24.306  24.799  1.00  0.00    +0.000 C 
BRANCH    2    3
ATOM      3  C2  UNL A   1      31.570  25.032  23.470  1.00  0.00    +0.000 C 
ATOM     87  H1  UNL A   1      31.350  24.349  22.677  1.00  0.00    +0.000 H 
ATOM     88  H2  UNL A   1      32.586  25.368  23.458  1.00  0.00    +0.000 H 
BRANCH    3    4
ATOM      4  C3  UNL A   1      30.704  26.259  23.295  1.00  0.00    +0.000 C 
ATOM      5  C4  UNL A   1      29.357  26.190  23.827  1.00  0.00    +0.000 C 
ATOM      6  C5  UNL A   1      28.508  27.212  23.661  1.00  0.00    +0.000 C 
ATOM      7  N1  UNL A   1      28.891  28.359  22.991  1.00  0.00    +0.000 N 
ATOM     11  C7  UNL A   1      30.160  28.522  22.461  1.00  0.00    +0.000 C 
ATOM     12  O2  UNL A   1      30.555  29.496  21.830  1.00  0.00    +0.000 O 
ATOM     13  C8  UNL A   1      31.097  27.382  22.668  1.00  0.00    +0.000 C 
ATOM     89  H3  UNL A   1      29.049  25.347  24.337  1.00  0.00    +0.000 H 
ATOM     90  H4  UNL A   1      27.550  27.143  24.041  1.00  0.00    +0.000 H 
ATOM     92  H6  UNL A   1      32.068  27.456  22.326  1.00  0.00    +0.000 H 
BRANCH    7    8
ATOM      9  F1  UNL A   1      27.800  29.687  21.449  1.00  0.00    +0.000 F 
ATOM     10  F2  UNL A   1      26.736  29.110  23.279  1.00  0.00    +0.000 F 
ATOM     91  H5  UNL A   1      28.344  30.293  23.262  1.00  0.00    +0.000 H 
ATOM      8  C6  UNL A   1      27.952  29.427  22.770  1.00  0.00    +0.000 C 
ENDBRANCH    7    8
ENDBRANCH    3    4
ENDBRANCH    2    3
ENDBRANCH   14    2
ENDBRANCH   15   14
ENDBRANCH   16   15
ENDBRANCH   17   16
ENDBRANCH   18   17
ENDBRANCH   19   18
ENDBRANCH   20   19
ENDBRANCH   21   20
ENDBRANCH   22   21
ENDBRANCH   24   22
ENDBRANCH   28   27
BRANCH   32   33
ATOM     33  C24 UNL A   1      42.201  26.441  27.771  1.00  0.00    +0.000 C 
ATOM     34  C25 UNL A   1      43.072  26.976  26.811  1.00  0.00    +0.000 C 
ATOM     35  F3  UNL A   1      43.508  28.239  26.926  1.00  0.00    +0.000 F 
ATOM     36  C26 UNL A   1      43.482  26.218  25.717  1.00  0.00    +0.000 C 
ATOM     37  F4  UNL A   1      44.295  26.758  24.798  1.00  0.00    +0.000 F 
ATOM     38  C27 UNL A   1      43.049  24.908  25.574  1.00  0.00    +0.000 C 
ATOM     39  F5  UNL A   1      43.455  24.177  24.527  1.00  0.00    +0.000 F 
ATOM     40  C28 UNL A   1      42.192  24.357  26.515  1.00  0.00    +0.000 C 
ATOM     41  F6  UNL A   1      41.781  23.088  26.383  1.00  0.00    +0.000 F 
ATOM     42  C29 UNL A   1      41.764  25.119  27.600  1.00  0.00    +0.000 C 
ATOM     43  F7  UNL A   1      40.934  24.560  28.493  1.00  0.00    +0.000 F 
ENDBRANCH   32   33
BRANCH   49   50
ATOM     50  C35 UNL A   1      44.636  27.579  34.447  1.00  0.00    +0.000 C 
ATOM     51  C36 UNL A   1      45.829  28.313  34.522  1.00  0.00    +0.000 C 
ATOM     52  F8  UNL A   1      45.995  29.409  33.769  1.00  0.00    +0.000 F 
ATOM     53  C37 UNL A   1      46.868  27.902  35.354  1.00  0.00    +0.000 C 
ATOM     54  F9  UNL A   1      48.011  28.599  35.387  1.00  0.00    +0.000 F 
ATOM     55  C38 UNL A   1      46.723  26.769  36.141  1.00  0.00    +0.000 C 
ATOM     56  F10 UNL A   1      47.720  26.381  36.947  1.00  0.00    +0.000 F 
ATOM     57  C39 UNL A   1      45.546  26.035  36.089  1.00  0.00    +0.000 C 
ATOM     58  F11 UNL A   1      45.402  24.946  36.856  1.00  0.00    +0.000 F 
ATOM     59  C40 UNL A   1      44.515  26.430  35.242  1.00  0.00    +0.000 C 
ATOM     60  F12 UNL A   1      43.391  25.700  35.207  1.00  0.00    +0.000 F 
ENDBRANCH   49   50
BRANCH   64   65
ATOM     65  C44 UNL A   1      39.296  31.902  35.585  1.00  0.00    +0.000 C 
ATOM     66  C45 UNL A   1      38.432  31.408  36.569  1.00  0.00    +0.000 C 
ATOM     67  F13 UNL A   1      37.926  30.171  36.456  1.00  0.00    +0.000 F 
ATOM     68  C46 UNL A   1      38.066  32.191  37.662  1.00  0.00    +0.000 C 
ATOM     69  F14 UNL A   1      37.217  31.705  38.578  1.00  0.00    +0.000 F 
ATOM     70  C47 UNL A   1      38.574  33.474  37.800  1.00  0.00    +0.000 C 
ATOM     71  F15 UNL A   1      38.231  34.222  38.857  1.00  0.00    +0.000 F 
ATOM     72  C48 UNL A   1      39.434  33.983  36.839  1.00  0.00    +0.000 C 
ATOM     73  F16 UNL A   1      39.937  35.218  36.974  1.00  0.00    +0.000 F 
ATOM     74  C49 UNL A   1      39.782  33.210  35.734  1.00  0.00    +0.000 C 
ATOM     75  F17 UNL A   1      40.611  33.727  34.817  1.00  0.00    +0.000 F 
ENDBRANCH   64   65
TORSDOF 17
ENDMDL
MODEL 7
REMARK VINA RESULT:      -8.5      3.458      8.126
ROOT
ATOM     28  C20 UNL A   1      13.818  53.434   6.067  1.00  0.00    +0.000 C 
ATOM     29  C21 UNL A   1      13.368  52.009   5.884  1.00  0.00    +0.000 C 
ATOM     30  N4  UNL A   1      13.703  51.148   4.954  1.00  0.00    +0.000 N 
ATOM     31  C22 UNL A   1      13.022  49.976   5.256  1.00  0.00    +0.000 C 
ATOM     32  C23 UNL A   1      13.010  48.805   4.575  1.00  0.00    +0.000 C 
ATOM     44  C30 UNL A   1      13.731  48.565   3.352  1.00  0.00    +0.000 C 
ATOM     45  C31 UNL A   1      13.765  47.414   2.583  1.00  0.00    +0.000 C 
ATOM     46  C32 UNL A   1      14.617  47.639   1.497  1.00  0.00    +0.000 C 
ATOM     47  C33 UNL A   1      15.085  48.940   1.570  1.00  0.00    +0.000 C 
ATOM     48  N5  UNL A   1      14.537  49.496   2.715  1.00  0.00    +0.000 N 
ATOM     49  C34 UNL A   1      15.972  49.628   0.669  1.00  0.00    +0.000 C 
ATOM     61  C41 UNL A   1      16.346  50.924   0.784  1.00  0.00    +0.000 C 
ATOM     62  N6  UNL A   1      15.997  51.846   1.759  1.00  0.00    +0.000 N 
ATOM     63  C42 UNL A   1      16.633  52.950   1.455  1.00  0.00    +0.000 C 
ATOM     64  C43 UNL A   1      16.630  54.273   2.167  1.00  0.00    +0.000 C 
ATOM     76  C50 UNL A   1      15.948  54.403   3.320  1.00  0.00    +0.000 C 
ATOM     77  C51 UNL A   1      15.869  55.619   4.123  1.00  0.00    +0.000 C 
ATOM     78  C52 UNL A   1      15.132  55.375   5.218  1.00  0.00    +0.000 C 
ATOM     79  C53 UNL A   1      14.644  53.996   5.166  1.00  0.00    +0.000 C 
ATOM     80  N7  UNL A   1      15.199  53.488   4.019  1.00  0.00    +0.000 N 
ATOM     81  C54 UNL A   1      17.463  52.853   0.246  1.00  0.00    +0.000 C 
ATOM     82  C55 UNL A   1      17.231  51.605  -0.140  1.00  0.00    +0.000 C 
ATOM     83  C56 UNL A   1      12.272  50.223   6.468  1.00  0.00    +0.000 C 
ATOM     84  C57 UNL A   1      12.418  51.477   6.874  1.00  0.00    +0.000 C 
ATOM    109  H23 UNL A   1      13.251  46.541   2.777  1.00  0.00    +0.000 H 
ATOM    110  H24 UNL A   1      14.856  46.952   0.764  1.00  0.00    +0.000 H 
ATOM    111  H25 UNL A   1      14.695  50.415   3.030  1.00  0.00    +0.000 H 
ATOM    112  H26 UNL A   1      16.307  56.523   3.886  1.00  0.00    +0.000 H 
ATOM    113  H27 UNL A   1      14.941  56.050   5.974  1.00  0.00    +0.000 H 
ATOM    114  H28 UNL A   1      15.072  52.557   3.725  1.00  0.00    +0.000 H 
ATOM    115  H29 UNL A   1      18.067  53.567  -0.190  1.00  0.00    +0.000 H 
ATOM    116  H30 UNL A   1      17.630  51.174  -0.988  1.00  0.00    +0.000 H 
ATOM    117  H31 UNL A   1      11.699  49.514   6.954  1.00  0.00    +0.000 H 
ATOM    118  H32 UNL A   1      11.978  51.955   7.675  1.00  0.00    +0.000 H 
ENDROOT
BRANCH   28   27
ATOM     27  C19 UNL A   1      13.295  54.248   7.196  1.00  0.00    +0.000 C 
ATOM    107  H21 UNL A   1      10.749  56.315   7.936  1.00  0.00    +0.000 H 
ATOM    108  H22 UNL A   1      11.689  55.063   6.085  1.00  0.00    +0.000 H 
ATOM     85  C58 UNL A   1      13.913  54.229   8.456  1.00  0.00    +0.000 C 
ATOM     86  C59 UNL A   1      13.307  54.861   9.545  1.00  0.00    +0.000 C 
ATOM    120  H34 UNL A   1      13.746  54.819  10.479  1.00  0.00    +0.000 H 
ATOM     24  C16 UNL A   1      12.104  55.549   9.366  1.00  0.00    +0.000 C 
ATOM     25  C17 UNL A   1      11.563  55.699   8.087  1.00  0.00    +0.000 C 
ATOM     26  C18 UNL A   1      12.129  55.011   7.017  1.00  0.00    +0.000 C 
ATOM    119  H33 UNL A   1      14.817  53.747   8.578  1.00  0.00    +0.000 H 
BRANCH   24   22
ATOM     22  C15 UNL A   1      11.382  56.053  10.554  1.00  0.00    +0.000 C 
ATOM     23  O3  UNL A   1      10.903  57.183  10.545  1.00  0.00    +0.000 O 
BRANCH   22   21
ATOM    106  H20 UNL A   1      11.235  54.297  11.519  1.00  0.00    +0.000 H 
ATOM     21  N3  UNL A   1      11.302  55.265  11.680  1.00  0.00    +0.000 N 
BRANCH   21   20
ATOM    105  H19 UNL A   1      10.308  55.541  13.445  1.00  0.00    +0.000 H 
ATOM     20  C14 UNL A   1      11.305  55.672  13.077  1.00  0.00    +0.000 C 
ATOM    104  H18 UNL A   1      11.627  56.690  13.134  1.00  0.00    +0.000 H 
BRANCH   20   19
ATOM     19  C13 UNL A   1      12.220  54.827  13.956  1.00  0.00    +0.000 C 
ATOM    102  H16 UNL A   1      12.735  55.485  14.625  1.00  0.00    +0.000 H 
ATOM    103  H17 UNL A   1      11.585  54.120  14.447  1.00  0.00    +0.000 H 
BRANCH   19   18
ATOM     18  C12 UNL A   1      13.268  53.999  13.212  1.00  0.00    +0.000 C 
ATOM    100  H14 UNL A   1      13.302  54.345  12.199  1.00  0.00    +0.000 H 
ATOM    101  H15 UNL A   1      14.183  54.136  13.748  1.00  0.00    +0.000 H 
BRANCH   18   17
ATOM     17  C11 UNL A   1      13.024  52.487  13.183  1.00  0.00    +0.000 C 
ATOM     98  H12 UNL A   1      12.467  52.229  14.060  1.00  0.00    +0.000 H 
ATOM     99  H13 UNL A   1      12.510  52.296  12.266  1.00  0.00    +0.000 H 
BRANCH   17   16
ATOM     97  H11 UNL A   1      14.035  50.769  12.523  1.00  0.00    +0.000 H 
ATOM     96  H10 UNL A   1      14.517  51.329  14.154  1.00  0.00    +0.000 H 
ATOM     16  C10 UNL A   1      14.278  51.603  13.148  1.00  0.00    +0.000 C 
BRANCH   16   15
ATOM     95  H9  UNL A   1      16.376  51.717  12.870  1.00  0.00    +0.000 H 
ATOM     94  H8  UNL A   1      15.554  53.278  12.823  1.00  0.00    +0.000 H 
ATOM     15  C9  UNL A   1      15.514  52.250  12.527  1.00  0.00    +0.000 C 
BRANCH   15   14
ATOM     93  H7  UNL A   1      15.108  52.936  10.578  1.00  0.00    +0.000 H 
ATOM     14  N2  UNL A   1      15.487  52.179  11.080  1.00  0.00    +0.000 N 
BRANCH   14    2
ATOM      1  O1  UNL A   1      17.068  50.583  10.578  1.00  0.00    +0.000 O 
ATOM      2  C1  UNL A   1      15.971  51.094  10.378  1.00  0.00    +0.000 C 
BRANCH    2    3
ATOM      3  C2  UNL A   1      15.024  50.591   9.288  1.00  0.00    +0.000 C 
ATOM     87  H1  UNL A   1      15.614  50.232   8.472  1.00  0.00    +0.000 H 
ATOM     88  H2  UNL A   1      14.400  51.418   9.017  1.00  0.00    +0.000 H 
BRANCH    3    4
ATOM      4  C3  UNL A   1      14.103  49.479   9.735  1.00  0.00    +0.000 C 
ATOM      5  C4  UNL A   1      14.592  48.122   9.581  1.00  0.00    +0.000 C 
ATOM      6  C5  UNL A   1      13.815  47.080   9.898  1.00  0.00    +0.000 C 
ATOM      7  N1  UNL A   1      12.534  47.264  10.387  1.00  0.00    +0.000 N 
ATOM     11  C7  UNL A   1      11.986  48.521  10.580  1.00  0.00    +0.000 C 
ATOM     12  O2  UNL A   1      10.851  48.755  10.979  1.00  0.00    +0.000 O 
ATOM     13  C8  UNL A   1      12.870  49.670  10.239  1.00  0.00    +0.000 C 
ATOM     89  H3  UNL A   1      15.547  47.960   9.225  1.00  0.00    +0.000 H 
ATOM     90  H4  UNL A   1      14.177  46.121   9.776  1.00  0.00    +0.000 H 
ATOM     92  H6  UNL A   1      12.531  50.633  10.393  1.00  0.00    +0.000 H 
BRANCH    7    8
ATOM      9  F1  UNL A   1      10.700  46.014   9.752  1.00  0.00    +0.000 F 
ATOM     10  F2  UNL A   1      12.406  44.984  10.668  1.00  0.00    +0.000 F 
ATOM     91  H5  UNL A   1      11.261  46.301  11.637  1.00  0.00    +0.000 H 
ATOM      8  C6  UNL A   1      11.689  46.134  10.671  1.00  0.00    +0.000 C 
ENDBRANCH    7    8
ENDBRANCH    3    4
ENDBRANCH    2    3
ENDBRANCH   14    2
ENDBRANCH   15   14
ENDBRANCH   16   15
ENDBRANCH   17   16
ENDBRANCH   18   17
ENDBRANCH   19   18
ENDBRANCH   20   19
ENDBRANCH   21   20
ENDBRANCH   22   21
ENDBRANCH   24   22
ENDBRANCH   28   27
BRANCH   32   33
ATOM     33  C24 UNL A   1      12.194  47.679   5.136  1.00  0.00    +0.000 C 
ATOM     34  C25 UNL A   1      12.703  46.831   6.131  1.00  0.00    +0.000 C 
ATOM     35  F3  UNL A   1      13.969  46.968   6.550  1.00  0.00    +0.000 F 
ATOM     36  C26 UNL A   1      11.914  45.824   6.683  1.00  0.00    +0.000 C 
ATOM     37  F4  UNL A   1      12.429  45.009   7.614  1.00  0.00    +0.000 F 
ATOM     38  C27 UNL A   1      10.601  45.662   6.269  1.00  0.00    +0.000 C 
ATOM     39  F5  UNL A   1       9.841  44.700   6.812  1.00  0.00    +0.000 F 
ATOM     40  C28 UNL A   1      10.076  46.494   5.292  1.00  0.00    +0.000 C 
ATOM     41  F6  UNL A   1       8.803  46.343   4.899  1.00  0.00    +0.000 F 
ATOM     42  C29 UNL A   1      10.867  47.488   4.723  1.00  0.00    +0.000 C 
ATOM     43  F7  UNL A   1      10.333  48.276   3.779  1.00  0.00    +0.000 F 
ENDBRANCH   32   33
BRANCH   49   50
ATOM     50  C35 UNL A   1      16.521  48.855  -0.493  1.00  0.00    +0.000 C 
ATOM     51  C36 UNL A   1      15.809  48.750  -1.696  1.00  0.00    +0.000 C 
ATOM     52  F8  UNL A   1      14.586  49.290  -1.805  1.00  0.00    +0.000 F 
ATOM     53  C37 UNL A   1      16.341  48.063  -2.783  1.00  0.00    +0.000 C 
ATOM     54  F9  UNL A   1      15.631  47.946  -3.912  1.00  0.00    +0.000 F 
ATOM     55  C38 UNL A   1      17.603  47.491  -2.695  1.00  0.00    +0.000 C 
ATOM     56  F10 UNL A   1      18.117  46.838  -3.745  1.00  0.00    +0.000 F 
ATOM     57  C39 UNL A   1      18.328  47.593  -1.517  1.00  0.00    +0.000 C 
ATOM     58  F11 UNL A   1      19.550  47.050  -1.435  1.00  0.00    +0.000 F 
ATOM     59  C40 UNL A   1      17.790  48.260  -0.421  1.00  0.00    +0.000 C 
ATOM     60  F12 UNL A   1      18.510  48.339   0.707  1.00  0.00    +0.000 F 
ENDBRANCH   49   50
BRANCH   64   65
ATOM     65  C44 UNL A   1      17.367  55.437   1.618  1.00  0.00    +0.000 C 
ATOM     66  C45 UNL A   1      16.725  56.370   0.793  1.00  0.00    +0.000 C 
ATOM     67  F13 UNL A   1      15.440  56.191   0.455  1.00  0.00    +0.000 F 
ATOM     68  C46 UNL A   1      17.409  57.477   0.294  1.00  0.00    +0.000 C 
ATOM     69  F14 UNL A   1      16.781  58.341  -0.515  1.00  0.00    +0.000 F 
ATOM     70  C47 UNL A   1      18.740  57.681   0.628  1.00  0.00    +0.000 C 
ATOM     71  F15 UNL A   1      19.393  58.752   0.157  1.00  0.00    +0.000 F 
ATOM     72  C48 UNL A   1      19.394  56.773   1.446  1.00  0.00    +0.000 C 
ATOM     73  F16 UNL A   1      20.676  56.973   1.781  1.00  0.00    +0.000 F 
ATOM     74  C49 UNL A   1      18.718  55.654   1.926  1.00  0.00    +0.000 C 
ATOM     75  F17 UNL A   1      19.374  54.788   2.711  1.00  0.00    +0.000 F 
ENDBRANCH   64   65
TORSDOF 17
ENDMDL
MODEL 8
REMARK VINA RESULT:      -8.4     45.901     50.480
ROOT
ATOM     28  C20 UNL A   1      52.821  20.019  11.494  1.00  0.00    +0.000 C 
ATOM     29  C21 UNL A   1      54.188  19.462  11.195  1.00  0.00    +0.000 C 
ATOM     30  N4  UNL A   1      55.241  19.393  11.971  1.00  0.00    +0.000 N 
ATOM     31  C22 UNL A   1      56.232  18.778  11.216  1.00  0.00    +0.000 C 
ATOM     32  C23 UNL A   1      57.513  18.508  11.561  1.00  0.00    +0.000 C 
ATOM     44  C30 UNL A   1      58.104  18.839  12.831  1.00  0.00    +0.000 C 
ATOM     45  C31 UNL A   1      59.401  18.619  13.263  1.00  0.00    +0.000 C 
ATOM     46  C32 UNL A   1      59.511  19.088  14.576  1.00  0.00    +0.000 C 
ATOM     47  C33 UNL A   1      58.293  19.632  14.949  1.00  0.00    +0.000 C 
ATOM     48  N5  UNL A   1      57.438  19.469  13.871  1.00  0.00    +0.000 N 
ATOM     49  C34 UNL A   1      57.930  20.250  16.198  1.00  0.00    +0.000 C 
ATOM     61  C41 UNL A   1      56.725  20.806  16.468  1.00  0.00    +0.000 C 
ATOM     62  N6  UNL A   1      55.604  20.890  15.656  1.00  0.00    +0.000 N 
ATOM     63  C42 UNL A   1      54.683  21.485  16.374  1.00  0.00    +0.000 C 
ATOM     64  C43 UNL A   1      53.271  21.834  16.002  1.00  0.00    +0.000 C 
ATOM     76  C50 UNL A   1      52.791  21.463  14.801  1.00  0.00    +0.000 C 
ATOM     77  C51 UNL A   1      51.439  21.722  14.314  1.00  0.00    +0.000 C 
ATOM     78  C52 UNL A   1      51.303  21.184  13.092  1.00  0.00    +0.000 C 
ATOM     79  C53 UNL A   1      52.577  20.586  12.689  1.00  0.00    +0.000 C 
ATOM     80  N7  UNL A   1      53.394  20.778  13.776  1.00  0.00    +0.000 N 
ATOM     81  C54 UNL A   1      55.119  21.847  17.731  1.00  0.00    +0.000 C 
ATOM     82  C55 UNL A   1      56.380  21.435  17.728  1.00  0.00    +0.000 C 
ATOM     83  C56 UNL A   1      55.651  18.470   9.927  1.00  0.00    +0.000 C 
ATOM     84  C57 UNL A   1      54.403  18.911   9.847  1.00  0.00    +0.000 C 
ATOM    109  H23 UNL A   1      60.157  18.184  12.712  1.00  0.00    +0.000 H 
ATOM    110  H24 UNL A   1      60.355  19.038  15.166  1.00  0.00    +0.000 H 
ATOM    111  H25 UNL A   1      56.497  19.759  13.845  1.00  0.00    +0.000 H 
ATOM    112  H26 UNL A   1      50.706  22.238  14.826  1.00  0.00    +0.000 H 
ATOM    113  H27 UNL A   1      50.440  21.190  12.528  1.00  0.00    +0.000 H 
ATOM    114  H28 UNL A   1      54.323  20.454  13.815  1.00  0.00    +0.000 H 
ATOM    115  H29 UNL A   1      54.584  22.302  18.487  1.00  0.00    +0.000 H 
ATOM    116  H30 UNL A   1      57.031  21.547  18.520  1.00  0.00    +0.000 H 
ATOM    117  H31 UNL A   1      56.145  17.972   9.170  1.00  0.00    +0.000 H 
ATOM    118  H32 UNL A   1      53.752  18.877   9.047  1.00  0.00    +0.000 H 
ENDROOT
BRANCH   28   27
ATOM     27  C19 UNL A   1      51.763  20.015  10.450  1.00  0.00    +0.000 C 
ATOM    107  H21 UNL A   1      50.268  22.090   8.269  1.00  0.00    +0.000 H 
ATOM    108  H22 UNL A   1      51.911  22.087  10.051  1.00  0.00    +0.000 H 
ATOM     85  C58 UNL A   1      51.098  18.832  10.092  1.00  0.00    +0.000 C 
ATOM     86  C59 UNL A   1      50.235  18.816   8.993  1.00  0.00    +0.000 C 
ATOM    120  H34 UNL A   1      49.772  17.938   8.710  1.00  0.00    +0.000 H 
ATOM     24  C16 UNL A   1      50.004  19.994   8.277  1.00  0.00    +0.000 C 
ATOM     25  C17 UNL A   1      50.543  21.203   8.719  1.00  0.00    +0.000 C 
ATOM     26  C18 UNL A   1      51.457  21.204   9.770  1.00  0.00    +0.000 C 
ATOM    119  H33 UNL A   1      51.247  17.971  10.642  1.00  0.00    +0.000 H 
BRANCH   24   22
ATOM     22  C15 UNL A   1      49.239  19.926   7.013  1.00  0.00    +0.000 C 
ATOM     23  O3  UNL A   1      49.116  20.929   6.317  1.00  0.00    +0.000 O 
BRANCH   22   21
ATOM    106  H20 UNL A   1      48.552  18.071   7.371  1.00  0.00    +0.000 H 
ATOM     21  N3  UNL A   1      48.627  18.745   6.657  1.00  0.00    +0.000 N 
BRANCH   21   20
ATOM    105  H19 UNL A   1      48.139  17.293   5.303  1.00  0.00    +0.000 H 
ATOM     20  C14 UNL A   1      48.074  18.359   5.367  1.00  0.00    +0.000 C 
ATOM    104  H18 UNL A   1      48.636  18.847   4.598  1.00  0.00    +0.000 H 
BRANCH   20   19
ATOM     19  C13 UNL A   1      46.605  18.729   5.199  1.00  0.00    +0.000 C 
ATOM    102  H16 UNL A   1      46.018  17.980   5.690  1.00  0.00    +0.000 H 
ATOM    103  H17 UNL A   1      46.498  19.707   5.621  1.00  0.00    +0.000 H 
BRANCH   19   18
ATOM     18  C12 UNL A   1      46.113  18.841   3.756  1.00  0.00    +0.000 C 
ATOM    100  H14 UNL A   1      46.970  18.939   3.123  1.00  0.00    +0.000 H 
ATOM    101  H15 UNL A   1      45.538  17.957   3.575  1.00  0.00    +0.000 H 
BRANCH   18   17
ATOM     17  C11 UNL A   1      45.174  20.015   3.463  1.00  0.00    +0.000 C 
ATOM     98  H12 UNL A   1      45.310  20.743   4.236  1.00  0.00    +0.000 H 
ATOM     99  H13 UNL A   1      45.440  20.359   2.486  1.00  0.00    +0.000 H 
BRANCH   17   16
ATOM     97  H11 UNL A   1      43.166  20.619   3.353  1.00  0.00    +0.000 H 
ATOM     96  H10 UNL A   1      43.431  19.092   4.250  1.00  0.00    +0.000 H 
ATOM     16  C10 UNL A   1      43.679  19.680   3.391  1.00  0.00    +0.000 C 
BRANCH   16   15
ATOM     95  H9  UNL A   1      43.206  17.869   2.396  1.00  0.00    +0.000 H 
ATOM     94  H8  UNL A   1      43.943  19.094   1.361  1.00  0.00    +0.000 H 
ATOM     15  C9  UNL A   1      43.241  18.909   2.148  1.00  0.00    +0.000 C 
BRANCH   15   14
ATOM     93  H7  UNL A   1      41.142  19.046   2.241  1.00  0.00    +0.000 H 
ATOM     14  N2  UNL A   1      41.923  19.312   1.704  1.00  0.00    +0.000 N 
BRANCH   14    2
ATOM      1  O1  UNL A   1      42.022  19.674  -0.568  1.00  0.00    +0.000 O 
ATOM      2  C1  UNL A   1      41.716  20.053   0.558  1.00  0.00    +0.000 C 
BRANCH    2    3
ATOM      3  C2  UNL A   1      41.094  21.426   0.814  1.00  0.00    +0.000 C 
ATOM     87  H1  UNL A   1      41.612  22.145   0.215  1.00  0.00    +0.000 H 
ATOM     88  H2  UNL A   1      41.188  21.615   1.863  1.00  0.00    +0.000 H 
BRANCH    3    4
ATOM      4  C3  UNL A   1      39.621  21.507   0.486  1.00  0.00    +0.000 C 
ATOM      5  C4  UNL A   1      39.248  22.325  -0.652  1.00  0.00    +0.000 C 
ATOM      6  C5  UNL A   1      37.959  22.495  -0.972  1.00  0.00    +0.000 C 
ATOM      7  N1  UNL A   1      36.953  21.895  -0.237  1.00  0.00    +0.000 N 
ATOM     11  C7  UNL A   1      37.213  21.087   0.857  1.00  0.00    +0.000 C 
ATOM     12  O2  UNL A   1      36.371  20.552   1.569  1.00  0.00    +0.000 O 
ATOM     13  C8  UNL A   1      38.652  20.894   1.190  1.00  0.00    +0.000 C 
ATOM     89  H3  UNL A   1      39.981  22.777  -1.220  1.00  0.00    +0.000 H 
ATOM     90  H4  UNL A   1      37.711  23.086  -1.782  1.00  0.00    +0.000 H 
ATOM     92  H6  UNL A   1      38.912  20.276   1.974  1.00  0.00    +0.000 H 
BRANCH    7    8
ATOM      9  F1  UNL A   1      35.131  23.296  -0.020  1.00  0.00    +0.000 F 
ATOM     10  F2  UNL A   1      35.392  22.198  -1.900  1.00  0.00    +0.000 F 
ATOM     91  H5  UNL A   1      35.012  21.317  -0.150  1.00  0.00    +0.000 H 
ATOM      8  C6  UNL A   1      35.570  22.133  -0.558  1.00  0.00    +0.000 C 
ENDBRANCH    7    8
ENDBRANCH    3    4
ENDBRANCH    2    3
ENDBRANCH   14    2
ENDBRANCH   15   14
ENDBRANCH   16   15
ENDBRANCH   17   16
ENDBRANCH   18   17
ENDBRANCH   19   18
ENDBRANCH   20   19
ENDBRANCH   21   20
ENDBRANCH   22   21
ENDBRANCH   24   22
ENDBRANCH   28   27
BRANCH   32   33
ATOM     33  C24 UNL A   1      58.376  17.811  10.551  1.00  0.00    +0.000 C 
ATOM     34  C25 UNL A   1      59.168  18.531   9.644  1.00  0.00    +0.000 C 
ATOM     35  F3  UNL A   1      59.110  19.871   9.615  1.00  0.00    +0.000 F 
ATOM     36  C26 UNL A   1      60.006  17.872   8.749  1.00  0.00    +0.000 C 
ATOM     37  F4  UNL A   1      60.735  18.579   7.873  1.00  0.00    +0.000 F 
ATOM     38  C27 UNL A   1      60.087  16.487   8.758  1.00  0.00    +0.000 C 
ATOM     39  F5  UNL A   1      60.904  15.857   7.904  1.00  0.00    +0.000 F 
ATOM     40  C28 UNL A   1      59.317  15.757   9.651  1.00  0.00    +0.000 C 
ATOM     41  F6  UNL A   1      59.402  14.419   9.668  1.00  0.00    +0.000 F 
ATOM     42  C29 UNL A   1      58.462  16.411  10.534  1.00  0.00    +0.000 C 
ATOM     43  F7  UNL A   1      57.729  15.678  11.384  1.00  0.00    +0.000 F 
ENDBRANCH   32   33
BRANCH   49   50
ATOM     50  C35 UNL A   1      58.965  20.290  17.282  1.00  0.00    +0.000 C 
ATOM     51  C36 UNL A   1      59.746  21.434  17.496  1.00  0.00    +0.000 C 
ATOM     52  F8  UNL A   1      59.624  22.496  16.687  1.00  0.00    +0.000 F 
ATOM     53  C37 UNL A   1      60.679  21.478  18.529  1.00  0.00    +0.000 C 
ATOM     54  F9  UNL A   1      61.439  22.568  18.697  1.00  0.00    +0.000 F 
ATOM     55  C38 UNL A   1      60.828  20.391  19.378  1.00  0.00    +0.000 C 
ATOM     56  F10 UNL A   1      61.720  20.438  20.377  1.00  0.00    +0.000 F 
ATOM     57  C39 UNL A   1      60.057  19.253  19.190  1.00  0.00    +0.000 C 
ATOM     58  F11 UNL A   1      60.194  18.207  20.015  1.00  0.00    +0.000 F 
ATOM     59  C40 UNL A   1      59.139  19.198  18.145  1.00  0.00    +0.000 C 
ATOM     60  F12 UNL A   1      58.410  18.084  17.981  1.00  0.00    +0.000 F 
ENDBRANCH   49   50
BRANCH   64   65
ATOM     65  C44 UNL A   1      52.397  22.581  16.940  1.00  0.00    +0.000 C 
ATOM     66  C45 UNL A   1      52.261  23.972  16.842  1.00  0.00    +0.000 C 
ATOM     67  F13 UNL A   1      52.960  24.649  15.920  1.00  0.00    +0.000 F 
ATOM     68  C46 UNL A   1      51.424  24.674  17.707  1.00  0.00    +0.000 C 
ATOM     69  F14 UNL A   1      51.331  26.007  17.611  1.00  0.00    +0.000 F 
ATOM     70  C47 UNL A   1      50.693  23.995  18.671  1.00  0.00    +0.000 C 
ATOM     71  F15 UNL A   1      49.879  24.670  19.495  1.00  0.00    +0.000 F 
ATOM     72  C48 UNL A   1      50.809  22.618  18.784  1.00  0.00    +0.000 C 
ATOM     73  F16 UNL A   1      50.096  21.958  19.705  1.00  0.00    +0.000 F 
ATOM     74  C49 UNL A   1      51.663  21.919  17.935  1.00  0.00    +0.000 C 
ATOM     75  F17 UNL A   1      51.762  20.589  18.068  1.00  0.00    +0.000 F 
ENDBRANCH   64   65
TORSDOF 17
ENDMDL
MODEL 9
REMARK VINA RESULT:      -8.4     38.214     43.558
ROOT
ATOM     28  C20 UNL A   1      38.407  30.058  29.635  1.00  0.00    +0.000 C 
ATOM     29  C21 UNL A   1      38.652  30.562  31.033  1.00  0.00    +0.000 C 
ATOM     30  N4  UNL A   1      39.664  30.328  31.831  1.00  0.00    +0.000 N 
ATOM     31  C22 UNL A   1      39.406  31.044  32.994  1.00  0.00    +0.000 C 
ATOM     32  C23 UNL A   1      40.139  31.103  34.131  1.00  0.00    +0.000 C 
ATOM     44  C30 UNL A   1      41.369  30.386  34.348  1.00  0.00    +0.000 C 
ATOM     45  C31 UNL A   1      42.172  30.372  35.476  1.00  0.00    +0.000 C 
ATOM     46  C32 UNL A   1      43.274  29.552  35.218  1.00  0.00    +0.000 C 
ATOM     47  C33 UNL A   1      43.141  29.027  33.943  1.00  0.00    +0.000 C 
ATOM     48  N5  UNL A   1      41.970  29.551  33.419  1.00  0.00    +0.000 N 
ATOM     49  C34 UNL A   1      44.018  28.121  33.248  1.00  0.00    +0.000 C 
ATOM     61  C41 UNL A   1      43.790  27.613  32.013  1.00  0.00    +0.000 C 
ATOM     62  N6  UNL A   1      42.722  27.848  31.160  1.00  0.00    +0.000 N 
ATOM     63  C42 UNL A   1      42.970  27.155  30.075  1.00  0.00    +0.000 C 
ATOM     64  C43 UNL A   1      42.155  27.039  28.819  1.00  0.00    +0.000 C 
ATOM     76  C50 UNL A   1      41.029  27.765  28.690  1.00  0.00    +0.000 C 
ATOM     77  C51 UNL A   1      40.150  27.762  27.525  1.00  0.00    +0.000 C 
ATOM     78  C52 UNL A   1      39.144  28.626  27.732  1.00  0.00    +0.000 C 
ATOM     79  C53 UNL A   1      39.281  29.205  29.069  1.00  0.00    +0.000 C 
ATOM     80  N7  UNL A   1      40.441  28.655  29.554  1.00  0.00    +0.000 N 
ATOM     81  C54 UNL A   1      44.230  26.400  30.119  1.00  0.00    +0.000 C 
ATOM     82  C55 UNL A   1      44.677  26.691  31.332  1.00  0.00    +0.000 C 
ATOM     83  C56 UNL A   1      38.155  31.742  32.792  1.00  0.00    +0.000 C 
ATOM     84  C57 UNL A   1      37.626  31.443  31.613  1.00  0.00    +0.000 C 
ATOM    109  H23 UNL A   1      41.989  30.879  36.355  1.00  0.00    +0.000 H 
ATOM    110  H24 UNL A   1      44.055  29.367  35.867  1.00  0.00    +0.000 H 
ATOM    111  H25 UNL A   1      41.615  29.357  32.521  1.00  0.00    +0.000 H 
ATOM    112  H26 UNL A   1      40.280  27.187  26.677  1.00  0.00    +0.000 H 
ATOM    113  H27 UNL A   1      38.396  28.846  27.057  1.00  0.00    +0.000 H 
ATOM    114  H28 UNL A   1      40.815  28.879  30.437  1.00  0.00    +0.000 H 
ATOM    115  H29 UNL A   1      44.654  25.799  29.395  1.00  0.00    +0.000 H 
ATOM    116  H30 UNL A   1      45.546  26.313  31.740  1.00  0.00    +0.000 H 
ATOM    117  H31 UNL A   1      37.731  32.387  33.476  1.00  0.00    +0.000 H 
ATOM    118  H32 UNL A   1      36.728  31.750  31.208  1.00  0.00    +0.000 H 
ENDROOT
BRANCH   28   27
ATOM     27  C19 UNL A   1      37.169  30.436  28.906  1.00  0.00    +0.000 C 
ATOM    107  H21 UNL A   1      34.281  29.091  27.831  1.00  0.00    +0.000 H 
ATOM    108  H22 UNL A   1      36.359  28.481  28.922  1.00  0.00    +0.000 H 
ATOM     85  C58 UNL A   1      36.938  31.760  28.500  1.00  0.00    +0.000 C 
ATOM     86  C59 UNL A   1      35.697  32.127  27.974  1.00  0.00    +0.000 C 
ATOM    120  H34 UNL A   1      35.517  33.108  27.706  1.00  0.00    +0.000 H 
ATOM     24  C16 UNL A   1      34.699  31.162  27.813  1.00  0.00    +0.000 C 
ATOM     25  C17 UNL A   1      34.973  29.817  28.073  1.00  0.00    +0.000 C 
ATOM     26  C18 UNL A   1      36.184  29.465  28.663  1.00  0.00    +0.000 C 
ATOM    119  H33 UNL A   1      37.688  32.464  28.591  1.00  0.00    +0.000 H 
BRANCH   24   22
ATOM     22  C15 UNL A   1      33.338  31.594  27.431  1.00  0.00    +0.000 C 
ATOM     23  O3  UNL A   1      33.050  32.787  27.437  1.00  0.00    +0.000 O 
BRANCH   22   21
ATOM    106  H20 UNL A   1      32.006  30.160  27.888  1.00  0.00    +0.000 H 
ATOM     21  N3  UNL A   1      32.390  30.645  27.123  1.00  0.00    +0.000 N 
BRANCH   21   20
ATOM    105  H19 UNL A   1      31.651  31.166  25.289  1.00  0.00    +0.000 H 
ATOM     20  C14 UNL A   1      31.878  30.262  25.815  1.00  0.00    +0.000 C 
ATOM    104  H18 UNL A   1      31.014  29.647  25.955  1.00  0.00    +0.000 H 
BRANCH   20   19
ATOM     19  C13 UNL A   1      32.886  29.493  24.968  1.00  0.00    +0.000 C 
ATOM    102  H16 UNL A   1      33.651  30.176  24.664  1.00  0.00    +0.000 H 
ATOM    103  H17 UNL A   1      33.239  28.694  25.586  1.00  0.00    +0.000 H 
BRANCH   19   18
ATOM     18  C12 UNL A   1      32.322  28.830  23.711  1.00  0.00    +0.000 C 
ATOM    100  H14 UNL A   1      32.739  29.329  22.861  1.00  0.00    +0.000 H 
ATOM    101  H15 UNL A   1      32.588  27.797  23.781  1.00  0.00    +0.000 H 
BRANCH   18   17
ATOM     17  C11 UNL A   1      30.797  28.859  23.571  1.00  0.00    +0.000 C 
ATOM     98  H12 UNL A   1      30.388  29.178  24.508  1.00  0.00    +0.000 H 
ATOM     99  H13 UNL A   1      30.595  29.521  22.757  1.00  0.00    +0.000 H 
BRANCH   17   16
ATOM     97  H11 UNL A   1      29.774  27.646  22.196  1.00  0.00    +0.000 H 
ATOM     96  H10 UNL A   1      29.353  27.338  23.909  1.00  0.00    +0.000 H 
ATOM     16  C10 UNL A   1      30.130  27.528  23.198  1.00  0.00    +0.000 C 
BRANCH   16   15
ATOM     95  H9  UNL A   1      32.045  26.649  23.425  1.00  0.00    +0.000 H 
ATOM     94  H8  UNL A   1      31.035  25.878  22.201  1.00  0.00    +0.000 H 
ATOM     15  C9  UNL A   1      31.059  26.316  23.177  1.00  0.00    +0.000 C 
BRANCH   15   14
ATOM     93  H7  UNL A   1      30.446  24.412  23.833  1.00  0.00    +0.000 H 
ATOM     14  N2  UNL A   1      30.661  25.319  24.149  1.00  0.00    +0.000 N 
BRANCH   14    2
ATOM      1  O1  UNL A   1      29.533  25.502  26.147  1.00  0.00    +0.000 O 
ATOM      2  C1  UNL A   1      30.571  25.589  25.499  1.00  0.00    +0.000 C 
BRANCH    2    3
ATOM      3  C2  UNL A   1      31.888  26.045  26.127  1.00  0.00    +0.000 C 
ATOM     87  H1  UNL A   1      31.704  26.289  27.152  1.00  0.00    +0.000 H 
ATOM     88  H2  UNL A   1      32.227  26.884  25.556  1.00  0.00    +0.000 H 
BRANCH    3    4
ATOM      4  C3  UNL A   1      32.989  25.010  26.075  1.00  0.00    +0.000 C 
ATOM      5  C4  UNL A   1      34.202  25.379  25.371  1.00  0.00    +0.000 C 
ATOM      6  C5  UNL A   1      35.200  24.498  25.230  1.00  0.00    +0.000 C 
ATOM      7  N1  UNL A   1      35.107  23.222  25.754  1.00  0.00    +0.000 N 
ATOM     11  C7  UNL A   1      33.995  22.783  26.452  1.00  0.00    +0.000 C 
ATOM     12  O2  UNL A   1      33.835  21.659  26.914  1.00  0.00    +0.000 O 
ATOM     13  C8  UNL A   1      32.901  23.781  26.615  1.00  0.00    +0.000 C 
ATOM     89  H3  UNL A   1      34.297  26.328  24.977  1.00  0.00    +0.000 H 
ATOM     90  H4  UNL A   1      36.054  24.776  24.720  1.00  0.00    +0.000 H 
ATOM     92  H6  UNL A   1      32.059  23.526  27.155  1.00  0.00    +0.000 H 
BRANCH    7    8
ATOM      9  F1  UNL A   1      36.027  21.630  24.358  1.00  0.00    +0.000 F 
ATOM     10  F2  UNL A   1      37.374  22.877  25.557  1.00  0.00    +0.000 F 
ATOM     91  H5  UNL A   1      36.101  21.554  26.342  1.00  0.00    +0.000 H 
ATOM      8  C6  UNL A   1      36.164  22.266  25.546  1.00  0.00    +0.000 C 
ENDBRANCH    7    8
ENDBRANCH    3    4
ENDBRANCH    2    3
ENDBRANCH   14    2
ENDBRANCH   15   14
ENDBRANCH   16   15
ENDBRANCH   17   16
ENDBRANCH   18   17
ENDBRANCH   19   18
ENDBRANCH   20   19
ENDBRANCH   21   20
ENDBRANCH   22   21
ENDBRANCH   24   22
ENDBRANCH   28   27
BRANCH   32   33
ATOM     33  C24 UNL A   1      39.637  31.977  35.241  1.00  0.00    +0.000 C 
ATOM     34  C25 UNL A   1      39.987  33.333  35.320  1.00  0.00    +0.000 C 
ATOM     35  F3  UNL A   1      40.848  33.860  34.436  1.00  0.00    +0.000 F 
ATOM     36  C26 UNL A   1      39.469  34.147  36.325  1.00  0.00    +0.000 C 
ATOM     37  F4  UNL A   1      39.838  35.434  36.397  1.00  0.00    +0.000 F 
ATOM     38  C27 UNL A   1      38.576  33.629  37.251  1.00  0.00    +0.000 C 
ATOM     39  F5  UNL A   1      38.070  34.418  38.208  1.00  0.00    +0.000 F 
ATOM     40  C28 UNL A   1      38.211  32.293  37.186  1.00  0.00    +0.000 C 
ATOM     41  F6  UNL A   1      37.341  31.794  38.075  1.00  0.00    +0.000 F 
ATOM     42  C29 UNL A   1      38.743  31.471  36.196  1.00  0.00    +0.000 C 
ATOM     43  F7  UNL A   1      38.373  30.183  36.160  1.00  0.00    +0.000 F 
ENDBRANCH   32   33
BRANCH   49   50
ATOM     50  C35 UNL A   1      45.277  27.699  33.943  1.00  0.00    +0.000 C 
ATOM     51  C36 UNL A   1      46.456  28.447  33.825  1.00  0.00    +0.000 C 
ATOM     52  F8  UNL A   1      46.494  29.526  33.029  1.00  0.00    +0.000 F 
ATOM     53  C37 UNL A   1      47.612  28.070  34.504  1.00  0.00    +0.000 C 
ATOM     54  F9  UNL A   1      48.737  28.780  34.352  1.00  0.00    +0.000 F 
ATOM     55  C38 UNL A   1      47.601  26.957  35.331  1.00  0.00    +0.000 C 
ATOM     56  F10 UNL A   1      48.711  26.601  35.991  1.00  0.00    +0.000 F 
ATOM     57  C39 UNL A   1      46.441  26.209  35.471  1.00  0.00    +0.000 C 
ATOM     58  F11 UNL A   1      46.427  25.139  36.276  1.00  0.00    +0.000 F 
ATOM     59  C40 UNL A   1      45.290  26.570  34.776  1.00  0.00    +0.000 C 
ATOM     60  F12 UNL A   1      44.184  25.827  34.924  1.00  0.00    +0.000 F 
ENDBRANCH   49   50
BRANCH   64   65
ATOM     65  C44 UNL A   1      42.573  26.137  27.718  1.00  0.00    +0.000 C 
ATOM     66  C45 UNL A   1      43.502  26.557  26.758  1.00  0.00    +0.000 C 
ATOM     67  F13 UNL A   1      43.991  27.805  26.801  1.00  0.00    +0.000 F 
ATOM     68  C46 UNL A   1      43.914  25.704  25.736  1.00  0.00    +0.000 C 
ATOM     69  F14 UNL A   1      44.783  26.138  24.813  1.00  0.00    +0.000 F 
ATOM     70  C47 UNL A   1      43.419  24.409  25.669  1.00  0.00    +0.000 C 
ATOM     71  F15 UNL A   1      43.824  23.586  24.693  1.00  0.00    +0.000 F 
ATOM     72  C48 UNL A   1      42.501  23.971  26.611  1.00  0.00    +0.000 C 
ATOM     73  F16 UNL A   1      42.031  22.717  26.557  1.00  0.00    +0.000 F 
ATOM     74  C49 UNL A   1      42.072  24.830  27.619  1.00  0.00    +0.000 C 
ATOM     75  F17 UNL A   1      41.180  24.384  28.515  1.00  0.00    +0.000 F 
ENDBRANCH   64   65
TORSDOF 17
ENDMDL
MODEL 10
REMARK VINA RESULT:      -8.4     44.311     47.194
ROOT
ATOM     28  C20 UNL A   1      22.975  35.709  46.690  1.00  0.00    +0.000 C 
ATOM     29  C21 UNL A   1      21.654  36.153  47.261  1.00  0.00    +0.000 C 
ATOM     30  N4  UNL A   1      21.294  37.338  47.689  1.00  0.00    +0.000 N 
ATOM     31  C22 UNL A   1      19.972  37.210  48.095  1.00  0.00    +0.000 C 
ATOM     32  C23 UNL A   1      19.161  38.147  48.644  1.00  0.00    +0.000 C 
ATOM     44  C30 UNL A   1      19.555  39.503  48.925  1.00  0.00    +0.000 C 
ATOM     45  C31 UNL A   1      18.805  40.518  49.495  1.00  0.00    +0.000 C 
ATOM     46  C32 UNL A   1      19.598  41.669  49.551  1.00  0.00    +0.000 C 
ATOM     47  C33 UNL A   1      20.851  41.362  49.047  1.00  0.00    +0.000 C 
ATOM     48  N5  UNL A   1      20.810  40.031  48.663  1.00  0.00    +0.000 N 
ATOM     49  C34 UNL A   1      22.002  42.218  48.918  1.00  0.00    +0.000 C 
ATOM     61  C41 UNL A   1      23.214  41.826  48.459  1.00  0.00    +0.000 C 
ATOM     62  N6  UNL A   1      23.610  40.576  48.008  1.00  0.00    +0.000 N 
ATOM     63  C42 UNL A   1      24.862  40.706  47.642  1.00  0.00    +0.000 C 
ATOM     64  C43 UNL A   1      25.794  39.675  47.072  1.00  0.00    +0.000 C 
ATOM     76  C50 UNL A   1      25.335  38.436  46.816  1.00  0.00    +0.000 C 
ATOM     77  C51 UNL A   1      26.121  37.343  46.253  1.00  0.00    +0.000 C 
ATOM     78  C52 UNL A   1      25.334  36.266  46.106  1.00  0.00    +0.000 C 
ATOM     79  C53 UNL A   1      23.998  36.579  46.616  1.00  0.00    +0.000 C 
ATOM     80  N7  UNL A   1      24.085  37.896  46.993  1.00  0.00    +0.000 N 
ATOM     81  C54 UNL A   1      25.403  42.060  47.820  1.00  0.00    +0.000 C 
ATOM     82  C55 UNL A   1      24.366  42.698  48.347  1.00  0.00    +0.000 C 
ATOM     83  C56 UNL A   1      19.581  35.841  47.843  1.00  0.00    +0.000 C 
ATOM     84  C57 UNL A   1      20.597  35.133  47.368  1.00  0.00    +0.000 C 
ATOM    109  H23 UNL A   1      17.830  40.440  49.823  1.00  0.00    +0.000 H 
ATOM    110  H24 UNL A   1      19.300  42.591  49.906  1.00  0.00    +0.000 H 
ATOM    111  H25 UNL A   1      21.560  39.533  48.265  1.00  0.00    +0.000 H 
ATOM    112  H26 UNL A   1      27.123  37.389  46.007  1.00  0.00    +0.000 H 
ATOM    113  H27 UNL A   1      25.623  35.363  45.700  1.00  0.00    +0.000 H 
ATOM    114  H28 UNL A   1      23.323  38.405  47.355  1.00  0.00    +0.000 H 
ATOM    115  H29 UNL A   1      26.344  42.421  47.595  1.00  0.00    +0.000 H 
ATOM    116  H30 UNL A   1      24.377  43.687  48.638  1.00  0.00    +0.000 H 
ATOM    117  H31 UNL A   1      18.635  35.464  48.011  1.00  0.00    +0.000 H 
ATOM    118  H32 UNL A   1      20.637  34.129  47.134  1.00  0.00    +0.000 H 
ENDROOT
BRANCH   28   27
ATOM     27  C19 UNL A   1      23.179  34.295  46.277  1.00  0.00    +0.000 C 
ATOM    107  H21 UNL A   1      23.855  31.282  47.605  1.00  0.00    +0.000 H 
ATOM    108  H22 UNL A   1      23.625  33.613  48.230  1.00  0.00    +0.000 H 
ATOM     85  C58 UNL A   1      23.029  33.898  44.940  1.00  0.00    +0.000 C 
ATOM     86  C59 UNL A   1      23.052  32.542  44.603  1.00  0.00    +0.000 C 
ATOM    120  H34 UNL A   1      22.910  32.249  43.623  1.00  0.00    +0.000 H 
ATOM     24  C16 UNL A   1      23.268  31.585  45.598  1.00  0.00    +0.000 C 
ATOM     25  C17 UNL A   1      23.568  31.981  46.903  1.00  0.00    +0.000 C 
ATOM     26  C18 UNL A   1      23.474  33.326  47.250  1.00  0.00    +0.000 C 
ATOM    119  H33 UNL A   1      22.901  34.610  44.203  1.00  0.00    +0.000 H 
BRANCH   24   22
ATOM     22  C15 UNL A   1      23.108  30.153  45.262  1.00  0.00    +0.000 C 
ATOM     23  O3  UNL A   1      24.033  29.540  44.740  1.00  0.00    +0.000 O 
BRANCH   22   21
ATOM    106  H20 UNL A   1      21.907  28.815  46.160  1.00  0.00    +0.000 H 
ATOM     21  N3  UNL A   1      21.898  29.538  45.492  1.00  0.00    +0.000 N 
BRANCH   21   20
ATOM    105  H19 UNL A   1      19.965  28.989  45.114  1.00  0.00    +0.000 H 
ATOM     20  C14 UNL A   1      20.606  29.814  44.881  1.00  0.00    +0.000 C 
ATOM    104  H18 UNL A   1      20.747  29.933  43.827  1.00  0.00    +0.000 H 
BRANCH   20   19
ATOM     19  C13 UNL A   1      19.933  31.070  45.422  1.00  0.00    +0.000 C 
ATOM    102  H16 UNL A   1      19.667  30.888  46.443  1.00  0.00    +0.000 H 
ATOM    103  H17 UNL A   1      20.641  31.861  45.295  1.00  0.00    +0.000 H 
BRANCH   19   18
ATOM     18  C12 UNL A   1      18.672  31.515  44.681  1.00  0.00    +0.000 C 
ATOM    100  H14 UNL A   1      17.904  30.795  44.878  1.00  0.00    +0.000 H 
ATOM    101  H15 UNL A   1      18.450  32.496  45.044  1.00  0.00    +0.000 H 
BRANCH   18   17
ATOM     17  C11 UNL A   1      18.808  31.653  43.162  1.00  0.00    +0.000 C 
ATOM     98  H12 UNL A   1      19.367  32.543  42.963  1.00  0.00    +0.000 H 
ATOM     99  H13 UNL A   1      19.283  30.753  42.833  1.00  0.00    +0.000 H 
BRANCH   17   16
ATOM     97  H11 UNL A   1      17.684  31.276  41.428  1.00  0.00    +0.000 H 
ATOM     96  H10 UNL A   1      17.222  32.771  42.298  1.00  0.00    +0.000 H 
ATOM     16  C10 UNL A   1      17.494  31.740  42.374  1.00  0.00    +0.000 C 
BRANCH   16   15
ATOM     95  H9  UNL A   1      15.425  31.547  42.796  1.00  0.00    +0.000 H 
ATOM     94  H8  UNL A   1      16.483  30.872  44.036  1.00  0.00    +0.000 H 
ATOM     15  C9  UNL A   1      16.315  30.985  42.985  1.00  0.00    +0.000 C 
BRANCH   15   14
ATOM     93  H7  UNL A   1      15.775  29.608  41.487  1.00  0.00    +0.000 H 
ATOM     14  N2  UNL A   1      16.154  29.673  42.392  1.00  0.00    +0.000 N 
BRANCH   14    2
ATOM      1  O1  UNL A   1      17.670  28.138  43.196  1.00  0.00    +0.000 O 
ATOM      2  C1  UNL A   1      16.512  28.511  43.046  1.00  0.00    +0.000 C 
BRANCH    2    3
ATOM      3  C2  UNL A   1      15.321  27.694  43.549  1.00  0.00    +0.000 C 
ATOM     87  H1  UNL A   1      14.464  28.333  43.575  1.00  0.00    +0.000 H 
ATOM     88  H2  UNL A   1      15.590  27.322  44.516  1.00  0.00    +0.000 H 
BRANCH    3    4
ATOM      4  C3  UNL A   1      14.993  26.491  42.696  1.00  0.00    +0.000 C 
ATOM      5  C4  UNL A   1      14.772  26.732  41.283  1.00  0.00    +0.000 C 
ATOM      6  C5  UNL A   1      14.420  25.728  40.470  1.00  0.00    +0.000 C 
ATOM      7  N1  UNL A   1      14.265  24.440  40.948  1.00  0.00    +0.000 N 
ATOM     11  C7  UNL A   1      14.466  24.111  42.278  1.00  0.00    +0.000 C 
ATOM     12  O2  UNL A   1      14.317  23.000  42.774  1.00  0.00    +0.000 O 
ATOM     13  C8  UNL A   1      14.875  25.236  43.166  1.00  0.00    +0.000 C 
ATOM     89  H3  UNL A   1      14.888  27.683  40.901  1.00  0.00    +0.000 H 
ATOM     90  H4  UNL A   1      14.260  25.919  39.467  1.00  0.00    +0.000 H 
ATOM     92  H6  UNL A   1      15.073  25.049  44.161  1.00  0.00    +0.000 H 
BRANCH    7    8
ATOM      9  F1  UNL A   1      14.683  22.329  40.113  1.00  0.00    +0.000 F 
ATOM     10  F2  UNL A   1      12.600  22.938  40.432  1.00  0.00    +0.000 F 
ATOM     91  H5  UNL A   1      13.805  23.785  39.084  1.00  0.00    +0.000 H 
ATOM      8  C6  UNL A   1      13.830  23.381  40.075  1.00  0.00    +0.000 C 
ENDBRANCH    7    8
ENDBRANCH    3    4
ENDBRANCH    2    3
ENDBRANCH   14    2
ENDBRANCH   15   14
ENDBRANCH   16   15
ENDBRANCH   17   16
ENDBRANCH   18   17
ENDBRANCH   19   18
ENDBRANCH   20   19
ENDBRANCH   21   20
ENDBRANCH   22   21
ENDBRANCH   24   22
ENDBRANCH   28   27
BRANCH   32   33
ATOM     33  C24 UNL A   1      17.756  37.745  48.978  1.00  0.00    +0.000 C 
ATOM     34  C25 UNL A   1      16.844  37.374  47.979  1.00  0.00    +0.000 C 
ATOM     35  F3  UNL A   1      17.195  37.443  46.687  1.00  0.00    +0.000 F 
ATOM     36  C26 UNL A   1      15.558  36.949  48.308  1.00  0.00    +0.000 C 
ATOM     37  F4  UNL A   1      14.694  36.624  47.336  1.00  0.00    +0.000 F 
ATOM     38  C27 UNL A   1      15.170  36.867  49.637  1.00  0.00    +0.000 C 
ATOM     39  F5  UNL A   1      13.937  36.446  49.950  1.00  0.00    +0.000 F 
ATOM     40  C28 UNL A   1      16.058  37.223  50.640  1.00  0.00    +0.000 C 
ATOM     41  F6  UNL A   1      15.687  37.134  51.925  1.00  0.00    +0.000 F 
ATOM     42  C29 UNL A   1      17.337  37.667  50.314  1.00  0.00    +0.000 C 
ATOM     43  F7  UNL A   1      18.174  38.006  51.306  1.00  0.00    +0.000 F 
ENDBRANCH   32   33
BRANCH   49   50
ATOM     50  C35 UNL A   1      21.853  43.651  49.330  1.00  0.00    +0.000 C 
ATOM     51  C36 UNL A   1      22.129  44.062  50.642  1.00  0.00    +0.000 C 
ATOM     52  F8  UNL A   1      22.472  43.159  51.573  1.00  0.00    +0.000 F 
ATOM     53  C37 UNL A   1      22.026  45.401  51.007  1.00  0.00    +0.000 C 
ATOM     54  F9  UNL A   1      22.262  45.768  52.274  1.00  0.00    +0.000 F 
ATOM     55  C38 UNL A   1      21.670  46.354  50.064  1.00  0.00    +0.000 C 
ATOM     56  F10 UNL A   1      21.579  47.644  50.416  1.00  0.00    +0.000 F 
ATOM     57  C39 UNL A   1      21.402  45.971  48.758  1.00  0.00    +0.000 C 
ATOM     58  F11 UNL A   1      21.068  46.892  47.845  1.00  0.00    +0.000 F 
ATOM     59  C40 UNL A   1      21.483  44.630  48.395  1.00  0.00    +0.000 C 
ATOM     60  F12 UNL A   1      21.215  44.285  47.127  1.00  0.00    +0.000 F 
ENDBRANCH   49   50
BRANCH   64   65
ATOM     65  C44 UNL A   1      27.212  40.003  46.786  1.00  0.00    +0.000 C 
ATOM     66  C45 UNL A   1      28.220  39.701  47.710  1.00  0.00    +0.000 C 
ATOM     67  F13 UNL A   1      27.902  39.148  48.890  1.00  0.00    +0.000 F 
ATOM     68  C46 UNL A   1      29.556  39.987  47.436  1.00  0.00    +0.000 C 
ATOM     69  F14 UNL A   1      30.499  39.713  48.347  1.00  0.00    +0.000 F 
ATOM     70  C47 UNL A   1      29.908  40.562  46.224  1.00  0.00    +0.000 C 
ATOM     71  F15 UNL A   1      31.194  40.827  45.955  1.00  0.00    +0.000 F 
ATOM     72  C48 UNL A   1      28.928  40.867  45.292  1.00  0.00    +0.000 C 
ATOM     73  F16 UNL A   1      29.266  41.411  44.115  1.00  0.00    +0.000 F 
ATOM     74  C49 UNL A   1      27.590  40.603  45.575  1.00  0.00    +0.000 C 
ATOM     75  F17 UNL A   1      26.661  40.911  44.660  1.00  0.00    +0.000 F 
ENDBRANCH   64   65
TORSDOF 17
ENDMDL
