MODEL 1
REMARK VINA RESULT:     -11.0      0.000      0.000
ROOT
ATOM    129  H32 UNL A   1      21.339  29.172  -3.593  1.00  0.00    +0.000 H 
ATOM    130  H33 UNL A   1      21.148  26.974  -4.936  1.00  0.00    +0.000 H 
ATOM     35  C24 UNL A   1      22.178  24.733  -3.458  1.00  0.00    +0.000 C 
ATOM     36  C25 UNL A   1      21.905  26.106  -2.978  1.00  0.00    +0.000 C 
ATOM     37  N5  UNL A   1      22.182  26.600  -1.818  1.00  0.00    +0.000 N 
ATOM     38  C26 UNL A   1      21.692  27.901  -1.836  1.00  0.00    +0.000 C 
ATOM     39  C27 UNL A   1      21.248  28.483  -0.686  1.00  0.00    +0.000 C 
ATOM     51  C34 UNL A   1      21.717  27.746   0.467  1.00  0.00    +0.000 C 
ATOM     52  C35 UNL A   1      22.959  27.405   0.967  1.00  0.00    +0.000 C 
ATOM     53  C36 UNL A   1      22.805  26.081   1.478  1.00  0.00    +0.000 C 
ATOM     54  C37 UNL A   1      21.465  25.717   1.332  1.00  0.00    +0.000 C 
ATOM     55  N6  UNL A   1      20.827  26.901   1.085  1.00  0.00    +0.000 N 
ATOM     56  C38 UNL A   1      20.795  24.438   1.333  1.00  0.00    +0.000 C 
ATOM     68  C45 UNL A   1      19.576  24.197   0.765  1.00  0.00    +0.000 C 
ATOM     69  N7  UNL A   1      19.208  22.912   0.395  1.00  0.00    +0.000 N 
ATOM     70  C46 UNL A   1      18.376  23.079  -0.598  1.00  0.00    +0.000 C 
ATOM     71  C47 UNL A   1      18.377  22.224  -1.813  1.00  0.00    +0.000 C 
ATOM     83  C54 UNL A   1      19.544  22.472  -2.459  1.00  0.00    +0.000 C 
ATOM     84  C55 UNL A   1      20.239  21.699  -3.460  1.00  0.00    +0.000 C 
ATOM     85  C56 UNL A   1      21.371  22.352  -3.790  1.00  0.00    +0.000 C 
ATOM     86  C57 UNL A   1      21.385  23.678  -3.160  1.00  0.00    +0.000 C 
ATOM     87  N8  UNL A   1      20.324  23.639  -2.285  1.00  0.00    +0.000 N 
ATOM     88  C58 UNL A   1      17.788  24.404  -0.706  1.00  0.00    +0.000 C 
ATOM     89  C59 UNL A   1      18.615  25.074   0.101  1.00  0.00    +0.000 C 
ATOM     90  C60 UNL A   1      21.462  28.218  -3.219  1.00  0.00    +0.000 C 
ATOM     91  C61 UNL A   1      21.430  27.102  -3.952  1.00  0.00    +0.000 C 
ATOM    121  H24 UNL A   1      23.814  27.984   0.971  1.00  0.00    +0.000 H 
ATOM    122  H25 UNL A   1      23.552  25.497   1.883  1.00  0.00    +0.000 H 
ATOM    123  H26 UNL A   1      19.892  27.112   1.310  1.00  0.00    +0.000 H 
ATOM    124  H27 UNL A   1      19.924  20.798  -3.856  1.00  0.00    +0.000 H 
ATOM    125  H28 UNL A   1      22.117  21.976  -4.397  1.00  0.00    +0.000 H 
ATOM    126  H29 UNL A   1      20.131  24.337  -1.619  1.00  0.00    +0.000 H 
ATOM    127  H30 UNL A   1      16.972  24.729  -1.248  1.00  0.00    +0.000 H 
ATOM    128  H31 UNL A   1      18.579  26.096   0.239  1.00  0.00    +0.000 H 
ENDROOT
BRANCH   35   34
ATOM     33  C22 UNL A   1      22.988  25.045  -5.809  1.00  0.00    +0.000 C 
ATOM     34  C23 UNL A   1      23.210  24.657  -4.480  1.00  0.00    +0.000 C 
ATOM    131  H34 UNL A   1      24.523  23.672  -3.158  1.00  0.00    +0.000 H 
ATOM    132  H35 UNL A   1      26.433  24.016  -4.610  1.00  0.00    +0.000 H 
ATOM    119  H22 UNL A   1      23.841  25.061  -7.744  1.00  0.00    +0.000 H 
ATOM    120  H23 UNL A   1      22.088  25.466  -6.089  1.00  0.00    +0.000 H 
ATOM     92  C62 UNL A   1      24.420  24.107  -4.088  1.00  0.00    +0.000 C 
ATOM     93  C63 UNL A   1      25.470  24.150  -4.956  1.00  0.00    +0.000 C 
ATOM     31  C20 UNL A   1      25.239  24.375  -6.306  1.00  0.00    +0.000 C 
ATOM     32  C21 UNL A   1      24.001  24.854  -6.746  1.00  0.00    +0.000 C 
BRANCH   31   29
ATOM     29  C19 UNL A   1      26.334  24.061  -7.239  1.00  0.00    +0.000 C 
ATOM     30  O6  UNL A   1      26.094  23.819  -8.416  1.00  0.00    +0.000 O 
BRANCH   29   28
ATOM     28  N4  UNL A   1      27.634  24.056  -6.766  1.00  0.00    +0.000 N 
ATOM    118  H21 UNL A   1      27.862  24.760  -6.118  1.00  0.00    +0.000 H 
BRANCH   28   27
ATOM     27  C18 UNL A   1      28.714  23.126  -7.115  1.00  0.00    +0.000 C 
ATOM    116  H19 UNL A   1      28.285  22.187  -7.397  1.00  0.00    +0.000 H 
ATOM    117  H20 UNL A   1      29.271  23.553  -7.922  1.00  0.00    +0.000 H 
BRANCH   27   26
ATOM     26  C17 UNL A   1      29.666  22.901  -5.953  1.00  0.00    +0.000 C 
ATOM    115  H18 UNL A   1      30.343  23.729  -5.936  1.00  0.00    +0.000 H 
ATOM    114  H17 UNL A   1      30.169  21.967  -6.103  1.00  0.00    +0.000 H 
BRANCH   26   25
ATOM     25  C16 UNL A   1      28.968  22.861  -4.584  1.00  0.00    +0.000 C 
ATOM    113  H16 UNL A   1      28.137  22.197  -4.707  1.00  0.00    +0.000 H 
ATOM    112  H15 UNL A   1      28.698  23.864  -4.328  1.00  0.00    +0.000 H 
BRANCH   25   24
ATOM    110  H13 UNL A   1      30.099  21.297  -3.691  1.00  0.00    +0.000 H 
ATOM    111  H14 UNL A   1      30.598  22.964  -3.262  1.00  0.00    +0.000 H 
ATOM     24  C15 UNL A   1      29.787  22.283  -3.418  1.00  0.00    +0.000 C 
BRANCH   24   23
ATOM    108  H11 UNL A   1      29.715  22.500  -1.299  1.00  0.00    +0.000 H 
ATOM    109  H12 UNL A   1      28.188  22.824  -2.142  1.00  0.00    +0.000 H 
ATOM     23  C14 UNL A   1      29.048  22.191  -2.077  1.00  0.00    +0.000 C 
BRANCH   23   22
ATOM    106  H9  UNL A   1      27.748  20.528  -2.421  1.00  0.00    +0.000 H 
ATOM    107  H10 UNL A   1      29.357  20.085  -1.890  1.00  0.00    +0.000 H 
ATOM     22  C13 UNL A   1      28.552  20.777  -1.760  1.00  0.00    +0.000 C 
BRANCH   22   21
ATOM    105  H8  UNL A   1      28.276  21.525   0.132  1.00  0.00    +0.000 H 
ATOM     21  N3  UNL A   1      28.084  20.712  -0.388  1.00  0.00    +0.000 N 
BRANCH   21   19
ATOM     19  C12 UNL A   1      27.428  19.744   0.331  1.00  0.00    +0.000 C 
ATOM     20  O5  UNL A   1      26.536  19.115  -0.237  1.00  0.00    +0.000 O 
BRANCH   19   18
ATOM    133  H36 UNL A   1      27.210  21.394   2.547  1.00  0.00    +0.000 H 
ATOM    134  H37 UNL A   1      27.201  20.687   4.866  1.00  0.00    +0.000 H 
ATOM    103  H6  UNL A   1      28.770  16.960   3.722  1.00  0.00    +0.000 H 
ATOM    104  H7  UNL A   1      28.464  17.564   1.388  1.00  0.00    +0.000 H 
ATOM     15  C8  UNL A   1      27.922  18.744   4.469  1.00  0.00    +0.000 C 
ATOM     16  C9  UNL A   1      28.348  17.868   3.472  1.00  0.00    +0.000 C 
ATOM     17  C10 UNL A   1      28.197  18.231   2.129  1.00  0.00    +0.000 C 
ATOM     18  C11 UNL A   1      27.686  19.491   1.776  1.00  0.00    +0.000 C 
ATOM     94  C64 UNL A   1      27.435  20.417   2.788  1.00  0.00    +0.000 C 
ATOM     95  C65 UNL A   1      27.486  20.026   4.125  1.00  0.00    +0.000 C 
BRANCH   15   14
ATOM    102  H5  UNL A   1      26.614  17.745   8.624  1.00  0.00    +0.000 H 
ATOM      9  C5  UNL A   1      26.795  18.051   6.578  1.00  0.00    +0.000 C 
ATOM     10  C6  UNL A   1      27.233  17.962   7.827  1.00  0.00    +0.000 C 
ATOM     11  O3  UNL A   1      28.602  18.185   7.973  1.00  0.00    +0.000 O 
ATOM     12  C7  UNL A   1      28.995  18.431   6.657  1.00  0.00    +0.000 C 
ATOM     13  O4  UNL A   1      30.146  18.717   6.354  1.00  0.00    +0.000 O 
ATOM     14  N2  UNL A   1      27.890  18.343   5.816  1.00  0.00    +0.000 N 
BRANCH    9    8
ATOM     97  C67 UNL A   1      23.112  18.356   5.802  1.00  0.00    +0.000 C 
ATOM    100  H3  UNL A   1      23.819  15.500   4.176  1.00  0.00    +0.000 H 
ATOM      5  C1  UNL A   1      22.912  17.212   5.020  1.00  0.00    +0.000 C 
ATOM      6  C2  UNL A   1      23.969  16.341   4.755  1.00  0.00    +0.000 C 
ATOM      7  C3  UNL A   1      25.234  16.618   5.280  1.00  0.00    +0.000 C 
ATOM    136  H39 UNL A   1      22.326  18.998   5.987  1.00  0.00    +0.000 H 
ATOM    101  H4  UNL A   1      26.016  15.973   5.090  1.00  0.00    +0.000 H 
ATOM    135  H38 UNL A   1      24.524  19.458   6.919  1.00  0.00    +0.000 H 
ATOM      8  C4  UNL A   1      25.456  17.766   6.064  1.00  0.00    +0.000 C 
ATOM     96  C66 UNL A   1      24.380  18.623   6.329  1.00  0.00    +0.000 C 
BRANCH    5    2
ATOM      2  S1  UNL A   1      21.319  16.912   4.311  1.00  0.00    +0.000 S 
ATOM      3  O1  UNL A   1      21.231  17.593   3.033  1.00  0.00    +0.000 O 
ATOM      4  O2  UNL A   1      20.321  17.058   5.334  1.00  0.00    +0.000 O 
BRANCH    2    1
ATOM      1  N1  UNL A   1      21.397  15.276   3.944  1.00  0.00    +0.000 N 
ATOM     98  H1  UNL A   1      20.771  15.071   3.165  1.00  0.00    +0.000 H 
ATOM     99  H2  UNL A   1      21.115  14.731   4.759  1.00  0.00    +0.000 H 
ENDBRANCH    2    1
ENDBRANCH    5    2
ENDBRANCH    9    8
ENDBRANCH   15   14
ENDBRANCH   19   18
ENDBRANCH   21   19
ENDBRANCH   22   21
ENDBRANCH   23   22
ENDBRANCH   24   23
ENDBRANCH   25   24
ENDBRANCH   26   25
ENDBRANCH   27   26
ENDBRANCH   28   27
ENDBRANCH   29   28
ENDBRANCH   31   29
ENDBRANCH   35   34
BRANCH   39   40
ATOM     40  C28 UNL A   1      20.056  29.418  -0.597  1.00  0.00    +0.000 C 
ATOM     41  C29 UNL A   1      20.099  30.462   0.352  1.00  0.00    +0.000 C 
ATOM     42  F1  UNL A   1      21.259  30.819   0.925  1.00  0.00    +0.000 F 
ATOM     43  C30 UNL A   1      18.942  31.090   0.819  1.00  0.00    +0.000 C 
ATOM     44  F2  UNL A   1      19.023  31.964   1.831  1.00  0.00    +0.000 F 
ATOM     45  C31 UNL A   1      17.706  30.755   0.301  1.00  0.00    +0.000 C 
ATOM     46  F3  UNL A   1      16.588  31.297   0.798  1.00  0.00    +0.000 F 
ATOM     47  C32 UNL A   1      17.632  29.822  -0.708  1.00  0.00    +0.000 C 
ATOM     48  F4  UNL A   1      16.442  29.481  -1.224  1.00  0.00    +0.000 F 
ATOM     49  C33 UNL A   1      18.779  29.158  -1.141  1.00  0.00    +0.000 C 
ATOM     50  F5  UNL A   1      18.553  28.191  -2.036  1.00  0.00    +0.000 F 
ENDBRANCH   39   40
BRANCH   56   57
ATOM     65  F9  UNL A   1      23.458  20.546   0.206  1.00  0.00    +0.000 F 
ATOM     66  C44 UNL A   1      22.249  22.478   0.828  1.00  0.00    +0.000 C 
ATOM     67  F10 UNL A   1      22.213  22.848  -0.463  1.00  0.00    +0.000 F 
ATOM     57  C39 UNL A   1      21.599  23.254   1.795  1.00  0.00    +0.000 C 
ATOM     58  C40 UNL A   1      21.624  22.788   3.122  1.00  0.00    +0.000 C 
ATOM     59  F6  UNL A   1      20.947  23.424   4.086  1.00  0.00    +0.000 F 
ATOM     60  C41 UNL A   1      22.303  21.619   3.464  1.00  0.00    +0.000 C 
ATOM     61  F7  UNL A   1      22.321  21.201   4.738  1.00  0.00    +0.000 F 
ATOM     62  C42 UNL A   1      22.931  20.868   2.484  1.00  0.00    +0.000 C 
ATOM     63  F8  UNL A   1      23.548  19.722   2.804  1.00  0.00    +0.000 F 
ATOM     64  C43 UNL A   1      22.895  21.293   1.165  1.00  0.00    +0.000 C 
ENDBRANCH   56   57
BRANCH   71   72
ATOM     72  C48 UNL A   1      17.163  21.537  -2.307  1.00  0.00    +0.000 C 
ATOM     73  C49 UNL A   1      16.558  20.509  -1.566  1.00  0.00    +0.000 C 
ATOM     74  F11 UNL A   1      17.196  19.973  -0.514  1.00  0.00    +0.000 F 
ATOM     75  C50 UNL A   1      15.261  20.067  -1.845  1.00  0.00    +0.000 C 
ATOM     76  F12 UNL A   1      14.693  19.130  -1.074  1.00  0.00    +0.000 F 
ATOM     77  C51 UNL A   1      14.534  20.637  -2.878  1.00  0.00    +0.000 C 
ATOM     78  F13 UNL A   1      13.267  20.263  -3.102  1.00  0.00    +0.000 F 
ATOM     79  C52 UNL A   1      15.112  21.629  -3.648  1.00  0.00    +0.000 C 
ATOM     80  F14 UNL A   1      14.405  22.216  -4.623  1.00  0.00    +0.000 F 
ATOM     81  C53 UNL A   1      16.406  22.073  -3.367  1.00  0.00    +0.000 C 
ATOM     82  F15 UNL A   1      16.868  23.105  -4.088  1.00  0.00    +0.000 F 
ENDBRANCH   71   72
TORSDOF 19
ENDMDL
MODEL 2
REMARK VINA RESULT:     -10.8      6.006     13.806
ROOT
ATOM    129  H32 UNL A   1      21.204  16.067   2.954  1.00  0.00    +0.000 H 
ATOM    130  H33 UNL A   1      23.055  17.819   2.533  1.00  0.00    +0.000 H 
ATOM     35  C24 UNL A   1      23.623  19.354   4.896  1.00  0.00    +0.000 C 
ATOM     36  C25 UNL A   1      22.803  18.128   4.768  1.00  0.00    +0.000 C 
ATOM     37  N5  UNL A   1      22.086  17.567   5.683  1.00  0.00    +0.000 N 
ATOM     38  C26 UNL A   1      21.548  16.428   5.094  1.00  0.00    +0.000 C 
ATOM     39  C27 UNL A   1      21.286  15.323   5.847  1.00  0.00    +0.000 C 
ATOM     51  C34 UNL A   1      21.274  15.663   7.254  1.00  0.00    +0.000 C 
ATOM     52  C35 UNL A   1      20.544  16.532   8.042  1.00  0.00    +0.000 C 
ATOM     53  C36 UNL A   1      21.480  17.056   8.984  1.00  0.00    +0.000 C 
ATOM     54  C37 UNL A   1      22.707  16.425   8.770  1.00  0.00    +0.000 C 
ATOM     55  N6  UNL A   1      22.390  15.345   7.991  1.00  0.00    +0.000 N 
ATOM     56  C38 UNL A   1      24.059  16.764   9.145  1.00  0.00    +0.000 C 
ATOM     68  C45 UNL A   1      25.181  16.299   8.520  1.00  0.00    +0.000 C 
ATOM     69  N7  UNL A   1      26.381  16.990   8.610  1.00  0.00    +0.000 N 
ATOM     70  C46 UNL A   1      27.014  16.697   7.506  1.00  0.00    +0.000 C 
ATOM     71  C47 UNL A   1      27.789  17.694   6.724  1.00  0.00    +0.000 C 
ATOM     83  C54 UNL A   1      26.889  18.583   6.232  1.00  0.00    +0.000 C 
ATOM     84  C55 UNL A   1      27.080  19.922   5.727  1.00  0.00    +0.000 C 
ATOM     85  C56 UNL A   1      25.879  20.413   5.364  1.00  0.00    +0.000 C 
ATOM     86  C57 UNL A   1      24.862  19.356   5.438  1.00  0.00    +0.000 C 
ATOM     87  N8  UNL A   1      25.509  18.322   6.076  1.00  0.00    +0.000 N 
ATOM     88  C58 UNL A   1      26.544  15.511   6.809  1.00  0.00    +0.000 C 
ATOM     89  C59 UNL A   1      25.370  15.350   7.425  1.00  0.00    +0.000 C 
ATOM     90  C60 UNL A   1      21.711  16.602   3.676  1.00  0.00    +0.000 C 
ATOM     91  C61 UNL A   1      22.612  17.555   3.426  1.00  0.00    +0.000 C 
ATOM    121  H24 UNL A   1      19.539  16.753   7.966  1.00  0.00    +0.000 H 
ATOM    122  H25 UNL A   1      21.285  17.775   9.697  1.00  0.00    +0.000 H 
ATOM    123  H26 UNL A   1      22.876  14.490   7.963  1.00  0.00    +0.000 H 
ATOM    124  H27 UNL A   1      27.982  20.419   5.656  1.00  0.00    +0.000 H 
ATOM    125  H28 UNL A   1      25.699  21.388   5.076  1.00  0.00    +0.000 H 
ATOM    126  H29 UNL A   1      25.064  17.501   6.386  1.00  0.00    +0.000 H 
ATOM    127  H30 UNL A   1      26.988  14.958   6.059  1.00  0.00    +0.000 H 
ATOM    128  H31 UNL A   1      24.675  14.636   7.158  1.00  0.00    +0.000 H 
ENDROOT
BRANCH   35   34
ATOM     33  C22 UNL A   1      21.773  20.933   4.292  1.00  0.00    +0.000 C 
ATOM     34  C23 UNL A   1      23.100  20.496   4.164  1.00  0.00    +0.000 C 
ATOM    131  H34 UNL A   1      24.882  20.669   3.053  1.00  0.00    +0.000 H 
ATOM    132  H35 UNL A   1      24.292  22.869   2.223  1.00  0.00    +0.000 H 
ATOM    119  H22 UNL A   1      20.337  22.271   3.505  1.00  0.00    +0.000 H 
ATOM    120  H23 UNL A   1      21.138  20.488   4.973  1.00  0.00    +0.000 H 
ATOM     92  C62 UNL A   1      23.966  21.095   3.264  1.00  0.00    +0.000 C 
ATOM     93  C63 UNL A   1      23.585  22.258   2.664  1.00  0.00    +0.000 C 
ATOM     31  C20 UNL A   1      22.245  22.618   2.648  1.00  0.00    +0.000 C 
ATOM     32  C21 UNL A   1      21.326  21.977   3.485  1.00  0.00    +0.000 C 
BRANCH   31   29
ATOM     29  C19 UNL A   1      21.840  23.670   1.700  1.00  0.00    +0.000 C 
ATOM     30  O6  UNL A   1      21.446  23.374   0.578  1.00  0.00    +0.000 O 
BRANCH   29   28
ATOM     28  N4  UNL A   1      21.903  24.992   2.103  1.00  0.00    +0.000 N 
ATOM    118  H21 UNL A   1      21.136  25.323   2.623  1.00  0.00    +0.000 H 
BRANCH   28   27
ATOM     27  C18 UNL A   1      22.976  25.960   1.847  1.00  0.00    +0.000 C 
ATOM    116  H19 UNL A   1      23.439  26.217   2.777  1.00  0.00    +0.000 H 
ATOM    117  H20 UNL A   1      23.677  25.507   1.178  1.00  0.00    +0.000 H 
BRANCH   27   26
ATOM     26  C17 UNL A   1      22.451  27.227   1.193  1.00  0.00    +0.000 C 
ATOM    115  H18 UNL A   1      21.459  27.017   0.852  1.00  0.00    +0.000 H 
ATOM    114  H17 UNL A   1      23.109  27.492   0.391  1.00  0.00    +0.000 H 
BRANCH   26   25
ATOM     25  C16 UNL A   1      22.355  28.421   2.156  1.00  0.00    +0.000 C 
ATOM    113  H16 UNL A   1      23.049  28.211   2.942  1.00  0.00    +0.000 H 
ATOM    112  H15 UNL A   1      21.337  28.501   2.474  1.00  0.00    +0.000 H 
BRANCH   25   24
ATOM    110  H13 UNL A   1      22.316  30.548   2.187  1.00  0.00    +0.000 H 
ATOM    111  H14 UNL A   1      23.846  29.803   1.623  1.00  0.00    +0.000 H 
ATOM     24  C15 UNL A   1      22.776  29.788   1.590  1.00  0.00    +0.000 C 
BRANCH   24   23
ATOM    108  H11 UNL A   1      22.887  30.930  -0.206  1.00  0.00    +0.000 H 
ATOM    109  H12 UNL A   1      22.696  29.181  -0.436  1.00  0.00    +0.000 H 
ATOM     23  C14 UNL A   1      22.394  30.040   0.126  1.00  0.00    +0.000 C 
BRANCH   23   22
ATOM    106  H9  UNL A   1      20.362  29.736   0.722  1.00  0.00    +0.000 H 
ATOM    107  H10 UNL A   1      20.651  31.256  -0.098  1.00  0.00    +0.000 H 
ATOM     22  C13 UNL A   1      20.886  30.213  -0.081  1.00  0.00    +0.000 C 
BRANCH   22   21
ATOM    105  H8  UNL A   1      19.948  30.210  -1.906  1.00  0.00    +0.000 H 
ATOM     21  N3  UNL A   1      20.486  29.612  -1.339  1.00  0.00    +0.000 N 
BRANCH   21   19
ATOM     19  C12 UNL A   1      20.706  28.378  -1.898  1.00  0.00    +0.000 C 
ATOM     20  O5  UNL A   1      20.185  27.404  -1.357  1.00  0.00    +0.000 O 
BRANCH   19   18
ATOM    133  H36 UNL A   1      23.395  28.947  -2.256  1.00  0.00    +0.000 H 
ATOM    134  H37 UNL A   1      24.818  28.093  -4.023  1.00  0.00    +0.000 H 
ATOM    103  H6  UNL A   1      21.409  26.963  -6.205  1.00  0.00    +0.000 H 
ATOM    104  H7  UNL A   1      20.018  27.521  -4.292  1.00  0.00    +0.000 H 
ATOM     15  C8  UNL A   1      23.227  27.399  -5.223  1.00  0.00    +0.000 C 
ATOM     16  C9  UNL A   1      21.841  27.296  -5.328  1.00  0.00    +0.000 C 
ATOM     17  C10 UNL A   1      21.041  27.645  -4.235  1.00  0.00    +0.000 C 
ATOM     18  C11 UNL A   1      21.612  28.163  -3.060  1.00  0.00    +0.000 C 
ATOM     94  C64 UNL A   1      22.981  28.426  -3.044  1.00  0.00    +0.000 C 
ATOM     95  C65 UNL A   1      23.794  27.986  -4.088  1.00  0.00    +0.000 C 
BRANCH   15   14
ATOM    102  H5  UNL A   1      26.181  24.962  -7.525  1.00  0.00    +0.000 H 
ATOM      9  C5  UNL A   1      24.704  25.682  -6.255  1.00  0.00    +0.000 C 
ATOM     10  C6  UNL A   1      25.562  25.746  -7.267  1.00  0.00    +0.000 C 
ATOM     11  O3  UNL A   1      25.554  26.960  -7.952  1.00  0.00    +0.000 O 
ATOM     12  C7  UNL A   1      24.580  27.677  -7.255  1.00  0.00    +0.000 C 
ATOM     13  O4  UNL A   1      24.294  28.836  -7.526  1.00  0.00    +0.000 O 
ATOM     14  N2  UNL A   1      24.067  26.890  -6.228  1.00  0.00    +0.000 N 
BRANCH    9    8
ATOM     97  C67 UNL A   1      22.753  23.059  -4.366  1.00  0.00    +0.000 C 
ATOM    100  H3  UNL A   1      25.889  22.060  -3.685  1.00  0.00    +0.000 H 
ATOM      5  C1  UNL A   1      23.794  22.290  -3.833  1.00  0.00    +0.000 C 
ATOM      6  C2  UNL A   1      25.124  22.631  -4.079  1.00  0.00    +0.000 C 
ATOM      7  C3  UNL A   1      25.412  23.750  -4.863  1.00  0.00    +0.000 C 
ATOM    136  H39 UNL A   1      21.772  22.797  -4.184  1.00  0.00    +0.000 H 
ATOM    101  H4  UNL A   1      26.395  24.007  -5.043  1.00  0.00    +0.000 H 
ATOM    135  H38 UNL A   1      22.282  24.759  -5.526  1.00  0.00    +0.000 H 
ATOM      8  C4  UNL A   1      24.379  24.533  -5.412  1.00  0.00    +0.000 C 
ATOM     96  C66 UNL A   1      23.049  24.182  -5.145  1.00  0.00    +0.000 C 
BRANCH    5    2
ATOM      2  S1  UNL A   1      23.410  20.839  -2.895  1.00  0.00    +0.000 S 
ATOM      3  O1  UNL A   1      22.570  21.208  -1.771  1.00  0.00    +0.000 O 
ATOM      4  O2  UNL A   1      24.605  20.057  -2.742  1.00  0.00    +0.000 O 
BRANCH    2    1
ATOM      1  N1  UNL A   1      22.412  19.993  -3.946  1.00  0.00    +0.000 N 
ATOM     98  H1  UNL A   1      22.069  20.623  -4.671  1.00  0.00    +0.000 H 
ATOM     99  H2  UNL A   1      21.621  19.609  -3.428  1.00  0.00    +0.000 H 
ENDBRANCH    2    1
ENDBRANCH    5    2
ENDBRANCH    9    8
ENDBRANCH   15   14
ENDBRANCH   19   18
ENDBRANCH   21   19
ENDBRANCH   22   21
ENDBRANCH   23   22
ENDBRANCH   24   23
ENDBRANCH   25   24
ENDBRANCH   26   25
ENDBRANCH   27   26
ENDBRANCH   28   27
ENDBRANCH   29   28
ENDBRANCH   31   29
ENDBRANCH   35   34
BRANCH   39   40
ATOM     40  C28 UNL A   1      21.481  13.893   5.379  1.00  0.00    +0.000 C 
ATOM     41  C29 UNL A   1      20.501  12.939   5.728  1.00  0.00    +0.000 C 
ATOM     42  F1  UNL A   1      19.294  13.327   6.170  1.00  0.00    +0.000 F 
ATOM     43  C30 UNL A   1      20.769  11.568   5.739  1.00  0.00    +0.000 C 
ATOM     44  F2  UNL A   1      19.856  10.717   6.226  1.00  0.00    +0.000 F 
ATOM     45  C31 UNL A   1      21.998  11.092   5.327  1.00  0.00    +0.000 C 
ATOM     46  F3  UNL A   1      22.287   9.788   5.409  1.00  0.00    +0.000 F 
ATOM     47  C32 UNL A   1      22.944  11.982   4.871  1.00  0.00    +0.000 C 
ATOM     48  F4  UNL A   1      24.145  11.541   4.469  1.00  0.00    +0.000 F 
ATOM     49  C33 UNL A   1      22.698  13.354   4.906  1.00  0.00    +0.000 C 
ATOM     50  F5  UNL A   1      23.740  14.112   4.552  1.00  0.00    +0.000 F 
ENDBRANCH   39   40
BRANCH   56   57
ATOM     65  F9  UNL A   1      23.670  18.296  13.729  1.00  0.00    +0.000 F 
ATOM     66  C44 UNL A   1      23.973  17.590  11.495  1.00  0.00    +0.000 C 
ATOM     67  F10 UNL A   1      23.679  16.335  11.872  1.00  0.00    +0.000 F 
ATOM     57  C39 UNL A   1      24.224  17.874  10.147  1.00  0.00    +0.000 C 
ATOM     58  C40 UNL A   1      24.471  19.214   9.804  1.00  0.00    +0.000 C 
ATOM     59  F6  UNL A   1      24.627  19.579   8.524  1.00  0.00    +0.000 F 
ATOM     60  C41 UNL A   1      24.505  20.215  10.775  1.00  0.00    +0.000 C 
ATOM     61  F7  UNL A   1      24.753  21.485  10.424  1.00  0.00    +0.000 F 
ATOM     62  C42 UNL A   1      24.245  19.905  12.100  1.00  0.00    +0.000 C 
ATOM     63  F8  UNL A   1      24.234  20.871  13.029  1.00  0.00    +0.000 F 
ATOM     64  C43 UNL A   1      23.970  18.594  12.457  1.00  0.00    +0.000 C 
ENDBRANCH   56   57
BRANCH   71   72
ATOM     72  C48 UNL A   1      29.202  17.483   6.335  1.00  0.00    +0.000 C 
ATOM     73  C49 UNL A   1      29.542  17.065   5.038  1.00  0.00    +0.000 C 
ATOM     74  F11 UNL A   1      28.590  16.627   4.200  1.00  0.00    +0.000 F 
ATOM     75  C50 UNL A   1      30.851  17.161   4.555  1.00  0.00    +0.000 C 
ATOM     76  F12 UNL A   1      31.125  16.814   3.290  1.00  0.00    +0.000 F 
ATOM     77  C51 UNL A   1      31.858  17.671   5.359  1.00  0.00    +0.000 C 
ATOM     78  F13 UNL A   1      33.099  17.827   4.875  1.00  0.00    +0.000 F 
ATOM     79  C52 UNL A   1      31.563  18.061   6.652  1.00  0.00    +0.000 C 
ATOM     80  F14 UNL A   1      32.519  18.593   7.426  1.00  0.00    +0.000 F 
ATOM     81  C53 UNL A   1      30.255  17.969   7.133  1.00  0.00    +0.000 C 
ATOM     82  F15 UNL A   1      30.019  18.457   8.360  1.00  0.00    +0.000 F 
ENDBRANCH   71   72
TORSDOF 19
ENDMDL
MODEL 3
REMARK VINA RESULT:     -10.7     32.092     36.741
ROOT
ATOM    129  H32 UNL A   1      43.645  30.034  25.656  1.00  0.00    +0.000 H 
ATOM    130  H33 UNL A   1      41.350  28.923  26.071  1.00  0.00    +0.000 H 
ATOM     35  C24 UNL A   1      41.052  28.091  28.807  1.00  0.00    +0.000 C 
ATOM     36  C25 UNL A   1      42.104  28.946  28.213  1.00  0.00    +0.000 C 
ATOM     37  N5  UNL A   1      43.164  29.400  28.794  1.00  0.00    +0.000 N 
ATOM     38  C26 UNL A   1      43.807  30.184  27.843  1.00  0.00    +0.000 C 
ATOM     39  C27 UNL A   1      44.549  31.261  28.228  1.00  0.00    +0.000 C 
ATOM     51  C34 UNL A   1      44.847  31.188  29.641  1.00  0.00    +0.000 C 
ATOM     52  C35 UNL A   1      45.503  30.284  30.455  1.00  0.00    +0.000 C 
ATOM     53  C36 UNL A   1      44.750  30.261  31.669  1.00  0.00    +0.000 C 
ATOM     54  C37 UNL A   1      43.727  31.204  31.559  1.00  0.00    +0.000 C 
ATOM     55  N6  UNL A   1      44.099  31.970  30.488  1.00  0.00    +0.000 N 
ATOM     56  C38 UNL A   1      42.487  31.388  32.274  1.00  0.00    +0.000 C 
ATOM     68  C45 UNL A   1      41.405  32.070  31.796  1.00  0.00    +0.000 C 
ATOM     69  N7  UNL A   1      40.134  31.826  32.297  1.00  0.00    +0.000 N 
ATOM     70  C46 UNL A   1      39.329  32.109  31.309  1.00  0.00    +0.000 C 
ATOM     71  C47 UNL A   1      38.135  31.291  30.974  1.00  0.00    +0.000 C 
ATOM     83  C54 UNL A   1      38.597  30.089  30.546  1.00  0.00    +0.000 C 
ATOM     84  C55 UNL A   1      37.926  28.816  30.440  1.00  0.00    +0.000 C 
ATOM     85  C56 UNL A   1      38.808  27.909  29.974  1.00  0.00    +0.000 C 
ATOM     86  C57 UNL A   1      40.051  28.581  29.573  1.00  0.00    +0.000 C 
ATOM     87  N8  UNL A   1      39.901  29.863  30.052  1.00  0.00    +0.000 N 
ATOM     88  C58 UNL A   1      39.893  32.939  30.258  1.00  0.00    +0.000 C 
ATOM     89  C59 UNL A   1      41.189  32.822  30.561  1.00  0.00    +0.000 C 
ATOM     90  C60 UNL A   1      43.227  29.825  26.577  1.00  0.00    +0.000 C 
ATOM     91  C61 UNL A   1      42.072  29.183  26.762  1.00  0.00    +0.000 C 
ATOM    121  H24 UNL A   1      46.353  29.742  30.233  1.00  0.00    +0.000 H 
ATOM    122  H25 UNL A   1      44.931  29.654  32.482  1.00  0.00    +0.000 H 
ATOM    123  H26 UNL A   1      43.871  32.918  30.348  1.00  0.00    +0.000 H 
ATOM    124  H27 UNL A   1      36.939  28.630  30.681  1.00  0.00    +0.000 H 
ATOM    125  H28 UNL A   1      38.635  26.894  29.907  1.00  0.00    +0.000 H 
ATOM    126  H29 UNL A   1      40.616  30.539  30.050  1.00  0.00    +0.000 H 
ATOM    127  H30 UNL A   1      39.428  33.465  29.500  1.00  0.00    +0.000 H 
ATOM    128  H31 UNL A   1      41.951  33.217  29.989  1.00  0.00    +0.000 H 
ENDROOT
BRANCH   35   34
ATOM     33  C22 UNL A   1      41.988  25.771  28.655  1.00  0.00    +0.000 C 
ATOM     34  C23 UNL A   1      41.032  26.732  28.291  1.00  0.00    +0.000 C 
ATOM    131  H34 UNL A   1      39.462  27.198  26.965  1.00  0.00    +0.000 H 
ATOM    132  H35 UNL A   1      39.015  24.865  26.484  1.00  0.00    +0.000 H 
ATOM    119  H22 UNL A   1      42.685  23.819  28.237  1.00  0.00    +0.000 H 
ATOM    120  H23 UNL A   1      42.705  25.988  29.364  1.00  0.00    +0.000 H 
ATOM     92  C62 UNL A   1      40.054  26.447  27.352  1.00  0.00    +0.000 C 
ATOM     93  C63 UNL A   1      39.891  25.156  26.948  1.00  0.00    +0.000 C 
ATOM     31  C20 UNL A   1      40.905  24.232  27.163  1.00  0.00    +0.000 C 
ATOM     32  C21 UNL A   1      41.953  24.520  28.044  1.00  0.00    +0.000 C 
BRANCH   31   29
ATOM     29  C19 UNL A   1      40.839  22.970  26.409  1.00  0.00    +0.000 C 
ATOM     30  O6  UNL A   1      41.682  22.713  25.557  1.00  0.00    +0.000 O 
BRANCH   29   28
ATOM     28  N4  UNL A   1      39.818  22.079  26.685  1.00  0.00    +0.000 N 
ATOM    118  H21 UNL A   1      39.418  22.143  27.582  1.00  0.00    +0.000 H 
BRANCH   28   27
ATOM     27  C18 UNL A   1      39.260  21.048  25.802  1.00  0.00    +0.000 C 
ATOM    116  H19 UNL A   1      38.236  20.883  26.067  1.00  0.00    +0.000 H 
ATOM    117  H20 UNL A   1      39.347  21.394  24.793  1.00  0.00    +0.000 H 
BRANCH   27   26
ATOM     26  C17 UNL A   1      40.014  19.734  25.917  1.00  0.00    +0.000 C 
ATOM    115  H18 UNL A   1      40.641  19.655  25.053  1.00  0.00    +0.000 H 
ATOM    114  H17 UNL A   1      39.301  18.938  25.976  1.00  0.00    +0.000 H 
BRANCH   26   25
ATOM     25  C16 UNL A   1      40.931  19.657  27.148  1.00  0.00    +0.000 C 
ATOM    113  H16 UNL A   1      40.641  18.765  27.664  1.00  0.00    +0.000 H 
ATOM    112  H15 UNL A   1      40.797  20.557  27.711  1.00  0.00    +0.000 H 
BRANCH   25   24
ATOM    110  H13 UNL A   1      42.926  20.392  27.195  1.00  0.00    +0.000 H 
ATOM    111  H14 UNL A   1      42.743  18.621  27.396  1.00  0.00    +0.000 H 
ATOM     24  C15 UNL A   1      42.435  19.500  26.868  1.00  0.00    +0.000 C 
BRANCH   24   23
ATOM    108  H11 UNL A   1      42.552  18.260  25.138  1.00  0.00    +0.000 H 
ATOM    109  H12 UNL A   1      42.274  19.982  24.813  1.00  0.00    +0.000 H 
ATOM     23  C14 UNL A   1      42.811  19.265  25.399  1.00  0.00    +0.000 C 
BRANCH   23   22
ATOM    106  H9  UNL A   1      44.869  18.747  25.666  1.00  0.00    +0.000 H 
ATOM    107  H10 UNL A   1      44.481  19.357  24.071  1.00  0.00    +0.000 H 
ATOM     22  C13 UNL A   1      44.302  19.472  25.119  1.00  0.00    +0.000 C 
BRANCH   22   21
ATOM    105  H8  UNL A   1      44.892  20.880  26.491  1.00  0.00    +0.000 H 
ATOM     21  N3  UNL A   1      44.703  20.805  25.528  1.00  0.00    +0.000 N 
BRANCH   21   19
ATOM     19  C12 UNL A   1      44.871  21.982  24.843  1.00  0.00    +0.000 C 
ATOM     20  O5  UNL A   1      44.678  21.969  23.628  1.00  0.00    +0.000 O 
BRANCH   19   18
ATOM    133  H36 UNL A   1      46.894  22.427  26.684  1.00  0.00    +0.000 H 
ATOM    134  H37 UNL A   1      47.868  24.572  27.253  1.00  0.00    +0.000 H 
ATOM    103  H6  UNL A   1      44.591  26.516  25.483  1.00  0.00    +0.000 H 
ATOM    104  H7  UNL A   1      43.799  24.380  24.638  1.00  0.00    +0.000 H 
ATOM     15  C8  UNL A   1      46.340  25.715  26.353  1.00  0.00    +0.000 C 
ATOM     16  C9  UNL A   1      45.133  25.656  25.657  1.00  0.00    +0.000 C 
ATOM     17  C10 UNL A   1      44.666  24.420  25.197  1.00  0.00    +0.000 C 
ATOM     18  C11 UNL A   1      45.360  23.233  25.486  1.00  0.00    +0.000 C 
ATOM     94  C64 UNL A   1      46.465  23.296  26.334  1.00  0.00    +0.000 C 
ATOM     95  C65 UNL A   1      46.992  24.531  26.709  1.00  0.00    +0.000 C 
BRANCH   15   14
ATOM    102  H5  UNL A   1      47.438  29.566  28.335  1.00  0.00    +0.000 H 
ATOM      9  C5  UNL A   1      46.866  27.628  27.856  1.00  0.00    +0.000 C 
ATOM     10  C6  UNL A   1      47.361  28.835  27.610  1.00  0.00    +0.000 C 
ATOM     11  O3  UNL A   1      47.768  29.033  26.292  1.00  0.00    +0.000 O 
ATOM     12  C7  UNL A   1      47.474  27.797  25.712  1.00  0.00    +0.000 C 
ATOM     13  O4  UNL A   1      47.651  27.567  24.523  1.00  0.00    +0.000 O 
ATOM     14  N2  UNL A   1      46.930  26.949  26.672  1.00  0.00    +0.000 N 
BRANCH    9    8
ATOM     97  C67 UNL A   1      44.730  26.365  30.702  1.00  0.00    +0.000 C 
ATOM    100  H3  UNL A   1      47.788  25.696  31.923  1.00  0.00    +0.000 H 
ATOM      5  C1  UNL A   1      45.714  25.915  31.589  1.00  0.00    +0.000 C 
ATOM      6  C2  UNL A   1      47.066  26.031  31.267  1.00  0.00    +0.000 C 
ATOM      7  C3  UNL A   1      47.433  26.605  30.047  1.00  0.00    +0.000 C 
ATOM    136  H39 UNL A   1      43.732  26.269  30.945  1.00  0.00    +0.000 H 
ATOM    101  H4  UNL A   1      48.433  26.696  29.808  1.00  0.00    +0.000 H 
ATOM    135  H38 UNL A   1      44.381  27.290  28.836  1.00  0.00    +0.000 H 
ATOM      8  C4  UNL A   1      46.459  27.059  29.139  1.00  0.00    +0.000 C 
ATOM     96  C66 UNL A   1      45.105  26.944  29.485  1.00  0.00    +0.000 C 
BRANCH    5    2
ATOM      2  S1  UNL A   1      45.228  25.133  33.100  1.00  0.00    +0.000 S 
ATOM      3  O1  UNL A   1      44.747  23.795  32.811  1.00  0.00    +0.000 O 
ATOM      4  O2  UNL A   1      44.476  26.070  33.887  1.00  0.00    +0.000 O 
BRANCH    2    1
ATOM      1  N1  UNL A   1      46.700  24.922  33.879  1.00  0.00    +0.000 N 
ATOM     98  H1  UNL A   1      47.203  25.809  33.901  1.00  0.00    +0.000 H 
ATOM     99  H2  UNL A   1      47.254  24.229  33.377  1.00  0.00    +0.000 H 
ENDBRANCH    2    1
ENDBRANCH    5    2
ENDBRANCH    9    8
ENDBRANCH   15   14
ENDBRANCH   19   18
ENDBRANCH   21   19
ENDBRANCH   22   21
ENDBRANCH   23   22
ENDBRANCH   24   23
ENDBRANCH   25   24
ENDBRANCH   26   25
ENDBRANCH   27   26
ENDBRANCH   28   27
ENDBRANCH   29   28
ENDBRANCH   31   29
ENDBRANCH   35   34
BRANCH   39   40
ATOM     40  C28 UNL A   1      44.624  32.572  27.469  1.00  0.00    +0.000 C 
ATOM     41  C29 UNL A   1      45.750  32.802  26.648  1.00  0.00    +0.000 C 
ATOM     42  F1  UNL A   1      46.557  31.790  26.294  1.00  0.00    +0.000 F 
ATOM     43  C30 UNL A   1      46.138  34.087  26.262  1.00  0.00    +0.000 C 
ATOM     44  F2  UNL A   1      47.298  34.263  25.616  1.00  0.00    +0.000 F 
ATOM     45  C31 UNL A   1      45.376  35.183  26.614  1.00  0.00    +0.000 C 
ATOM     46  F3  UNL A   1      45.784  36.423  26.314  1.00  0.00    +0.000 F 
ATOM     47  C32 UNL A   1      44.209  34.992  27.318  1.00  0.00    +0.000 C 
ATOM     48  F4  UNL A   1      43.455  36.043  27.671  1.00  0.00    +0.000 F 
ATOM     49  C33 UNL A   1      43.844  33.716  27.747  1.00  0.00    +0.000 C 
ATOM     50  F5  UNL A   1      42.758  33.684  28.524  1.00  0.00    +0.000 F 
ENDBRANCH   39   40
BRANCH   56   57
ATOM     65  F9  UNL A   1      43.144  30.987  37.061  1.00  0.00    +0.000 F 
ATOM     66  C44 UNL A   1      42.707  31.156  34.746  1.00  0.00    +0.000 C 
ATOM     67  F10 UNL A   1      43.156  32.422  34.774  1.00  0.00    +0.000 F 
ATOM     57  C39 UNL A   1      42.307  30.583  33.532  1.00  0.00    +0.000 C 
ATOM     58  C40 UNL A   1      41.900  29.238  33.556  1.00  0.00    +0.000 C 
ATOM     59  F6  UNL A   1      41.593  28.593  32.423  1.00  0.00    +0.000 F 
ATOM     60  C41 UNL A   1      41.859  28.516  34.749  1.00  0.00    +0.000 C 
ATOM     61  F7  UNL A   1      41.456  27.236  34.747  1.00  0.00    +0.000 F 
ATOM     62  C42 UNL A   1      42.268  29.108  35.933  1.00  0.00    +0.000 C 
ATOM     63  F8  UNL A   1      42.270  28.403  37.073  1.00  0.00    +0.000 F 
ATOM     64  C43 UNL A   1      42.701  30.424  35.929  1.00  0.00    +0.000 C 
ENDBRANCH   56   57
BRANCH   71   72
ATOM     72  C48 UNL A   1      36.780  31.873  30.841  1.00  0.00    +0.000 C 
ATOM     73  C49 UNL A   1      35.968  32.085  31.967  1.00  0.00    +0.000 C 
ATOM     74  F11 UNL A   1      36.308  31.555  33.152  1.00  0.00    +0.000 F 
ATOM     75  C50 UNL A   1      34.837  32.906  31.914  1.00  0.00    +0.000 C 
ATOM     76  F12 UNL A   1      34.125  33.138  33.025  1.00  0.00    +0.000 F 
ATOM     77  C51 UNL A   1      34.482  33.533  30.729  1.00  0.00    +0.000 C 
ATOM     78  F13 UNL A   1      33.439  34.374  30.693  1.00  0.00    +0.000 F 
ATOM     79  C52 UNL A   1      35.242  33.318  29.594  1.00  0.00    +0.000 C 
ATOM     80  F14 UNL A   1      34.932  33.950  28.453  1.00  0.00    +0.000 F 
ATOM     81  C53 UNL A   1      36.373  32.502  29.649  1.00  0.00    +0.000 C 
ATOM     82  F15 UNL A   1      37.120  32.417  28.538  1.00  0.00    +0.000 F 
ENDBRANCH   71   72
TORSDOF 19
ENDMDL
MODEL 4
REMARK VINA RESULT:     -10.7      4.488     11.199
ROOT
ATOM    129  H32 UNL A   1      27.667  21.030   6.118  1.00  0.00    +0.000 H 
ATOM    130  H33 UNL A   1      25.874  21.031   4.258  1.00  0.00    +0.000 H 
ATOM     35  C24 UNL A   1      25.020  18.365   3.603  1.00  0.00    +0.000 C 
ATOM     36  C25 UNL A   1      25.854  18.813   4.741  1.00  0.00    +0.000 C 
ATOM     37  N5  UNL A   1      26.457  18.071   5.608  1.00  0.00    +0.000 N 
ATOM     38  C26 UNL A   1      27.067  18.950   6.497  1.00  0.00    +0.000 C 
ATOM     39  C27 UNL A   1      27.240  18.598   7.802  1.00  0.00    +0.000 C 
ATOM     51  C34 UNL A   1      27.081  17.169   7.964  1.00  0.00    +0.000 C 
ATOM     52  C35 UNL A   1      27.707  16.052   7.445  1.00  0.00    +0.000 C 
ATOM     53  C36 UNL A   1      26.663  15.101   7.239  1.00  0.00    +0.000 C 
ATOM     54  C37 UNL A   1      25.473  15.658   7.712  1.00  0.00    +0.000 C 
ATOM     55  N6  UNL A   1      25.886  16.718   8.472  1.00  0.00    +0.000 N 
ATOM     56  C38 UNL A   1      24.085  15.346   7.471  1.00  0.00    +0.000 C 
ATOM     68  C45 UNL A   1      23.048  16.217   7.651  1.00  0.00    +0.000 C 
ATOM     69  N7  UNL A   1      21.844  16.032   6.987  1.00  0.00    +0.000 N 
ATOM     70  C46 UNL A   1      21.349  17.235   6.861  1.00  0.00    +0.000 C 
ATOM     71  C47 UNL A   1      20.670  17.709   5.628  1.00  0.00    +0.000 C 
ATOM     83  C54 UNL A   1      21.619  17.759   4.659  1.00  0.00    +0.000 C 
ATOM     84  C55 UNL A   1      21.486  17.791   3.222  1.00  0.00    +0.000 C 
ATOM     85  C56 UNL A   1      22.720  17.823   2.682  1.00  0.00    +0.000 C 
ATOM     86  C57 UNL A   1      23.724  18.002   3.739  1.00  0.00    +0.000 C 
ATOM     87  N8  UNL A   1      23.009  17.836   4.903  1.00  0.00    +0.000 N 
ATOM     88  C58 UNL A   1      21.903  18.238   7.754  1.00  0.00    +0.000 C 
ATOM     89  C59 UNL A   1      22.996  17.585   8.161  1.00  0.00    +0.000 C 
ATOM     90  C60 UNL A   1      27.075  20.230   5.842  1.00  0.00    +0.000 C 
ATOM     91  C61 UNL A   1      26.207  20.238   4.828  1.00  0.00    +0.000 C 
ATOM    121  H24 UNL A   1      28.714  15.932   7.249  1.00  0.00    +0.000 H 
ATOM    122  H25 UNL A   1      26.769  14.167   6.815  1.00  0.00    +0.000 H 
ATOM    123  H26 UNL A   1      25.409  17.094   9.247  1.00  0.00    +0.000 H 
ATOM    124  H27 UNL A   1      20.597  17.789   2.697  1.00  0.00    +0.000 H 
ATOM    125  H28 UNL A   1      22.929  17.736   1.675  1.00  0.00    +0.000 H 
ATOM    126  H29 UNL A   1      23.417  17.779   5.797  1.00  0.00    +0.000 H 
ATOM    127  H30 UNL A   1      21.556  19.178   8.000  1.00  0.00    +0.000 H 
ATOM    128  H31 UNL A   1      23.721  18.000   8.767  1.00  0.00    +0.000 H 
ENDROOT
BRANCH   35   34
ATOM     33  C22 UNL A   1      27.007  18.526   2.085  1.00  0.00    +0.000 C 
ATOM     34  C23 UNL A   1      25.623  18.596   2.300  1.00  0.00    +0.000 C 
ATOM    131  H34 UNL A   1      23.770  19.177   1.483  1.00  0.00    +0.000 H 
ATOM    132  H35 UNL A   1      24.592  19.035  -0.792  1.00  0.00    +0.000 H 
ATOM    119  H22 UNL A   1      28.530  18.879   0.661  1.00  0.00    +0.000 H 
ATOM    120  H23 UNL A   1      27.642  18.238   2.846  1.00  0.00    +0.000 H 
ATOM     92  C62 UNL A   1      24.759  18.965   1.282  1.00  0.00    +0.000 C 
ATOM     93  C63 UNL A   1      25.243  19.045   0.010  1.00  0.00    +0.000 C 
ATOM     31  C20 UNL A   1      26.611  19.138  -0.202  1.00  0.00    +0.000 C 
ATOM     32  C21 UNL A   1      27.512  18.851   0.828  1.00  0.00    +0.000 C 
BRANCH   31   29
ATOM     29  C19 UNL A   1      27.059  19.576  -1.535  1.00  0.00    +0.000 C 
ATOM     30  O6  UNL A   1      28.180  20.047  -1.687  1.00  0.00    +0.000 O 
BRANCH   29   28
ATOM     28  N4  UNL A   1      26.197  19.438  -2.607  1.00  0.00    +0.000 N 
ATOM    118  H21 UNL A   1      26.081  18.525  -2.955  1.00  0.00    +0.000 H 
BRANCH   28   27
ATOM     27  C18 UNL A   1      25.434  20.490  -3.290  1.00  0.00    +0.000 C 
ATOM    116  H19 UNL A   1      25.051  21.170  -2.558  1.00  0.00    +0.000 H 
ATOM    117  H20 UNL A   1      26.093  20.987  -3.971  1.00  0.00    +0.000 H 
BRANCH   27   26
ATOM     26  C17 UNL A   1      24.273  19.922  -4.087  1.00  0.00    +0.000 C 
ATOM    115  H18 UNL A   1      24.397  18.859  -4.109  1.00  0.00    +0.000 H 
ATOM    114  H17 UNL A   1      24.291  20.354  -5.067  1.00  0.00    +0.000 H 
BRANCH   26   25
ATOM     25  C16 UNL A   1      22.899  20.202  -3.458  1.00  0.00    +0.000 C 
ATOM    113  H16 UNL A   1      22.577  19.268  -3.047  1.00  0.00    +0.000 H 
ATOM    112  H15 UNL A   1      22.262  20.590  -4.226  1.00  0.00    +0.000 H 
BRANCH   25   24
ATOM    110  H13 UNL A   1      22.307  20.760  -1.493  1.00  0.00    +0.000 H 
ATOM    111  H14 UNL A   1      23.901  21.376  -2.032  1.00  0.00    +0.000 H 
ATOM     24  C15 UNL A   1      22.877  21.197  -2.286  1.00  0.00    +0.000 C 
BRANCH   24   23
ATOM    108  H11 UNL A   1      21.304  22.630  -2.150  1.00  0.00    +0.000 H 
ATOM    109  H12 UNL A   1      22.941  23.311  -2.209  1.00  0.00    +0.000 H 
ATOM     23  C14 UNL A   1      22.273  22.572  -2.600  1.00  0.00    +0.000 C 
BRANCH   23   22
ATOM    106  H9  UNL A   1      22.451  21.973  -4.646  1.00  0.00    +0.000 H 
ATOM    107  H10 UNL A   1      21.104  23.044  -4.325  1.00  0.00    +0.000 H 
ATOM     22  C13 UNL A   1      22.129  22.837  -4.102  1.00  0.00    +0.000 C 
BRANCH   22   21
ATOM    105  H8  UNL A   1      23.897  23.766  -4.574  1.00  0.00    +0.000 H 
ATOM     21  N3  UNL A   1      22.940  23.977  -4.485  1.00  0.00    +0.000 N 
BRANCH   21   19
ATOM     19  C12 UNL A   1      22.641  25.291  -4.746  1.00  0.00    +0.000 C 
ATOM     20  O5  UNL A   1      22.710  25.672  -5.913  1.00  0.00    +0.000 O 
BRANCH   19   18
ATOM    133  H36 UNL A   1      20.231  26.311  -3.834  1.00  0.00    +0.000 H 
ATOM    134  H37 UNL A   1      19.883  27.542  -1.774  1.00  0.00    +0.000 H 
ATOM    103  H6  UNL A   1      24.021  28.217  -1.493  1.00  0.00    +0.000 H 
ATOM    104  H7  UNL A   1      24.379  26.712  -3.366  1.00  0.00    +0.000 H 
ATOM     15  C8  UNL A   1      21.931  27.919  -1.435  1.00  0.00    +0.000 C 
ATOM     16  C9  UNL A   1      23.220  27.735  -1.931  1.00  0.00    +0.000 C 
ATOM     17  C10 UNL A   1      23.420  26.890  -3.029  1.00  0.00    +0.000 C 
ATOM     18  C11 UNL A   1      22.332  26.281  -3.677  1.00  0.00    +0.000 C 
ATOM     94  C64 UNL A   1      21.041  26.621  -3.276  1.00  0.00    +0.000 C 
ATOM     95  C65 UNL A   1      20.840  27.378  -2.123  1.00  0.00    +0.000 C 
BRANCH   15   14
ATOM    102  H5  UNL A   1      20.843  28.998   2.762  1.00  0.00    +0.000 H 
ATOM      9  C5  UNL A   1      21.466  28.084   1.005  1.00  0.00    +0.000 C 
ATOM     10  C6  UNL A   1      21.091  29.105   1.766  1.00  0.00    +0.000 C 
ATOM     11  O3  UNL A   1      21.061  30.334   1.108  1.00  0.00    +0.000 O 
ATOM     12  C7  UNL A   1      21.465  29.979  -0.180  1.00  0.00    +0.000 C 
ATOM     13  O4  UNL A   1      21.532  30.787  -1.097  1.00  0.00    +0.000 O 
ATOM     14  N2  UNL A   1      21.713  28.610  -0.232  1.00  0.00    +0.000 N 
BRANCH    9    8
ATOM     97  C67 UNL A   1      20.948  24.413   1.717  1.00  0.00    +0.000 C 
ATOM    100  H3  UNL A   1      24.210  24.701   2.471  1.00  0.00    +0.000 H 
ATOM      5  C1  UNL A   1      22.234  24.039   2.122  1.00  0.00    +0.000 C 
ATOM      6  C2  UNL A   1      23.262  24.981   2.173  1.00  0.00    +0.000 C 
ATOM      7  C3  UNL A   1      22.997  26.305   1.817  1.00  0.00    +0.000 C 
ATOM    136  H39 UNL A   1      20.195  23.709   1.676  1.00  0.00    +0.000 H 
ATOM    101  H4  UNL A   1      23.755  27.004   1.858  1.00  0.00    +0.000 H 
ATOM    135  H38 UNL A   1      19.736  26.022   1.083  1.00  0.00    +0.000 H 
ATOM      8  C4  UNL A   1      21.712  26.699   1.402  1.00  0.00    +0.000 C 
ATOM     96  C66 UNL A   1      20.689  25.742   1.367  1.00  0.00    +0.000 C 
BRANCH    5    2
ATOM      2  S1  UNL A   1      22.565  22.344   2.508  1.00  0.00    +0.000 S 
ATOM      3  O1  UNL A   1      22.333  21.534   1.327  1.00  0.00    +0.000 O 
ATOM      4  O2  UNL A   1      21.980  22.036   3.784  1.00  0.00    +0.000 O 
BRANCH    2    1
ATOM      1  N1  UNL A   1      24.229  22.350   2.730  1.00  0.00    +0.000 N 
ATOM     98  H1  UNL A   1      24.446  22.058   3.683  1.00  0.00    +0.000 H 
ATOM     99  H2  UNL A   1      24.589  23.292   2.573  1.00  0.00    +0.000 H 
ENDBRANCH    2    1
ENDBRANCH    5    2
ENDBRANCH    9    8
ENDBRANCH   15   14
ENDBRANCH   19   18
ENDBRANCH   21   19
ENDBRANCH   22   21
ENDBRANCH   23   22
ENDBRANCH   24   23
ENDBRANCH   25   24
ENDBRANCH   26   25
ENDBRANCH   27   26
ENDBRANCH   28   27
ENDBRANCH   29   28
ENDBRANCH   31   29
ENDBRANCH   35   34
BRANCH   39   40
ATOM     40  C28 UNL A   1      27.108  19.548   8.977  1.00  0.00    +0.000 C 
ATOM     41  C29 UNL A   1      28.057  19.455  10.019  1.00  0.00    +0.000 C 
ATOM     42  F1  UNL A   1      29.207  18.787   9.839  1.00  0.00    +0.000 F 
ATOM     43  C30 UNL A   1      27.802  19.945  11.302  1.00  0.00    +0.000 C 
ATOM     44  F2  UNL A   1      28.668  19.693  12.292  1.00  0.00    +0.000 F 
ATOM     45  C31 UNL A   1      26.626  20.616  11.574  1.00  0.00    +0.000 C 
ATOM     46  F3  UNL A   1      26.343  21.020  12.819  1.00  0.00    +0.000 F 
ATOM     47  C32 UNL A   1      25.724  20.829  10.556  1.00  0.00    +0.000 C 
ATOM     48  F4  UNL A   1      24.575  21.476  10.800  1.00  0.00    +0.000 F 
ATOM     49  C33 UNL A   1      25.952  20.297   9.288  1.00  0.00    +0.000 C 
ATOM     50  F5  UNL A   1      24.944  20.470   8.427  1.00  0.00    +0.000 F 
ENDBRANCH   39   40
BRANCH   56   57
ATOM     65  F9  UNL A   1      23.847  12.858   3.316  1.00  0.00    +0.000 F 
ATOM     66  C44 UNL A   1      24.031  13.982   5.386  1.00  0.00    +0.000 C 
ATOM     67  F10 UNL A   1      24.579  15.028   4.747  1.00  0.00    +0.000 F 
ATOM     57  C39 UNL A   1      23.797  14.050   6.765  1.00  0.00    +0.000 C 
ATOM     58  C40 UNL A   1      23.170  12.945   7.369  1.00  0.00    +0.000 C 
ATOM     59  F6  UNL A   1      22.828  12.973   8.664  1.00  0.00    +0.000 F 
ATOM     60  C41 UNL A   1      22.832  11.812   6.630  1.00  0.00    +0.000 C 
ATOM     61  F7  UNL A   1      22.244  10.767   7.231  1.00  0.00    +0.000 F 
ATOM     62  C42 UNL A   1      23.070  11.777   5.266  1.00  0.00    +0.000 C 
ATOM     63  F8  UNL A   1      22.707  10.707   4.545  1.00  0.00    +0.000 F 
ATOM     64  C43 UNL A   1      23.660  12.866   4.643  1.00  0.00    +0.000 C 
ENDBRANCH   56   57
BRANCH   71   72
ATOM     72  C48 UNL A   1      19.315  18.306   5.640  1.00  0.00    +0.000 C 
ATOM     73  C49 UNL A   1      19.104  19.633   5.233  1.00  0.00    +0.000 C 
ATOM     74  F11 UNL A   1      20.148  20.455   5.048  1.00  0.00    +0.000 F 
ATOM     75  C50 UNL A   1      17.825  20.116   4.936  1.00  0.00    +0.000 C 
ATOM     76  F12 UNL A   1      17.670  21.369   4.488  1.00  0.00    +0.000 F 
ATOM     77  C51 UNL A   1      16.721  19.286   5.045  1.00  0.00    +0.000 C 
ATOM     78  F13 UNL A   1      15.504  19.726   4.696  1.00  0.00    +0.000 F 
ATOM     79  C52 UNL A   1      16.891  17.983   5.475  1.00  0.00    +0.000 C 
ATOM     80  F14 UNL A   1      15.836  17.159   5.546  1.00  0.00    +0.000 F 
ATOM     81  C53 UNL A   1      18.168  17.500   5.767  1.00  0.00    +0.000 C 
ATOM     82  F15 UNL A   1      18.273  16.200   6.081  1.00  0.00    +0.000 F 
ENDBRANCH   71   72
TORSDOF 19
ENDMDL
MODEL 5
REMARK VINA RESULT:     -10.6      3.536      6.890
ROOT
ATOM    129  H32 UNL A   1      21.674  29.315  -3.433  1.00  0.00    +0.000 H 
ATOM    130  H33 UNL A   1      21.268  27.193  -4.848  1.00  0.00    +0.000 H 
ATOM     35  C24 UNL A   1      22.210  24.828  -3.512  1.00  0.00    +0.000 C 
ATOM     36  C25 UNL A   1      22.056  26.195  -2.966  1.00  0.00    +0.000 C 
ATOM     37  N5  UNL A   1      22.421  26.619  -1.803  1.00  0.00    +0.000 N 
ATOM     38  C26 UNL A   1      22.021  27.950  -1.746  1.00  0.00    +0.000 C 
ATOM     39  C27 UNL A   1      21.673  28.512  -0.554  1.00  0.00    +0.000 C 
ATOM     51  C34 UNL A   1      22.145  27.698   0.545  1.00  0.00    +0.000 C 
ATOM     52  C35 UNL A   1      23.383  27.254   0.968  1.00  0.00    +0.000 C 
ATOM     53  C36 UNL A   1      23.163  25.923   1.435  1.00  0.00    +0.000 C 
ATOM     54  C37 UNL A   1      21.796  25.655   1.342  1.00  0.00    +0.000 C 
ATOM     55  N6  UNL A   1      21.229  26.889   1.173  1.00  0.00    +0.000 N 
ATOM     56  C38 UNL A   1      21.039  24.425   1.327  1.00  0.00    +0.000 C 
ATOM     68  C45 UNL A   1      19.781  24.290   0.812  1.00  0.00    +0.000 C 
ATOM     69  N7  UNL A   1      19.309  23.049   0.411  1.00  0.00    +0.000 N 
ATOM     70  C46 UNL A   1      18.444  23.313  -0.531  1.00  0.00    +0.000 C 
ATOM     71  C47 UNL A   1      18.328  22.512  -1.776  1.00  0.00    +0.000 C 
ATOM     83  C54 UNL A   1      19.478  22.709  -2.470  1.00  0.00    +0.000 C 
ATOM     84  C55 UNL A   1      20.070  21.933  -3.534  1.00  0.00    +0.000 C 
ATOM     85  C56 UNL A   1      21.227  22.522  -3.895  1.00  0.00    +0.000 C 
ATOM     86  C57 UNL A   1      21.362  23.817  -3.215  1.00  0.00    +0.000 C 
ATOM     87  N8  UNL A   1      20.343  23.812  -2.291  1.00  0.00    +0.000 N 
ATOM     88  C58 UNL A   1      17.943  24.677  -0.558  1.00  0.00    +0.000 C 
ATOM     89  C59 UNL A   1      18.852  25.257   0.232  1.00  0.00    +0.000 C 
ATOM     90  C60 UNL A   1      21.748  28.340  -3.103  1.00  0.00    +0.000 C 
ATOM     91  C61 UNL A   1      21.605  27.261  -3.875  1.00  0.00    +0.000 C 
ATOM    121  H24 UNL A   1      24.275  27.773   0.952  1.00  0.00    +0.000 H 
ATOM    122  H25 UNL A   1      23.886  25.273   1.779  1.00  0.00    +0.000 H 
ATOM    123  H26 UNL A   1      20.322  27.152   1.453  1.00  0.00    +0.000 H 
ATOM    124  H27 UNL A   1      19.675  21.073  -3.948  1.00  0.00    +0.000 H 
ATOM    125  H28 UNL A   1      21.915  22.124  -4.553  1.00  0.00    +0.000 H 
ATOM    126  H29 UNL A   1      20.231  24.493  -1.590  1.00  0.00    +0.000 H 
ATOM    127  H30 UNL A   1      17.127  25.079  -1.045  1.00  0.00    +0.000 H 
ATOM    128  H31 UNL A   1      18.893  26.272   0.411  1.00  0.00    +0.000 H 
ENDROOT
BRANCH   35   34
ATOM     33  C22 UNL A   1      24.557  24.553  -4.349  1.00  0.00    +0.000 C 
ATOM     34  C23 UNL A   1      23.185  24.726  -4.586  1.00  0.00    +0.000 C 
ATOM    131  H34 UNL A   1      21.720  25.176  -6.033  1.00  0.00    +0.000 H 
ATOM    132  H35 UNL A   1      23.144  24.478  -7.866  1.00  0.00    +0.000 H 
ATOM    119  H22 UNL A   1      26.454  24.506  -5.281  1.00  0.00    +0.000 H 
ATOM    120  H23 UNL A   1      24.910  24.424  -3.388  1.00  0.00    +0.000 H 
ATOM     92  C62 UNL A   1      22.697  24.884  -5.873  1.00  0.00    +0.000 C 
ATOM     93  C63 UNL A   1      23.532  24.647  -6.924  1.00  0.00    +0.000 C 
ATOM     31  C20 UNL A   1      24.906  24.634  -6.723  1.00  0.00    +0.000 C 
ATOM     32  C21 UNL A   1      25.435  24.558  -5.430  1.00  0.00    +0.000 C 
BRANCH   31   29
ATOM     29  C19 UNL A   1      25.763  24.734  -7.916  1.00  0.00    +0.000 C 
ATOM     30  O6  UNL A   1      26.379  25.767  -8.151  1.00  0.00    +0.000 O 
BRANCH   29   28
ATOM     28  N4  UNL A   1      25.867  23.640  -8.756  1.00  0.00    +0.000 N 
ATOM    118  H21 UNL A   1      26.208  22.812  -8.349  1.00  0.00    +0.000 H 
BRANCH   28   27
ATOM     27  C18 UNL A   1      25.533  23.567 -10.184  1.00  0.00    +0.000 C 
ATOM    116  H19 UNL A   1      24.991  24.449 -10.457  1.00  0.00    +0.000 H 
ATOM    117  H20 UNL A   1      26.447  23.490 -10.734  1.00  0.00    +0.000 H 
BRANCH   27   26
ATOM     26  C17 UNL A   1      24.684  22.349 -10.505  1.00  0.00    +0.000 C 
ATOM    115  H18 UNL A   1      23.799  22.702 -10.992  1.00  0.00    +0.000 H 
ATOM    114  H17 UNL A   1      24.469  21.836  -9.591  1.00  0.00    +0.000 H 
BRANCH   26   25
ATOM     25  C16 UNL A   1      25.364  21.362 -11.467  1.00  0.00    +0.000 C 
ATOM    113  H16 UNL A   1      26.305  21.126 -11.015  1.00  0.00    +0.000 H 
ATOM    112  H15 UNL A   1      25.440  21.839 -12.422  1.00  0.00    +0.000 H 
BRANCH   25   24
ATOM    110  H13 UNL A   1      23.948  19.889 -10.878  1.00  0.00    +0.000 H 
ATOM    111  H14 UNL A   1      24.210  20.058 -12.643  1.00  0.00    +0.000 H 
ATOM     24  C15 UNL A   1      24.656  20.013 -11.672  1.00  0.00    +0.000 C 
BRANCH   24   23
ATOM    108  H11 UNL A   1      25.838  18.545 -10.675  1.00  0.00    +0.000 H 
ATOM    109  H12 UNL A   1      25.034  17.987 -12.154  1.00  0.00    +0.000 H 
ATOM     23  C14 UNL A   1      25.573  18.783 -11.684  1.00  0.00    +0.000 C 
BRANCH   23   22
ATOM    106  H9  UNL A   1      26.789  18.472 -13.417  1.00  0.00    +0.000 H 
ATOM    107  H10 UNL A   1      26.984  20.046 -12.674  1.00  0.00    +0.000 H 
ATOM     22  C13 UNL A   1      26.859  19.000 -12.488  1.00  0.00    +0.000 C 
BRANCH   22   21
ATOM    105  H8  UNL A   1      27.884  17.590 -11.403  1.00  0.00    +0.000 H 
ATOM     21  N3  UNL A   1      28.000  18.508 -11.740  1.00  0.00    +0.000 N 
BRANCH   21   19
ATOM     19  C12 UNL A   1      29.209  19.065 -11.406  1.00  0.00    +0.000 C 
ATOM     20  O5  UNL A   1      30.197  18.717 -12.051  1.00  0.00    +0.000 O 
BRANCH   19   18
ATOM    133  H36 UNL A   1      30.444  18.713  -8.949  1.00  0.00    +0.000 H 
ATOM    134  H37 UNL A   1      31.060  20.464  -7.391  1.00  0.00    +0.000 H 
ATOM    103  H6  UNL A   1      28.516  23.134  -9.405  1.00  0.00    +0.000 H 
ATOM    104  H7  UNL A   1      28.167  21.470 -11.140  1.00  0.00    +0.000 H 
ATOM     15  C8  UNL A   1      29.889  21.956  -8.315  1.00  0.00    +0.000 C 
ATOM     16  C9  UNL A   1      29.003  22.226  -9.357  1.00  0.00    +0.000 C 
ATOM     17  C10 UNL A   1      28.782  21.254 -10.340  1.00  0.00    +0.000 C 
ATOM     18  C11 UNL A   1      29.387  19.989 -10.251  1.00  0.00    +0.000 C 
ATOM     94  C64 UNL A   1      30.124  19.680  -9.109  1.00  0.00    +0.000 C 
ATOM     95  C65 UNL A   1      30.431  20.674  -8.181  1.00  0.00    +0.000 C 
BRANCH   15   14
ATOM    102  H5  UNL A   1      29.938  25.026  -5.069  1.00  0.00    +0.000 H 
ATOM      9  C5  UNL A   1      29.622  23.374  -6.287  1.00  0.00    +0.000 C 
ATOM     10  C6  UNL A   1      30.224  24.494  -5.906  1.00  0.00    +0.000 C 
ATOM     11  O3  UNL A   1      31.277  24.890  -6.730  1.00  0.00    +0.000 O 
ATOM     12  C7  UNL A   1      31.281  23.883  -7.696  1.00  0.00    +0.000 C 
ATOM     13  O4  UNL A   1      32.051  23.884  -8.647  1.00  0.00    +0.000 O 
ATOM     14  N2  UNL A   1      30.274  22.964  -7.416  1.00  0.00    +0.000 N 
BRANCH    9    8
ATOM     97  C67 UNL A   1      26.649  21.141  -5.630  1.00  0.00    +0.000 C 
ATOM    100  H3  UNL A   1      27.493  21.935  -2.476  1.00  0.00    +0.000 H 
ATOM      5  C1  UNL A   1      26.603  21.169  -4.232  1.00  0.00    +0.000 C 
ATOM      6  C2  UNL A   1      27.529  21.919  -3.507  1.00  0.00    +0.000 C 
ATOM      7  C3  UNL A   1      28.506  22.648  -4.190  1.00  0.00    +0.000 C 
ATOM    136  H39 UNL A   1      25.965  20.579  -6.158  1.00  0.00    +0.000 H 
ATOM    101  H4  UNL A   1      29.190  23.207  -3.657  1.00  0.00    +0.000 H 
ATOM    135  H38 UNL A   1      27.652  21.870  -7.340  1.00  0.00    +0.000 H 
ATOM      8  C4  UNL A   1      28.572  22.628  -5.596  1.00  0.00    +0.000 C 
ATOM     96  C66 UNL A   1      27.627  21.878  -6.307  1.00  0.00    +0.000 C 
BRANCH    5    2
ATOM      2  S1  UNL A   1      25.399  20.190  -3.383  1.00  0.00    +0.000 S 
ATOM      3  O1  UNL A   1      25.971  19.701  -2.143  1.00  0.00    +0.000 O 
ATOM      4  O2  UNL A   1      24.754  19.323  -4.330  1.00  0.00    +0.000 O 
BRANCH    2    1
ATOM      1  N1  UNL A   1      24.262  21.339  -2.931  1.00  0.00    +0.000 N 
ATOM     98  H1  UNL A   1      24.530  22.248  -3.307  1.00  0.00    +0.000 H 
ATOM     99  H2  UNL A   1      24.218  21.392  -1.914  1.00  0.00    +0.000 H 
ENDBRANCH    2    1
ENDBRANCH    5    2
ENDBRANCH    9    8
ENDBRANCH   15   14
ENDBRANCH   19   18
ENDBRANCH   21   19
ENDBRANCH   22   21
ENDBRANCH   23   22
ENDBRANCH   24   23
ENDBRANCH   25   24
ENDBRANCH   26   25
ENDBRANCH   27   26
ENDBRANCH   28   27
ENDBRANCH   29   28
ENDBRANCH   31   29
ENDBRANCH   35   34
BRANCH   39   40
ATOM     40  C28 UNL A   1      20.554  29.520  -0.369  1.00  0.00    +0.000 C 
ATOM     41  C29 UNL A   1      20.749  30.829  -0.861  1.00  0.00    +0.000 C 
ATOM     42  F1  UNL A   1      21.733  31.092  -1.735  1.00  0.00    +0.000 F 
ATOM     43  C30 UNL A   1      20.014  31.918  -0.387  1.00  0.00    +0.000 C 
ATOM     44  F2  UNL A   1      20.344  33.158  -0.772  1.00  0.00    +0.000 F 
ATOM     45  C31 UNL A   1      19.005  31.732   0.537  1.00  0.00    +0.000 C 
ATOM     46  F3  UNL A   1      18.350  32.780   1.052  1.00  0.00    +0.000 F 
ATOM     47  C32 UNL A   1      18.706  30.456   0.957  1.00  0.00    +0.000 C 
ATOM     48  F4  UNL A   1      17.732  30.254   1.856  1.00  0.00    +0.000 F 
ATOM     49  C33 UNL A   1      19.470  29.373   0.525  1.00  0.00    +0.000 C 
ATOM     50  F5  UNL A   1      19.156  28.209   1.101  1.00  0.00    +0.000 F 
ENDBRANCH   39   40
BRANCH   56   57
ATOM     65  F9  UNL A   1      23.335  20.393  -0.081  1.00  0.00    +0.000 F 
ATOM     66  C44 UNL A   1      22.312  22.385   0.673  1.00  0.00    +0.000 C 
ATOM     67  F10 UNL A   1      22.224  22.799  -0.601  1.00  0.00    +0.000 F 
ATOM     57  C39 UNL A   1      21.781  23.172   1.702  1.00  0.00    +0.000 C 
ATOM     58  C40 UNL A   1      21.853  22.660   3.010  1.00  0.00    +0.000 C 
ATOM     59  F6  UNL A   1      21.285  23.310   4.034  1.00  0.00    +0.000 F 
ATOM     60  C41 UNL A   1      22.464  21.435   3.274  1.00  0.00    +0.000 C 
ATOM     61  F7  UNL A   1      22.529  20.973   4.532  1.00  0.00    +0.000 F 
ATOM     62  C42 UNL A   1      22.974  20.675   2.234  1.00  0.00    +0.000 C 
ATOM     63  F8  UNL A   1      23.523  19.477   2.480  1.00  0.00    +0.000 F 
ATOM     64  C43 UNL A   1      22.888  21.145   0.934  1.00  0.00    +0.000 C 
ENDBRANCH   56   57
BRANCH   71   72
ATOM     72  C48 UNL A   1      17.047  21.929  -2.236  1.00  0.00    +0.000 C 
ATOM     73  C49 UNL A   1      16.431  20.885  -1.528  1.00  0.00    +0.000 C 
ATOM     74  F11 UNL A   1      17.101  20.240  -0.560  1.00  0.00    +0.000 F 
ATOM     75  C50 UNL A   1      15.095  20.534  -1.750  1.00  0.00    +0.000 C 
ATOM     76  F12 UNL A   1      14.522  19.576  -1.009  1.00  0.00    +0.000 F 
ATOM     77  C51 UNL A   1      14.340  21.216  -2.691  1.00  0.00    +0.000 C 
ATOM     78  F13 UNL A   1      13.041  20.928  -2.856  1.00  0.00    +0.000 F 
ATOM     79  C52 UNL A   1      14.926  22.228  -3.428  1.00  0.00    +0.000 C 
ATOM     80  F14 UNL A   1      14.196  22.922  -4.312  1.00  0.00    +0.000 F 
ATOM     81  C53 UNL A   1      16.259  22.580  -3.204  1.00  0.00    +0.000 C 
ATOM     82  F15 UNL A   1      16.735  23.636  -3.881  1.00  0.00    +0.000 F 
ENDBRANCH   71   72
TORSDOF 19
ENDMDL
MODEL 6
REMARK VINA RESULT:     -10.6     33.795     39.637
ROOT
ATOM    129  H32 UNL A   1      49.239  27.699  30.584  1.00  0.00    +0.000 H 
ATOM    130  H33 UNL A   1      48.164  25.404  31.088  1.00  0.00    +0.000 H 
ATOM     35  C24 UNL A   1      45.293  25.549  31.073  1.00  0.00    +0.000 C 
ATOM     36  C25 UNL A   1      46.270  26.568  30.625  1.00  0.00    +0.000 C 
ATOM     37  N5  UNL A   1      46.021  27.774  30.239  1.00  0.00    +0.000 N 
ATOM     38  C26 UNL A   1      47.250  28.315  29.879  1.00  0.00    +0.000 C 
ATOM     39  C27 UNL A   1      47.325  29.258  28.898  1.00  0.00    +0.000 C 
ATOM     51  C34 UNL A   1      46.018  29.821  28.639  1.00  0.00    +0.000 C 
ATOM     52  C35 UNL A   1      45.079  30.496  29.395  1.00  0.00    +0.000 C 
ATOM     53  C36 UNL A   1      43.815  30.006  28.945  1.00  0.00    +0.000 C 
ATOM     54  C37 UNL A   1      44.047  29.120  27.892  1.00  0.00    +0.000 C 
ATOM     55  N6  UNL A   1      45.343  29.371  27.530  1.00  0.00    +0.000 N 
ATOM     56  C38 UNL A   1      43.241  28.085  27.290  1.00  0.00    +0.000 C 
ATOM     68  C45 UNL A   1      43.733  27.032  26.572  1.00  0.00    +0.000 C 
ATOM     69  N7  UNL A   1      42.994  25.867  26.427  1.00  0.00    +0.000 N 
ATOM     70  C46 UNL A   1      43.887  24.926  26.277  1.00  0.00    +0.000 C 
ATOM     71  C47 UNL A   1      43.774  23.589  26.914  1.00  0.00    +0.000 C 
ATOM     83  C54 UNL A   1      43.885  23.788  28.252  1.00  0.00    +0.000 C 
ATOM     84  C55 UNL A   1      43.499  22.942  29.356  1.00  0.00    +0.000 C 
ATOM     85  C56 UNL A   1      43.799  23.581  30.504  1.00  0.00    +0.000 C 
ATOM     86  C57 UNL A   1      44.567  24.798  30.213  1.00  0.00    +0.000 C 
ATOM     87  N8  UNL A   1      44.480  24.923  28.846  1.00  0.00    +0.000 N 
ATOM     88  C58 UNL A   1      45.212  25.376  25.885  1.00  0.00    +0.000 C 
ATOM     89  C59 UNL A   1      45.088  26.677  26.158  1.00  0.00    +0.000 C 
ATOM     90  C60 UNL A   1      48.245  27.450  30.452  1.00  0.00    +0.000 C 
ATOM     91  C61 UNL A   1      47.703  26.278  30.790  1.00  0.00    +0.000 C 
ATOM    121  H24 UNL A   1      45.254  31.203  30.127  1.00  0.00    +0.000 H 
ATOM    122  H25 UNL A   1      42.894  30.262  29.331  1.00  0.00    +0.000 H 
ATOM    123  H26 UNL A   1      45.725  29.250  26.630  1.00  0.00    +0.000 H 
ATOM    124  H27 UNL A   1      43.066  22.007  29.280  1.00  0.00    +0.000 H 
ATOM    125  H28 UNL A   1      43.530  23.262  31.448  1.00  0.00    +0.000 H 
ATOM    126  H29 UNL A   1      44.794  25.709  28.343  1.00  0.00    +0.000 H 
ATOM    127  H30 UNL A   1      46.013  24.845  25.507  1.00  0.00    +0.000 H 
ATOM    128  H31 UNL A   1      45.862  27.356  26.084  1.00  0.00    +0.000 H 
ENDROOT
BRANCH   35   34
ATOM     33  C22 UNL A   1      44.397  25.672  33.410  1.00  0.00    +0.000 C 
ATOM     34  C23 UNL A   1      45.367  25.242  32.493  1.00  0.00    +0.000 C 
ATOM    131  H34 UNL A   1      47.280  24.390  32.265  1.00  0.00    +0.000 H 
ATOM    132  H35 UNL A   1      47.218  23.369  34.463  1.00  0.00    +0.000 H 
ATOM    119  H22 UNL A   1      43.931  25.782  35.470  1.00  0.00    +0.000 H 
ATOM    120  H23 UNL A   1      43.554  26.171  33.086  1.00  0.00    +0.000 H 
ATOM     92  C62 UNL A   1      46.495  24.557  32.913  1.00  0.00    +0.000 C 
ATOM     93  C63 UNL A   1      46.547  24.109  34.199  1.00  0.00    +0.000 C 
ATOM     31  C20 UNL A   1      45.694  24.649  35.152  1.00  0.00    +0.000 C 
ATOM     32  C21 UNL A   1      44.590  25.415  34.766  1.00  0.00    +0.000 C 
BRANCH   31   29
ATOM     29  C19 UNL A   1      46.022  24.404  36.567  1.00  0.00    +0.000 C 
ATOM     30  O6  UNL A   1      45.516  23.461  37.165  1.00  0.00    +0.000 O 
BRANCH   29   28
ATOM     28  N4  UNL A   1      46.915  25.248  37.201  1.00  0.00    +0.000 N 
ATOM    118  H21 UNL A   1      47.860  25.146  36.950  1.00  0.00    +0.000 H 
BRANCH   28   27
ATOM     27  C18 UNL A   1      46.620  26.278  38.205  1.00  0.00    +0.000 C 
ATOM    116  H19 UNL A   1      45.970  25.862  38.947  1.00  0.00    +0.000 H 
ATOM    117  H20 UNL A   1      47.547  26.592  38.638  1.00  0.00    +0.000 H 
BRANCH   27   26
ATOM     26  C17 UNL A   1      45.950  27.494  37.590  1.00  0.00    +0.000 C 
ATOM    115  H18 UNL A   1      45.704  28.157  38.393  1.00  0.00    +0.000 H 
ATOM    114  H17 UNL A   1      45.084  27.168  37.052  1.00  0.00    +0.000 H 
BRANCH   26   25
ATOM     25  C16 UNL A   1      46.856  28.273  36.624  1.00  0.00    +0.000 C 
ATOM    113  H16 UNL A   1      47.681  27.623  36.420  1.00  0.00    +0.000 H 
ATOM    112  H15 UNL A   1      47.125  29.193  37.100  1.00  0.00    +0.000 H 
BRANCH   25   24
ATOM    110  H13 UNL A   1      45.308  28.119  35.174  1.00  0.00    +0.000 H 
ATOM    111  H14 UNL A   1      46.183  29.683  35.217  1.00  0.00    +0.000 H 
ATOM     24  C15 UNL A   1      46.253  28.615  35.251  1.00  0.00    +0.000 C 
BRANCH   24   23
ATOM    108  H11 UNL A   1      46.473  27.699  33.339  1.00  0.00    +0.000 H 
ATOM    109  H12 UNL A   1      47.520  29.102  33.627  1.00  0.00    +0.000 H 
ATOM     23  C14 UNL A   1      47.102  28.207  34.040  1.00  0.00    +0.000 C 
BRANCH   23   22
ATOM    106  H9  UNL A   1      48.352  27.226  35.471  1.00  0.00    +0.000 H 
ATOM    107  H10 UNL A   1      48.088  26.313  34.001  1.00  0.00    +0.000 H 
ATOM     22  C13 UNL A   1      48.269  27.286  34.406  1.00  0.00    +0.000 C 
BRANCH   22   21
ATOM    105  H8  UNL A   1      49.499  28.786  33.735  1.00  0.00    +0.000 H 
ATOM     21  N3  UNL A   1      49.505  27.809  33.856  1.00  0.00    +0.000 N 
BRANCH   21   19
ATOM     19  C12 UNL A   1      50.681  27.216  33.469  1.00  0.00    +0.000 C 
ATOM     20  O5  UNL A   1      51.576  27.944  33.041  1.00  0.00    +0.000 O 
BRANCH   19   18
ATOM    133  H36 UNL A   1      49.860  25.267  31.676  1.00  0.00    +0.000 H 
ATOM    134  H37 UNL A   1      50.682  22.990  31.560  1.00  0.00    +0.000 H 
ATOM    103  H6  UNL A   1      52.313  23.393  35.411  1.00  0.00    +0.000 H 
ATOM    104  H7  UNL A   1      51.771  25.762  35.376  1.00  0.00    +0.000 H 
ATOM     15  C8  UNL A   1      51.620  23.034  33.449  1.00  0.00    +0.000 C 
ATOM     16  C9  UNL A   1      51.876  23.813  34.576  1.00  0.00    +0.000 C 
ATOM     17  C10 UNL A   1      51.537  25.171  34.563  1.00  0.00    +0.000 C 
ATOM     18  C11 UNL A   1      50.881  25.740  33.458  1.00  0.00    +0.000 C 
ATOM     94  C64 UNL A   1      50.476  24.903  32.419  1.00  0.00    +0.000 C 
ATOM     95  C65 UNL A   1      50.900  23.576  32.381  1.00  0.00    +0.000 C 
BRANCH   15   14
ATOM    102  H5  UNL A   1      52.323  18.661  34.041  1.00  0.00    +0.000 H 
ATOM      9  C5  UNL A   1      51.551  20.581  33.864  1.00  0.00    +0.000 C 
ATOM     10  C6  UNL A   1      52.475  19.636  33.738  1.00  0.00    +0.000 C 
ATOM     11  O3  UNL A   1      53.666  20.070  33.159  1.00  0.00    +0.000 O 
ATOM     12  C7  UNL A   1      53.397  21.420  32.926  1.00  0.00    +0.000 C 
ATOM     13  O4  UNL A   1      54.226  22.186  32.452  1.00  0.00    +0.000 O 
ATOM     14  N2  UNL A   1      52.107  21.719  33.355  1.00  0.00    +0.000 N 
BRANCH    9    8
ATOM     97  C67 UNL A   1      47.839  19.888  33.895  1.00  0.00    +0.000 C 
ATOM    100  H3  UNL A   1      48.306  20.721  37.117  1.00  0.00    +0.000 H 
ATOM      5  C1  UNL A   1      47.536  20.138  35.238  1.00  0.00    +0.000 C 
ATOM      6  C2  UNL A   1      48.533  20.540  36.126  1.00  0.00    +0.000 C 
ATOM      7  C3  UNL A   1      49.842  20.694  35.664  1.00  0.00    +0.000 C 
ATOM    136  H39 UNL A   1      47.097  19.585  33.245  1.00  0.00    +0.000 H 
ATOM    101  H4  UNL A   1      50.581  20.996  36.318  1.00  0.00    +0.000 H 
ATOM    135  H38 UNL A   1      49.373  19.881  32.443  1.00  0.00    +0.000 H 
ATOM      8  C4  UNL A   1      50.168  20.442  34.319  1.00  0.00    +0.000 C 
ATOM     96  C66 UNL A   1      49.151  20.050  33.438  1.00  0.00    +0.000 C 
BRANCH    5    2
ATOM      2  S1  UNL A   1      45.885  19.876  35.819  1.00  0.00    +0.000 S 
ATOM      3  O1  UNL A   1      45.792  20.312  37.199  1.00  0.00    +0.000 O 
ATOM      4  O2  UNL A   1      45.442  18.579  35.387  1.00  0.00    +0.000 O 
BRANCH    2    1
ATOM      1  N1  UNL A   1      45.014  21.003  34.931  1.00  0.00    +0.000 N 
ATOM     98  H1  UNL A   1      44.417  20.519  34.260  1.00  0.00    +0.000 H 
ATOM     99  H2  UNL A   1      45.660  21.615  34.432  1.00  0.00    +0.000 H 
ENDBRANCH    2    1
ENDBRANCH    5    2
ENDBRANCH    9    8
ENDBRANCH   15   14
ENDBRANCH   19   18
ENDBRANCH   21   19
ENDBRANCH   22   21
ENDBRANCH   23   22
ENDBRANCH   24   23
ENDBRANCH   25   24
ENDBRANCH   26   25
ENDBRANCH   27   26
ENDBRANCH   28   27
ENDBRANCH   29   28
ENDBRANCH   31   29
ENDBRANCH   35   34
BRANCH   39   40
ATOM     40  C28 UNL A   1      48.446  29.357  27.881  1.00  0.00    +0.000 C 
ATOM     41  C29 UNL A   1      48.791  28.197  27.154  1.00  0.00    +0.000 C 
ATOM     42  F1  UNL A   1      47.964  27.139  27.121  1.00  0.00    +0.000 F 
ATOM     43  C30 UNL A   1      50.035  28.048  26.538  1.00  0.00    +0.000 C 
ATOM     44  F2  UNL A   1      50.371  26.869  25.997  1.00  0.00    +0.000 F 
ATOM     45  C31 UNL A   1      50.953  29.080  26.556  1.00  0.00    +0.000 C 
ATOM     46  F3  UNL A   1      52.175  28.915  26.035  1.00  0.00    +0.000 F 
ATOM     47  C32 UNL A   1      50.612  30.271  27.156  1.00  0.00    +0.000 C 
ATOM     48  F4  UNL A   1      51.489  31.285  27.186  1.00  0.00    +0.000 F 
ATOM     49  C33 UNL A   1      49.390  30.405  27.815  1.00  0.00    +0.000 C 
ATOM     50  F5  UNL A   1      49.235  31.566  28.459  1.00  0.00    +0.000 F 
ENDBRANCH   39   40
BRANCH   56   57
ATOM     65  F9  UNL A   1      38.717  29.642  26.506  1.00  0.00    +0.000 F 
ATOM     66  C44 UNL A   1      40.879  28.771  26.885  1.00  0.00    +0.000 C 
ATOM     67  F10 UNL A   1      41.303  29.392  25.773  1.00  0.00    +0.000 F 
ATOM     57  C39 UNL A   1      41.787  28.053  27.674  1.00  0.00    +0.000 C 
ATOM     58  C40 UNL A   1      41.296  27.471  28.856  1.00  0.00    +0.000 C 
ATOM     59  F6  UNL A   1      42.120  26.850  29.710  1.00  0.00    +0.000 F 
ATOM     60  C41 UNL A   1      39.950  27.572  29.206  1.00  0.00    +0.000 C 
ATOM     61  F7  UNL A   1      39.504  26.998  30.334  1.00  0.00    +0.000 F 
ATOM     62  C42 UNL A   1      39.077  28.294  28.410  1.00  0.00    +0.000 C 
ATOM     63  F8  UNL A   1      37.792  28.429  28.766  1.00  0.00    +0.000 F 
ATOM     64  C43 UNL A   1      39.545  28.902  27.255  1.00  0.00    +0.000 C 
ENDBRANCH   56   57
BRANCH   71   72
ATOM     72  C48 UNL A   1      43.868  22.327  26.146  1.00  0.00    +0.000 C 
ATOM     73  C49 UNL A   1      45.111  21.821  25.732  1.00  0.00    +0.000 C 
ATOM     74  F11 UNL A   1      46.212  22.583  25.820  1.00  0.00    +0.000 F 
ATOM     75  C50 UNL A   1      45.257  20.501  25.292  1.00  0.00    +0.000 C 
ATOM     76  F12 UNL A   1      46.471  20.034  24.968  1.00  0.00    +0.000 F 
ATOM     77  C51 UNL A   1      44.163  19.652  25.249  1.00  0.00    +0.000 C 
ATOM     78  F13 UNL A   1      44.314  18.368  24.893  1.00  0.00    +0.000 F 
ATOM     79  C52 UNL A   1      42.919  20.129  25.619  1.00  0.00    +0.000 C 
ATOM     80  F14 UNL A   1      41.860  19.307  25.619  1.00  0.00    +0.000 F 
ATOM     81  C53 UNL A   1      42.773  21.445  26.061  1.00  0.00    +0.000 C 
ATOM     82  F15 UNL A   1      41.560  21.812  26.499  1.00  0.00    +0.000 F 
ENDBRANCH   71   72
TORSDOF 19
ENDMDL
MODEL 7
REMARK VINA RESULT:     -10.5      6.294     14.206
ROOT
ATOM    129  H32 UNL A   1      20.516  15.147   2.578  1.00  0.00    +0.000 H 
ATOM    130  H33 UNL A   1      21.800  17.389   2.550  1.00  0.00    +0.000 H 
ATOM     35  C24 UNL A   1      22.037  18.510   5.187  1.00  0.00    +0.000 C 
ATOM     36  C25 UNL A   1      21.576  17.159   4.798  1.00  0.00    +0.000 C 
ATOM     37  N5  UNL A   1      21.081  16.249   5.569  1.00  0.00    +0.000 N 
ATOM     38  C26 UNL A   1      20.847  15.149   4.751  1.00  0.00    +0.000 C 
ATOM     39  C27 UNL A   1      20.930  13.886   5.256  1.00  0.00    +0.000 C 
ATOM     51  C34 UNL A   1      20.892  13.918   6.702  1.00  0.00    +0.000 C 
ATOM     52  C35 UNL A   1      19.990  14.375   7.644  1.00  0.00    +0.000 C 
ATOM     53  C36 UNL A   1      20.790  14.935   8.686  1.00  0.00    +0.000 C 
ATOM     54  C37 UNL A   1      22.131  14.723   8.360  1.00  0.00    +0.000 C 
ATOM     55  N6  UNL A   1      22.084  13.779   7.371  1.00  0.00    +0.000 N 
ATOM     56  C38 UNL A   1      23.356  15.338   8.813  1.00  0.00    +0.000 C 
ATOM     68  C45 UNL A   1      24.532  15.337   8.118  1.00  0.00    +0.000 C 
ATOM     69  N7  UNL A   1      25.501  16.299   8.363  1.00  0.00    +0.000 N 
ATOM     70  C46 UNL A   1      26.139  16.422   7.230  1.00  0.00    +0.000 C 
ATOM     71  C47 UNL A   1      26.576  17.730   6.680  1.00  0.00    +0.000 C 
ATOM     83  C54 UNL A   1      25.447  18.417   6.372  1.00  0.00    +0.000 C 
ATOM     84  C55 UNL A   1      25.243  19.829   6.158  1.00  0.00    +0.000 C 
ATOM     85  C56 UNL A   1      23.938  20.034   5.890  1.00  0.00    +0.000 C 
ATOM     86  C57 UNL A   1      23.252  18.745   5.732  1.00  0.00    +0.000 C 
ATOM     87  N8  UNL A   1      24.184  17.822   6.149  1.00  0.00    +0.000 N 
ATOM     88  C58 UNL A   1      25.978  15.318   6.297  1.00  0.00    +0.000 C 
ATOM     89  C59 UNL A   1      24.921  14.718   6.853  1.00  0.00    +0.000 C 
ATOM     90  C60 UNL A   1      20.891  15.644   3.402  1.00  0.00    +0.000 C 
ATOM     91  C61 UNL A   1      21.486  16.839   3.365  1.00  0.00    +0.000 C 
ATOM    121  H24 UNL A   1      18.960  14.321   7.604  1.00  0.00    +0.000 H 
ATOM    122  H25 UNL A   1      20.439  15.413   9.529  1.00  0.00    +0.000 H 
ATOM    123  H26 UNL A   1      22.783  13.114   7.172  1.00  0.00    +0.000 H 
ATOM    124  H27 UNL A   1      25.972  20.560   6.202  1.00  0.00    +0.000 H 
ATOM    125  H28 UNL A   1      23.488  20.959   5.807  1.00  0.00    +0.000 H 
ATOM    126  H29 UNL A   1      23.994  16.865   6.278  1.00  0.00    +0.000 H 
ATOM    127  H30 UNL A   1      26.520  15.072   5.454  1.00  0.00    +0.000 H 
ATOM    128  H31 UNL A   1      24.435  13.909   6.436  1.00  0.00    +0.000 H 
ENDROOT
BRANCH   35   34
ATOM     33  C22 UNL A   1      21.675  20.622   3.887  1.00  0.00    +0.000 C 
ATOM     34  C23 UNL A   1      21.190  19.588   4.700  1.00  0.00    +0.000 C 
ATOM    131  H34 UNL A   1      19.571  18.917   5.870  1.00  0.00    +0.000 H 
ATOM    132  H35 UNL A   1      17.983  20.319   4.691  1.00  0.00    +0.000 H 
ATOM    119  H22 UNL A   1      21.168  22.476   3.005  1.00  0.00    +0.000 H 
ATOM    120  H23 UNL A   1      22.651  20.611   3.551  1.00  0.00    +0.000 H 
ATOM     92  C62 UNL A   1      19.877  19.583   5.144  1.00  0.00    +0.000 C 
ATOM     93  C63 UNL A   1      19.000  20.474   4.603  1.00  0.00    +0.000 C 
ATOM     31  C20 UNL A   1      19.479  21.592   3.932  1.00  0.00    +0.000 C 
ATOM     32  C21 UNL A   1      20.819  21.666   3.540  1.00  0.00    +0.000 C 
BRANCH   31   29
ATOM     29  C19 UNL A   1      18.528  22.689   3.684  1.00  0.00    +0.000 C 
ATOM     30  O6  UNL A   1      18.017  23.288   4.623  1.00  0.00    +0.000 O 
BRANCH   29   28
ATOM     28  N4  UNL A   1      18.233  23.034   2.378  1.00  0.00    +0.000 N 
ATOM    118  H21 UNL A   1      17.709  22.379   1.864  1.00  0.00    +0.000 H 
BRANCH   28   27
ATOM     27  C18 UNL A   1      18.609  24.261   1.665  1.00  0.00    +0.000 C 
ATOM    116  H19 UNL A   1      17.778  24.585   1.073  1.00  0.00    +0.000 H 
ATOM    117  H20 UNL A   1      18.874  24.999   2.393  1.00  0.00    +0.000 H 
BRANCH   27   26
ATOM     26  C17 UNL A   1      19.806  24.044   0.756  1.00  0.00    +0.000 C 
ATOM    115  H18 UNL A   1      20.682  24.141   1.362  1.00  0.00    +0.000 H 
ATOM    114  H17 UNL A   1      19.771  24.771  -0.029  1.00  0.00    +0.000 H 
BRANCH   26   25
ATOM     25  C16 UNL A   1      19.850  22.645   0.120  1.00  0.00    +0.000 C 
ATOM    113  H16 UNL A   1      19.380  21.995   0.828  1.00  0.00    +0.000 H 
ATOM    112  H15 UNL A   1      20.874  22.413  -0.082  1.00  0.00    +0.000 H 
BRANCH   25   24
ATOM    110  H13 UNL A   1      18.460  21.587  -1.093  1.00  0.00    +0.000 H 
ATOM    111  H14 UNL A   1      18.494  23.365  -1.316  1.00  0.00    +0.000 H 
ATOM     24  C15 UNL A   1      19.062  22.467  -1.188  1.00  0.00    +0.000 C 
BRANCH   24   23
ATOM    108  H11 UNL A   1      19.495  21.544  -3.061  1.00  0.00    +0.000 H 
ATOM    109  H12 UNL A   1      19.905  23.267  -2.957  1.00  0.00    +0.000 H 
ATOM     23  C14 UNL A   1      19.913  22.322  -2.456  1.00  0.00    +0.000 C 
BRANCH   23   22
ATOM    106  H9  UNL A   1      21.492  21.788  -1.113  1.00  0.00    +0.000 H 
ATOM    107  H10 UNL A   1      21.649  21.103  -2.717  1.00  0.00    +0.000 H 
ATOM     22  C13 UNL A   1      21.376  21.975  -2.161  1.00  0.00    +0.000 C 
BRANCH   22   21
ATOM    105  H8  UNL A   1      23.093  23.097  -2.068  1.00  0.00    +0.000 H 
ATOM     21  N3  UNL A   1      22.235  23.078  -2.550  1.00  0.00    +0.000 N 
BRANCH   21   19
ATOM     19  C12 UNL A   1      22.092  24.100  -3.455  1.00  0.00    +0.000 C 
ATOM     20  O5  UNL A   1      22.370  23.867  -4.630  1.00  0.00    +0.000 O 
BRANCH   19   18
ATOM    133  H36 UNL A   1      20.623  25.055  -1.307  1.00  0.00    +0.000 H 
ATOM    134  H37 UNL A   1      20.507  27.359  -0.562  1.00  0.00    +0.000 H 
ATOM    103  H6  UNL A   1      22.082  28.618  -4.249  1.00  0.00    +0.000 H 
ATOM    104  H7  UNL A   1      22.495  26.300  -4.847  1.00  0.00    +0.000 H 
ATOM     15  C8  UNL A   1      21.348  28.166  -2.321  1.00  0.00    +0.000 C 
ATOM     16  C9  UNL A   1      21.859  27.863  -3.581  1.00  0.00    +0.000 C 
ATOM     17  C10 UNL A   1      22.069  26.525  -3.934  1.00  0.00    +0.000 C 
ATOM     18  C11 UNL A   1      21.708  25.484  -3.062  1.00  0.00    +0.000 C 
ATOM     94  C64 UNL A   1      21.035  25.805  -1.884  1.00  0.00    +0.000 C 
ATOM     95  C65 UNL A   1      20.916  27.134  -1.482  1.00  0.00    +0.000 C 
BRANCH   15   14
ATOM    102  H5  UNL A   1      20.050  32.340  -1.396  1.00  0.00    +0.000 H 
ATOM      9  C5  UNL A   1      20.197  30.302  -1.767  1.00  0.00    +0.000 C 
ATOM     10  C6  UNL A   1      20.664  31.521  -1.521  1.00  0.00    +0.000 C 
ATOM     11  O3  UNL A   1      22.054  31.599  -1.445  1.00  0.00    +0.000 O 
ATOM     12  C7  UNL A   1      22.430  30.275  -1.673  1.00  0.00    +0.000 C 
ATOM     13  O4  UNL A   1      23.600  29.920  -1.727  1.00  0.00    +0.000 O 
ATOM     14  N2  UNL A   1      21.294  29.493  -1.864  1.00  0.00    +0.000 N 
BRANCH    9    8
ATOM     97  C67 UNL A   1      16.557  29.848  -0.875  1.00  0.00    +0.000 C 
ATOM    100  H3  UNL A   1      16.716  27.974  -3.660  1.00  0.00    +0.000 H 
ATOM      5  C1  UNL A   1      16.134  29.011  -1.914  1.00  0.00    +0.000 C 
ATOM      6  C2  UNL A   1      17.032  28.589  -2.894  1.00  0.00    +0.000 C 
ATOM      7  C3  UNL A   1      18.363  29.007  -2.830  1.00  0.00    +0.000 C 
ATOM    136  H39 UNL A   1      15.885  30.161  -0.157  1.00  0.00    +0.000 H 
ATOM    101  H4  UNL A   1      19.031  28.693  -3.551  1.00  0.00    +0.000 H 
ATOM    135  H38 UNL A   1      18.209  30.863  -0.039  1.00  0.00    +0.000 H 
ATOM      8  C4  UNL A   1      18.807  29.853  -1.796  1.00  0.00    +0.000 C 
ATOM     96  C66 UNL A   1      17.893  30.258  -0.814  1.00  0.00    +0.000 C 
BRANCH    5    2
ATOM      2  S1  UNL A   1      14.430  28.544  -2.013  1.00  0.00    +0.000 S 
ATOM      3  O1  UNL A   1      13.850  29.113  -3.215  1.00  0.00    +0.000 O 
ATOM      4  O2  UNL A   1      13.830  28.700  -0.718  1.00  0.00    +0.000 O 
BRANCH    2    1
ATOM      1  N1  UNL A   1      14.532  26.893  -2.301  1.00  0.00    +0.000 N 
ATOM     98  H1  UNL A   1      14.184  26.384  -1.489  1.00  0.00    +0.000 H 
ATOM     99  H2  UNL A   1      15.504  26.638  -2.472  1.00  0.00    +0.000 H 
ENDBRANCH    2    1
ENDBRANCH    5    2
ENDBRANCH    9    8
ENDBRANCH   15   14
ENDBRANCH   19   18
ENDBRANCH   21   19
ENDBRANCH   22   21
ENDBRANCH   23   22
ENDBRANCH   24   23
ENDBRANCH   25   24
ENDBRANCH   26   25
ENDBRANCH   27   26
ENDBRANCH   28   27
ENDBRANCH   29   28
ENDBRANCH   31   29
ENDBRANCH   35   34
BRANCH   39   40
ATOM     40  C28 UNL A   1      21.485  12.691   4.505  1.00  0.00    +0.000 C 
ATOM     41  C29 UNL A   1      22.776  12.800   3.943  1.00  0.00    +0.000 C 
ATOM     42  F1  UNL A   1      23.608  13.782   4.322  1.00  0.00    +0.000 F 
ATOM     43  C30 UNL A   1      23.204  11.975   2.900  1.00  0.00    +0.000 C 
ATOM     44  F2  UNL A   1      24.376  12.220   2.298  1.00  0.00    +0.000 F 
ATOM     45  C31 UNL A   1      22.393  10.960   2.432  1.00  0.00    +0.000 C 
ATOM     46  F3  UNL A   1      22.765  10.217   1.383  1.00  0.00    +0.000 F 
ATOM     47  C32 UNL A   1      21.171  10.747   3.031  1.00  0.00    +0.000 C 
ATOM     48  F4  UNL A   1      20.367   9.769   2.590  1.00  0.00    +0.000 F 
ATOM     49  C33 UNL A   1      20.720  11.600   4.037  1.00  0.00    +0.000 C 
ATOM     50  F5  UNL A   1      19.471  11.359   4.447  1.00  0.00    +0.000 F 
ENDBRANCH   39   40
BRANCH   56   57
ATOM     65  F9  UNL A   1      23.534  15.791  13.637  1.00  0.00    +0.000 F 
ATOM     66  C44 UNL A   1      23.525  15.661  11.278  1.00  0.00    +0.000 C 
ATOM     67  F10 UNL A   1      23.938  14.387  11.366  1.00  0.00    +0.000 F 
ATOM     57  C39 UNL A   1      23.258  16.225  10.024  1.00  0.00    +0.000 C 
ATOM     58  C40 UNL A   1      22.775  17.545   9.998  1.00  0.00    +0.000 C 
ATOM     59  F6  UNL A   1      22.408  18.120   8.845  1.00  0.00    +0.000 F 
ATOM     60  C41 UNL A   1      22.607  18.276  11.173  1.00  0.00    +0.000 C 
ATOM     61  F7  UNL A   1      22.155  19.538  11.122  1.00  0.00    +0.000 F 
ATOM     62  C42 UNL A   1      22.873  17.690  12.400  1.00  0.00    +0.000 C 
ATOM     63  F8  UNL A   1      22.671  18.377  13.534  1.00  0.00    +0.000 F 
ATOM     64  C43 UNL A   1      23.322  16.380  12.452  1.00  0.00    +0.000 C 
ENDBRANCH   56   57
BRANCH   71   72
ATOM     72  C48 UNL A   1      27.974  17.999   6.272  1.00  0.00    +0.000 C 
ATOM     73  C49 UNL A   1      29.002  18.091   7.224  1.00  0.00    +0.000 C 
ATOM     74  F11 UNL A   1      28.705  18.170   8.530  1.00  0.00    +0.000 F 
ATOM     75  C50 UNL A   1      30.351  18.029   6.858  1.00  0.00    +0.000 C 
ATOM     76  F12 UNL A   1      31.302  18.055   7.801  1.00  0.00    +0.000 F 
ATOM     77  C51 UNL A   1      30.708  17.879   5.527  1.00  0.00    +0.000 C 
ATOM     78  F13 UNL A   1      31.997  17.750   5.182  1.00  0.00    +0.000 F 
ATOM     79  C52 UNL A   1      29.721  17.817   4.562  1.00  0.00    +0.000 C 
ATOM     80  F14 UNL A   1      30.053  17.632   3.277  1.00  0.00    +0.000 F 
ATOM     81  C53 UNL A   1      28.375  17.876   4.928  1.00  0.00    +0.000 C 
ATOM     82  F15 UNL A   1      27.468  17.709   3.953  1.00  0.00    +0.000 F 
ENDBRANCH   71   72
TORSDOF 19
ENDMDL
MODEL 8
REMARK VINA RESULT:     -10.5      5.294     12.275
ROOT
ATOM    129  H32 UNL A   1      26.671  20.964   5.178  1.00  0.00    +0.000 H 
ATOM    130  H33 UNL A   1      24.462  20.834   3.846  1.00  0.00    +0.000 H 
ATOM     35  C24 UNL A   1      23.570  18.119   3.530  1.00  0.00    +0.000 C 
ATOM     36  C25 UNL A   1      24.651  18.639   4.398  1.00  0.00    +0.000 C 
ATOM     37  N5  UNL A   1      25.484  17.954   5.106  1.00  0.00    +0.000 N 
ATOM     38  C26 UNL A   1      26.267  18.888   5.775  1.00  0.00    +0.000 C 
ATOM     39  C27 UNL A   1      26.783  18.599   7.003  1.00  0.00    +0.000 C 
ATOM     51  C34 UNL A   1      26.724  17.176   7.252  1.00  0.00    +0.000 C 
ATOM     52  C35 UNL A   1      27.238  16.054   6.630  1.00  0.00    +0.000 C 
ATOM     53  C36 UNL A   1      26.213  15.066   6.735  1.00  0.00    +0.000 C 
ATOM     54  C37 UNL A   1      25.164  15.611   7.479  1.00  0.00    +0.000 C 
ATOM     55  N6  UNL A   1      25.718  16.716   8.067  1.00  0.00    +0.000 N 
ATOM     56  C38 UNL A   1      23.773  15.252   7.615  1.00  0.00    +0.000 C 
ATOM     68  C45 UNL A   1      22.785  16.102   8.025  1.00  0.00    +0.000 C 
ATOM     69  N7  UNL A   1      21.458  15.855   7.701  1.00  0.00    +0.000 N 
ATOM     70  C46 UNL A   1      20.903  17.036   7.663  1.00  0.00    +0.000 C 
ATOM     71  C47 UNL A   1      19.914  17.437   6.631  1.00  0.00    +0.000 C 
ATOM     83  C54 UNL A   1      20.580  17.469   5.449  1.00  0.00    +0.000 C 
ATOM     84  C55 UNL A   1      20.081  17.433   4.095  1.00  0.00    +0.000 C 
ATOM     85  C56 UNL A   1      21.133  17.474   3.254  1.00  0.00    +0.000 C 
ATOM     86  C57 UNL A   1      22.367  17.727   4.009  1.00  0.00    +0.000 C 
ATOM     87  N8  UNL A   1      21.982  17.595   5.323  1.00  0.00    +0.000 N 
ATOM     88  C58 UNL A   1      21.630  18.094   8.346  1.00  0.00    +0.000 C 
ATOM     89  C59 UNL A   1      22.814  17.489   8.481  1.00  0.00    +0.000 C 
ATOM     90  C60 UNL A   1      26.059  20.137   5.094  1.00  0.00    +0.000 C 
ATOM     91  C61 UNL A   1      24.960  20.077   4.339  1.00  0.00    +0.000 C 
ATOM    121  H24 UNL A   1      28.165  15.952   6.186  1.00  0.00    +0.000 H 
ATOM    122  H25 UNL A   1      26.241  14.118   6.332  1.00  0.00    +0.000 H 
ATOM    123  H26 UNL A   1      25.442  17.113   8.925  1.00  0.00    +0.000 H 
ATOM    124  H27 UNL A   1      19.087  17.384   3.817  1.00  0.00    +0.000 H 
ATOM    125  H28 UNL A   1      21.080  17.348   2.231  1.00  0.00    +0.000 H 
ATOM    126  H29 UNL A   1      22.607  17.589   6.084  1.00  0.00    +0.000 H 
ATOM    127  H30 UNL A   1      21.322  19.034   8.639  1.00  0.00    +0.000 H 
ATOM    128  H31 UNL A   1      23.654  17.951   8.864  1.00  0.00    +0.000 H 
ENDROOT
BRANCH   35   34
ATOM     33  C22 UNL A   1      24.221  17.264   1.267  1.00  0.00    +0.000 C 
ATOM     34  C23 UNL A   1      23.809  18.307   2.109  1.00  0.00    +0.000 C 
ATOM    131  H34 UNL A   1      23.541  20.390   2.282  1.00  0.00    +0.000 H 
ATOM    132  H35 UNL A   1      23.375  20.690  -0.117  1.00  0.00    +0.000 H 
ATOM    119  H22 UNL A   1      24.894  16.816  -0.688  1.00  0.00    +0.000 H 
ATOM    120  H23 UNL A   1      24.303  16.300   1.628  1.00  0.00    +0.000 H 
ATOM     92  C62 UNL A   1      23.680  19.602   1.632  1.00  0.00    +0.000 C 
ATOM     93  C63 UNL A   1      23.742  19.813   0.287  1.00  0.00    +0.000 C 
ATOM     31  C20 UNL A   1      24.299  18.845  -0.538  1.00  0.00    +0.000 C 
ATOM     32  C21 UNL A   1      24.519  17.548  -0.064  1.00  0.00    +0.000 C 
BRANCH   31   29
ATOM     29  C19 UNL A   1      24.668  19.254  -1.904  1.00  0.00    +0.000 C 
ATOM     30  O6  UNL A   1      25.637  18.751  -2.460  1.00  0.00    +0.000 O 
BRANCH   29   28
ATOM     28  N4  UNL A   1      23.896  20.204  -2.548  1.00  0.00    +0.000 N 
ATOM    118  H21 UNL A   1      24.191  21.138  -2.454  1.00  0.00    +0.000 H 
BRANCH   28   27
ATOM     27  C18 UNL A   1      22.688  19.987  -3.354  1.00  0.00    +0.000 C 
ATOM    116  H19 UNL A   1      22.932  19.345  -4.175  1.00  0.00    +0.000 H 
ATOM    117  H20 UNL A   1      21.946  19.542  -2.724  1.00  0.00    +0.000 H 
BRANCH   27   26
ATOM     26  C17 UNL A   1      22.128  21.289  -3.897  1.00  0.00    +0.000 C 
ATOM    115  H18 UNL A   1      21.261  21.042  -4.474  1.00  0.00    +0.000 H 
ATOM    114  H17 UNL A   1      22.885  21.765  -4.484  1.00  0.00    +0.000 H 
BRANCH   26   25
ATOM     25  C16 UNL A   1      21.676  22.269  -2.802  1.00  0.00    +0.000 C 
ATOM    113  H16 UNL A   1      21.876  23.245  -3.192  1.00  0.00    +0.000 H 
ATOM    112  H15 UNL A   1      22.216  22.031  -1.910  1.00  0.00    +0.000 H 
BRANCH   25   24
ATOM    110  H13 UNL A   1      19.795  23.247  -2.632  1.00  0.00    +0.000 H 
ATOM    111  H14 UNL A   1      19.734  21.513  -3.082  1.00  0.00    +0.000 H 
ATOM     24  C15 UNL A   1      20.177  22.262  -2.459  1.00  0.00    +0.000 C 
BRANCH   24   23
ATOM    108  H11 UNL A   1      19.003  22.459  -0.691  1.00  0.00    +0.000 H 
ATOM    109  H12 UNL A   1      19.606  20.823  -1.016  1.00  0.00    +0.000 H 
ATOM     23  C14 UNL A   1      19.833  21.869  -1.016  1.00  0.00    +0.000 C 
BRANCH   23   22
ATOM    106  H9  UNL A   1      21.486  21.148   0.135  1.00  0.00    +0.000 H 
ATOM    107  H10 UNL A   1      21.686  22.780  -0.467  1.00  0.00    +0.000 H 
ATOM     22  C13 UNL A   1      20.996  22.083  -0.042  1.00  0.00    +0.000 C 
BRANCH   22   21
ATOM    105  H8  UNL A   1      20.172  21.916   1.831  1.00  0.00    +0.000 H 
ATOM     21  N3  UNL A   1      20.498  22.610   1.215  1.00  0.00    +0.000 N 
BRANCH   21   19
ATOM     19  C12 UNL A   1      20.389  23.883   1.717  1.00  0.00    +0.000 C 
ATOM     20  O5  UNL A   1      20.055  24.008   2.894  1.00  0.00    +0.000 O 
BRANCH   19   18
ATOM    133  H36 UNL A   1      22.188  25.985   1.898  1.00  0.00    +0.000 H 
ATOM    134  H37 UNL A   1      22.646  27.631   0.179  1.00  0.00    +0.000 H 
ATOM    103  H6  UNL A   1      19.100  26.540  -1.794  1.00  0.00    +0.000 H 
ATOM    104  H7  UNL A   1      18.830  24.683  -0.250  1.00  0.00    +0.000 H 
ATOM     15  C8  UNL A   1      20.944  27.169  -0.979  1.00  0.00    +0.000 C 
ATOM     16  C9  UNL A   1      19.810  26.364  -1.066  1.00  0.00    +0.000 C 
ATOM     17  C10 UNL A   1      19.643  25.313  -0.157  1.00  0.00    +0.000 C 
ATOM     18  C11 UNL A   1      20.566  25.103   0.881  1.00  0.00    +0.000 C 
ATOM     94  C64 UNL A   1      21.595  26.029   1.056  1.00  0.00    +0.000 C 
ATOM     95  C65 UNL A   1      21.824  27.014   0.096  1.00  0.00    +0.000 C 
BRANCH   15   14
ATOM    102  H5  UNL A   1      20.778  30.638  -3.791  1.00  0.00    +0.000 H 
ATOM      9  C5  UNL A   1      20.632  29.320  -2.193  1.00  0.00    +0.000 C 
ATOM     10  C6  UNL A   1      21.071  29.742  -3.373  1.00  0.00    +0.000 C 
ATOM     11  O3  UNL A   1      21.963  28.871  -3.999  1.00  0.00    +0.000 O 
ATOM     12  C7  UNL A   1      22.046  27.830  -3.073  1.00  0.00    +0.000 C 
ATOM     13  O4  UNL A   1      22.714  26.824  -3.270  1.00  0.00    +0.000 O 
ATOM     14  N2  UNL A   1      21.236  28.114  -1.977  1.00  0.00    +0.000 N 
BRANCH    9    8
ATOM     97  C67 UNL A   1      17.602  30.568  -0.317  1.00  0.00    +0.000 C 
ATOM    100  H3  UNL A   1      20.037  32.097   1.421  1.00  0.00    +0.000 H 
ATOM      5  C1  UNL A   1      18.207  31.368   0.658  1.00  0.00    +0.000 C 
ATOM      6  C2  UNL A   1      19.594  31.508   0.699  1.00  0.00    +0.000 C 
ATOM      7  C3  UNL A   1      20.379  30.843  -0.247  1.00  0.00    +0.000 C 
ATOM    136  H39 UNL A   1      16.576  30.464  -0.336  1.00  0.00    +0.000 H 
ATOM    101  H4  UNL A   1      21.405  30.949  -0.222  1.00  0.00    +0.000 H 
ATOM    135  H38 UNL A   1      17.946  29.332  -1.994  1.00  0.00    +0.000 H 
ATOM      8  C4  UNL A   1      19.789  30.030  -1.232  1.00  0.00    +0.000 C 
ATOM     96  C66 UNL A   1      18.393  29.910  -1.265  1.00  0.00    +0.000 C 
BRANCH    5    2
ATOM      2  S1  UNL A   1      17.202  32.151   1.886  1.00  0.00    +0.000 S 
ATOM      3  O1  UNL A   1      17.798  31.943   3.192  1.00  0.00    +0.000 O 
ATOM      4  O2  UNL A   1      15.823  31.858   1.612  1.00  0.00    +0.000 O 
BRANCH    2    1
ATOM      1  N1  UNL A   1      17.427  33.778   1.543  1.00  0.00    +0.000 N 
ATOM     98  H1  UNL A   1      16.526  34.256   1.556  1.00  0.00    +0.000 H 
ATOM     99  H2  UNL A   1      17.849  33.876   0.620  1.00  0.00    +0.000 H 
ENDBRANCH    2    1
ENDBRANCH    5    2
ENDBRANCH    9    8
ENDBRANCH   15   14
ENDBRANCH   19   18
ENDBRANCH   21   19
ENDBRANCH   22   21
ENDBRANCH   23   22
ENDBRANCH   24   23
ENDBRANCH   25   24
ENDBRANCH   26   25
ENDBRANCH   27   26
ENDBRANCH   28   27
ENDBRANCH   29   28
ENDBRANCH   31   29
ENDBRANCH   35   34
BRANCH   39   40
ATOM     40  C28 UNL A   1      26.921  19.597   8.137  1.00  0.00    +0.000 C 
ATOM     41  C29 UNL A   1      28.079  19.534   8.942  1.00  0.00    +0.000 C 
ATOM     42  F1  UNL A   1      29.158  18.847   8.536  1.00  0.00    +0.000 F 
ATOM     43  C30 UNL A   1      28.121  20.079  10.228  1.00  0.00    +0.000 C 
ATOM     44  F2  UNL A   1      29.188  19.856  11.008  1.00  0.00    +0.000 F 
ATOM     45  C31 UNL A   1      27.039  20.774  10.729  1.00  0.00    +0.000 C 
ATOM     46  F3  UNL A   1      27.044  21.230  11.988  1.00  0.00    +0.000 F 
ATOM     47  C32 UNL A   1      25.931  20.957   9.932  1.00  0.00    +0.000 C 
ATOM     48  F4  UNL A   1      24.868  21.627  10.401  1.00  0.00    +0.000 F 
ATOM     49  C33 UNL A   1      25.866  20.372   8.668  1.00  0.00    +0.000 C 
ATOM     50  F5  UNL A   1      24.691  20.522   8.049  1.00  0.00    +0.000 F 
ENDBRANCH   39   40
BRANCH   56   57
ATOM     65  F9  UNL A   1      22.993  10.521   8.336  1.00  0.00    +0.000 F 
ATOM     66  C44 UNL A   1      23.264  12.834   7.935  1.00  0.00    +0.000 C 
ATOM     67  F10 UNL A   1      23.451  13.020   9.252  1.00  0.00    +0.000 F 
ATOM     57  C39 UNL A   1      23.362  13.918   7.055  1.00  0.00    +0.000 C 
ATOM     58  C40 UNL A   1      23.211  13.652   5.682  1.00  0.00    +0.000 C 
ATOM     59  F6  UNL A   1      23.385  14.619   4.772  1.00  0.00    +0.000 F 
ATOM     60  C41 UNL A   1      22.935  12.365   5.222  1.00  0.00    +0.000 C 
ATOM     61  F7  UNL A   1      22.785  12.139   3.908  1.00  0.00    +0.000 F 
ATOM     62  C42 UNL A   1      22.851  11.311   6.116  1.00  0.00    +0.000 C 
ATOM     63  F8  UNL A   1      22.628  10.066   5.672  1.00  0.00    +0.000 F 
ATOM     64  C43 UNL A   1      23.025  11.544   7.471  1.00  0.00    +0.000 C 
ENDBRANCH   56   57
BRANCH   71   72
ATOM     72  C48 UNL A   1      18.585  17.997   6.970  1.00  0.00    +0.000 C 
ATOM     73  C49 UNL A   1      17.763  17.383   7.928  1.00  0.00    +0.000 C 
ATOM     74  F11 UNL A   1      18.059  16.156   8.383  1.00  0.00    +0.000 F 
ATOM     75  C50 UNL A   1      16.667  18.046   8.490  1.00  0.00    +0.000 C 
ATOM     76  F12 UNL A   1      15.944  17.452   9.449  1.00  0.00    +0.000 F 
ATOM     77  C51 UNL A   1      16.359  19.341   8.104  1.00  0.00    +0.000 C 
ATOM     78  F13 UNL A   1      15.352  20.002   8.690  1.00  0.00    +0.000 F 
ATOM     79  C52 UNL A   1      17.130  19.962   7.139  1.00  0.00    +0.000 C 
ATOM     80  F14 UNL A   1      16.868  21.229   6.786  1.00  0.00    +0.000 F 
ATOM     81  C53 UNL A   1      18.227  19.302   6.581  1.00  0.00    +0.000 C 
ATOM     82  F15 UNL A   1      18.990  19.998   5.726  1.00  0.00    +0.000 F 
ENDBRANCH   71   72
TORSDOF 19
ENDMDL
MODEL 9
REMARK VINA RESULT:     -10.4     12.266     17.310
ROOT
ATOM    129  H32 UNL A   1       5.392  32.904  -0.756  1.00  0.00    +0.000 H 
ATOM    130  H33 UNL A   1       6.907  32.178   1.206  1.00  0.00    +0.000 H 
ATOM     35  C24 UNL A   1       8.603  29.973   0.479  1.00  0.00    +0.000 C 
ATOM     36  C25 UNL A   1       7.760  30.815  -0.398  1.00  0.00    +0.000 C 
ATOM     37  N5  UNL A   1       7.536  30.652  -1.659  1.00  0.00    +0.000 N 
ATOM     38  C26 UNL A   1       6.727  31.718  -2.038  1.00  0.00    +0.000 C 
ATOM     39  C27 UNL A   1       6.798  32.219  -3.303  1.00  0.00    +0.000 C 
ATOM     51  C34 UNL A   1       7.472  31.285  -4.178  1.00  0.00    +0.000 C 
ATOM     52  C35 UNL A   1       7.247  29.979  -4.570  1.00  0.00    +0.000 C 
ATOM     53  C36 UNL A   1       8.542  29.382  -4.642  1.00  0.00    +0.000 C 
ATOM     54  C37 UNL A   1       9.488  30.372  -4.366  1.00  0.00    +0.000 C 
ATOM     55  N6  UNL A   1       8.786  31.540  -4.488  1.00  0.00    +0.000 N 
ATOM     56  C38 UNL A   1      10.871  30.315  -3.958  1.00  0.00    +0.000 C 
ATOM     68  C45 UNL A   1      11.538  31.323  -3.322  1.00  0.00    +0.000 C 
ATOM     69  N7  UNL A   1      12.670  31.057  -2.564  1.00  0.00    +0.000 N 
ATOM     70  C46 UNL A   1      12.689  31.998  -1.658  1.00  0.00    +0.000 C 
ATOM     71  C47 UNL A   1      13.049  31.752  -0.239  1.00  0.00    +0.000 C 
ATOM     83  C54 UNL A   1      12.069  30.968   0.278  1.00  0.00    +0.000 C 
ATOM     84  C55 UNL A   1      12.064  30.136   1.457  1.00  0.00    +0.000 C 
ATOM     85  C56 UNL A   1      10.861  29.536   1.548  1.00  0.00    +0.000 C 
ATOM     86  C57 UNL A   1       9.950  30.088   0.537  1.00  0.00    +0.000 C 
ATOM     87  N8  UNL A   1      10.769  30.851  -0.263  1.00  0.00    +0.000 N 
ATOM     88  C58 UNL A   1      11.887  33.173  -1.956  1.00  0.00    +0.000 C 
ATOM     89  C59 UNL A   1      11.138  32.677  -2.946  1.00  0.00    +0.000 C 
ATOM     90  C60 UNL A   1       6.207  32.273  -0.817  1.00  0.00    +0.000 C 
ATOM     91  C61 UNL A   1       6.928  31.856   0.226  1.00  0.00    +0.000 C 
ATOM    121  H24 UNL A   1       6.338  29.531  -4.768  1.00  0.00    +0.000 H 
ATOM    122  H25 UNL A   1       8.744  28.395  -4.858  1.00  0.00    +0.000 H 
ATOM    123  H26 UNL A   1       9.158  32.413  -4.751  1.00  0.00    +0.000 H 
ATOM    124  H27 UNL A   1      12.849  30.019   2.119  1.00  0.00    +0.000 H 
ATOM    125  H28 UNL A   1      10.615  28.800   2.229  1.00  0.00    +0.000 H 
ATOM    126  H29 UNL A   1      10.483  31.264  -1.109  1.00  0.00    +0.000 H 
ATOM    127  H30 UNL A   1      11.894  34.112  -1.529  1.00  0.00    +0.000 H 
ATOM    128  H31 UNL A   1      10.365  33.193  -3.394  1.00  0.00    +0.000 H 
ENDROOT
BRANCH   35   34
ATOM     33  C22 UNL A   1       7.237  29.784   2.572  1.00  0.00    +0.000 C 
ATOM     34  C23 UNL A   1       7.853  29.199   1.456  1.00  0.00    +0.000 C 
ATOM    131  H34 UNL A   1       8.426  27.388   0.544  1.00  0.00    +0.000 H 
ATOM    132  H35 UNL A   1       6.774  26.108   1.771  1.00  0.00    +0.000 H 
ATOM    119  H22 UNL A   1       6.219  29.356   4.375  1.00  0.00    +0.000 H 
ATOM    120  H23 UNL A   1       7.244  30.809   2.697  1.00  0.00    +0.000 H 
ATOM     92  C62 UNL A   1       7.836  27.827   1.268  1.00  0.00    +0.000 C 
ATOM     93  C63 UNL A   1       7.027  27.067   2.058  1.00  0.00    +0.000 C 
ATOM     31  C20 UNL A   1       6.542  27.588   3.250  1.00  0.00    +0.000 C 
ATOM     32  C21 UNL A   1       6.616  28.961   3.509  1.00  0.00    +0.000 C 
BRANCH   31   29
ATOM     29  C19 UNL A   1       5.983  26.637   4.225  1.00  0.00    +0.000 C 
ATOM     30  O6  UNL A   1       6.382  26.631   5.383  1.00  0.00    +0.000 O 
BRANCH   29   28
ATOM     28  N4  UNL A   1       4.995  25.761   3.812  1.00  0.00    +0.000 N 
ATOM    118  H21 UNL A   1       5.226  25.171   3.059  1.00  0.00    +0.000 H 
BRANCH   28   27
ATOM     27  C18 UNL A   1       3.642  25.607   4.361  1.00  0.00    +0.000 C 
ATOM    116  H19 UNL A   1       3.399  24.565   4.393  1.00  0.00    +0.000 H 
ATOM    117  H20 UNL A   1       3.632  26.036   5.341  1.00  0.00    +0.000 H 
BRANCH   27   26
ATOM     26  C17 UNL A   1       2.604  26.328   3.519  1.00  0.00    +0.000 C 
ATOM    115  H18 UNL A   1       2.534  27.328   3.895  1.00  0.00    +0.000 H 
ATOM    114  H17 UNL A   1       1.677  25.798   3.598  1.00  0.00    +0.000 H 
BRANCH   26   25
ATOM     25  C16 UNL A   1       2.980  26.431   2.032  1.00  0.00    +0.000 C 
ATOM    113  H16 UNL A   1       2.497  25.602   1.558  1.00  0.00    +0.000 H 
ATOM    112  H15 UNL A   1       4.047  26.418   1.965  1.00  0.00    +0.000 H 
BRANCH   25   24
ATOM    110  H13 UNL A   1       2.507  27.471   0.238  1.00  0.00    +0.000 H 
ATOM    111  H14 UNL A   1       1.494  27.871   1.662  1.00  0.00    +0.000 H 
ATOM     24  C15 UNL A   1       2.478  27.679   1.288  1.00  0.00    +0.000 C 
BRANCH   24   23
ATOM    108  H11 UNL A   1       2.605  29.738   1.823  1.00  0.00    +0.000 H 
ATOM    109  H12 UNL A   1       3.995  28.747   2.306  1.00  0.00    +0.000 H 
ATOM     23  C14 UNL A   1       3.282  28.961   1.537  1.00  0.00    +0.000 C 
BRANCH   23   22
ATOM    106  H9  UNL A   1       3.380  29.752  -0.449  1.00  0.00    +0.000 H 
ATOM    107  H10 UNL A   1       4.707  30.238   0.585  1.00  0.00    +0.000 H 
ATOM     22  C13 UNL A   1       4.066  29.428   0.306  1.00  0.00    +0.000 C 
BRANCH   22   21
ATOM    105  H8  UNL A   1       5.174  27.709   0.482  1.00  0.00    +0.000 H 
ATOM     21  N3  UNL A   1       4.872  28.338  -0.212  1.00  0.00    +0.000 N 
BRANCH   21   19
ATOM     19  C12 UNL A   1       5.297  28.008  -1.474  1.00  0.00    +0.000 C 
ATOM     20  O5  UNL A   1       4.784  28.598  -2.424  1.00  0.00    +0.000 O 
BRANCH   19   18
ATOM    133  H36 UNL A   1       7.698  27.995  -2.861  1.00  0.00    +0.000 H 
ATOM    134  H37 UNL A   1       9.387  26.258  -2.786  1.00  0.00    +0.000 H 
ATOM    103  H6  UNL A   1       6.580  23.619  -1.108  1.00  0.00    +0.000 H 
ATOM    104  H7  UNL A   1       5.006  25.457  -0.888  1.00  0.00    +0.000 H 
ATOM     15  C8  UNL A   1       8.135  24.822  -1.879  1.00  0.00    +0.000 C 
ATOM     16  C9  UNL A   1       6.853  24.573  -1.393  1.00  0.00    +0.000 C 
ATOM     17  C10 UNL A   1       5.939  25.628  -1.295  1.00  0.00    +0.000 C 
ATOM     18  C11 UNL A   1       6.274  26.916  -1.742  1.00  0.00    +0.000 C 
ATOM     94  C64 UNL A   1       7.496  27.101  -2.388  1.00  0.00    +0.000 C 
ATOM     95  C65 UNL A   1       8.447  26.082  -2.396  1.00  0.00    +0.000 C 
BRANCH   15   14
ATOM    102  H5  UNL A   1      11.721  22.395  -0.775  1.00  0.00    +0.000 H 
ATOM      9  C5  UNL A   1      10.040  23.614  -0.827  1.00  0.00    +0.000 C 
ATOM     10  C6  UNL A   1      10.918  22.747  -1.319  1.00  0.00    +0.000 C 
ATOM     11  O3  UNL A   1      10.661  22.350  -2.631  1.00  0.00    +0.000 O 
ATOM     12  C7  UNL A   1       9.504  23.072  -2.928  1.00  0.00    +0.000 C 
ATOM     13  O4  UNL A   1       8.965  23.032  -4.026  1.00  0.00    +0.000 O 
ATOM     14  N2  UNL A   1       9.132  23.834  -1.824  1.00  0.00    +0.000 N 
BRANCH    9    8
ATOM     97  C67 UNL A   1       9.147  23.975   2.824  1.00  0.00    +0.000 C 
ATOM    100  H3  UNL A   1      11.095  26.685   2.426  1.00  0.00    +0.000 H 
ATOM      5  C1  UNL A   1       9.839  25.147   3.149  1.00  0.00    +0.000 C 
ATOM      6  C2  UNL A   1      10.584  25.822   2.182  1.00  0.00    +0.000 C 
ATOM      7  C3  UNL A   1      10.633  25.318   0.880  1.00  0.00    +0.000 C 
ATOM    136  H39 UNL A   1       8.603  23.479   3.546  1.00  0.00    +0.000 H 
ATOM    101  H4  UNL A   1      11.180  25.818   0.161  1.00  0.00    +0.000 H 
ATOM    135  H38 UNL A   1       8.674  22.624   1.272  1.00  0.00    +0.000 H 
ATOM      8  C4  UNL A   1       9.949  24.138   0.534  1.00  0.00    +0.000 C 
ATOM     96  C66 UNL A   1       9.196  23.480   1.516  1.00  0.00    +0.000 C 
BRANCH    5    2
ATOM      2  S1  UNL A   1       9.816  25.735   4.818  1.00  0.00    +0.000 S 
ATOM      3  O1  UNL A   1       8.866  24.951   5.585  1.00  0.00    +0.000 O 
ATOM      4  O2  UNL A   1       9.799  27.171   4.804  1.00  0.00    +0.000 O 
BRANCH    2    1
ATOM      1  N1  UNL A   1      11.332  25.276   5.375  1.00  0.00    +0.000 N 
ATOM     98  H1  UNL A   1      11.458  25.610   6.331  1.00  0.00    +0.000 H 
ATOM     99  H2  UNL A   1      12.051  25.680   4.776  1.00  0.00    +0.000 H 
ENDBRANCH    2    1
ENDBRANCH    5    2
ENDBRANCH    9    8
ENDBRANCH   15   14
ENDBRANCH   19   18
ENDBRANCH   21   19
ENDBRANCH   22   21
ENDBRANCH   23   22
ENDBRANCH   24   23
ENDBRANCH   25   24
ENDBRANCH   26   25
ENDBRANCH   27   26
ENDBRANCH   28   27
ENDBRANCH   29   28
ENDBRANCH   31   29
ENDBRANCH   35   34
BRANCH   39   40
ATOM     40  C28 UNL A   1       6.677  33.689  -3.657  1.00  0.00    +0.000 C 
ATOM     41  C29 UNL A   1       5.676  34.072  -4.576  1.00  0.00    +0.000 C 
ATOM     42  F1  UNL A   1       4.668  33.238  -4.878  1.00  0.00    +0.000 F 
ATOM     43  C30 UNL A   1       5.741  35.271  -5.290  1.00  0.00    +0.000 C 
ATOM     44  F2  UNL A   1       4.850  35.515  -6.260  1.00  0.00    +0.000 F 
ATOM     45  C31 UNL A   1       6.765  36.168  -5.058  1.00  0.00    +0.000 C 
ATOM     46  F3  UNL A   1       6.876  37.282  -5.793  1.00  0.00    +0.000 F 
ATOM     47  C32 UNL A   1       7.700  35.885  -4.088  1.00  0.00    +0.000 C 
ATOM     48  F4  UNL A   1       8.703  36.741  -3.849  1.00  0.00    +0.000 F 
ATOM     49  C33 UNL A   1       7.666  34.667  -3.410  1.00  0.00    +0.000 C 
ATOM     50  F5  UNL A   1       8.698  34.465  -2.585  1.00  0.00    +0.000 F 
ENDBRANCH   39   40
BRANCH   56   57
ATOM     65  F9  UNL A   1      13.180  27.006  -6.647  1.00  0.00    +0.000 F 
ATOM     66  C44 UNL A   1      12.145  28.612  -5.257  1.00  0.00    +0.000 C 
ATOM     67  F10 UNL A   1      12.179  29.486  -6.275  1.00  0.00    +0.000 F 
ATOM     57  C39 UNL A   1      11.546  28.974  -4.044  1.00  0.00    +0.000 C 
ATOM     58  C40 UNL A   1      11.490  27.997  -3.034  1.00  0.00    +0.000 C 
ATOM     59  F6  UNL A   1      10.852  28.236  -1.881  1.00  0.00    +0.000 F 
ATOM     60  C41 UNL A   1      12.046  26.732  -3.220  1.00  0.00    +0.000 C 
ATOM     61  F7  UNL A   1      11.989  25.820  -2.237  1.00  0.00    +0.000 F 
ATOM     62  C42 UNL A   1      12.625  26.400  -4.434  1.00  0.00    +0.000 C 
ATOM     63  F8  UNL A   1      13.121  25.170  -4.631  1.00  0.00    +0.000 F 
ATOM     64  C43 UNL A   1      12.665  27.336  -5.455  1.00  0.00    +0.000 C 
ENDBRANCH   56   57
BRANCH   71   72
ATOM     72  C48 UNL A   1      14.096  32.525   0.467  1.00  0.00    +0.000 C 
ATOM     73  C49 UNL A   1      13.759  33.536   1.381  1.00  0.00    +0.000 C 
ATOM     74  F11 UNL A   1      12.495  33.978   1.460  1.00  0.00    +0.000 F 
ATOM     75  C50 UNL A   1      14.696  34.056   2.280  1.00  0.00    +0.000 C 
ATOM     76  F12 UNL A   1      14.321  34.973   3.182  1.00  0.00    +0.000 F 
ATOM     77  C51 UNL A   1      15.999  33.584   2.285  1.00  0.00    +0.000 C 
ATOM     78  F13 UNL A   1      16.880  34.032   3.190  1.00  0.00    +0.000 F 
ATOM     79  C52 UNL A   1      16.371  32.612   1.375  1.00  0.00    +0.000 C 
ATOM     80  F14 UNL A   1      17.617  32.118   1.396  1.00  0.00    +0.000 F 
ATOM     81  C53 UNL A   1      15.435  32.090   0.480  1.00  0.00    +0.000 C 
ATOM     82  F15 UNL A   1      15.837  31.080  -0.306  1.00  0.00    +0.000 F 
ENDBRANCH   71   72
TORSDOF 19
ENDMDL
MODEL 10
REMARK VINA RESULT:     -10.4      4.747      8.509
ROOT
ATOM    129  H32 UNL A   1      21.364  29.187  -3.574  1.00  0.00    +0.000 H 
ATOM    130  H33 UNL A   1      21.162  27.003  -4.938  1.00  0.00    +0.000 H 
ATOM     35  C24 UNL A   1      22.151  24.738  -3.470  1.00  0.00    +0.000 C 
ATOM     36  C25 UNL A   1      21.888  26.110  -2.981  1.00  0.00    +0.000 C 
ATOM     37  N5  UNL A   1      22.159  26.590  -1.813  1.00  0.00    +0.000 N 
ATOM     38  C26 UNL A   1      21.683  27.897  -1.824  1.00  0.00    +0.000 C 
ATOM     39  C27 UNL A   1      21.233  28.474  -0.674  1.00  0.00    +0.000 C 
ATOM     51  C34 UNL A   1      21.682  27.722   0.477  1.00  0.00    +0.000 C 
ATOM     52  C35 UNL A   1      22.915  27.363   0.987  1.00  0.00    +0.000 C 
ATOM     53  C36 UNL A   1      22.741  26.036   1.485  1.00  0.00    +0.000 C 
ATOM     54  C37 UNL A   1      21.399  25.688   1.321  1.00  0.00    +0.000 C 
ATOM     55  N6  UNL A   1      20.776  26.881   1.078  1.00  0.00    +0.000 N 
ATOM     56  C38 UNL A   1      20.714  24.417   1.303  1.00  0.00    +0.000 C 
ATOM     68  C45 UNL A   1      19.499  24.194   0.721  1.00  0.00    +0.000 C 
ATOM     69  N7  UNL A   1      19.121  22.916   0.335  1.00  0.00    +0.000 N 
ATOM     70  C46 UNL A   1      18.302  23.101  -0.665  1.00  0.00    +0.000 C 
ATOM     71  C47 UNL A   1      18.306  22.258  -1.887  1.00  0.00    +0.000 C 
ATOM     83  C54 UNL A   1      19.482  22.498  -2.519  1.00  0.00    +0.000 C 
ATOM     84  C55 UNL A   1      20.180  21.726  -3.519  1.00  0.00    +0.000 C 
ATOM     85  C56 UNL A   1      21.322  22.369  -3.831  1.00  0.00    +0.000 C 
ATOM     86  C57 UNL A   1      21.344  23.690  -3.189  1.00  0.00    +0.000 C 
ATOM     87  N8  UNL A   1      20.273  23.654  -2.326  1.00  0.00    +0.000 N 
ATOM     88  C58 UNL A   1      17.729  24.433  -0.768  1.00  0.00    +0.000 C 
ATOM     89  C59 UNL A   1      18.554  25.088   0.054  1.00  0.00    +0.000 C 
ATOM     90  C60 UNL A   1      21.472  28.228  -3.207  1.00  0.00    +0.000 C 
ATOM     91  C61 UNL A   1      21.435  27.120  -3.950  1.00  0.00    +0.000 C 
ATOM    121  H24 UNL A   1      23.776  27.932   1.005  1.00  0.00    +0.000 H 
ATOM    122  H25 UNL A   1      23.477  25.440   1.893  1.00  0.00    +0.000 H 
ATOM    123  H26 UNL A   1      19.841  27.101   1.295  1.00  0.00    +0.000 H 
ATOM    124  H27 UNL A   1      19.859  20.832  -3.926  1.00  0.00    +0.000 H 
ATOM    125  H28 UNL A   1      22.070  21.991  -4.434  1.00  0.00    +0.000 H 
ATOM    126  H29 UNL A   1      20.081  24.349  -1.656  1.00  0.00    +0.000 H 
ATOM    127  H30 UNL A   1      16.922  24.773  -1.315  1.00  0.00    +0.000 H 
ATOM    128  H31 UNL A   1      18.528  26.109   0.201  1.00  0.00    +0.000 H 
ENDROOT
BRANCH   35   34
ATOM     33  C22 UNL A   1      22.991  25.064  -5.809  1.00  0.00    +0.000 C 
ATOM     34  C23 UNL A   1      23.194  24.660  -4.481  1.00  0.00    +0.000 C 
ATOM    131  H34 UNL A   1      24.480  23.644  -3.156  1.00  0.00    +0.000 H 
ATOM    132  H35 UNL A   1      26.410  23.980  -4.583  1.00  0.00    +0.000 H 
ATOM    119  H22 UNL A   1      23.864  25.090  -7.734  1.00  0.00    +0.000 H 
ATOM    120  H23 UNL A   1      22.099  25.499  -6.094  1.00  0.00    +0.000 H 
ATOM     92  C62 UNL A   1      24.392  24.090  -4.082  1.00  0.00    +0.000 C 
ATOM     93  C63 UNL A   1      25.452  24.129  -4.938  1.00  0.00    +0.000 C 
ATOM     31  C20 UNL A   1      25.239  24.371  -6.289  1.00  0.00    +0.000 C 
ATOM     32  C21 UNL A   1      24.011  24.870  -6.737  1.00  0.00    +0.000 C 
BRANCH   31   29
ATOM     29  C19 UNL A   1      26.340  24.053  -7.213  1.00  0.00    +0.000 C 
ATOM     30  O6  UNL A   1      26.348  22.991  -7.824  1.00  0.00    +0.000 O 
BRANCH   29   28
ATOM     28  N4  UNL A   1      27.355  24.977  -7.385  1.00  0.00    +0.000 N 
ATOM    118  H21 UNL A   1      28.141  24.869  -6.804  1.00  0.00    +0.000 H 
BRANCH   28   27
ATOM     27  C18 UNL A   1      27.399  26.100  -8.329  1.00  0.00    +0.000 C 
ATOM    116  H19 UNL A   1      26.533  26.711  -8.180  1.00  0.00    +0.000 H 
ATOM    117  H20 UNL A   1      28.297  26.651  -8.146  1.00  0.00    +0.000 H 
BRANCH   27   26
ATOM     26  C17 UNL A   1      27.423  25.626  -9.772  1.00  0.00    +0.000 C 
ATOM    115  H18 UNL A   1      27.571  26.491 -10.385  1.00  0.00    +0.000 H 
ATOM    114  H17 UNL A   1      26.497  25.131  -9.982  1.00  0.00    +0.000 H 
BRANCH   26   25
ATOM     25  C16 UNL A   1      28.573  24.653 -10.081  1.00  0.00    +0.000 C 
ATOM    113  H16 UNL A   1      28.488  24.434 -11.125  1.00  0.00    +0.000 H 
ATOM    112  H15 UNL A   1      28.462  23.804  -9.440  1.00  0.00    +0.000 H 
BRANCH   25   24
ATOM    110  H13 UNL A   1      30.522  25.082 -10.816  1.00  0.00    +0.000 H 
ATOM    111  H14 UNL A   1      29.883  26.221  -9.589  1.00  0.00    +0.000 H 
ATOM     24  C15 UNL A   1      29.997  25.200  -9.891  1.00  0.00    +0.000 C 
BRANCH   24   23
ATOM    108  H11 UNL A   1      31.024  25.241  -8.023  1.00  0.00    +0.000 H 
ATOM    109  H12 UNL A   1      30.247  23.697  -8.422  1.00  0.00    +0.000 H 
ATOM     23  C14 UNL A   1      30.821  24.522  -8.789  1.00  0.00    +0.000 C 
BRANCH   23   22
ATOM    106  H9  UNL A   1      32.262  24.187 -10.335  1.00  0.00    +0.000 H 
ATOM    107  H10 UNL A   1      32.954  24.405  -8.741  1.00  0.00    +0.000 H 
ATOM     22  C13 UNL A   1      32.154  23.960  -9.294  1.00  0.00    +0.000 C 
BRANCH   22   21
ATOM    105  H8  UNL A   1      33.036  22.109  -9.388  1.00  0.00    +0.000 H 
ATOM     21  N3  UNL A   1      32.187  22.522  -9.110  1.00  0.00    +0.000 N 
BRANCH   21   19
ATOM     19  C12 UNL A   1      31.272  21.620  -8.627  1.00  0.00    +0.000 C 
ATOM     20  O5  UNL A   1      31.539  21.042  -7.574  1.00  0.00    +0.000 O 
BRANCH   19   18
ATOM    133  H36 UNL A   1      30.576  21.882 -11.297  1.00  0.00    +0.000 H 
ATOM    134  H37 UNL A   1      28.719  20.791 -12.408  1.00  0.00    +0.000 H 
ATOM    103  H6  UNL A   1      27.014  19.914  -8.669  1.00  0.00    +0.000 H 
ATOM    104  H7  UNL A   1      29.031  20.716  -7.578  1.00  0.00    +0.000 H 
ATOM     15  C8  UNL A   1      27.753  20.207 -10.625  1.00  0.00    +0.000 C 
ATOM     16  C9  UNL A   1      27.812  20.245  -9.233  1.00  0.00    +0.000 C 
ATOM     17  C10 UNL A   1      28.964  20.734  -8.607  1.00  0.00    +0.000 C 
ATOM     18  C11 UNL A   1      30.031  21.249  -9.362  1.00  0.00    +0.000 C 
ATOM     94  C64 UNL A   1      29.876  21.367 -10.743  1.00  0.00    +0.000 C 
ATOM     95  C65 UNL A   1      28.777  20.789 -11.378  1.00  0.00    +0.000 C 
BRANCH   15   14
ATOM    102  H5  UNL A   1      23.741  19.098 -12.249  1.00  0.00    +0.000 H 
ATOM      9  C5  UNL A   1      25.451  20.053 -11.558  1.00  0.00    +0.000 C 
ATOM     10  C6  UNL A   1      24.731  19.016 -11.969  1.00  0.00    +0.000 C 
ATOM     11  O3  UNL A   1      25.424  17.807 -11.992  1.00  0.00    +0.000 O 
ATOM     12  C7  UNL A   1      26.688  18.192 -11.543  1.00  0.00    +0.000 C 
ATOM     13  O4  UNL A   1      27.602  17.395 -11.379  1.00  0.00    +0.000 O 
ATOM     14  N2  UNL A   1      26.695  19.560 -11.285  1.00  0.00    +0.000 N 
BRANCH    9    8
ATOM     97  C67 UNL A   1      23.931  23.332 -10.464  1.00  0.00    +0.000 C 
ATOM    100  H3  UNL A   1      25.557  24.334 -13.229  1.00  0.00    +0.000 H 
ATOM      5  C1  UNL A   1      24.405  24.188 -11.464  1.00  0.00    +0.000 C 
ATOM      6  C2  UNL A   1      25.207  23.698 -12.495  1.00  0.00    +0.000 C 
ATOM      7  C3  UNL A   1      25.534  22.340 -12.523  1.00  0.00    +0.000 C 
ATOM    136  H39 UNL A   1      23.344  23.703  -9.701  1.00  0.00    +0.000 H 
ATOM    101  H4  UNL A   1      26.123  21.975 -13.287  1.00  0.00    +0.000 H 
ATOM    135  H38 UNL A   1      23.896  21.336  -9.773  1.00  0.00    +0.000 H 
ATOM      8  C4  UNL A   1      25.071  21.464 -11.524  1.00  0.00    +0.000 C 
ATOM     96  C66 UNL A   1      24.258  21.972 -10.502  1.00  0.00    +0.000 C 
BRANCH    5    2
ATOM      2  S1  UNL A   1      24.034  25.916 -11.375  1.00  0.00    +0.000 S 
ATOM      3  O1  UNL A   1      24.921  26.639 -12.268  1.00  0.00    +0.000 O 
ATOM      4  O2  UNL A   1      23.859  26.283  -9.997  1.00  0.00    +0.000 O 
BRANCH    2    1
ATOM      1  N1  UNL A   1      22.518  25.990 -12.091  1.00  0.00    +0.000 N 
ATOM     98  H1  UNL A   1      21.896  25.319 -11.640  1.00  0.00    +0.000 H 
ATOM     99  H2  UNL A   1      22.598  25.765 -13.082  1.00  0.00    +0.000 H 
ENDBRANCH    2    1
ENDBRANCH    5    2
ENDBRANCH    9    8
ENDBRANCH   15   14
ENDBRANCH   19   18
ENDBRANCH   21   19
ENDBRANCH   22   21
ENDBRANCH   23   22
ENDBRANCH   24   23
ENDBRANCH   25   24
ENDBRANCH   26   25
ENDBRANCH   27   26
ENDBRANCH   28   27
ENDBRANCH   29   28
ENDBRANCH   31   29
ENDBRANCH   35   34
BRANCH   39   40
ATOM     40  C28 UNL A   1      20.051  29.421  -0.590  1.00  0.00    +0.000 C 
ATOM     41  C29 UNL A   1      20.097  30.459   0.366  1.00  0.00    +0.000 C 
ATOM     42  F1  UNL A   1      21.256  30.800   0.951  1.00  0.00    +0.000 F 
ATOM     43  C30 UNL A   1      18.943  31.097   0.827  1.00  0.00    +0.000 C 
ATOM     44  F2  UNL A   1      19.026  31.964   1.845  1.00  0.00    +0.000 F 
ATOM     45  C31 UNL A   1      17.708  30.779   0.296  1.00  0.00    +0.000 C 
ATOM     46  F3  UNL A   1      16.592  31.330   0.788  1.00  0.00    +0.000 F 
ATOM     47  C32 UNL A   1      17.632  29.852  -0.719  1.00  0.00    +0.000 C 
ATOM     48  F4  UNL A   1      16.443  29.527  -1.246  1.00  0.00    +0.000 F 
ATOM     49  C33 UNL A   1      18.776  29.178  -1.146  1.00  0.00    +0.000 C 
ATOM     50  F5  UNL A   1      18.547  28.219  -2.048  1.00  0.00    +0.000 F 
ENDBRANCH   39   40
BRANCH   56   57
ATOM     65  F9  UNL A   1      23.408  20.547   0.173  1.00  0.00    +0.000 F 
ATOM     66  C44 UNL A   1      22.182  22.466   0.800  1.00  0.00    +0.000 C 
ATOM     67  F10 UNL A   1      22.191  22.867  -0.481  1.00  0.00    +0.000 F 
ATOM     57  C39 UNL A   1      21.500  23.220   1.764  1.00  0.00    +0.000 C 
ATOM     58  C40 UNL A   1      21.479  22.721   3.078  1.00  0.00    +0.000 C 
ATOM     59  F6  UNL A   1      20.770  23.335   4.035  1.00  0.00    +0.000 F 
ATOM     60  C41 UNL A   1      22.144  21.543   3.415  1.00  0.00    +0.000 C 
ATOM     61  F7  UNL A   1      22.118  21.093   4.679  1.00  0.00    +0.000 F 
ATOM     62  C42 UNL A   1      22.804  20.815   2.439  1.00  0.00    +0.000 C 
ATOM     63  F8  UNL A   1      23.408  19.659   2.751  1.00  0.00    +0.000 F 
ATOM     64  C43 UNL A   1      22.814  21.272   1.130  1.00  0.00    +0.000 C 
ENDBRANCH   56   57
BRANCH   71   72
ATOM     72  C48 UNL A   1      17.089  21.588  -2.401  1.00  0.00    +0.000 C 
ATOM     73  C49 UNL A   1      16.494  20.528  -1.699  1.00  0.00    +0.000 C 
ATOM     74  F11 UNL A   1      17.141  19.950  -0.675  1.00  0.00    +0.000 F 
ATOM     75  C50 UNL A   1      15.195  20.094  -1.985  1.00  0.00    +0.000 C 
ATOM     76  F12 UNL A   1      14.636  19.124  -1.250  1.00  0.00    +0.000 F 
ATOM     77  C51 UNL A   1      14.458  20.705  -2.988  1.00  0.00    +0.000 C 
ATOM     78  F13 UNL A   1      13.190  20.337  -3.217  1.00  0.00    +0.000 F 
ATOM     79  C52 UNL A   1      15.028  21.731  -3.719  1.00  0.00    +0.000 C 
ATOM     80  F14 UNL A   1      14.312  22.356  -4.664  1.00  0.00    +0.000 F 
ATOM     81  C53 UNL A   1      16.323  22.166  -3.431  1.00  0.00    +0.000 C 
ATOM     82  F15 UNL A   1      16.776  23.229  -4.111  1.00  0.00    +0.000 F 
ENDBRANCH   71   72
TORSDOF 19
ENDMDL
