MODEL 1
REMARK VINA RESULT:      -9.5      0.000      0.000
ROOT
ATOM     19  C15 UNL A   1      29.092 -14.134  30.864  1.00  0.00    +0.000 C 
ATOM     20  C16 UNL A   1      28.815 -14.282  32.335  1.00  0.00    +0.000 C 
ATOM     21  N3  UNL A   1      27.799 -13.841  33.035  1.00  0.00    +0.000 N 
ATOM     22  C17 UNL A   1      28.023 -14.266  34.338  1.00  0.00    +0.000 C 
ATOM     23  C18 UNL A   1      27.303 -13.994  35.455  1.00  0.00    +0.000 C 
ATOM     35  C25 UNL A   1      26.100 -13.201  35.474  1.00  0.00    +0.000 C 
ATOM     36  C26 UNL A   1      25.315 -12.849  36.558  1.00  0.00    +0.000 C 
ATOM     37  C27 UNL A   1      24.224 -12.108  36.089  1.00  0.00    +0.000 C 
ATOM     38  C28 UNL A   1      24.359 -11.952  34.719  1.00  0.00    +0.000 C 
ATOM     39  N4  UNL A   1      25.508 -12.637  34.353  1.00  0.00    +0.000 N 
ATOM     40  C29 UNL A   1      23.508 -11.228  33.810  1.00  0.00    +0.000 C 
ATOM     52  C36 UNL A   1      23.710 -11.127  32.473  1.00  0.00    +0.000 C 
ATOM     53  N5  UNL A   1      24.729 -11.669  31.700  1.00  0.00    +0.000 N 
ATOM     54  C37 UNL A   1      24.470 -11.315  30.465  1.00  0.00    +0.000 C 
ATOM     55  C38 UNL A   1      25.257 -11.593  29.212  1.00  0.00    +0.000 C 
ATOM     67  C45 UNL A   1      26.413 -12.278  29.300  1.00  0.00    +0.000 C 
ATOM     68  C46 UNL A   1      27.293 -12.595  28.180  1.00  0.00    +0.000 C 
ATOM     69  C47 UNL A   1      28.334 -13.313  28.630  1.00  0.00    +0.000 C 
ATOM     70  C48 UNL A   1      28.212 -13.479  30.079  1.00  0.00    +0.000 C 
ATOM     71  N6  UNL A   1      27.039 -12.835  30.388  1.00  0.00    +0.000 N 
ATOM     72  C49 UNL A   1      23.238 -10.529  30.313  1.00  0.00    +0.000 C 
ATOM     73  C50 UNL A   1      22.844 -10.400  31.571  1.00  0.00    +0.000 C 
ATOM     74  C51 UNL A   1      29.234 -15.058  34.321  1.00  0.00    +0.000 C 
ATOM     75  C52 UNL A   1      29.796 -15.045  33.121  1.00  0.00    +0.000 C 
ATOM    108  H21 UNL A   1      25.500 -13.092  37.543  1.00  0.00    +0.000 H 
ATOM    109  H22 UNL A   1      23.451 -11.741  36.665  1.00  0.00    +0.000 H 
ATOM    110  H23 UNL A   1      25.853 -12.713  33.434  1.00  0.00    +0.000 H 
ATOM    111  H24 UNL A   1      27.140 -12.312  27.199  1.00  0.00    +0.000 H 
ATOM    112  H25 UNL A   1      29.099 -13.688  28.047  1.00  0.00    +0.000 H 
ATOM    113  H26 UNL A   1      26.682 -12.776  31.303  1.00  0.00    +0.000 H 
ATOM    114  H27 UNL A   1      22.797 -10.172  29.451  1.00  0.00    +0.000 H 
ATOM    115  H28 UNL A   1      22.022  -9.852  31.869  1.00  0.00    +0.000 H 
ATOM    116  H29 UNL A   1      29.610 -15.566  35.136  1.00  0.00    +0.000 H 
ATOM    117  H30 UNL A   1      30.689 -15.463  32.818  1.00  0.00    +0.000 H 
ENDROOT
BRANCH   19   18
ATOM    106  H19 UNL A   1      33.526 -14.010  29.574  1.00  0.00    +0.000 H 
ATOM    107  H20 UNL A   1      31.590 -13.112  30.725  1.00  0.00    +0.000 H 
ATOM     76  C53 UNL A   1      30.263 -16.001  29.663  1.00  0.00    +0.000 C 
ATOM     77  C54 UNL A   1      31.404 -16.556  29.081  1.00  0.00    +0.000 C 
ATOM     15  C11 UNL A   1      32.579 -15.805  28.989  1.00  0.00    +0.000 C 
ATOM     16  C12 UNL A   1      32.647 -14.549  29.600  1.00  0.00    +0.000 C 
ATOM     17  C13 UNL A   1      31.526 -14.025  30.248  1.00  0.00    +0.000 C 
ATOM     18  C14 UNL A   1      30.311 -14.730  30.254  1.00  0.00    +0.000 C 
ATOM    118  H31 UNL A   1      29.377 -16.530  29.659  1.00  0.00    +0.000 H 
ATOM    119  H32 UNL A   1      31.379 -17.522  28.719  1.00  0.00    +0.000 H 
BRANCH   15   13
ATOM     13  C10 UNL A   1      33.780 -16.313  28.287  1.00  0.00    +0.000 C 
ATOM     14  O2  UNL A   1      34.545 -17.075  28.875  1.00  0.00    +0.000 O 
BRANCH   13   12
ATOM    105  H18 UNL A   1      34.806 -16.414  26.576  1.00  0.00    +0.000 H 
ATOM     12  N2  UNL A   1      34.066 -15.925  27.001  1.00  0.00    +0.000 N 
BRANCH   12   11
ATOM     11  C9  UNL A   1      33.450 -14.903  26.171  1.00  0.00    +0.000 C 
ATOM    103  H16 UNL A   1      33.460 -15.237  25.155  1.00  0.00    +0.000 H 
ATOM    104  H17 UNL A   1      32.453 -14.756  26.531  1.00  0.00    +0.000 H 
BRANCH   11   10
ATOM     10  C8  UNL A   1      34.167 -13.558  26.251  1.00  0.00    +0.000 C 
ATOM    101  H14 UNL A   1      34.699 -13.522  27.179  1.00  0.00    +0.000 H 
ATOM    102  H15 UNL A   1      34.797 -13.511  25.389  1.00  0.00    +0.000 H 
BRANCH   10    9
ATOM      9  C7  UNL A   1      33.266 -12.323  26.178  1.00  0.00    +0.000 C 
ATOM     99  H12 UNL A   1      33.733 -11.614  25.525  1.00  0.00    +0.000 H 
ATOM    100  H13 UNL A   1      32.318 -12.673  25.831  1.00  0.00    +0.000 H 
BRANCH    9    8
ATOM     97  H10 UNL A   1      33.280 -12.287  28.298  1.00  0.00    +0.000 H 
ATOM     98  H11 UNL A   1      33.552 -10.711  27.483  1.00  0.00    +0.000 H 
ATOM      8  C6  UNL A   1      32.990 -11.622  27.511  1.00  0.00    +0.000 C 
BRANCH    8    7
ATOM     95  H8  UNL A   1      30.904 -12.029  27.488  1.00  0.00    +0.000 H 
ATOM      7  C5  UNL A   1      31.535 -11.207  27.757  1.00  0.00    +0.000 C 
ATOM     96  H9  UNL A   1      31.470 -10.942  28.791  1.00  0.00    +0.000 H 
BRANCH    7    6
ATOM     94  H7  UNL A   1      30.012  -9.894  27.086  1.00  0.00    +0.000 H 
ATOM     93  H6  UNL A   1      31.343 -10.104  25.944  1.00  0.00    +0.000 H 
ATOM      6  C4  UNL A   1      31.072  -9.979  26.972  1.00  0.00    +0.000 C 
BRANCH    6    5
ATOM     92  H5  UNL A   1      32.273  -8.306  26.825  1.00  0.00    +0.000 H 
ATOM      5  N1  UNL A   1      31.678  -8.753  27.470  1.00  0.00    +0.000 N 
BRANCH    5    3
ATOM      3  C3  UNL A   1      31.572  -8.110  28.671  1.00  0.00    +0.000 C 
ATOM      4  O1  UNL A   1      32.600  -8.011  29.347  1.00  0.00    +0.000 O 
BRANCH    3    2
ATOM      2  C2  UNL A   1      30.242  -7.527  29.183  1.00  0.00    +0.000 C 
ATOM     91  H4  UNL A   1      30.435  -6.811  29.955  1.00  0.00    +0.000 H 
BRANCH    2    1
ATOM      1  C1  UNL A   1      29.554  -6.810  28.011  1.00  0.00    +0.000 C 
ATOM     90  H3  UNL A   1      28.611  -7.277  27.812  1.00  0.00    +0.000 H 
ATOM     89  H2  UNL A   1      29.397  -5.782  28.263  1.00  0.00    +0.000 H 
ATOM     88  H1  UNL A   1      30.174  -6.873  27.141  1.00  0.00    +0.000 H 
ENDBRANCH    2    1
BRANCH    2   78
ATOM     78  C55 UNL A   1      29.362  -8.556  29.890  1.00  0.00    +0.000 C 
ATOM     79  C56 UNL A   1      29.911  -9.680  30.535  1.00  0.00    +0.000 C 
ATOM     80  C57 UNL A   1      29.184 -10.353  31.517  1.00  0.00    +0.000 C 
ATOM     81  C58 UNL A   1      27.935  -9.862  31.868  1.00  0.00    +0.000 C 
ATOM     82  C59 UNL A   1      27.313  -8.876  31.103  1.00  0.00    +0.000 C 
ATOM     83  C60 UNL A   1      27.992  -8.296  30.045  1.00  0.00    +0.000 C 
ATOM     84  O3  UNL A   1      26.121  -8.297  31.443  1.00  0.00    +0.000 O 
ATOM     85  C61 UNL A   1      25.777  -8.472  32.823  1.00  0.00    +0.000 C 
ATOM     86  C62 UNL A   1      26.905  -9.040  33.679  1.00  0.00    +0.000 C 
ATOM     87  O4  UNL A   1      27.411 -10.241  33.080  1.00  0.00    +0.000 O 
ATOM    120  H33 UNL A   1      30.857 -10.007  30.281  1.00  0.00    +0.000 H 
ATOM    121  H34 UNL A   1      29.567 -11.198  31.970  1.00  0.00    +0.000 H 
ATOM    122  H35 UNL A   1      27.497  -7.682  29.378  1.00  0.00    +0.000 H 
ATOM    123  H36 UNL A   1      24.943  -9.141  32.879  1.00  0.00    +0.000 H 
ATOM    124  H37 UNL A   1      25.555  -7.500  33.211  1.00  0.00    +0.000 H 
ATOM    125  H38 UNL A   1      26.532  -9.260  34.657  1.00  0.00    +0.000 H 
ATOM    126  H39 UNL A   1      27.694  -8.320  33.747  1.00  0.00    +0.000 H 
ENDBRANCH    2   78
ENDBRANCH    3    2
ENDBRANCH    5    3
ENDBRANCH    6    5
ENDBRANCH    7    6
ENDBRANCH    8    7
ENDBRANCH    9    8
ENDBRANCH   10    9
ENDBRANCH   11   10
ENDBRANCH   12   11
ENDBRANCH   13   12
ENDBRANCH   15   13
ENDBRANCH   19   18
BRANCH   23   24
ATOM     33  C24 UNL A   1      27.341 -15.773  37.249  1.00  0.00    +0.000 C 
ATOM     34  F5  UNL A   1      26.463 -16.496  36.538  1.00  0.00    +0.000 F 
ATOM     24  C19 UNL A   1      27.808 -14.544  36.758  1.00  0.00    +0.000 C 
ATOM     25  C20 UNL A   1      28.721 -13.828  37.548  1.00  0.00    +0.000 C 
ATOM     26  F1  UNL A   1      29.206 -12.652  37.120  1.00  0.00    +0.000 F 
ATOM     27  C21 UNL A   1      29.165 -14.331  38.767  1.00  0.00    +0.000 C 
ATOM     28  F2  UNL A   1      30.071 -13.649  39.483  1.00  0.00    +0.000 F 
ATOM     29  C22 UNL A   1      28.680 -15.542  39.239  1.00  0.00    +0.000 C 
ATOM     30  F3  UNL A   1      29.099 -16.019  40.418  1.00  0.00    +0.000 F 
ATOM     31  C23 UNL A   1      27.764 -16.258  38.485  1.00  0.00    +0.000 C 
ATOM     32  F4  UNL A   1      27.283 -17.421  38.945  1.00  0.00    +0.000 F 
ENDBRANCH   23   24
BRANCH   40   41
ATOM     41  C30 UNL A   1      22.319 -10.507  34.380  1.00  0.00    +0.000 C 
ATOM     42  C31 UNL A   1      21.022 -11.036  34.290  1.00  0.00    +0.000 C 
ATOM     43  F6  UNL A   1      20.810 -12.201  33.658  1.00  0.00    +0.000 F 
ATOM     44  C32 UNL A   1      19.929 -10.344  34.804  1.00  0.00    +0.000 C 
ATOM     45  F7  UNL A   1      18.693 -10.840  34.652  1.00  0.00    +0.000 F 
ATOM     46  C33 UNL A   1      20.114  -9.133  35.453  1.00  0.00    +0.000 C 
ATOM     47  F8  UNL A   1      19.061  -8.469  35.948  1.00  0.00    +0.000 F 
ATOM     48  C34 UNL A   1      21.390  -8.605  35.580  1.00  0.00    +0.000 C 
ATOM     49  F9  UNL A   1      21.572  -7.442  36.220  1.00  0.00    +0.000 F 
ATOM     50  C35 UNL A   1      22.481  -9.278  35.037  1.00  0.00    +0.000 C 
ATOM     51  F10 UNL A   1      23.699  -8.731  35.158  1.00  0.00    +0.000 F 
ENDBRANCH   40   41
BRANCH   55   56
ATOM     65  C44 UNL A   1      25.315  -9.960  27.296  1.00  0.00    +0.000 C 
ATOM     66  F15 UNL A   1      26.261  -9.256  27.933  1.00  0.00    +0.000 F 
ATOM     56  C39 UNL A   1      24.774 -11.109  27.890  1.00  0.00    +0.000 C 
ATOM     57  C40 UNL A   1      23.782 -11.803  27.182  1.00  0.00    +0.000 C 
ATOM     58  F11 UNL A   1      23.247 -12.920  27.699  1.00  0.00    +0.000 F 
ATOM     59  C41 UNL A   1      23.372 -11.384  25.918  1.00  0.00    +0.000 C 
ATOM     60  F12 UNL A   1      22.466 -12.100  25.239  1.00  0.00    +0.000 F 
ATOM     61  C42 UNL A   1      23.918 -10.241  25.353  1.00  0.00    +0.000 C 
ATOM     62  F13 UNL A   1      23.525  -9.839  24.137  1.00  0.00    +0.000 F 
ATOM     63  C43 UNL A   1      24.879  -9.523  26.046  1.00  0.00    +0.000 C 
ATOM     64  F14 UNL A   1      25.398  -8.408  25.512  1.00  0.00    +0.000 F 
ENDBRANCH   55   56
TORSDOF 17
ENDMDL
MODEL 2
REMARK VINA RESULT:      -9.3     38.844     43.766
ROOT
ATOM     19  C15 UNL A   1      38.326  29.947  29.852  1.00  0.00    +0.000 C 
ATOM     20  C16 UNL A   1      38.572  30.495  31.231  1.00  0.00    +0.000 C 
ATOM     21  N3  UNL A   1      39.594  30.302  32.028  1.00  0.00    +0.000 N 
ATOM     22  C17 UNL A   1      39.331  31.049  33.169  1.00  0.00    +0.000 C 
ATOM     23  C18 UNL A   1      40.044  31.117  34.321  1.00  0.00    +0.000 C 
ATOM     35  C25 UNL A   1      41.278  30.412  34.558  1.00  0.00    +0.000 C 
ATOM     36  C26 UNL A   1      42.059  30.398  35.700  1.00  0.00    +0.000 C 
ATOM     37  C27 UNL A   1      43.187  29.607  35.451  1.00  0.00    +0.000 C 
ATOM     38  C28 UNL A   1      43.081  29.084  34.172  1.00  0.00    +0.000 C 
ATOM     39  N4  UNL A   1      41.911  29.596  33.631  1.00  0.00    +0.000 N 
ATOM     40  C29 UNL A   1      43.976  28.183  33.495  1.00  0.00    +0.000 C 
ATOM     52  C36 UNL A   1      43.800  27.720  32.233  1.00  0.00    +0.000 C 
ATOM     53  N5  UNL A   1      42.773  27.990  31.338  1.00  0.00    +0.000 N 
ATOM     54  C37 UNL A   1      43.066  27.331  30.244  1.00  0.00    +0.000 C 
ATOM     55  C38 UNL A   1      42.290  27.229  28.958  1.00  0.00    +0.000 C 
ATOM     67  C45 UNL A   1      41.105  27.861  28.854  1.00  0.00    +0.000 C 
ATOM     68  C46 UNL A   1      40.231  27.828  27.685  1.00  0.00    +0.000 C 
ATOM     69  C47 UNL A   1      39.154  28.594  27.923  1.00  0.00    +0.000 C 
ATOM     70  C48 UNL A   1      39.245  29.146  29.275  1.00  0.00    +0.000 C 
ATOM     71  N6  UNL A   1      40.438  28.660  29.751  1.00  0.00    +0.000 N 
ATOM     72  C49 UNL A   1      44.332  26.588  30.313  1.00  0.00    +0.000 C 
ATOM     73  C50 UNL A   1      44.711  26.817  31.562  1.00  0.00    +0.000 C 
ATOM     74  C51 UNL A   1      38.090  31.754  32.935  1.00  0.00    +0.000 C 
ATOM     75  C52 UNL A   1      37.548  31.396  31.780  1.00  0.00    +0.000 C 
ATOM    108  H21 UNL A   1      41.847  30.886  36.583  1.00  0.00    +0.000 H 
ATOM    109  H22 UNL A   1      43.965  29.442  36.109  1.00  0.00    +0.000 H 
ATOM    110  H23 UNL A   1      41.579  29.408  32.724  1.00  0.00    +0.000 H 
ATOM    111  H24 UNL A   1      40.411  27.301  26.817  1.00  0.00    +0.000 H 
ATOM    112  H25 UNL A   1      38.384  28.766  27.257  1.00  0.00    +0.000 H 
ATOM    113  H26 UNL A   1      40.782  28.864  30.650  1.00  0.00    +0.000 H 
ATOM    114  H27 UNL A   1      44.802  26.034  29.581  1.00  0.00    +0.000 H 
ATOM    115  H28 UNL A   1      45.549  26.406  32.000  1.00  0.00    +0.000 H 
ATOM    116  H29 UNL A   1      37.680  32.443  33.583  1.00  0.00    +0.000 H 
ATOM    117  H30 UNL A   1      36.643  31.678  31.371  1.00  0.00    +0.000 H 
ENDROOT
BRANCH   19   18
ATOM    106  H19 UNL A   1      35.589  32.921  27.615  1.00  0.00    +0.000 H 
ATOM    107  H20 UNL A   1      37.673  32.296  28.685  1.00  0.00    +0.000 H 
ATOM     76  C53 UNL A   1      36.083  29.353  28.895  1.00  0.00    +0.000 C 
ATOM     77  C54 UNL A   1      34.922  29.690  28.198  1.00  0.00    +0.000 C 
ATOM     15  C11 UNL A   1      34.709  31.008  27.787  1.00  0.00    +0.000 C 
ATOM     16  C12 UNL A   1      35.723  31.957  27.957  1.00  0.00    +0.000 C 
ATOM     17  C13 UNL A   1      36.916  31.601  28.590  1.00  0.00    +0.000 C 
ATOM     18  C14 UNL A   1      37.093  30.304  29.099  1.00  0.00    +0.000 C 
ATOM    118  H31 UNL A   1      36.199  28.395  29.265  1.00  0.00    +0.000 H 
ATOM    119  H32 UNL A   1      34.220  28.964  27.986  1.00  0.00    +0.000 H 
BRANCH   15   13
ATOM     13  C10 UNL A   1      33.447  31.433  27.138  1.00  0.00    +0.000 C 
ATOM     14  O2  UNL A   1      32.930  32.500  27.466  1.00  0.00    +0.000 O 
BRANCH   13   12
ATOM    105  H18 UNL A   1      33.333  30.534  25.359  1.00  0.00    +0.000 H 
ATOM     12  N2  UNL A   1      32.833  30.643  26.199  1.00  0.00    +0.000 N 
BRANCH   12   11
ATOM     11  C9  UNL A   1      31.561  29.943  26.250  1.00  0.00    +0.000 C 
ATOM    103  H16 UNL A   1      30.818  30.612  26.632  1.00  0.00    +0.000 H 
ATOM    104  H17 UNL A   1      31.332  29.621  25.255  1.00  0.00    +0.000 H 
BRANCH   11   10
ATOM     10  C8  UNL A   1      31.600  28.699  27.135  1.00  0.00    +0.000 C 
ATOM    101  H14 UNL A   1      31.891  29.004  28.119  1.00  0.00    +0.000 H 
ATOM    102  H15 UNL A   1      30.620  28.274  27.085  1.00  0.00    +0.000 H 
BRANCH   10    9
ATOM      9  C7  UNL A   1      32.558  27.595  26.682  1.00  0.00    +0.000 C 
ATOM     99  H12 UNL A   1      33.021  27.915  25.772  1.00  0.00    +0.000 H 
ATOM    100  H13 UNL A   1      33.243  27.453  27.490  1.00  0.00    +0.000 H 
BRANCH    9    8
ATOM     97  H10 UNL A   1      31.508  25.880  27.353  1.00  0.00    +0.000 H 
ATOM     98  H11 UNL A   1      31.195  26.380  25.659  1.00  0.00    +0.000 H 
ATOM      8  C6  UNL A   1      31.922  26.225  26.429  1.00  0.00    +0.000 C 
BRANCH    8    7
ATOM     95  H8  UNL A   1      33.288  24.628  26.738  1.00  0.00    +0.000 H 
ATOM      7  C5  UNL A   1      32.865  25.140  25.899  1.00  0.00    +0.000 C 
ATOM     96  H9  UNL A   1      32.272  24.508  25.271  1.00  0.00    +0.000 H 
BRANCH    7    6
ATOM     94  H7  UNL A   1      34.860  25.019  25.193  1.00  0.00    +0.000 H 
ATOM     93  H6  UNL A   1      34.227  26.664  25.298  1.00  0.00    +0.000 H 
ATOM      6  C4  UNL A   1      34.013  25.651  25.028  1.00  0.00    +0.000 C 
BRANCH    6    5
ATOM     92  H5  UNL A   1      33.909  24.748  23.174  1.00  0.00    +0.000 H 
ATOM      5  N1  UNL A   1      33.686  25.603  23.611  1.00  0.00    +0.000 N 
BRANCH    5    3
ATOM      3  C3  UNL A   1      33.126  26.527  22.776  1.00  0.00    +0.000 C 
ATOM      4  O1  UNL A   1      33.090  26.248  21.573  1.00  0.00    +0.000 O 
BRANCH    3    2
ATOM      2  C2  UNL A   1      32.559  27.866  23.283  1.00  0.00    +0.000 C 
ATOM     91  H4  UNL A   1      32.489  27.847  24.351  1.00  0.00    +0.000 H 
BRANCH    2    1
ATOM      1  C1  UNL A   1      33.534  28.981  22.876  1.00  0.00    +0.000 C 
ATOM     90  H3  UNL A   1      34.060  29.328  23.742  1.00  0.00    +0.000 H 
ATOM     89  H2  UNL A   1      34.234  28.600  22.163  1.00  0.00    +0.000 H 
ATOM     88  H1  UNL A   1      32.987  29.793  22.443  1.00  0.00    +0.000 H 
ENDBRANCH    2    1
BRANCH    2   78
ATOM     78  C55 UNL A   1      31.114  28.111  22.854  1.00  0.00    +0.000 C 
ATOM     79  C56 UNL A   1      30.058  27.302  23.313  1.00  0.00    +0.000 C 
ATOM     80  C57 UNL A   1      28.745  27.772  23.281  1.00  0.00    +0.000 C 
ATOM     81  C58 UNL A   1      28.516  29.064  22.831  1.00  0.00    +0.000 C 
ATOM     82  C59 UNL A   1      29.525  29.790  22.200  1.00  0.00    +0.000 C 
ATOM     83  C60 UNL A   1      30.803  29.266  22.119  1.00  0.00    +0.000 C 
ATOM     84  O3  UNL A   1      29.384  31.093  21.807  1.00  0.00    +0.000 O 
ATOM     85  C61 UNL A   1      28.297  31.767  22.454  1.00  0.00    +0.000 C 
ATOM     86  C62 UNL A   1      27.684  30.990  23.614  1.00  0.00    +0.000 C 
ATOM     87  O4  UNL A   1      27.333  29.668  23.181  1.00  0.00    +0.000 O 
ATOM    120  H33 UNL A   1      30.256  26.356  23.676  1.00  0.00    +0.000 H 
ATOM    121  H34 UNL A   1      27.962  27.171  23.585  1.00  0.00    +0.000 H 
ATOM    122  H35 UNL A   1      31.518  29.716  21.526  1.00  0.00    +0.000 H 
ATOM    123  H36 UNL A   1      27.532  31.946  21.727  1.00  0.00    +0.000 H 
ATOM    124  H37 UNL A   1      28.695  32.672  22.865  1.00  0.00    +0.000 H 
ATOM    125  H38 UNL A   1      26.806  31.497  23.956  1.00  0.00    +0.000 H 
ATOM    126  H39 UNL A   1      28.395  30.924  24.410  1.00  0.00    +0.000 H 
ENDBRANCH    2   78
ENDBRANCH    3    2
ENDBRANCH    5    3
ENDBRANCH    6    5
ENDBRANCH    7    6
ENDBRANCH    8    7
ENDBRANCH    9    8
ENDBRANCH   10    9
ENDBRANCH   11   10
ENDBRANCH   12   11
ENDBRANCH   13   12
ENDBRANCH   15   13
ENDBRANCH   19   18
BRANCH   23   24
ATOM     33  C24 UNL A   1      39.901  33.308  35.572  1.00  0.00    +0.000 C 
ATOM     34  F5  UNL A   1      40.758  33.854  34.697  1.00  0.00    +0.000 F 
ATOM     24  C19 UNL A   1      39.495  31.973  35.427  1.00  0.00    +0.000 C 
ATOM     25  C20 UNL A   1      38.602  31.453  36.378  1.00  0.00    +0.000 C 
ATOM     26  F1  UNL A   1      38.174  30.185  36.279  1.00  0.00    +0.000 F 
ATOM     27  C21 UNL A   1      38.117  32.244  37.416  1.00  0.00    +0.000 C 
ATOM     28  F2  UNL A   1      37.230  31.737  38.284  1.00  0.00    +0.000 F 
ATOM     29  C22 UNL A   1      38.542  33.557  37.547  1.00  0.00    +0.000 C 
ATOM     30  F3  UNL A   1      38.084  34.313  38.554  1.00  0.00    +0.000 F 
ATOM     31  C23 UNL A   1      39.438  34.086  36.631  1.00  0.00    +0.000 C 
ATOM     32  F4  UNL A   1      39.861  35.351  36.764  1.00  0.00    +0.000 F 
ENDBRANCH   23   24
BRANCH   40   41
ATOM     41  C30 UNL A   1      45.185  27.694  34.242  1.00  0.00    +0.000 C 
ATOM     42  C31 UNL A   1      45.150  26.523  35.015  1.00  0.00    +0.000 C 
ATOM     43  F6  UNL A   1      44.011  25.822  35.128  1.00  0.00    +0.000 F 
ATOM     44  C32 UNL A   1      46.273  26.095  35.718  1.00  0.00    +0.000 C 
ATOM     45  F7  UNL A   1      46.197  25.008  36.499  1.00  0.00    +0.000 F 
ATOM     46  C33 UNL A   1      47.462  26.804  35.630  1.00  0.00    +0.000 C 
ATOM     47  F8  UNL A   1      48.541  26.390  36.307  1.00  0.00    +0.000 F 
ATOM     48  C34 UNL A   1      47.527  27.948  34.849  1.00  0.00    +0.000 C 
ATOM     49  F9  UNL A   1      48.679  28.625  34.751  1.00  0.00    +0.000 F 
ATOM     50  C35 UNL A   1      46.397  28.396  34.171  1.00  0.00    +0.000 C 
ATOM     51  F10 UNL A   1      46.488  29.517  33.441  1.00  0.00    +0.000 F 
ENDBRANCH   40   41
BRANCH   55   56
ATOM     65  C44 UNL A   1      43.673  27.001  26.867  1.00  0.00    +0.000 C 
ATOM     66  F15 UNL A   1      44.013  28.295  26.958  1.00  0.00    +0.000 F 
ATOM     56  C39 UNL A   1      42.813  26.432  27.816  1.00  0.00    +0.000 C 
ATOM     57  C40 UNL A   1      42.485  25.077  27.667  1.00  0.00    +0.000 C 
ATOM     58  F11 UNL A   1      41.681  24.480  28.560  1.00  0.00    +0.000 F 
ATOM     59  C41 UNL A   1      43.023  24.315  26.632  1.00  0.00    +0.000 C 
ATOM     60  F12 UNL A   1      42.740  23.008  26.548  1.00  0.00    +0.000 F 
ATOM     61  C42 UNL A   1      43.867  24.902  25.701  1.00  0.00    +0.000 C 
ATOM     62  F13 UNL A   1      44.385  24.169  24.707  1.00  0.00    +0.000 F 
ATOM     63  C43 UNL A   1      44.183  26.247  25.812  1.00  0.00    +0.000 C 
ATOM     64  F14 UNL A   1      44.985  26.823  24.906  1.00  0.00    +0.000 F 
ENDBRANCH   55   56
TORSDOF 17
ENDMDL
MODEL 3
REMARK VINA RESULT:      -9.2     36.381     42.557
ROOT
ATOM     19  C15 UNL A   1      21.706  19.450   5.160  1.00  0.00    +0.000 C 
ATOM     20  C16 UNL A   1      21.407  20.444   4.071  1.00  0.00    +0.000 C 
ATOM     21  N3  UNL A   1      20.260  20.977   3.728  1.00  0.00    +0.000 N 
ATOM     22  C17 UNL A   1      20.542  21.840   2.678  1.00  0.00    +0.000 C 
ATOM     23  C18 UNL A   1      19.681  22.566   1.921  1.00  0.00    +0.000 C 
ATOM     35  C25 UNL A   1      18.253  22.589   2.110  1.00  0.00    +0.000 C 
ATOM     36  C26 UNL A   1      17.296  23.272   1.381  1.00  0.00    +0.000 C 
ATOM     37  C27 UNL A   1      16.045  23.027   1.958  1.00  0.00    +0.000 C 
ATOM     38  C28 UNL A   1      16.216  22.147   3.015  1.00  0.00    +0.000 C 
ATOM     39  N4  UNL A   1      17.576  21.896   3.105  1.00  0.00    +0.000 N 
ATOM     40  C29 UNL A   1      15.214  21.575   3.876  1.00  0.00    +0.000 C 
ATOM     52  C36 UNL A   1      15.468  20.720   4.898  1.00  0.00    +0.000 C 
ATOM     53  N5  UNL A   1      16.687  20.220   5.336  1.00  0.00    +0.000 N 
ATOM     54  C37 UNL A   1      16.414  19.458   6.367  1.00  0.00    +0.000 C 
ATOM     55  C38 UNL A   1      17.346  18.635   7.215  1.00  0.00    +0.000 C 
ATOM     67  C45 UNL A   1      18.659  18.613   6.916  1.00  0.00    +0.000 C 
ATOM     68  C46 UNL A   1      19.674  17.841   7.628  1.00  0.00    +0.000 C 
ATOM     69  C47 UNL A   1      20.874  18.084   7.078  1.00  0.00    +0.000 C 
ATOM     70  C48 UNL A   1      20.709  19.004   5.952  1.00  0.00    +0.000 C 
ATOM     71  N6  UNL A   1      19.362  19.267   5.934  1.00  0.00    +0.000 N 
ATOM     72  C49 UNL A   1      14.987  19.412   6.716  1.00  0.00    +0.000 C 
ATOM     73  C50 UNL A   1      14.452  20.155   5.759  1.00  0.00    +0.000 C 
ATOM     74  C51 UNL A   1      21.975  21.814   2.483  1.00  0.00    +0.000 C 
ATOM     75  C52 UNL A   1      22.549  20.920   3.275  1.00  0.00    +0.000 C 
ATOM    108  H21 UNL A   1      17.474  23.861   0.553  1.00  0.00    +0.000 H 
ATOM    109  H22 UNL A   1      15.148  23.433   1.649  1.00  0.00    +0.000 H 
ATOM    110  H23 UNL A   1      18.000  21.313   3.775  1.00  0.00    +0.000 H 
ATOM    111  H24 UNL A   1      19.496  17.210   8.425  1.00  0.00    +0.000 H 
ATOM    112  H25 UNL A   1      21.770  17.685   7.398  1.00  0.00    +0.000 H 
ATOM    113  H26 UNL A   1      18.939  19.866   5.278  1.00  0.00    +0.000 H 
ATOM    114  H27 UNL A   1      14.525  18.928   7.501  1.00  0.00    +0.000 H 
ATOM    115  H28 UNL A   1      13.439  20.313   5.643  1.00  0.00    +0.000 H 
ATOM    116  H29 UNL A   1      22.484  22.414   1.816  1.00  0.00    +0.000 H 
ATOM    117  H30 UNL A   1      23.539  20.633   3.322  1.00  0.00    +0.000 H 
ENDROOT
BRANCH   19   18
ATOM    106  H19 UNL A   1      25.077  16.302   4.910  1.00  0.00    +0.000 H 
ATOM    107  H20 UNL A   1      22.870  17.144   4.365  1.00  0.00    +0.000 H 
ATOM     76  C53 UNL A   1      24.009  19.773   6.106  1.00  0.00    +0.000 C 
ATOM     77  C54 UNL A   1      25.309  19.324   6.339  1.00  0.00    +0.000 C 
ATOM     15  C11 UNL A   1      25.682  18.031   5.962  1.00  0.00    +0.000 C 
ATOM     16  C12 UNL A   1      24.791  17.240   5.230  1.00  0.00    +0.000 C 
ATOM     17  C13 UNL A   1      23.513  17.719   4.932  1.00  0.00    +0.000 C 
ATOM     18  C14 UNL A   1      23.096  18.976   5.399  1.00  0.00    +0.000 C 
ATOM    118  H31 UNL A   1      23.716  20.699   6.456  1.00  0.00    +0.000 H 
ATOM    119  H32 UNL A   1      25.996  19.948   6.791  1.00  0.00    +0.000 H 
BRANCH   15   13
ATOM     13  C10 UNL A   1      27.017  17.475   6.283  1.00  0.00    +0.000 C 
ATOM     14  O2  UNL A   1      27.204  16.263   6.191  1.00  0.00    +0.000 O 
BRANCH   13   12
ATOM    105  H18 UNL A   1      28.631  18.616   5.995  1.00  0.00    +0.000 H 
ATOM     12  N2  UNL A   1      28.039  18.288   6.708  1.00  0.00    +0.000 N 
BRANCH   12   11
ATOM     11  C9  UNL A   1      28.383  18.740   8.046  1.00  0.00    +0.000 C 
ATOM    103  H16 UNL A   1      29.431  18.587   8.199  1.00  0.00    +0.000 H 
ATOM    104  H17 UNL A   1      28.117  19.774   8.114  1.00  0.00    +0.000 H 
BRANCH   11   10
ATOM     10  C8  UNL A   1      27.617  17.999   9.140  1.00  0.00    +0.000 C 
ATOM    101  H14 UNL A   1      27.344  17.037   8.758  1.00  0.00    +0.000 H 
ATOM    102  H15 UNL A   1      28.274  17.960   9.982  1.00  0.00    +0.000 H 
BRANCH   10    9
ATOM      9  C7  UNL A   1      26.342  18.686   9.636  1.00  0.00    +0.000 C 
ATOM     99  H12 UNL A   1      26.528  19.047  10.627  1.00  0.00    +0.000 H 
ATOM    100  H13 UNL A   1      26.131  19.457   8.926  1.00  0.00    +0.000 H 
BRANCH    9    8
ATOM     97  H10 UNL A   1      25.039  17.257   8.767  1.00  0.00    +0.000 H 
ATOM     98  H11 UNL A   1      25.197  17.194  10.554  1.00  0.00    +0.000 H 
ATOM      8  C6  UNL A   1      25.089  17.808   9.684  1.00  0.00    +0.000 C 
BRANCH    8    7
ATOM     95  H8  UNL A   1      23.900  19.313  10.598  1.00  0.00    +0.000 H 
ATOM      7  C5  UNL A   1      23.760  18.551   9.860  1.00  0.00    +0.000 C 
ATOM     96  H9  UNL A   1      23.502  18.936   8.896  1.00  0.00    +0.000 H 
BRANCH    7    6
ATOM     94  H7  UNL A   1      22.134  17.266   9.421  1.00  0.00    +0.000 H 
ATOM     93  H6  UNL A   1      21.891  18.281  10.845  1.00  0.00    +0.000 H 
ATOM      6  C4  UNL A   1      22.585  17.677  10.299  1.00  0.00    +0.000 C 
BRANCH    6    5
ATOM     92  H5  UNL A   1      23.317  15.778  10.648  1.00  0.00    +0.000 H 
ATOM      5  N1  UNL A   1      23.012  16.573  11.145  1.00  0.00    +0.000 N 
BRANCH    5    3
ATOM      3  C3  UNL A   1      23.068  16.437  12.503  1.00  0.00    +0.000 C 
ATOM      4  O1  UNL A   1      23.472  15.356  12.943  1.00  0.00    +0.000 O 
BRANCH    3    2
ATOM      2  C2  UNL A   1      22.651  17.564  13.466  1.00  0.00    +0.000 C 
ATOM     91  H4  UNL A   1      21.774  18.051  13.092  1.00  0.00    +0.000 H 
BRANCH    2    1
ATOM      1  C1  UNL A   1      22.317  16.930  14.825  1.00  0.00    +0.000 C 
ATOM     90  H3  UNL A   1      23.118  17.116  15.510  1.00  0.00    +0.000 H 
ATOM     89  H2  UNL A   1      21.414  17.358  15.207  1.00  0.00    +0.000 H 
ATOM     88  H1  UNL A   1      22.189  15.874  14.704  1.00  0.00    +0.000 H 
ENDBRANCH    2    1
BRANCH    2   78
ATOM     78  C55 UNL A   1      23.665  18.703  13.538  1.00  0.00    +0.000 C 
ATOM     79  C56 UNL A   1      25.051  18.463  13.508  1.00  0.00    +0.000 C 
ATOM     80  C57 UNL A   1      25.935  19.478  13.142  1.00  0.00    +0.000 C 
ATOM     81  C58 UNL A   1      25.411  20.707  12.767  1.00  0.00    +0.000 C 
ATOM     82  C59 UNL A   1      24.066  21.006  12.981  1.00  0.00    +0.000 C 
ATOM     83  C60 UNL A   1      23.213  20.030  13.467  1.00  0.00    +0.000 C 
ATOM     84  O3  UNL A   1      23.475  22.166  12.562  1.00  0.00    +0.000 O 
ATOM     85  C61 UNL A   1      24.220  22.848  11.545  1.00  0.00    +0.000 C 
ATOM     86  C62 UNL A   1      25.370  22.033  10.964  1.00  0.00    +0.000 C 
ATOM     87  O4  UNL A   1      26.204  21.546  12.024  1.00  0.00    +0.000 O 
ATOM    120  H33 UNL A   1      25.416  17.529  13.758  1.00  0.00    +0.000 H 
ATOM    121  H34 UNL A   1      26.955  19.318  13.150  1.00  0.00    +0.000 H 
ATOM    122  H35 UNL A   1      22.258  20.274  13.775  1.00  0.00    +0.000 H 
ATOM    123  H36 UNL A   1      24.622  23.745  11.968  1.00  0.00    +0.000 H 
ATOM    124  H37 UNL A   1      23.540  23.039  10.741  1.00  0.00    +0.000 H 
ATOM    125  H38 UNL A   1      25.950  22.653  10.311  1.00  0.00    +0.000 H 
ATOM    126  H39 UNL A   1      24.975  21.204  10.415  1.00  0.00    +0.000 H 
ENDBRANCH    2   78
ENDBRANCH    3    2
ENDBRANCH    5    3
ENDBRANCH    6    5
ENDBRANCH    7    6
ENDBRANCH    8    7
ENDBRANCH    9    8
ENDBRANCH   10    9
ENDBRANCH   11   10
ENDBRANCH   12   11
ENDBRANCH   13   12
ENDBRANCH   15   13
ENDBRANCH   19   18
BRANCH   23   24
ATOM     33  C24 UNL A   1      20.292  22.886  -0.509  1.00  0.00    +0.000 C 
ATOM     34  F5  UNL A   1      19.767  21.684  -0.791  1.00  0.00    +0.000 F 
ATOM     24  C19 UNL A   1      20.260  23.384   0.802  1.00  0.00    +0.000 C 
ATOM     25  C20 UNL A   1      20.830  24.644   1.038  1.00  0.00    +0.000 C 
ATOM     26  F1  UNL A   1      20.817  25.171   2.273  1.00  0.00    +0.000 F 
ATOM     27  C21 UNL A   1      21.388  25.386   0.001  1.00  0.00    +0.000 C 
ATOM     28  F2  UNL A   1      21.887  26.607   0.244  1.00  0.00    +0.000 F 
ATOM     29  C22 UNL A   1      21.421  24.869  -1.285  1.00  0.00    +0.000 C 
ATOM     30  F3  UNL A   1      21.969  25.579  -2.280  1.00  0.00    +0.000 F 
ATOM     31  C23 UNL A   1      20.880  23.618  -1.539  1.00  0.00    +0.000 C 
ATOM     32  F4  UNL A   1      20.923  23.111  -2.778  1.00  0.00    +0.000 F 
ENDBRANCH   23   24
BRANCH   40   41
ATOM     41  C30 UNL A   1      13.776  21.925   3.617  1.00  0.00    +0.000 C 
ATOM     42  C31 UNL A   1      13.135  22.969   4.302  1.00  0.00    +0.000 C 
ATOM     43  F6  UNL A   1      13.796  23.669   5.237  1.00  0.00    +0.000 F 
ATOM     44  C32 UNL A   1      11.795  23.265   4.064  1.00  0.00    +0.000 C 
ATOM     45  F7  UNL A   1      11.189  24.226   4.774  1.00  0.00    +0.000 F 
ATOM     46  C33 UNL A   1      11.083  22.554   3.111  1.00  0.00    +0.000 C 
ATOM     47  F8  UNL A   1       9.794  22.841   2.883  1.00  0.00    +0.000 F 
ATOM     48  C34 UNL A   1      11.704  21.537   2.401  1.00  0.00    +0.000 C 
ATOM     49  F9  UNL A   1      11.021  20.859   1.469  1.00  0.00    +0.000 F 
ATOM     50  C35 UNL A   1      13.034  21.216   2.660  1.00  0.00    +0.000 C 
ATOM     51  F10 UNL A   1      13.599  20.214   1.971  1.00  0.00    +0.000 F 
ENDBRANCH   40   41
BRANCH   55   56
ATOM     65  C44 UNL A   1      16.534  18.454   9.592  1.00  0.00    +0.000 C 
ATOM     66  F15 UNL A   1      16.748  19.767   9.759  1.00  0.00    +0.000 F 
ATOM     56  C39 UNL A   1      16.829  17.844   8.364  1.00  0.00    +0.000 C 
ATOM     57  C40 UNL A   1      16.592  16.466   8.249  1.00  0.00    +0.000 C 
ATOM     58  F11 UNL A   1      16.839  15.840   7.088  1.00  0.00    +0.000 F 
ATOM     59  C41 UNL A   1      16.052  15.737   9.305  1.00  0.00    +0.000 C 
ATOM     60  F12 UNL A   1      15.779  14.434   9.147  1.00  0.00    +0.000 F 
ATOM     61  C42 UNL A   1      15.773  16.362  10.512  1.00  0.00    +0.000 C 
ATOM     62  F13 UNL A   1      15.252  15.660  11.527  1.00  0.00    +0.000 F 
ATOM     63  C43 UNL A   1      16.026  17.716  10.659  1.00  0.00    +0.000 C 
ATOM     64  F14 UNL A   1      15.775  18.321  11.829  1.00  0.00    +0.000 F 
ENDBRANCH   55   56
TORSDOF 17
ENDMDL
MODEL 4
REMARK VINA RESULT:      -9.0     38.705     44.261
ROOT
ATOM     19  C15 UNL A   1      38.287  30.128  29.946  1.00  0.00    +0.000 C 
ATOM     20  C16 UNL A   1      39.398  29.272  29.401  1.00  0.00    +0.000 C 
ATOM     21  N3  UNL A   1      40.521  28.912  29.971  1.00  0.00    +0.000 N 
ATOM     22  C17 UNL A   1      41.178  28.112  29.045  1.00  0.00    +0.000 C 
ATOM     23  C18 UNL A   1      42.415  27.561  29.125  1.00  0.00    +0.000 C 
ATOM     35  C25 UNL A   1      43.293  27.695  30.259  1.00  0.00    +0.000 C 
ATOM     36  C26 UNL A   1      44.573  27.196  30.424  1.00  0.00    +0.000 C 
ATOM     37  C27 UNL A   1      45.019  27.541  31.705  1.00  0.00    +0.000 C 
ATOM     38  C28 UNL A   1      44.037  28.302  32.319  1.00  0.00    +0.000 C 
ATOM     39  N4  UNL A   1      42.979  28.379  31.425  1.00  0.00    +0.000 N 
ATOM     40  C29 UNL A   1      44.061  28.917  33.620  1.00  0.00    +0.000 C 
ATOM     52  C36 UNL A   1      43.049  29.647  34.151  1.00  0.00    +0.000 C 
ATOM     53  N5  UNL A   1      41.814  29.958  33.599  1.00  0.00    +0.000 N 
ATOM     54  C37 UNL A   1      41.180  30.659  34.508  1.00  0.00    +0.000 C 
ATOM     55  C38 UNL A   1      39.814  31.289  34.442  1.00  0.00    +0.000 C 
ATOM     67  C45 UNL A   1      39.094  31.178  33.310  1.00  0.00    +0.000 C 
ATOM     68  C46 UNL A   1      37.773  31.760  33.089  1.00  0.00    +0.000 C 
ATOM     69  C47 UNL A   1      37.344  31.420  31.864  1.00  0.00    +0.000 C 
ATOM     70  C48 UNL A   1      38.375  30.624  31.197  1.00  0.00    +0.000 C 
ATOM     71  N6  UNL A   1      39.376  30.528  32.133  1.00  0.00    +0.000 N 
ATOM     72  C49 UNL A   1      41.936  30.847  35.754  1.00  0.00    +0.000 C 
ATOM     73  C50 UNL A   1      43.086  30.256  35.463  1.00  0.00    +0.000 C 
ATOM     74  C51 UNL A   1      40.299  27.980  27.904  1.00  0.00    +0.000 C 
ATOM     75  C52 UNL A   1      39.215  28.730  28.046  1.00  0.00    +0.000 C 
ATOM    108  H21 UNL A   1      45.108  26.661  29.723  1.00  0.00    +0.000 H 
ATOM    109  H22 UNL A   1      45.924  27.274  32.122  1.00  0.00    +0.000 H 
ATOM    110  H23 UNL A   1      42.130  28.849  31.593  1.00  0.00    +0.000 H 
ATOM    111  H24 UNL A   1      37.253  32.339  33.767  1.00  0.00    +0.000 H 
ATOM    112  H25 UNL A   1      36.432  31.680  31.456  1.00  0.00    +0.000 H 
ATOM    113  H26 UNL A   1      40.216  30.041  31.975  1.00  0.00    +0.000 H 
ATOM    114  H27 UNL A   1      41.647  31.317  36.626  1.00  0.00    +0.000 H 
ATOM    115  H28 UNL A   1      43.903  30.233  36.093  1.00  0.00    +0.000 H 
ATOM    116  H29 UNL A   1      40.491  27.382  27.086  1.00  0.00    +0.000 H 
ATOM    117  H30 UNL A   1      38.444  28.891  27.380  1.00  0.00    +0.000 H 
ENDROOT
BRANCH   19   18
ATOM    106  H19 UNL A   1      35.476  32.936  27.589  1.00  0.00    +0.000 H 
ATOM    107  H20 UNL A   1      37.540  32.439  28.760  1.00  0.00    +0.000 H 
ATOM     76  C53 UNL A   1      36.140  29.396  28.873  1.00  0.00    +0.000 C 
ATOM     77  C54 UNL A   1      34.995  29.662  28.119  1.00  0.00    +0.000 C 
ATOM     15  C11 UNL A   1      34.717  30.967  27.705  1.00  0.00    +0.000 C 
ATOM     16  C12 UNL A   1      35.656  31.979  27.932  1.00  0.00    +0.000 C 
ATOM     17  C13 UNL A   1      36.836  31.697  28.623  1.00  0.00    +0.000 C 
ATOM     18  C14 UNL A   1      37.074  30.410  29.133  1.00  0.00    +0.000 C 
ATOM    118  H31 UNL A   1      36.300  28.445  29.242  1.00  0.00    +0.000 H 
ATOM    119  H32 UNL A   1      34.354  28.893  27.868  1.00  0.00    +0.000 H 
BRANCH   15   13
ATOM     13  C10 UNL A   1      33.464  31.314  26.996  1.00  0.00    +0.000 C 
ATOM     14  O2  UNL A   1      32.903  32.379  27.248  1.00  0.00    +0.000 O 
BRANCH   13   12
ATOM    105  H18 UNL A   1      33.446  30.302  25.274  1.00  0.00    +0.000 H 
ATOM     12  N2  UNL A   1      32.907  30.454  26.082  1.00  0.00    +0.000 N 
BRANCH   12   11
ATOM     11  C9  UNL A   1      31.644  29.735  26.121  1.00  0.00    +0.000 C 
ATOM    103  H16 UNL A   1      30.873  30.415  26.417  1.00  0.00    +0.000 H 
ATOM    104  H17 UNL A   1      31.471  29.338  25.143  1.00  0.00    +0.000 H 
BRANCH   11   10
ATOM     10  C8  UNL A   1      31.659  28.559  27.095  1.00  0.00    +0.000 C 
ATOM    101  H14 UNL A   1      31.995  28.921  28.045  1.00  0.00    +0.000 H 
ATOM    102  H15 UNL A   1      30.660  28.176  27.107  1.00  0.00    +0.000 H 
BRANCH   10    9
ATOM      9  C7  UNL A   1      32.553  27.382  26.698  1.00  0.00    +0.000 C 
ATOM     99  H12 UNL A   1      33.090  27.661  25.815  1.00  0.00    +0.000 H 
ATOM    100  H13 UNL A   1      33.178  27.191  27.544  1.00  0.00    +0.000 H 
BRANCH    9    8
ATOM     97  H10 UNL A   1      31.351  25.747  27.313  1.00  0.00    +0.000 H 
ATOM     98  H11 UNL A   1      31.146  26.277  25.611  1.00  0.00    +0.000 H 
ATOM      8  C6  UNL A   1      31.827  26.065  26.409  1.00  0.00    +0.000 C 
BRANCH    8    7
ATOM     95  H8  UNL A   1      33.731  25.180  26.078  1.00  0.00    +0.000 H 
ATOM      7  C5  UNL A   1      32.709  24.914  25.911  1.00  0.00    +0.000 C 
ATOM     96  H9  UNL A   1      32.402  24.045  26.455  1.00  0.00    +0.000 H 
BRANCH    7    6
ATOM     94  H7  UNL A   1      31.518  24.713  24.170  1.00  0.00    +0.000 H 
ATOM     93  H6  UNL A   1      32.846  23.554  24.276  1.00  0.00    +0.000 H 
ATOM      6  C4  UNL A   1      32.545  24.569  24.430  1.00  0.00    +0.000 C 
BRANCH    6    5
ATOM     92  H5  UNL A   1      34.317  25.252  23.620  1.00  0.00    +0.000 H 
ATOM      5  N1  UNL A   1      33.350  25.431  23.577  1.00  0.00    +0.000 N 
BRANCH    5    3
ATOM      3  C3  UNL A   1      33.007  26.445  22.729  1.00  0.00    +0.000 C 
ATOM      4  O1  UNL A   1      33.139  26.234  21.519  1.00  0.00    +0.000 O 
BRANCH    3    2
ATOM      2  C2  UNL A   1      32.478  27.802  23.230  1.00  0.00    +0.000 C 
ATOM     91  H4  UNL A   1      32.435  27.800  24.299  1.00  0.00    +0.000 H 
BRANCH    2    1
ATOM      1  C1  UNL A   1      33.464  28.892  22.782  1.00  0.00    +0.000 C 
ATOM     90  H3  UNL A   1      33.920  28.601  21.857  1.00  0.00    +0.000 H 
ATOM     89  H2  UNL A   1      32.940  29.814  22.646  1.00  0.00    +0.000 H 
ATOM     88  H1  UNL A   1      34.221  29.017  23.528  1.00  0.00    +0.000 H 
ENDBRANCH    2    1
BRANCH    2   78
ATOM     78  C55 UNL A   1      31.027  28.069  22.834  1.00  0.00    +0.000 C 
ATOM     79  C56 UNL A   1      29.965  27.310  23.359  1.00  0.00    +0.000 C 
ATOM     80  C57 UNL A   1      28.665  27.815  23.345  1.00  0.00    +0.000 C 
ATOM     81  C58 UNL A   1      28.456  29.092  22.845  1.00  0.00    +0.000 C 
ATOM     82  C59 UNL A   1      29.464  29.761  22.153  1.00  0.00    +0.000 C 
ATOM     83  C60 UNL A   1      30.726  29.198  22.057  1.00  0.00    +0.000 C 
ATOM     84  O3  UNL A   1      29.346  31.049  21.707  1.00  0.00    +0.000 O 
ATOM     85  C61 UNL A   1      28.298  31.781  22.355  1.00  0.00    +0.000 C 
ATOM     86  C62 UNL A   1      27.701  31.073  23.566  1.00  0.00    +0.000 C 
ATOM     87  O4  UNL A   1      27.301  29.744  23.203  1.00  0.00    +0.000 O 
ATOM    120  H33 UNL A   1      30.149  26.375  23.758  1.00  0.00    +0.000 H 
ATOM    121  H34 UNL A   1      27.876  27.250  23.699  1.00  0.00    +0.000 H 
ATOM    122  H35 UNL A   1      31.433  29.602  21.424  1.00  0.00    +0.000 H 
ATOM    123  H36 UNL A   1      27.516  31.949  21.644  1.00  0.00    +0.000 H 
ATOM    124  H37 UNL A   1      28.733  32.691  22.713  1.00  0.00    +0.000 H 
ATOM    125  H38 UNL A   1      26.847  31.618  23.912  1.00  0.00    +0.000 H 
ATOM    126  H39 UNL A   1      28.434  31.021  24.343  1.00  0.00    +0.000 H 
ENDBRANCH    2   78
ENDBRANCH    3    2
ENDBRANCH    5    3
ENDBRANCH    6    5
ENDBRANCH    7    6
ENDBRANCH    8    7
ENDBRANCH    9    8
ENDBRANCH   10    9
ENDBRANCH   11   10
ENDBRANCH   12   11
ENDBRANCH   13   12
ENDBRANCH   15   13
ENDBRANCH   19   18
BRANCH   23   24
ATOM     33  C24 UNL A   1      42.654  25.399  27.840  1.00  0.00    +0.000 C 
ATOM     34  F5  UNL A   1      41.939  24.769  28.784  1.00  0.00    +0.000 F 
ATOM     24  C19 UNL A   1      42.903  26.776  27.941  1.00  0.00    +0.000 C 
ATOM     25  C20 UNL A   1      43.664  27.379  26.928  1.00  0.00    +0.000 C 
ATOM     26  F1  UNL A   1      43.922  28.696  26.971  1.00  0.00    +0.000 F 
ATOM     27  C21 UNL A   1      44.135  26.641  25.847  1.00  0.00    +0.000 C 
ATOM     28  F2  UNL A   1      44.821  27.249  24.869  1.00  0.00    +0.000 F 
ATOM     29  C22 UNL A   1      43.888  25.278  25.775  1.00  0.00    +0.000 C 
ATOM     30  F3  UNL A   1      44.353  24.566  24.739  1.00  0.00    +0.000 F 
ATOM     31  C23 UNL A   1      43.155  24.656  26.773  1.00  0.00    +0.000 C 
ATOM     32  F4  UNL A   1      42.927  23.337  26.712  1.00  0.00    +0.000 F 
ENDBRANCH   23   24
BRANCH   40   41
ATOM     41  C30 UNL A   1      45.306  28.766  34.449  1.00  0.00    +0.000 C 
ATOM     42  C31 UNL A   1      45.475  27.694  35.339  1.00  0.00    +0.000 C 
ATOM     43  F6  UNL A   1      44.501  26.783  35.491  1.00  0.00    +0.000 F 
ATOM     44  C32 UNL A   1      46.625  27.582  36.115  1.00  0.00    +0.000 C 
ATOM     45  F7  UNL A   1      46.737  26.584  37.002  1.00  0.00    +0.000 F 
ATOM     46  C33 UNL A   1      47.645  28.513  35.988  1.00  0.00    +0.000 C 
ATOM     47  F8  UNL A   1      48.751  28.403  36.735  1.00  0.00    +0.000 F 
ATOM     48  C34 UNL A   1      47.512  29.565  35.094  1.00  0.00    +0.000 C 
ATOM     49  F9  UNL A   1      48.503  30.457  34.959  1.00  0.00    +0.000 F 
ATOM     50  C35 UNL A   1      46.349  29.698  34.341  1.00  0.00    +0.000 C 
ATOM     51  F10 UNL A   1      46.243  30.738  33.500  1.00  0.00    +0.000 F 
ENDBRANCH   40   41
BRANCH   55   56
ATOM     65  C44 UNL A   1      38.434  31.414  36.544  1.00  0.00    +0.000 C 
ATOM     66  F15 UNL A   1      38.090  30.128  36.386  1.00  0.00    +0.000 F 
ATOM     56  C39 UNL A   1      39.267  32.038  35.605  1.00  0.00    +0.000 C 
ATOM     57  C40 UNL A   1      39.588  33.387  35.815  1.00  0.00    +0.000 C 
ATOM     58  F11 UNL A   1      40.398  34.025  34.956  1.00  0.00    +0.000 F 
ATOM     59  C41 UNL A   1      39.124  34.072  36.936  1.00  0.00    +0.000 C 
ATOM     60  F12 UNL A   1      39.496  35.343  37.144  1.00  0.00    +0.000 F 
ATOM     61  C42 UNL A   1      38.296  33.434  37.848  1.00  0.00    +0.000 C 
ATOM     62  F13 UNL A   1      37.851  34.093  38.927  1.00  0.00    +0.000 F 
ATOM     63  C43 UNL A   1      37.942  32.110  37.646  1.00  0.00    +0.000 C 
ATOM     64  F14 UNL A   1      37.129  31.494  38.516  1.00  0.00    +0.000 F 
ENDBRANCH   55   56
TORSDOF 17
ENDMDL
MODEL 5
REMARK VINA RESULT:      -9.0     48.013     53.078
ROOT
ATOM     19  C15 UNL A   1      21.555  38.650  49.144  1.00  0.00    +0.000 C 
ATOM     20  C16 UNL A   1      22.369  39.914  49.189  1.00  0.00    +0.000 C 
ATOM     21  N3  UNL A   1      23.545  40.160  48.665  1.00  0.00    +0.000 N 
ATOM     22  C17 UNL A   1      23.834  41.481  48.984  1.00  0.00    +0.000 C 
ATOM     23  C18 UNL A   1      24.968  42.183  48.742  1.00  0.00    +0.000 C 
ATOM     35  C25 UNL A   1      26.117  41.660  48.047  1.00  0.00    +0.000 C 
ATOM     36  C26 UNL A   1      27.321  42.285  47.776  1.00  0.00    +0.000 C 
ATOM     37  C27 UNL A   1      28.120  41.402  47.040  1.00  0.00    +0.000 C 
ATOM     38  C28 UNL A   1      27.434  40.206  46.900  1.00  0.00    +0.000 C 
ATOM     39  N4  UNL A   1      26.202  40.382  47.513  1.00  0.00    +0.000 N 
ATOM     40  C29 UNL A   1      27.870  38.992  46.260  1.00  0.00    +0.000 C 
ATOM     52  C36 UNL A   1      27.130  37.860  46.163  1.00  0.00    +0.000 C 
ATOM     53  N5  UNL A   1      25.845  37.613  46.628  1.00  0.00    +0.000 N 
ATOM     54  C37 UNL A   1      25.560  36.386  46.264  1.00  0.00    +0.000 C 
ATOM     55  C38 UNL A   1      24.316  35.580  46.529  1.00  0.00    +0.000 C 
ATOM     67  C45 UNL A   1      23.322  36.125  47.255  1.00  0.00    +0.000 C 
ATOM     68  C46 UNL A   1      22.076  35.457  47.615  1.00  0.00    +0.000 C 
ATOM     69  C47 UNL A   1      21.308  36.308  48.313  1.00  0.00    +0.000 C 
ATOM     70  C48 UNL A   1      22.023  37.574  48.479  1.00  0.00    +0.000 C 
ATOM     71  N6  UNL A   1      23.208  37.374  47.815  1.00  0.00    +0.000 N 
ATOM     72  C49 UNL A   1      26.627  35.725  45.501  1.00  0.00    +0.000 C 
ATOM     73  C50 UNL A   1      27.578  36.647  45.513  1.00  0.00    +0.000 C 
ATOM     74  C51 UNL A   1      22.683  42.006  49.686  1.00  0.00    +0.000 C 
ATOM     75  C52 UNL A   1      21.778  41.061  49.895  1.00  0.00    +0.000 C 
ATOM    108  H21 UNL A   1      27.586  43.239  48.065  1.00  0.00    +0.000 H 
ATOM    109  H22 UNL A   1      29.059  41.607  46.666  1.00  0.00    +0.000 H 
ATOM    110  H23 UNL A   1      25.493  39.701  47.561  1.00  0.00    +0.000 H 
ATOM    111  H24 UNL A   1      21.825  34.485  47.373  1.00  0.00    +0.000 H 
ATOM    112  H25 UNL A   1      20.363  36.102  48.676  1.00  0.00    +0.000 H 
ATOM    113  H26 UNL A   1      23.910  38.061  47.748  1.00  0.00    +0.000 H 
ATOM    114  H27 UNL A   1      26.634  34.788  45.068  1.00  0.00    +0.000 H 
ATOM    115  H28 UNL A   1      28.519  36.518  45.109  1.00  0.00    +0.000 H 
ATOM    116  H29 UNL A   1      22.581  42.988  49.985  1.00  0.00    +0.000 H 
ATOM    117  H30 UNL A   1      20.889  41.115  50.416  1.00  0.00    +0.000 H 
ENDROOT
BRANCH   19   18
ATOM    106  H19 UNL A   1      18.615  37.054  52.331  1.00  0.00    +0.000 H 
ATOM    107  H20 UNL A   1      20.829  37.306  51.374  1.00  0.00    +0.000 H 
ATOM     76  C53 UNL A   1      19.131  39.292  49.273  1.00  0.00    +0.000 C 
ATOM     77  C54 UNL A   1      17.877  39.218  49.881  1.00  0.00    +0.000 C 
ATOM     15  C11 UNL A   1      17.670  38.351  50.957  1.00  0.00    +0.000 C 
ATOM     16  C12 UNL A   1      18.754  37.661  51.507  1.00  0.00    +0.000 C 
ATOM     17  C13 UNL A   1      20.026  37.792  50.945  1.00  0.00    +0.000 C 
ATOM     18  C14 UNL A   1      20.220  38.580  49.799  1.00  0.00    +0.000 C 
ATOM    118  H31 UNL A   1      19.259  39.874  48.430  1.00  0.00    +0.000 H 
ATOM    119  H32 UNL A   1      17.102  39.804  49.534  1.00  0.00    +0.000 H 
BRANCH   15   13
ATOM     13  C10 UNL A   1      16.332  38.162  51.564  1.00  0.00    +0.000 C 
ATOM     14  O2  UNL A   1      16.050  38.760  52.600  1.00  0.00    +0.000 O 
BRANCH   13   12
ATOM    105  H18 UNL A   1      15.352  36.426  51.432  1.00  0.00    +0.000 H 
ATOM     12  N2  UNL A   1      15.414  37.309  51.002  1.00  0.00    +0.000 N 
BRANCH   12   11
ATOM     11  C9  UNL A   1      14.521  37.505  49.873  1.00  0.00    +0.000 C 
ATOM    103  H16 UNL A   1      13.512  37.505  50.231  1.00  0.00    +0.000 H 
ATOM    104  H17 UNL A   1      14.781  38.437  49.416  1.00  0.00    +0.000 H 
BRANCH   11   10
ATOM     10  C8  UNL A   1      14.661  36.420  48.808  1.00  0.00    +0.000 C 
ATOM    101  H14 UNL A   1      14.984  35.522  49.292  1.00  0.00    +0.000 H 
ATOM    102  H15 UNL A   1      13.701  36.340  48.344  1.00  0.00    +0.000 H 
BRANCH   10    9
ATOM      9  C7  UNL A   1      15.647  36.726  47.678  1.00  0.00    +0.000 C 
ATOM     99  H12 UNL A   1      15.277  36.264  46.785  1.00  0.00    +0.000 H 
ATOM    100  H13 UNL A   1      15.706  37.792  47.622  1.00  0.00    +0.000 H 
BRANCH    9    8
ATOM     97  H10 UNL A   1      17.404  36.590  48.857  1.00  0.00    +0.000 H 
ATOM     98  H11 UNL A   1      17.043  35.173  47.817  1.00  0.00    +0.000 H 
ATOM      8  C6  UNL A   1      17.082  36.239  47.898  1.00  0.00    +0.000 C 
BRANCH    8    7
ATOM     95  H8  UNL A   1      18.127  37.770  46.859  1.00  0.00    +0.000 H 
ATOM      7  C5  UNL A   1      18.109  36.700  46.858  1.00  0.00    +0.000 C 
ATOM     96  H9  UNL A   1      19.042  36.260  47.143  1.00  0.00    +0.000 H 
BRANCH    7    6
ATOM     94  H7  UNL A   1      18.378  36.869  44.763  1.00  0.00    +0.000 H 
ATOM     93  H6  UNL A   1      16.783  36.286  45.244  1.00  0.00    +0.000 H 
ATOM      6  C4  UNL A   1      17.835  36.232  45.428  1.00  0.00    +0.000 C 
BRANCH    6    5
ATOM     92  H5  UNL A   1      17.566  34.191  45.281  1.00  0.00    +0.000 H 
ATOM      5  N1  UNL A   1      18.280  34.865  45.207  1.00  0.00    +0.000 N 
BRANCH    5    3
ATOM      3  C3  UNL A   1      19.510  34.346  44.915  1.00  0.00    +0.000 C 
ATOM      4  O1  UNL A   1      20.196  34.958  44.090  1.00  0.00    +0.000 O 
BRANCH    3    2
ATOM      2  C2  UNL A   1      20.042  33.058  45.570  1.00  0.00    +0.000 C 
ATOM     91  H4  UNL A   1      21.112  33.063  45.560  1.00  0.00    +0.000 H 
BRANCH    2    1
ATOM      1  C1  UNL A   1      19.566  33.035  47.031  1.00  0.00    +0.000 C 
ATOM     90  H3  UNL A   1      19.457  32.020  47.354  1.00  0.00    +0.000 H 
ATOM     89  H2  UNL A   1      20.285  33.530  47.649  1.00  0.00    +0.000 H 
ATOM     88  H1  UNL A   1      18.624  33.537  47.107  1.00  0.00    +0.000 H 
ENDBRANCH    2    1
BRANCH    2   78
ATOM     78  C55 UNL A   1      19.703  31.795  44.781  1.00  0.00    +0.000 C 
ATOM     79  C56 UNL A   1      20.200  30.533  45.155  1.00  0.00    +0.000 C 
ATOM     80  C57 UNL A   1      19.563  29.369  44.724  1.00  0.00    +0.000 C 
ATOM     81  C58 UNL A   1      18.411  29.490  43.959  1.00  0.00    +0.000 C 
ATOM     82  C59 UNL A   1      18.031  30.722  43.430  1.00  0.00    +0.000 C 
ATOM     83  C60 UNL A   1      18.743  31.862  43.759  1.00  0.00    +0.000 C 
ATOM     84  O3  UNL A   1      16.867  30.919  42.738  1.00  0.00    +0.000 O 
ATOM     85  C61 UNL A   1      15.895  29.889  42.957  1.00  0.00    +0.000 C 
ATOM     86  C62 UNL A   1      16.247  28.930  44.090  1.00  0.00    +0.000 C 
ATOM     87  O4  UNL A   1      17.568  28.408  43.890  1.00  0.00    +0.000 O 
ATOM    120  H33 UNL A   1      21.039  30.468  45.753  1.00  0.00    +0.000 H 
ATOM    121  H34 UNL A   1      19.942  28.440  44.966  1.00  0.00    +0.000 H 
ATOM    122  H35 UNL A   1      18.573  32.749  43.259  1.00  0.00    +0.000 H 
ATOM    123  H36 UNL A   1      15.797  29.322  42.054  1.00  0.00    +0.000 H 
ATOM    124  H37 UNL A   1      14.985  30.378  43.238  1.00  0.00    +0.000 H 
ATOM    125  H38 UNL A   1      15.544  28.123  44.104  1.00  0.00    +0.000 H 
ATOM    126  H39 UNL A   1      16.211  29.455  45.021  1.00  0.00    +0.000 H 
ENDBRANCH    2   78
ENDBRANCH    3    2
ENDBRANCH    5    3
ENDBRANCH    6    5
ENDBRANCH    7    6
ENDBRANCH    8    7
ENDBRANCH    9    8
ENDBRANCH   10    9
ENDBRANCH   11   10
ENDBRANCH   12   11
ENDBRANCH   13   12
ENDBRANCH   15   13
ENDBRANCH   19   18
BRANCH   23   24
ATOM     33  C24 UNL A   1      25.498  43.873  50.544  1.00  0.00    +0.000 C 
ATOM     34  F5  UNL A   1      25.933  42.881  51.335  1.00  0.00    +0.000 F 
ATOM     24  C19 UNL A   1      25.032  43.595  49.250  1.00  0.00    +0.000 C 
ATOM     25  C20 UNL A   1      24.582  44.673  48.471  1.00  0.00    +0.000 C 
ATOM     26  F1  UNL A   1      24.136  44.463  47.223  1.00  0.00    +0.000 F 
ATOM     27  C21 UNL A   1      24.620  45.976  48.958  1.00  0.00    +0.000 C 
ATOM     28  F2  UNL A   1      24.227  46.993  48.178  1.00  0.00    +0.000 F 
ATOM     29  C22 UNL A   1      25.072  46.226  50.244  1.00  0.00    +0.000 C 
ATOM     30  F3  UNL A   1      25.096  47.480  50.716  1.00  0.00    +0.000 F 
ATOM     31  C23 UNL A   1      25.504  45.176  51.039  1.00  0.00    +0.000 C 
ATOM     32  F4  UNL A   1      25.928  45.413  52.288  1.00  0.00    +0.000 F 
ENDBRANCH   23   24
BRANCH   40   41
ATOM     41  C30 UNL A   1      29.254  38.959  45.677  1.00  0.00    +0.000 C 
ATOM     42  C31 UNL A   1      29.534  39.492  44.410  1.00  0.00    +0.000 C 
ATOM     43  F6  UNL A   1      28.550  40.025  43.669  1.00  0.00    +0.000 F 
ATOM     44  C32 UNL A   1      30.819  39.433  43.876  1.00  0.00    +0.000 C 
ATOM     45  F7  UNL A   1      31.049  39.893  42.639  1.00  0.00    +0.000 F 
ATOM     46  C33 UNL A   1      31.855  38.879  44.613  1.00  0.00    +0.000 C 
ATOM     47  F8  UNL A   1      33.090  38.823  44.097  1.00  0.00    +0.000 F 
ATOM     48  C34 UNL A   1      31.607  38.372  45.880  1.00  0.00    +0.000 C 
ATOM     49  F9  UNL A   1      32.610  37.850  46.599  1.00  0.00    +0.000 F 
ATOM     50  C35 UNL A   1      30.317  38.399  46.403  1.00  0.00    +0.000 C 
ATOM     51  F10 UNL A   1      30.106  37.882  47.622  1.00  0.00    +0.000 F 
ENDBRANCH   40   41
BRANCH   55   56
ATOM     65  C44 UNL A   1      24.670  33.095  46.732  1.00  0.00    +0.000 C 
ATOM     66  F15 UNL A   1      25.293  33.286  47.903  1.00  0.00    +0.000 F 
ATOM     56  C39 UNL A   1      24.185  34.193  46.007  1.00  0.00    +0.000 C 
ATOM     57  C40 UNL A   1      23.549  33.935  44.784  1.00  0.00    +0.000 C 
ATOM     58  F11 UNL A   1      23.051  34.951  44.061  1.00  0.00    +0.000 F 
ATOM     59  C41 UNL A   1      23.373  32.632  44.323  1.00  0.00    +0.000 C 
ATOM     60  F12 UNL A   1      22.707  32.412  43.181  1.00  0.00    +0.000 F 
ATOM     61  C42 UNL A   1      23.866  31.563  45.056  1.00  0.00    +0.000 C 
ATOM     62  F13 UNL A   1      23.695  30.309  44.614  1.00  0.00    +0.000 F 
ATOM     63  C43 UNL A   1      24.524  31.795  46.253  1.00  0.00    +0.000 C 
ATOM     64  F14 UNL A   1      25.017  30.766  46.957  1.00  0.00    +0.000 F 
ENDBRANCH   55   56
TORSDOF 17
ENDMDL
MODEL 6
REMARK VINA RESULT:      -8.9     38.195     43.460
ROOT
ATOM     19  C15 UNL A   1      38.272  29.978  29.966  1.00  0.00    +0.000 C 
ATOM     20  C16 UNL A   1      38.580  30.490  31.347  1.00  0.00    +0.000 C 
ATOM     21  N3  UNL A   1      39.611  30.234  32.114  1.00  0.00    +0.000 N 
ATOM     22  C17 UNL A   1      39.414  30.973  33.273  1.00  0.00    +0.000 C 
ATOM     23  C18 UNL A   1      40.158  30.987  34.407  1.00  0.00    +0.000 C 
ATOM     35  C25 UNL A   1      41.362  30.219  34.599  1.00  0.00    +0.000 C 
ATOM     36  C26 UNL A   1      42.171  30.147  35.720  1.00  0.00    +0.000 C 
ATOM     37  C27 UNL A   1      43.252  29.307  35.430  1.00  0.00    +0.000 C 
ATOM     38  C28 UNL A   1      43.088  28.812  34.146  1.00  0.00    +0.000 C 
ATOM     39  N4  UNL A   1      41.931  29.389  33.644  1.00  0.00    +0.000 N 
ATOM     40  C29 UNL A   1      43.921  27.880  33.431  1.00  0.00    +0.000 C 
ATOM     52  C36 UNL A   1      43.690  27.448  32.167  1.00  0.00    +0.000 C 
ATOM     53  N5  UNL A   1      42.654  27.782  31.304  1.00  0.00    +0.000 N 
ATOM     54  C37 UNL A   1      42.887  27.129  30.192  1.00  0.00    +0.000 C 
ATOM     55  C38 UNL A   1      42.074  27.087  28.925  1.00  0.00    +0.000 C 
ATOM     67  C45 UNL A   1      40.920  27.777  28.863  1.00  0.00    +0.000 C 
ATOM     68  C46 UNL A   1      40.015  27.807  27.717  1.00  0.00    +0.000 C 
ATOM     69  C47 UNL A   1      38.984  28.620  27.994  1.00  0.00    +0.000 C 
ATOM     70  C48 UNL A   1      39.136  29.143  29.352  1.00  0.00    +0.000 C 
ATOM     71  N6  UNL A   1      40.316  28.592  29.789  1.00  0.00    +0.000 N 
ATOM     72  C49 UNL A   1      44.116  26.325  30.216  1.00  0.00    +0.000 C 
ATOM     73  C50 UNL A   1      44.538  26.514  31.458  1.00  0.00    +0.000 C 
ATOM     74  C51 UNL A   1      38.203  31.741  33.083  1.00  0.00    +0.000 C 
ATOM     75  C52 UNL A   1      37.615  31.430  31.936  1.00  0.00    +0.000 C 
ATOM    108  H21 UNL A   1      42.006  30.630  36.617  1.00  0.00    +0.000 H 
ATOM    109  H22 UNL A   1      44.037  29.093  36.064  1.00  0.00    +0.000 H 
ATOM    110  H23 UNL A   1      41.567  29.233  32.743  1.00  0.00    +0.000 H 
ATOM    111  H24 UNL A   1      40.148  27.286  26.836  1.00  0.00    +0.000 H 
ATOM    112  H25 UNL A   1      38.206  28.840  27.352  1.00  0.00    +0.000 H 
ATOM    113  H26 UNL A   1      40.692  28.763  30.682  1.00  0.00    +0.000 H 
ATOM    114  H27 UNL A   1      44.540  25.761  29.463  1.00  0.00    +0.000 H 
ATOM    115  H28 UNL A   1      45.366  26.054  31.867  1.00  0.00    +0.000 H 
ATOM    116  H29 UNL A   1      37.844  32.439  33.752  1.00  0.00    +0.000 H 
ATOM    117  H30 UNL A   1      36.716  31.762  31.556  1.00  0.00    +0.000 H 
ENDROOT
BRANCH   19   18
ATOM    106  H19 UNL A   1      35.637  33.114  27.829  1.00  0.00    +0.000 H 
ATOM    107  H20 UNL A   1      37.715  32.368  28.834  1.00  0.00    +0.000 H 
ATOM     76  C53 UNL A   1      35.974  29.513  29.071  1.00  0.00    +0.000 C 
ATOM     77  C54 UNL A   1      34.813  29.918  28.410  1.00  0.00    +0.000 C 
ATOM     15  C11 UNL A   1      34.661  31.250  28.014  1.00  0.00    +0.000 C 
ATOM     16  C12 UNL A   1      35.729  32.141  28.161  1.00  0.00    +0.000 C 
ATOM     17  C13 UNL A   1      36.918  31.716  28.756  1.00  0.00    +0.000 C 
ATOM     18  C14 UNL A   1      37.040  30.407  29.251  1.00  0.00    +0.000 C 
ATOM    118  H31 UNL A   1      36.049  28.548  29.430  1.00  0.00    +0.000 H 
ATOM    119  H32 UNL A   1      34.067  29.233  28.213  1.00  0.00    +0.000 H 
BRANCH   15   13
ATOM     13  C10 UNL A   1      33.406  31.747  27.405  1.00  0.00    +0.000 C 
ATOM     14  O2  UNL A   1      33.170  32.954  27.411  1.00  0.00    +0.000 O 
BRANCH   13   12
ATOM    105  H18 UNL A   1      31.614  30.872  27.301  1.00  0.00    +0.000 H 
ATOM     12  N2  UNL A   1      32.492  30.881  26.859  1.00  0.00    +0.000 N 
BRANCH   12   11
ATOM     11  C9  UNL A   1      32.618  29.973  25.731  1.00  0.00    +0.000 C 
ATOM    103  H16 UNL A   1      31.904  30.254  24.985  1.00  0.00    +0.000 H 
ATOM    104  H17 UNL A   1      33.622  30.049  25.369  1.00  0.00    +0.000 H 
BRANCH   11   10
ATOM     10  C8  UNL A   1      32.379  28.514  26.111  1.00  0.00    +0.000 C 
ATOM    101  H14 UNL A   1      32.129  28.481  27.151  1.00  0.00    +0.000 H 
ATOM    102  H15 UNL A   1      31.598  28.168  25.467  1.00  0.00    +0.000 H 
BRANCH   10    9
ATOM      9  C7  UNL A   1      33.560  27.568  25.880  1.00  0.00    +0.000 C 
ATOM     99  H12 UNL A   1      34.012  27.830  24.946  1.00  0.00    +0.000 H 
ATOM    100  H13 UNL A   1      34.204  27.694  26.724  1.00  0.00    +0.000 H 
BRANCH    9    8
ATOM     97  H10 UNL A   1      32.811  25.804  26.787  1.00  0.00    +0.000 H 
ATOM     98  H11 UNL A   1      32.534  25.959  25.021  1.00  0.00    +0.000 H 
ATOM      8  C6  UNL A   1      33.218  26.076  25.835  1.00  0.00    +0.000 C 
BRANCH    8    7
ATOM     95  H8  UNL A   1      35.282  25.718  25.478  1.00  0.00    +0.000 H 
ATOM      7  C5  UNL A   1      34.389  25.133  25.536  1.00  0.00    +0.000 C 
ATOM     96  H9  UNL A   1      34.403  24.413  26.328  1.00  0.00    +0.000 H 
BRANCH    7    6
ATOM     94  H7  UNL A   1      33.572  23.534  24.410  1.00  0.00    +0.000 H 
ATOM     93  H6  UNL A   1      35.224  23.966  23.962  1.00  0.00    +0.000 H 
ATOM      6  C4  UNL A   1      34.259  24.335  24.238  1.00  0.00    +0.000 C 
BRANCH    6    5
ATOM     92  H5  UNL A   1      34.193  26.015  23.039  1.00  0.00    +0.000 H 
ATOM      5  N1  UNL A   1      33.739  25.147  23.148  1.00  0.00    +0.000 N 
BRANCH    5    3
ATOM      3  C3  UNL A   1      32.734  24.926  22.250  1.00  0.00    +0.000 C 
ATOM      4  O1  UNL A   1      33.056  24.467  21.149  1.00  0.00    +0.000 O 
BRANCH    3    2
ATOM      2  C2  UNL A   1      31.257  25.227  22.567  1.00  0.00    +0.000 C 
ATOM     91  H4  UNL A   1      30.661  25.066  21.694  1.00  0.00    +0.000 H 
BRANCH    2    1
ATOM      1  C1  UNL A   1      30.798  24.251  23.662  1.00  0.00    +0.000 C 
ATOM     90  H3  UNL A   1      31.655  23.804  24.123  1.00  0.00    +0.000 H 
ATOM     89  H2  UNL A   1      30.232  24.781  24.399  1.00  0.00    +0.000 H 
ATOM     88  H1  UNL A   1      30.189  23.487  23.225  1.00  0.00    +0.000 H 
ENDBRANCH    2    1
BRANCH    2   78
ATOM     78  C55 UNL A   1      30.996  26.697  22.889  1.00  0.00    +0.000 C 
ATOM     79  C56 UNL A   1      31.911  27.706  22.536  1.00  0.00    +0.000 C 
ATOM     80  C57 UNL A   1      31.492  29.032  22.434  1.00  0.00    +0.000 C 
ATOM     81  C58 UNL A   1      30.151  29.320  22.643  1.00  0.00    +0.000 C 
ATOM     82  C59 UNL A   1      29.290  28.363  23.178  1.00  0.00    +0.000 C 
ATOM     83  C60 UNL A   1      29.745  27.075  23.400  1.00  0.00    +0.000 C 
ATOM     84  O3  UNL A   1      27.945  28.561  23.333  1.00  0.00    +0.000 O 
ATOM     85  C61 UNL A   1      27.433  29.637  22.536  1.00  0.00    +0.000 C 
ATOM     86  C62 UNL A   1      28.421  30.173  21.505  1.00  0.00    +0.000 C 
ATOM     87  O4  UNL A   1      29.660  30.503  22.147  1.00  0.00    +0.000 O 
ATOM    120  H33 UNL A   1      32.898  27.463  22.351  1.00  0.00    +0.000 H 
ATOM    121  H34 UNL A   1      32.165  29.782  22.208  1.00  0.00    +0.000 H 
ATOM    122  H35 UNL A   1      29.173  26.401  23.934  1.00  0.00    +0.000 H 
ATOM    123  H36 UNL A   1      27.161  30.439  23.190  1.00  0.00    +0.000 H 
ATOM    124  H37 UNL A   1      26.599  29.247  21.991  1.00  0.00    +0.000 H 
ATOM    125  H38 UNL A   1      28.014  31.049  21.045  1.00  0.00    +0.000 H 
ATOM    126  H39 UNL A   1      28.597  29.424  20.761  1.00  0.00    +0.000 H 
ENDBRANCH    2   78
ENDBRANCH    3    2
ENDBRANCH    5    3
ENDBRANCH    6    5
ENDBRANCH    7    6
ENDBRANCH    8    7
ENDBRANCH    9    8
ENDBRANCH   10    9
ENDBRANCH   11   10
ENDBRANCH   12   11
ENDBRANCH   13   12
ENDBRANCH   15   13
ENDBRANCH   19   18
BRANCH   23   24
ATOM     33  C24 UNL A   1      38.689  31.393  36.422  1.00  0.00    +0.000 C 
ATOM     34  F5  UNL A   1      38.180  30.159  36.288  1.00  0.00    +0.000 F 
ATOM     24  C19 UNL A   1      39.680  31.849  35.540  1.00  0.00    +0.000 C 
ATOM     25  C20 UNL A   1      40.170  33.152  35.724  1.00  0.00    +0.000 C 
ATOM     26  F1  UNL A   1      41.126  33.633  34.915  1.00  0.00    +0.000 F 
ATOM     27  C21 UNL A   1      39.704  33.955  36.760  1.00  0.00    +0.000 C 
ATOM     28  F2  UNL A   1      40.220  35.179  36.942  1.00  0.00    +0.000 F 
ATOM     29  C22 UNL A   1      38.714  33.488  37.611  1.00  0.00    +0.000 C 
ATOM     30  F3  UNL A   1      38.258  34.267  38.602  1.00  0.00    +0.000 F 
ATOM     31  C23 UNL A   1      38.202  32.211  37.439  1.00  0.00    +0.000 C 
ATOM     32  F4  UNL A   1      37.235  31.763  38.251  1.00  0.00    +0.000 F 
ENDBRANCH   23   24
BRANCH   40   41
ATOM     41  C30 UNL A   1      45.122  27.320  34.138  1.00  0.00    +0.000 C 
ATOM     42  C31 UNL A   1      46.375  27.949  34.078  1.00  0.00    +0.000 C 
ATOM     43  F6  UNL A   1      46.534  29.067  33.352  1.00  0.00    +0.000 F 
ATOM     44  C32 UNL A   1      47.482  27.404  34.722  1.00  0.00    +0.000 C 
ATOM     45  F7  UNL A   1      48.681  27.991  34.598  1.00  0.00    +0.000 F 
ATOM     46  C33 UNL A   1      47.351  26.245  35.471  1.00  0.00    +0.000 C 
ATOM     47  F8  UNL A   1      48.419  25.723  36.091  1.00  0.00    +0.000 F 
ATOM     48  C34 UNL A   1      46.117  25.621  35.569  1.00  0.00    +0.000 C 
ATOM     49  F9  UNL A   1      45.986  24.510  36.306  1.00  0.00    +0.000 F 
ATOM     50  C35 UNL A   1      45.015  26.146  34.899  1.00  0.00    +0.000 C 
ATOM     51  F10 UNL A   1      43.840  25.508  34.997  1.00  0.00    +0.000 F 
ENDBRANCH   40   41
BRANCH   55   56
ATOM     65  C44 UNL A   1      43.383  26.831  26.790  1.00  0.00    +0.000 C 
ATOM     66  F15 UNL A   1      43.780  28.108  26.887  1.00  0.00    +0.000 F 
ATOM     56  C39 UNL A   1      42.529  26.285  27.758  1.00  0.00    +0.000 C 
ATOM     57  C40 UNL A   1      42.139  24.946  27.601  1.00  0.00    +0.000 C 
ATOM     58  F11 UNL A   1      41.339  24.371  28.511  1.00  0.00    +0.000 F 
ATOM     59  C41 UNL A   1      42.613  24.178  26.540  1.00  0.00    +0.000 C 
ATOM     60  F12 UNL A   1      42.273  22.885  26.449  1.00  0.00    +0.000 F 
ATOM     61  C42 UNL A   1      43.453  24.742  25.592  1.00  0.00    +0.000 C 
ATOM     62  F13 UNL A   1      43.910  24.002  24.572  1.00  0.00    +0.000 F 
ATOM     63  C43 UNL A   1      43.828  26.071  25.710  1.00  0.00    +0.000 C 
ATOM     64  F14 UNL A   1      44.627  26.627  24.787  1.00  0.00    +0.000 F 
ENDBRANCH   55   56
TORSDOF 17
ENDMDL
MODEL 7
REMARK VINA RESULT:      -8.9     65.076     71.030
ROOT
ATOM     19  C15 UNL A   1      13.907  54.012   4.880  1.00  0.00    +0.000 C 
ATOM     20  C16 UNL A   1      14.833  54.438   3.774  1.00  0.00    +0.000 C 
ATOM     21  N3  UNL A   1      15.321  53.731   2.785  1.00  0.00    +0.000 N 
ATOM     22  C17 UNL A   1      16.103  54.606   2.042  1.00  0.00    +0.000 C 
ATOM     23  C18 UNL A   1      16.887  54.341   0.968  1.00  0.00    +0.000 C 
ATOM     35  C25 UNL A   1      17.025  53.041   0.363  1.00  0.00    +0.000 C 
ATOM     36  C26 UNL A   1      17.814  52.667  -0.711  1.00  0.00    +0.000 C 
ATOM     37  C27 UNL A   1      17.590  51.310  -0.971  1.00  0.00    +0.000 C 
ATOM     38  C28 UNL A   1      16.703  50.825  -0.023  1.00  0.00    +0.000 C 
ATOM     39  N4  UNL A   1      16.356  51.899   0.781  1.00  0.00    +0.000 N 
ATOM     40  C29 UNL A   1      16.211  49.481   0.139  1.00  0.00    +0.000 C 
ATOM     52  C36 UNL A   1      15.335  49.088   1.097  1.00  0.00    +0.000 C 
ATOM     53  N5  UNL A   1      14.733  49.844   2.094  1.00  0.00    +0.000 N 
ATOM     54  C37 UNL A   1      13.949  49.021   2.746  1.00  0.00    +0.000 C 
ATOM     55  C38 UNL A   1      13.079  49.286   3.946  1.00  0.00    +0.000 C 
ATOM     67  C45 UNL A   1      13.072  50.515   4.494  1.00  0.00    +0.000 C 
ATOM     68  C46 UNL A   1      12.305  50.911   5.671  1.00  0.00    +0.000 C 
ATOM     69  C47 UNL A   1      12.514  52.215   5.913  1.00  0.00    +0.000 C 
ATOM     70  C48 UNL A   1      13.458  52.741   4.926  1.00  0.00    +0.000 C 
ATOM     71  N6  UNL A   1      13.732  51.662   4.122  1.00  0.00    +0.000 N 
ATOM     72  C49 UNL A   1      13.946  47.651   2.216  1.00  0.00    +0.000 C 
ATOM     73  C50 UNL A   1      14.846  47.735   1.247  1.00  0.00    +0.000 C 
ATOM     74  C51 UNL A   1      15.969  55.911   2.652  1.00  0.00    +0.000 C 
ATOM     75  C52 UNL A   1      15.248  55.849   3.762  1.00  0.00    +0.000 C 
ATOM    108  H21 UNL A   1      18.456  53.283  -1.233  1.00  0.00    +0.000 H 
ATOM    109  H22 UNL A   1      18.013  50.764  -1.737  1.00  0.00    +0.000 H 
ATOM    110  H23 UNL A   1      15.726  51.859   1.537  1.00  0.00    +0.000 H 
ATOM    111  H24 UNL A   1      11.699  50.288   6.228  1.00  0.00    +0.000 H 
ATOM    112  H25 UNL A   1      12.078  52.759   6.674  1.00  0.00    +0.000 H 
ATOM    113  H26 UNL A   1      14.344  51.705   3.353  1.00  0.00    +0.000 H 
ATOM    114  H27 UNL A   1      13.390  46.836   2.520  1.00  0.00    +0.000 H 
ATOM    115  H28 UNL A   1      15.156  46.937   0.671  1.00  0.00    +0.000 H 
ATOM    116  H29 UNL A   1      16.382  56.777   2.273  1.00  0.00    +0.000 H 
ATOM    117  H30 UNL A   1      15.032  56.596   4.440  1.00  0.00    +0.000 H 
ENDROOT
BRANCH   19   18
ATOM    106  H19 UNL A   1      14.309  56.211   8.923  1.00  0.00    +0.000 H 
ATOM    107  H20 UNL A   1      15.140  54.761   7.166  1.00  0.00    +0.000 H 
ATOM     76  C53 UNL A   1      12.240  55.673   5.753  1.00  0.00    +0.000 C 
ATOM     77  C54 UNL A   1      11.807  56.578   6.724  1.00  0.00    +0.000 C 
ATOM     15  C11 UNL A   1      12.527  56.727   7.912  1.00  0.00    +0.000 C 
ATOM     16  C12 UNL A   1      13.751  56.069   8.066  1.00  0.00    +0.000 C 
ATOM     17  C13 UNL A   1      14.221  55.220   7.062  1.00  0.00    +0.000 C 
ATOM     18  C14 UNL A   1      13.452  54.984   5.910  1.00  0.00    +0.000 C 
ATOM    118  H31 UNL A   1      11.664  55.509   4.912  1.00  0.00    +0.000 H 
ATOM    119  H32 UNL A   1      10.955  57.136   6.563  1.00  0.00    +0.000 H 
BRANCH   15   13
ATOM     13  C10 UNL A   1      12.050  57.595   9.013  1.00  0.00    +0.000 C 
ATOM     14  O2  UNL A   1      12.284  58.802   8.975  1.00  0.00    +0.000 O 
BRANCH   13   12
ATOM    105  H18 UNL A   1      11.726  57.336  10.967  1.00  0.00    +0.000 H 
ATOM     12  N2  UNL A   1      11.375  57.070  10.087  1.00  0.00    +0.000 N 
BRANCH   12   11
ATOM     11  C9  UNL A   1      10.225  56.182  10.129  1.00  0.00    +0.000 C 
ATOM    103  H16 UNL A   1       9.542  56.542  10.870  1.00  0.00    +0.000 H 
ATOM    104  H17 UNL A   1       9.787  56.179   9.152  1.00  0.00    +0.000 H 
BRANCH   11   10
ATOM     10  C8  UNL A   1      10.597  54.740  10.467  1.00  0.00    +0.000 C 
ATOM    101  H14 UNL A   1       9.929  54.398  11.230  1.00  0.00    +0.000 H 
ATOM    102  H15 UNL A   1      10.523  54.196   9.550  1.00  0.00    +0.000 H 
BRANCH   10    9
ATOM      9  C7  UNL A   1      12.029  54.527  10.965  1.00  0.00    +0.000 C 
ATOM     99  H12 UNL A   1      12.563  55.445  10.832  1.00  0.00    +0.000 H 
ATOM    100  H13 UNL A   1      11.940  54.221  11.986  1.00  0.00    +0.000 H 
BRANCH    9    8
ATOM     97  H10 UNL A   1      12.336  52.486  10.477  1.00  0.00    +0.000 H 
ATOM     98  H11 UNL A   1      12.823  53.676   9.225  1.00  0.00    +0.000 H 
ATOM      8  C6  UNL A   1      12.818  53.418  10.264  1.00  0.00    +0.000 C 
BRANCH    8    7
ATOM     95  H8  UNL A   1      14.876  53.216   9.777  1.00  0.00    +0.000 H 
ATOM      7  C5  UNL A   1      14.291  53.289  10.669  1.00  0.00    +0.000 C 
ATOM     96  H9  UNL A   1      14.516  54.155  11.256  1.00  0.00    +0.000 H 
BRANCH    7    6
ATOM     94  H7  UNL A   1      14.125  51.228  11.131  1.00  0.00    +0.000 H 
ATOM     93  H6  UNL A   1      14.273  52.277  12.543  1.00  0.00    +0.000 H 
ATOM      6  C4  UNL A   1      14.615  52.081  11.549  1.00  0.00    +0.000 C 
BRANCH    6    5
ATOM     92  H5  UNL A   1      16.526  52.283  12.303  1.00  0.00    +0.000 H 
ATOM      5  N1  UNL A   1      16.043  51.804  11.590  1.00  0.00    +0.000 N 
BRANCH    5    3
ATOM      3  C3  UNL A   1      16.835  51.002  10.819  1.00  0.00    +0.000 C 
ATOM      4  O1  UNL A   1      17.728  50.373  11.397  1.00  0.00    +0.000 O 
BRANCH    3    2
ATOM      2  C2  UNL A   1      16.648  50.869   9.296  1.00  0.00    +0.000 C 
ATOM     91  H4  UNL A   1      16.054  51.682   8.934  1.00  0.00    +0.000 H 
BRANCH    2    1
ATOM      1  C1  UNL A   1      18.034  50.945   8.638  1.00  0.00    +0.000 C 
ATOM     90  H3  UNL A   1      18.791  50.905   9.395  1.00  0.00    +0.000 H 
ATOM     89  H2  UNL A   1      18.157  50.120   7.969  1.00  0.00    +0.000 H 
ATOM     88  H1  UNL A   1      18.121  51.863   8.095  1.00  0.00    +0.000 H 
ENDBRANCH    2    1
BRANCH    2   78
ATOM     78  C55 UNL A   1      15.829  49.645   8.893  1.00  0.00    +0.000 C 
ATOM     79  C56 UNL A   1      16.355  48.343   8.974  1.00  0.00    +0.000 C 
ATOM     80  C57 UNL A   1      15.503  47.240   9.028  1.00  0.00    +0.000 C 
ATOM     81  C58 UNL A   1      14.133  47.464   9.046  1.00  0.00    +0.000 C 
ATOM     82  C59 UNL A   1      13.612  48.727   8.772  1.00  0.00    +0.000 C 
ATOM     83  C60 UNL A   1      14.467  49.801   8.591  1.00  0.00    +0.000 C 
ATOM     84  O3  UNL A   1      12.279  49.028   8.853  1.00  0.00    +0.000 O 
ATOM     85  C61 UNL A   1      11.530  48.082   9.627  1.00  0.00    +0.000 C 
ATOM     86  C62 UNL A   1      12.391  47.089  10.401  1.00  0.00    +0.000 C 
ATOM     87  O4  UNL A   1      13.322  46.458   9.512  1.00  0.00    +0.000 O 
ATOM    120  H33 UNL A   1      17.378  48.203   8.994  1.00  0.00    +0.000 H 
ATOM    121  H34 UNL A   1      15.882  46.281   9.053  1.00  0.00    +0.000 H 
ATOM    122  H35 UNL A   1      14.109  50.703   8.238  1.00  0.00    +0.000 H 
ATOM    123  H36 UNL A   1      10.896  47.532   8.963  1.00  0.00    +0.000 H 
ATOM    124  H37 UNL A   1      10.980  48.645  10.353  1.00  0.00    +0.000 H 
ATOM    125  H38 UNL A   1      11.762  46.345  10.845  1.00  0.00    +0.000 H 
ATOM    126  H39 UNL A   1      12.929  47.609  11.166  1.00  0.00    +0.000 H 
ENDBRANCH    2   78
ENDBRANCH    3    2
ENDBRANCH    5    3
ENDBRANCH    6    5
ENDBRANCH    7    6
ENDBRANCH    8    7
ENDBRANCH    9    8
ENDBRANCH   10    9
ENDBRANCH   11   10
ENDBRANCH   12   11
ENDBRANCH   13   12
ENDBRANCH   15   13
ENDBRANCH   19   18
BRANCH   23   24
ATOM     33  C24 UNL A   1      17.196  56.193  -0.722  1.00  0.00    +0.000 C 
ATOM     34  F5  UNL A   1      16.002  55.894  -1.255  1.00  0.00    +0.000 F 
ATOM     24  C19 UNL A   1      17.676  55.479   0.386  1.00  0.00    +0.000 C 
ATOM     25  C20 UNL A   1      18.935  55.831   0.896  1.00  0.00    +0.000 C 
ATOM     26  F1  UNL A   1      19.436  55.186   1.961  1.00  0.00    +0.000 F 
ATOM     27  C21 UNL A   1      19.673  56.870   0.336  1.00  0.00    +0.000 C 
ATOM     28  F2  UNL A   1      20.853  57.217   0.869  1.00  0.00    +0.000 F 
ATOM     29  C22 UNL A   1      19.184  57.553  -0.768  1.00  0.00    +0.000 C 
ATOM     30  F3  UNL A   1      19.900  58.546  -1.314  1.00  0.00    +0.000 F 
ATOM     31  C23 UNL A   1      17.951  57.212  -1.300  1.00  0.00    +0.000 C 
ATOM     32  F4  UNL A   1      17.484  57.861  -2.375  1.00  0.00    +0.000 F 
ENDBRANCH   23   24
BRANCH   40   41
ATOM     41  C30 UNL A   1      16.720  48.424  -0.799  1.00  0.00    +0.000 C 
ATOM     42  C31 UNL A   1      17.956  47.792  -0.598  1.00  0.00    +0.000 C 
ATOM     43  F6  UNL A   1      18.735  48.144   0.437  1.00  0.00    +0.000 F 
ATOM     44  C32 UNL A   1      18.422  46.829  -1.490  1.00  0.00    +0.000 C 
ATOM     45  F7  UNL A   1      19.633  46.284  -1.311  1.00  0.00    +0.000 F 
ATOM     46  C33 UNL A   1      17.645  46.451  -2.575  1.00  0.00    +0.000 C 
ATOM     47  F8  UNL A   1      18.096  45.525  -3.432  1.00  0.00    +0.000 F 
ATOM     48  C34 UNL A   1      16.407  47.042  -2.778  1.00  0.00    +0.000 C 
ATOM     49  F9  UNL A   1      15.650  46.667  -3.817  1.00  0.00    +0.000 F 
ATOM     50  C35 UNL A   1      15.954  48.028  -1.906  1.00  0.00    +0.000 C 
ATOM     51  F10 UNL A   1      14.761  48.595  -2.141  1.00  0.00    +0.000 F 
ENDBRANCH   40   41
BRANCH   55   56
ATOM     65  C44 UNL A   1      12.781  47.281   5.440  1.00  0.00    +0.000 C 
ATOM     66  F15 UNL A   1      14.079  47.344   5.773  1.00  0.00    +0.000 F 
ATOM     56  C39 UNL A   1      12.243  48.203   4.531  1.00  0.00    +0.000 C 
ATOM     57  C40 UNL A   1      10.882  48.085   4.214  1.00  0.00    +0.000 C 
ATOM     58  F11 UNL A   1      10.315  48.955   3.365  1.00  0.00    +0.000 F 
ATOM     59  C41 UNL A   1      10.086  47.108   4.808  1.00  0.00    +0.000 C 
ATOM     60  F12 UNL A   1       8.775  47.057   4.532  1.00  0.00    +0.000 F 
ATOM     61  C42 UNL A   1      10.642  46.204   5.700  1.00  0.00    +0.000 C 
ATOM     62  F13 UNL A   1       9.876  45.266   6.272  1.00  0.00    +0.000 F 
ATOM     63  C43 UNL A   1      11.991  46.283   6.007  1.00  0.00    +0.000 C 
ATOM     64  F14 UNL A   1      12.538  45.401   6.856  1.00  0.00    +0.000 F 
ENDBRANCH   55   56
TORSDOF 17
ENDMDL
MODEL 8
REMARK VINA RESULT:      -8.9     44.060     47.213
ROOT
ATOM     19  C15 UNL A   1      53.306  19.460  11.539  1.00  0.00    +0.000 C 
ATOM     20  C16 UNL A   1      54.651  18.796  11.430  1.00  0.00    +0.000 C 
ATOM     21  N3  UNL A   1      55.649  18.803  12.278  1.00  0.00    +0.000 N 
ATOM     22  C17 UNL A   1      56.643  18.023  11.701  1.00  0.00    +0.000 C 
ATOM     23  C18 UNL A   1      57.903  17.789  12.146  1.00  0.00    +0.000 C 
ATOM     35  C25 UNL A   1      58.443  18.313  13.374  1.00  0.00    +0.000 C 
ATOM     36  C26 UNL A   1      59.714  18.152  13.897  1.00  0.00    +0.000 C 
ATOM     37  C27 UNL A   1      59.768  18.807  15.133  1.00  0.00    +0.000 C 
ATOM     38  C28 UNL A   1      58.546  19.422  15.355  1.00  0.00    +0.000 C 
ATOM     39  N4  UNL A   1      57.739  19.101  14.274  1.00  0.00    +0.000 N 
ATOM     40  C29 UNL A   1      58.145  20.244  16.466  1.00  0.00    +0.000 C 
ATOM     52  C36 UNL A   1      56.920  20.808  16.610  1.00  0.00    +0.000 C 
ATOM     53  N5  UNL A   1      55.818  20.732  15.768  1.00  0.00    +0.000 N 
ATOM     54  C37 UNL A   1      54.869  21.418  16.355  1.00  0.00    +0.000 C 
ATOM     55  C38 UNL A   1      53.469  21.703  15.880  1.00  0.00    +0.000 C 
ATOM     67  C45 UNL A   1      53.074  21.236  14.680  1.00  0.00    +0.000 C 
ATOM     68  C46 UNL A   1      51.763  21.457  14.078  1.00  0.00    +0.000 C 
ATOM     69  C47 UNL A   1      51.711  20.821  12.897  1.00  0.00    +0.000 C 
ATOM     70  C48 UNL A   1      52.998  20.174  12.642  1.00  0.00    +0.000 C 
ATOM     71  N6  UNL A   1      53.744  20.471  13.756  1.00  0.00    +0.000 N 
ATOM     72  C49 UNL A   1      55.255  21.987  17.653  1.00  0.00    +0.000 C 
ATOM     73  C50 UNL A   1      56.529  21.630  17.735  1.00  0.00    +0.000 C 
ATOM     74  C51 UNL A   1      56.104  17.499  10.465  1.00  0.00    +0.000 C 
ATOM     75  C52 UNL A   1      54.901  17.998  10.220  1.00  0.00    +0.000 C 
ATOM    108  H21 UNL A   1      60.490  17.638  13.452  1.00  0.00    +0.000 H 
ATOM    109  H22 UNL A   1      60.579  18.828  15.770  1.00  0.00    +0.000 H 
ATOM    110  H23 UNL A   1      56.804  19.389  14.161  1.00  0.00    +0.000 H 
ATOM    111  H24 UNL A   1      50.999  22.013  14.493  1.00  0.00    +0.000 H 
ATOM    112  H25 UNL A   1      50.892  20.793  12.268  1.00  0.00    +0.000 H 
ATOM    113  H26 UNL A   1      54.671  20.166  13.880  1.00  0.00    +0.000 H 
ATOM    114  H27 UNL A   1      54.685  22.524  18.324  1.00  0.00    +0.000 H 
ATOM    115  H28 UNL A   1      57.160  21.901  18.504  1.00  0.00    +0.000 H 
ATOM    116  H29 UNL A   1      56.592  16.826   9.855  1.00  0.00    +0.000 H 
ATOM    117  H30 UNL A   1      54.296  17.862   9.395  1.00  0.00    +0.000 H 
ENDROOT
BRANCH   19   18
ATOM    106  H19 UNL A   1      50.018  17.140   9.270  1.00  0.00    +0.000 H 
ATOM    107  H20 UNL A   1      51.540  17.455  11.131  1.00  0.00    +0.000 H 
ATOM     76  C53 UNL A   1      52.144  20.311   9.483  1.00  0.00    +0.000 C 
ATOM     77  C54 UNL A   1      51.201  20.170   8.464  1.00  0.00    +0.000 C 
ATOM     15  C11 UNL A   1      50.471  18.985   8.345  1.00  0.00    +0.000 C 
ATOM     16  C12 UNL A   1      50.589  17.998   9.328  1.00  0.00    +0.000 C 
ATOM     17  C13 UNL A   1      51.479  18.172  10.390  1.00  0.00    +0.000 C 
ATOM     18  C14 UNL A   1      52.293  19.314  10.459  1.00  0.00    +0.000 C 
ATOM    118  H31 UNL A   1      52.736  21.156   9.520  1.00  0.00    +0.000 H 
ATOM    119  H32 UNL A   1      51.045  20.942   7.797  1.00  0.00    +0.000 H 
BRANCH   15   13
ATOM     13  C10 UNL A   1      49.538  18.749   7.219  1.00  0.00    +0.000 C 
ATOM     14  O2  UNL A   1      49.130  17.610   7.002  1.00  0.00    +0.000 O 
BRANCH   13   12
ATOM    105  H18 UNL A   1      49.382  20.677   6.719  1.00  0.00    +0.000 H 
ATOM     12  N2  UNL A   1      49.144  19.778   6.399  1.00  0.00    +0.000 N 
BRANCH   12   11
ATOM     11  C9  UNL A   1      48.430  19.747   5.133  1.00  0.00    +0.000 C 
ATOM    103  H16 UNL A   1      48.843  20.495   4.489  1.00  0.00    +0.000 H 
ATOM    104  H17 UNL A   1      48.543  18.764   4.725  1.00  0.00    +0.000 H 
BRANCH   11   10
ATOM     10  C8  UNL A   1      46.933  20.008   5.287  1.00  0.00    +0.000 C 
ATOM    101  H14 UNL A   1      46.619  19.585   6.219  1.00  0.00    +0.000 H 
ATOM    102  H15 UNL A   1      46.814  21.068   5.229  1.00  0.00    +0.000 H 
BRANCH   10    9
ATOM      9  C7  UNL A   1      46.044  19.426   4.184  1.00  0.00    +0.000 C 
ATOM     99  H12 UNL A   1      46.677  19.134   3.373  1.00  0.00    +0.000 H 
ATOM    100  H13 UNL A   1      45.513  18.615   4.635  1.00  0.00    +0.000 H 
BRANCH    9    8
ATOM     97  H10 UNL A   1      44.366  20.695   4.448  1.00  0.00    +0.000 H 
ATOM     98  H11 UNL A   1      45.505  21.160   3.142  1.00  0.00    +0.000 H 
ATOM      8  C6  UNL A   1      44.973  20.369   3.629  1.00  0.00    +0.000 C 
BRANCH    8    7
ATOM     95  H8  UNL A   1      43.705  20.567   1.935  1.00  0.00    +0.000 H 
ATOM      7  C5  UNL A   1      44.047  19.772   2.564  1.00  0.00    +0.000 C 
ATOM     96  H9  UNL A   1      44.625  19.037   2.043  1.00  0.00    +0.000 H 
BRANCH    7    6
ATOM     94  H7  UNL A   1      42.446  19.600   3.941  1.00  0.00    +0.000 H 
ATOM     93  H6  UNL A   1      43.111  18.054   3.408  1.00  0.00    +0.000 H 
ATOM      6  C4  UNL A   1      42.821  19.040   3.111  1.00  0.00    +0.000 C 
BRANCH    6    5
ATOM     92  H5  UNL A   1      42.011  18.440   1.309  1.00  0.00    +0.000 H 
ATOM      5  N1  UNL A   1      41.759  18.938   2.121  1.00  0.00    +0.000 N 
BRANCH    5    3
ATOM      3  C3  UNL A   1      40.477  19.408   2.113  1.00  0.00    +0.000 C 
ATOM      4  O1  UNL A   1      39.607  18.674   2.594  1.00  0.00    +0.000 O 
BRANCH    3    2
ATOM      2  C2  UNL A   1      40.103  20.785   1.535  1.00  0.00    +0.000 C 
ATOM     91  H4  UNL A   1      40.127  21.521   2.312  1.00  0.00    +0.000 H 
BRANCH    2    1
ATOM      1  C1  UNL A   1      41.151  21.157   0.475  1.00  0.00    +0.000 C 
ATOM     90  H3  UNL A   1      42.127  20.908   0.837  1.00  0.00    +0.000 H 
ATOM     89  H2  UNL A   1      40.956  20.614  -0.426  1.00  0.00    +0.000 H 
ATOM     88  H1  UNL A   1      41.101  22.208   0.277  1.00  0.00    +0.000 H 
ENDBRANCH    2    1
BRANCH    2   78
ATOM     78  C55 UNL A   1      38.659  20.862   1.042  1.00  0.00    +0.000 C 
ATOM     79  C56 UNL A   1      37.582  21.039   1.931  1.00  0.00    +0.000 C 
ATOM     80  C57 UNL A   1      36.363  21.533   1.469  1.00  0.00    +0.000 C 
ATOM     81  C58 UNL A   1      36.255  21.886   0.132  1.00  0.00    +0.000 C 
ATOM     82  C59 UNL A   1      37.247  21.534  -0.782  1.00  0.00    +0.000 C 
ATOM     83  C60 UNL A   1      38.408  20.925  -0.337  1.00  0.00    +0.000 C 
ATOM     84  O3  UNL A   1      37.237  21.921  -2.094  1.00  0.00    +0.000 O 
ATOM     85  C61 UNL A   1      36.373  23.036  -2.350  1.00  0.00    +0.000 C 
ATOM     86  C62 UNL A   1      35.843  23.715  -1.092  1.00  0.00    +0.000 C 
ATOM     87  O4  UNL A   1      35.241  22.739  -0.231  1.00  0.00    +0.000 O 
ATOM    120  H33 UNL A   1      37.696  20.802   2.929  1.00  0.00    +0.000 H 
ATOM    121  H34 UNL A   1      35.558  21.633   2.109  1.00  0.00    +0.000 H 
ATOM    122  H35 UNL A   1      39.079  20.521  -1.010  1.00  0.00    +0.000 H 
ATOM    123  H36 UNL A   1      35.538  22.690  -2.923  1.00  0.00    +0.000 H 
ATOM    124  H37 UNL A   1      36.958  23.766  -2.872  1.00  0.00    +0.000 H 
ATOM    125  H38 UNL A   1      35.112  24.448  -1.365  1.00  0.00    +0.000 H 
ATOM    126  H39 UNL A   1      36.653  24.190  -0.578  1.00  0.00    +0.000 H 
ENDBRANCH    2   78
ENDBRANCH    3    2
ENDBRANCH    5    3
ENDBRANCH    6    5
ENDBRANCH    7    6
ENDBRANCH    8    7
ENDBRANCH    9    8
ENDBRANCH   10    9
ENDBRANCH   11   10
ENDBRANCH   12   11
ENDBRANCH   13   12
ENDBRANCH   15   13
ENDBRANCH   19   18
BRANCH   23   24
ATOM     33  C24 UNL A   1      59.532  17.505  10.235  1.00  0.00    +0.000 C 
ATOM     34  F5  UNL A   1      59.480  18.826  10.007  1.00  0.00    +0.000 F 
ATOM     24  C19 UNL A   1      58.795  16.939  11.286  1.00  0.00    +0.000 C 
ATOM     25  C20 UNL A   1      58.882  15.550  11.473  1.00  0.00    +0.000 C 
ATOM     26  F1  UNL A   1      58.206  14.960  12.471  1.00  0.00    +0.000 F 
ATOM     27  C21 UNL A   1      59.691  14.765  10.657  1.00  0.00    +0.000 C 
ATOM     28  F2  UNL A   1      59.792  13.448  10.883  1.00  0.00    +0.000 F 
ATOM     29  C22 UNL A   1      60.400  15.345   9.615  1.00  0.00    +0.000 C 
ATOM     30  F3  UNL A   1      61.169  14.586   8.823  1.00  0.00    +0.000 F 
ATOM     31  C23 UNL A   1      60.315  16.711   9.400  1.00  0.00    +0.000 C 
ATOM     32  F4  UNL A   1      60.988  17.271   8.386  1.00  0.00    +0.000 F 
ENDBRANCH   23   24
BRANCH   40   41
ATOM     41  C30 UNL A   1      59.159  20.526  17.539  1.00  0.00    +0.000 C 
ATOM     42  C31 UNL A   1      59.971  21.670  17.506  1.00  0.00    +0.000 C 
ATOM     43  F6  UNL A   1      59.876  22.535  16.484  1.00  0.00    +0.000 F 
ATOM     44  C32 UNL A   1      60.920  21.904  18.497  1.00  0.00    +0.000 C 
ATOM     45  F7  UNL A   1      61.726  22.972  18.411  1.00  0.00    +0.000 F 
ATOM     46  C33 UNL A   1      61.048  21.023  19.560  1.00  0.00    +0.000 C 
ATOM     47  F8  UNL A   1      61.962  21.250  20.513  1.00  0.00    +0.000 F 
ATOM     48  C34 UNL A   1      60.237  19.901  19.629  1.00  0.00    +0.000 C 
ATOM     49  F9  UNL A   1      60.350  19.057  20.663  1.00  0.00    +0.000 F 
ATOM     50  C35 UNL A   1      59.310  19.647  18.622  1.00  0.00    +0.000 C 
ATOM     51  F10 UNL A   1      58.555  18.542  18.707  1.00  0.00    +0.000 F 
ENDBRANCH   40   41
BRANCH   55   56
ATOM     65  C44 UNL A   1      51.810  21.910  17.763  1.00  0.00    +0.000 C 
ATOM     66  F15 UNL A   1      51.933  20.597  18.007  1.00  0.00    +0.000 F 
ATOM     56  C39 UNL A   1      52.531  22.500  16.715  1.00  0.00    +0.000 C 
ATOM     57  C40 UNL A   1      52.357  23.875  16.500  1.00  0.00    +0.000 C 
ATOM     58  F11 UNL A   1      53.040  24.491  15.523  1.00  0.00    +0.000 F 
ATOM     59  C41 UNL A   1      51.525  24.633  17.320  1.00  0.00    +0.000 C 
ATOM     60  F12 UNL A   1      51.425  25.956  17.130  1.00  0.00    +0.000 F 
ATOM     61  C42 UNL A   1      50.818  24.026  18.347  1.00  0.00    +0.000 C 
ATOM     62  F13 UNL A   1      50.019  24.756  19.137  1.00  0.00    +0.000 F 
ATOM     63  C43 UNL A   1      50.951  22.663  18.561  1.00  0.00    +0.000 C 
ATOM     64  F14 UNL A   1      50.257  22.067  19.541  1.00  0.00    +0.000 F 
ENDBRANCH   55   56
TORSDOF 17
ENDMDL
MODEL 9
REMARK VINA RESULT:      -8.9     37.738     43.116
ROOT
ATOM     19  C15 UNL A   1      38.254  29.943  29.873  1.00  0.00    +0.000 C 
ATOM     20  C16 UNL A   1      38.515  30.474  31.256  1.00  0.00    +0.000 C 
ATOM     21  N3  UNL A   1      39.528  30.244  32.054  1.00  0.00    +0.000 N 
ATOM     22  C17 UNL A   1      39.287  30.991  33.199  1.00  0.00    +0.000 C 
ATOM     23  C18 UNL A   1      39.999  31.030  34.353  1.00  0.00    +0.000 C 
ATOM     35  C25 UNL A   1      41.209  30.284  34.588  1.00  0.00    +0.000 C 
ATOM     36  C26 UNL A   1      41.987  30.238  35.731  1.00  0.00    +0.000 C 
ATOM     37  C27 UNL A   1      43.090  29.414  35.480  1.00  0.00    +0.000 C 
ATOM     38  C28 UNL A   1      42.970  28.902  34.197  1.00  0.00    +0.000 C 
ATOM     39  N4  UNL A   1      41.818  29.454  33.657  1.00  0.00    +0.000 N 
ATOM     40  C29 UNL A   1      43.838  27.978  33.516  1.00  0.00    +0.000 C 
ATOM     52  C36 UNL A   1      43.649  27.528  32.250  1.00  0.00    +0.000 C 
ATOM     53  N5  UNL A   1      42.633  27.836  31.356  1.00  0.00    +0.000 N 
ATOM     54  C37 UNL A   1      42.908  27.175  30.258  1.00  0.00    +0.000 C 
ATOM     55  C38 UNL A   1      42.131  27.106  28.970  1.00  0.00    +0.000 C 
ATOM     67  C45 UNL A   1      40.968  27.775  28.867  1.00  0.00    +0.000 C 
ATOM     68  C46 UNL A   1      40.095  27.778  27.697  1.00  0.00    +0.000 C 
ATOM     69  C47 UNL A   1      39.043  28.576  27.937  1.00  0.00    +0.000 C 
ATOM     70  C48 UNL A   1      39.148  29.116  29.293  1.00  0.00    +0.000 C 
ATOM     71  N6  UNL A   1      40.324  28.590  29.768  1.00  0.00    +0.000 N 
ATOM     72  C49 UNL A   1      44.149  26.392  30.324  1.00  0.00    +0.000 C 
ATOM     73  C50 UNL A   1      44.532  26.601  31.576  1.00  0.00    +0.000 C 
ATOM     74  C51 UNL A   1      38.069  31.737  32.967  1.00  0.00    +0.000 C 
ATOM     75  C52 UNL A   1      37.518  31.404  31.809  1.00  0.00    +0.000 C 
ATOM    108  H21 UNL A   1      41.789  30.727  36.617  1.00  0.00    +0.000 H 
ATOM    109  H22 UNL A   1      43.861  29.219  36.137  1.00  0.00    +0.000 H 
ATOM    110  H23 UNL A   1      41.482  29.283  32.748  1.00  0.00    +0.000 H 
ATOM    111  H24 UNL A   1      40.260  27.250  26.826  1.00  0.00    +0.000 H 
ATOM    112  H25 UNL A   1      38.280  28.777  27.271  1.00  0.00    +0.000 H 
ATOM    113  H26 UNL A   1      40.673  28.777  30.669  1.00  0.00    +0.000 H 
ATOM    114  H27 UNL A   1      44.603  25.827  29.590  1.00  0.00    +0.000 H 
ATOM    115  H28 UNL A   1      45.356  26.160  32.013  1.00  0.00    +0.000 H 
ATOM    116  H29 UNL A   1      37.680  32.435  33.619  1.00  0.00    +0.000 H 
ATOM    117  H30 UNL A   1      36.624  31.717  31.400  1.00  0.00    +0.000 H 
ENDROOT
BRANCH   19   18
ATOM    106  H19 UNL A   1      35.564  33.040  27.749  1.00  0.00    +0.000 H 
ATOM    107  H20 UNL A   1      37.629  32.351  28.818  1.00  0.00    +0.000 H 
ATOM     76  C53 UNL A   1      36.025  29.408  28.852  1.00  0.00    +0.000 C 
ATOM     77  C54 UNL A   1      34.876  29.786  28.154  1.00  0.00    +0.000 C 
ATOM     15  C11 UNL A   1      34.675  31.125  27.809  1.00  0.00    +0.000 C 
ATOM     16  C12 UNL A   1      35.689  32.059  28.043  1.00  0.00    +0.000 C 
ATOM     17  C13 UNL A   1      36.870  31.665  28.676  1.00  0.00    +0.000 C 
ATOM     18  C14 UNL A   1      37.035  30.343  29.120  1.00  0.00    +0.000 C 
ATOM    118  H31 UNL A   1      36.131  28.433  29.173  1.00  0.00    +0.000 H 
ATOM    119  H32 UNL A   1      34.175  29.075  27.894  1.00  0.00    +0.000 H 
BRANCH   15   13
ATOM     13  C10 UNL A   1      33.425  31.588  27.163  1.00  0.00    +0.000 C 
ATOM     14  O2  UNL A   1      32.998  32.713  27.414  1.00  0.00    +0.000 O 
BRANCH   13   12
ATOM    105  H18 UNL A   1      32.989  30.833  25.366  1.00  0.00    +0.000 H 
ATOM     12  N2  UNL A   1      32.724  30.771  26.311  1.00  0.00    +0.000 N 
BRANCH   12   11
ATOM     11  C9  UNL A   1      31.650  29.831  26.586  1.00  0.00    +0.000 C 
ATOM    103  H16 UNL A   1      31.325  29.970  27.596  1.00  0.00    +0.000 H 
ATOM    104  H17 UNL A   1      30.866  30.026  25.885  1.00  0.00    +0.000 H 
BRANCH   11   10
ATOM     10  C8  UNL A   1      32.073  28.375  26.405  1.00  0.00    +0.000 C 
ATOM    101  H14 UNL A   1      32.255  27.962  27.376  1.00  0.00    +0.000 H 
ATOM    102  H15 UNL A   1      31.274  27.901  25.876  1.00  0.00    +0.000 H 
BRANCH   10    9
ATOM      9  C7  UNL A   1      33.328  28.151  25.556  1.00  0.00    +0.000 C 
ATOM     99  H12 UNL A   1      33.122  28.507  24.568  1.00  0.00    +0.000 H 
ATOM    100  H13 UNL A   1      34.114  28.678  26.053  1.00  0.00    +0.000 H 
BRANCH    9    8
ATOM     97  H10 UNL A   1      34.800  26.650  25.830  1.00  0.00    +0.000 H 
ATOM     98  H11 UNL A   1      33.095  26.118  25.996  1.00  0.00    +0.000 H 
ATOM      8  C6  UNL A   1      33.803  26.700  25.444  1.00  0.00    +0.000 C 
BRANCH    8    7
ATOM     95  H8  UNL A   1      34.810  25.781  23.814  1.00  0.00    +0.000 H 
ATOM      7  C5  UNL A   1      33.815  26.110  24.029  1.00  0.00    +0.000 C 
ATOM     96  H9  UNL A   1      33.096  25.318  24.028  1.00  0.00    +0.000 H 
BRANCH    7    6
ATOM     94  H7  UNL A   1      34.053  26.948  22.097  1.00  0.00    +0.000 H 
ATOM     93  H6  UNL A   1      33.428  28.075  23.303  1.00  0.00    +0.000 H 
ATOM      6  C4  UNL A   1      33.387  27.076  22.923  1.00  0.00    +0.000 C 
BRANCH    6    5
ATOM     92  H5  UNL A   1      31.980  26.116  21.758  1.00  0.00    +0.000 H 
ATOM      5  N1  UNL A   1      32.035  26.807  22.457  1.00  0.00    +0.000 N 
BRANCH    5    3
ATOM      3  C3  UNL A   1      30.828  27.339  22.814  1.00  0.00    +0.000 C 
ATOM      4  O1  UNL A   1      30.428  28.308  22.162  1.00  0.00    +0.000 O 
BRANCH    3    2
ATOM      2  C2  UNL A   1      29.985  26.776  23.973  1.00  0.00    +0.000 C 
ATOM     91  H4  UNL A   1      30.241  27.279  24.882  1.00  0.00    +0.000 H 
BRANCH    2    1
ATOM      1  C1  UNL A   1      28.506  27.050  23.661  1.00  0.00    +0.000 C 
ATOM     90  H3  UNL A   1      28.434  27.666  22.788  1.00  0.00    +0.000 H 
ATOM     89  H2  UNL A   1      28.000  26.124  23.486  1.00  0.00    +0.000 H 
ATOM     88  H1  UNL A   1      28.053  27.553  24.491  1.00  0.00    +0.000 H 
ENDBRANCH    2    1
BRANCH    2   78
ATOM     78  C55 UNL A   1      30.297  25.316  24.294  1.00  0.00    +0.000 C 
ATOM     79  C56 UNL A   1      30.431  24.348  23.282  1.00  0.00    +0.000 C 
ATOM     80  C57 UNL A   1      31.124  23.163  23.528  1.00  0.00    +0.000 C 
ATOM     81  C58 UNL A   1      31.711  22.986  24.774  1.00  0.00    +0.000 C 
ATOM     82  C59 UNL A   1      31.418  23.847  25.830  1.00  0.00    +0.000 C 
ATOM     83  C60 UNL A   1      30.622  24.959  25.612  1.00  0.00    +0.000 C 
ATOM     84  O3  UNL A   1      32.024  23.773  27.054  1.00  0.00    +0.000 O 
ATOM     85  C61 UNL A   1      33.251  23.032  27.037  1.00  0.00    +0.000 C 
ATOM     86  C62 UNL A   1      33.756  22.697  25.637  1.00  0.00    +0.000 C 
ATOM     87  O4  UNL A   1      32.716  22.056  24.886  1.00  0.00    +0.000 O 
ATOM    120  H33 UNL A   1      30.015  24.516  22.352  1.00  0.00    +0.000 H 
ATOM    121  H34 UNL A   1      31.197  22.433  22.801  1.00  0.00    +0.000 H 
ATOM    122  H35 UNL A   1      30.271  25.516  26.407  1.00  0.00    +0.000 H 
ATOM    123  H36 UNL A   1      33.098  22.116  27.568  1.00  0.00    +0.000 H 
ATOM    124  H37 UNL A   1      33.993  23.655  27.492  1.00  0.00    +0.000 H 
ATOM    125  H38 UNL A   1      34.598  22.040  25.711  1.00  0.00    +0.000 H 
ATOM    126  H39 UNL A   1      34.047  23.599  25.140  1.00  0.00    +0.000 H 
ENDBRANCH    2   78
ENDBRANCH    3    2
ENDBRANCH    5    3
ENDBRANCH    6    5
ENDBRANCH    7    6
ENDBRANCH    8    7
ENDBRANCH    9    8
ENDBRANCH   10    9
ENDBRANCH   11   10
ENDBRANCH   12   11
ENDBRANCH   13   12
ENDBRANCH   15   13
ENDBRANCH   19   18
BRANCH   23   24
ATOM     33  C24 UNL A   1      39.938  33.209  35.630  1.00  0.00    +0.000 C 
ATOM     34  F5  UNL A   1      40.829  33.727  34.772  1.00  0.00    +0.000 F 
ATOM     24  C19 UNL A   1      39.475  31.895  35.464  1.00  0.00    +0.000 C 
ATOM     25  C20 UNL A   1      38.548  31.405  36.397  1.00  0.00    +0.000 C 
ATOM     26  F1  UNL A   1      38.065  30.158  36.277  1.00  0.00    +0.000 F 
ATOM     27  C21 UNL A   1      38.086  32.203  37.439  1.00  0.00    +0.000 C 
ATOM     28  F2  UNL A   1      37.167  31.727  38.291  1.00  0.00    +0.000 F 
ATOM     29  C22 UNL A   1      38.568  33.494  37.592  1.00  0.00    +0.000 C 
ATOM     30  F3  UNL A   1      38.131  34.258  38.603  1.00  0.00    +0.000 F 
ATOM     31  C23 UNL A   1      39.497  33.995  36.693  1.00  0.00    +0.000 C 
ATOM     32  F4  UNL A   1      39.974  35.237  36.848  1.00  0.00    +0.000 F 
ENDBRANCH   23   24
BRANCH   40   41
ATOM     41  C30 UNL A   1      45.028  27.445  34.262  1.00  0.00    +0.000 C 
ATOM     42  C31 UNL A   1      44.954  26.274  35.032  1.00  0.00    +0.000 C 
ATOM     43  F6  UNL A   1      43.792  25.611  35.141  1.00  0.00    +0.000 F 
ATOM     44  C32 UNL A   1      46.061  25.806  35.734  1.00  0.00    +0.000 C 
ATOM     45  F7  UNL A   1      45.949  24.720  36.511  1.00  0.00    +0.000 F 
ATOM     46  C33 UNL A   1      47.273  26.475  35.649  1.00  0.00    +0.000 C 
ATOM     47  F8  UNL A   1      48.337  26.023  36.325  1.00  0.00    +0.000 F 
ATOM     48  C34 UNL A   1      47.378  27.618  34.872  1.00  0.00    +0.000 C 
ATOM     49  F9  UNL A   1      48.552  28.257  34.777  1.00  0.00    +0.000 F 
ATOM     50  C35 UNL A   1      46.263  28.107  34.195  1.00  0.00    +0.000 C 
ATOM     51  F10 UNL A   1      46.393  29.226  33.468  1.00  0.00    +0.000 F 
ENDBRANCH   40   41
BRANCH   55   56
ATOM     65  C44 UNL A   1      43.524  26.842  26.889  1.00  0.00    +0.000 C 
ATOM     66  F15 UNL A   1      43.918  28.119  26.998  1.00  0.00    +0.000 F 
ATOM     56  C39 UNL A   1      42.632  26.300  27.824  1.00  0.00    +0.000 C 
ATOM     57  C40 UNL A   1      42.248  24.961  27.656  1.00  0.00    +0.000 C 
ATOM     58  F11 UNL A   1      41.411  24.389  28.536  1.00  0.00    +0.000 F 
ATOM     59  C41 UNL A   1      42.763  24.188  26.618  1.00  0.00    +0.000 C 
ATOM     60  F12 UNL A   1      42.425  22.895  26.517  1.00  0.00    +0.000 F 
ATOM     61  C42 UNL A   1      43.641  24.749  25.702  1.00  0.00    +0.000 C 
ATOM     62  F13 UNL A   1      44.137  24.005  24.704  1.00  0.00    +0.000 F 
ATOM     63  C43 UNL A   1      44.012  26.078  25.830  1.00  0.00    +0.000 C 
ATOM     64  F14 UNL A   1      44.847  26.630  24.939  1.00  0.00    +0.000 F 
ENDBRANCH   55   56
TORSDOF 17
ENDMDL
MODEL 10
REMARK VINA RESULT:      -8.9     43.800     47.187
ROOT
ATOM     19  C15 UNL A   1      52.882  20.220  11.559  1.00  0.00    +0.000 C 
ATOM     20  C16 UNL A   1      54.198  19.531  11.319  1.00  0.00    +0.000 C 
ATOM     21  N3  UNL A   1      55.228  19.411  12.119  1.00  0.00    +0.000 N 
ATOM     22  C17 UNL A   1      56.170  18.671  11.417  1.00  0.00    +0.000 C 
ATOM     23  C18 UNL A   1      57.437  18.349  11.779  1.00  0.00    +0.000 C 
ATOM     35  C25 UNL A   1      58.043  18.714  13.034  1.00  0.00    +0.000 C 
ATOM     36  C26 UNL A   1      59.326  18.456  13.481  1.00  0.00    +0.000 C 
ATOM     37  C27 UNL A   1      59.451  18.964  14.779  1.00  0.00    +0.000 C 
ATOM     38  C28 UNL A   1      58.262  19.587  15.120  1.00  0.00    +0.000 C 
ATOM     39  N4  UNL A   1      57.402  19.416  14.045  1.00  0.00    +0.000 N 
ATOM     40  C29 UNL A   1      57.933  20.290  16.333  1.00  0.00    +0.000 C 
ATOM     52  C36 UNL A   1      56.735  20.872  16.590  1.00  0.00    +0.000 C 
ATOM     53  N5  UNL A   1      55.600  20.925  15.793  1.00  0.00    +0.000 N 
ATOM     54  C37 UNL A   1      54.699  21.570  16.492  1.00  0.00    +0.000 C 
ATOM     55  C38 UNL A   1      53.292  21.950  16.112  1.00  0.00    +0.000 C 
ATOM     67  C45 UNL A   1      52.835  21.634  14.885  1.00  0.00    +0.000 C 
ATOM     68  C46 UNL A   1      51.511  21.962  14.368  1.00  0.00    +0.000 C 
ATOM     69  C47 UNL A   1      51.390  21.466  13.126  1.00  0.00    +0.000 C 
ATOM     70  C48 UNL A   1      52.643  20.813  12.746  1.00  0.00    +0.000 C 
ATOM     71  N6  UNL A   1      53.442  20.959  13.854  1.00  0.00    +0.000 N 
ATOM     72  C49 UNL A   1      55.155  21.976  17.829  1.00  0.00    +0.000 C 
ATOM     73  C50 UNL A   1      56.417  21.572  17.816  1.00  0.00    +0.000 C 
ATOM     74  C51 UNL A   1      55.565  18.308  10.154  1.00  0.00    +0.000 C 
ATOM     75  C52 UNL A   1      54.372  18.868  10.017  1.00  0.00    +0.000 C 
ATOM    108  H21 UNL A   1      60.066  17.971  12.949  1.00  0.00    +0.000 H 
ATOM    109  H22 UNL A   1      60.286  18.887  15.380  1.00  0.00    +0.000 H 
ATOM    110  H23 UNL A   1      56.475  19.744  14.005  1.00  0.00    +0.000 H 
ATOM    111  H24 UNL A   1      50.784  22.491  14.875  1.00  0.00    +0.000 H 
ATOM    112  H25 UNL A   1      50.548  21.535  12.534  1.00  0.00    +0.000 H 
ATOM    113  H26 UNL A   1      54.362  20.613  13.904  1.00  0.00    +0.000 H 
ATOM    114  H27 UNL A   1      54.630  22.451  18.579  1.00  0.00    +0.000 H 
ATOM    115  H28 UNL A   1      57.087  21.735  18.584  1.00  0.00    +0.000 H 
ATOM    116  H29 UNL A   1      56.005  17.693   9.452  1.00  0.00    +0.000 H 
ATOM    117  H30 UNL A   1      53.732  18.845   9.208  1.00  0.00    +0.000 H 
ENDROOT
BRANCH   19   18
ATOM    106  H19 UNL A   1      49.413  18.283   9.200  1.00  0.00    +0.000 H 
ATOM    107  H20 UNL A   1      51.017  18.339  11.019  1.00  0.00    +0.000 H 
ATOM     76  C53 UNL A   1      51.682  21.328   9.653  1.00  0.00    +0.000 C 
ATOM     77  C54 UNL A   1      50.696  21.332   8.665  1.00  0.00    +0.000 C 
ATOM     15  C11 UNL A   1      49.910  20.196   8.454  1.00  0.00    +0.000 C 
ATOM     16  C12 UNL A   1      50.023  19.107   9.324  1.00  0.00    +0.000 C 
ATOM     17  C13 UNL A   1      50.959  19.132  10.360  1.00  0.00    +0.000 C 
ATOM     18  C14 UNL A   1      51.824  20.228  10.513  1.00  0.00    +0.000 C 
ATOM    118  H31 UNL A   1      52.311  22.140   9.753  1.00  0.00    +0.000 H 
ATOM    119  H32 UNL A   1      50.548  22.176   8.089  1.00  0.00    +0.000 H 
BRANCH   15   13
ATOM     13  C10 UNL A   1      48.926  20.118   7.350  1.00  0.00    +0.000 C 
ATOM     14  O2  UNL A   1      48.657  21.132   6.709  1.00  0.00    +0.000 O 
BRANCH   13   12
ATOM    105  H18 UNL A   1      47.372  18.864   7.393  1.00  0.00    +0.000 H 
ATOM     12  N2  UNL A   1      48.291  18.938   7.050  1.00  0.00    +0.000 N 
BRANCH   12   11
ATOM     11  C9  UNL A   1      48.764  17.782   6.308  1.00  0.00    +0.000 C 
ATOM    103  H16 UNL A   1      49.269  18.124   5.428  1.00  0.00    +0.000 H 
ATOM    104  H17 UNL A   1      49.416  17.231   6.953  1.00  0.00    +0.000 H 
BRANCH   11   10
ATOM     10  C8  UNL A   1      47.636  16.841   5.888  1.00  0.00    +0.000 C 
ATOM    101  H14 UNL A   1      47.870  16.459   4.916  1.00  0.00    +0.000 H 
ATOM    102  H15 UNL A   1      47.583  16.091   6.648  1.00  0.00    +0.000 H 
BRANCH   10    9
ATOM      9  C7  UNL A   1      46.241  17.470   5.823  1.00  0.00    +0.000 C 
ATOM     99  H12 UNL A   1      45.530  16.720   6.103  1.00  0.00    +0.000 H 
ATOM    100  H13 UNL A   1      46.269  18.310   6.483  1.00  0.00    +0.000 H 
BRANCH    9    8
ATOM     97  H10 UNL A   1      46.338  17.462   3.705  1.00  0.00    +0.000 H 
ATOM     98  H11 UNL A   1      44.760  17.932   4.419  1.00  0.00    +0.000 H 
ATOM      8  C6  UNL A   1      45.826  18.024   4.458  1.00  0.00    +0.000 C 
BRANCH    8    7
ATOM     95  H8  UNL A   1      46.565  19.905   5.113  1.00  0.00    +0.000 H 
ATOM      7  C5  UNL A   1      46.125  19.509   4.223  1.00  0.00    +0.000 C 
ATOM     96  H9  UNL A   1      46.774  19.553   3.373  1.00  0.00    +0.000 H 
BRANCH    7    6
ATOM     94  H7  UNL A   1      45.257  21.331   3.577  1.00  0.00    +0.000 H 
ATOM     93  H6  UNL A   1      44.274  20.430   4.734  1.00  0.00    +0.000 H 
ATOM      6  C4  UNL A   1      44.907  20.366   3.874  1.00  0.00    +0.000 C 
BRANCH    6    5
ATOM     92  H5  UNL A   1      44.344  18.859   2.580  1.00  0.00    +0.000 H 
ATOM      5  N1  UNL A   1      44.143  19.805   2.770  1.00  0.00    +0.000 N 
BRANCH    5    3
ATOM      3  C3  UNL A   1      43.199  20.352   1.948  1.00  0.00    +0.000 C 
ATOM      4  O1  UNL A   1      43.417  21.489   1.521  1.00  0.00    +0.000 O 
BRANCH    3    2
ATOM      2  C2  UNL A   1      41.910  19.606   1.557  1.00  0.00    +0.000 C 
ATOM     91  H4  UNL A   1      42.118  18.916   0.765  1.00  0.00    +0.000 H 
BRANCH    2    1
ATOM      1  C1  UNL A   1      41.427  18.814   2.782  1.00  0.00    +0.000 C 
ATOM     90  H3  UNL A   1      42.184  18.834   3.539  1.00  0.00    +0.000 H 
ATOM     89  H2  UNL A   1      40.531  19.256   3.162  1.00  0.00    +0.000 H 
ATOM     88  H1  UNL A   1      41.233  17.800   2.498  1.00  0.00    +0.000 H 
ENDBRANCH    2    1
BRANCH    2   78
ATOM     78  C55 UNL A   1      40.849  20.515   0.941  1.00  0.00    +0.000 C 
ATOM     79  C56 UNL A   1      40.804  20.770  -0.442  1.00  0.00    +0.000 C 
ATOM     80  C57 UNL A   1      39.626  21.220  -1.038  1.00  0.00    +0.000 C 
ATOM     81  C58 UNL A   1      38.497  21.365  -0.244  1.00  0.00    +0.000 C 
ATOM     82  C59 UNL A   1      38.588  21.302   1.146  1.00  0.00    +0.000 C 
ATOM     83  C60 UNL A   1      39.794  20.978   1.743  1.00  0.00    +0.000 C 
ATOM     84  O3  UNL A   1      37.502  21.357   1.976  1.00  0.00    +0.000 O 
ATOM     85  C61 UNL A   1      36.264  21.068   1.313  1.00  0.00    +0.000 C 
ATOM     86  C62 UNL A   1      36.428  20.520  -0.101  1.00  0.00    +0.000 C 
ATOM     87  O4  UNL A   1      37.272  21.393  -0.865  1.00  0.00    +0.000 O 
ATOM    120  H33 UNL A   1      41.648  20.622  -1.019  1.00  0.00    +0.000 H 
ATOM    121  H34 UNL A   1      39.595  21.441  -2.046  1.00  0.00    +0.000 H 
ATOM    122  H35 UNL A   1      39.917  21.077   2.763  1.00  0.00    +0.000 H 
ATOM    123  H36 UNL A   1      35.693  21.972   1.259  1.00  0.00    +0.000 H 
ATOM    124  H37 UNL A   1      35.778  20.305   1.885  1.00  0.00    +0.000 H 
ATOM    125  H38 UNL A   1      35.468  20.454  -0.570  1.00  0.00    +0.000 H 
ATOM    126  H39 UNL A   1      36.874  19.549  -0.054  1.00  0.00    +0.000 H 
ENDBRANCH    2   78
ENDBRANCH    3    2
ENDBRANCH    5    3
ENDBRANCH    6    5
ENDBRANCH    7    6
ENDBRANCH    8    7
ENDBRANCH    9    8
ENDBRANCH   10    9
ENDBRANCH   11   10
ENDBRANCH   12   11
ENDBRANCH   13   12
ENDBRANCH   15   13
ENDBRANCH   19   18
BRANCH   23   24
ATOM     33  C24 UNL A   1      59.040  18.237   9.829  1.00  0.00    +0.000 C 
ATOM     34  F5  UNL A   1      59.084  19.577   9.800  1.00  0.00    +0.000 F 
ATOM     24  C19 UNL A   1      58.265  17.575  10.793  1.00  0.00    +0.000 C 
ATOM     25  C20 UNL A   1      58.251  16.171  10.770  1.00  0.00    +0.000 C 
ATOM     26  F1  UNL A   1      57.534  15.489  11.676  1.00  0.00    +0.000 F 
ATOM     27  C21 UNL A   1      59.000  15.460   9.837  1.00  0.00    +0.000 C 
ATOM     28  F2  UNL A   1      59.006  14.120   9.864  1.00  0.00    +0.000 F 
ATOM     29  C22 UNL A   1      59.748  16.136   8.885  1.00  0.00    +0.000 C 
ATOM     30  F3  UNL A   1      60.460  15.450   7.980  1.00  0.00    +0.000 F 
ATOM     31  C23 UNL A   1      59.763  17.522   8.876  1.00  0.00    +0.000 C 
ATOM     32  F4  UNL A   1      60.475  18.177   7.949  1.00  0.00    +0.000 F 
ENDBRANCH   23   24
BRANCH   40   41
ATOM     41  C30 UNL A   1      58.997  20.417  17.386  1.00  0.00    +0.000 C 
ATOM     42  C31 UNL A   1      59.776  21.577  17.513  1.00  0.00    +0.000 C 
ATOM     43  F6  UNL A   1      59.603  22.602  16.664  1.00  0.00    +0.000 F 
ATOM     44  C32 UNL A   1      60.772  21.669  18.482  1.00  0.00    +0.000 C 
ATOM     45  F7  UNL A   1      61.544  22.762  18.543  1.00  0.00    +0.000 F 
ATOM     46  C33 UNL A   1      60.981  20.622  19.367  1.00  0.00    +0.000 C 
ATOM     47  F8  UNL A   1      61.940  20.712  20.298  1.00  0.00    +0.000 F 
ATOM     48  C34 UNL A   1      60.204  19.477  19.279  1.00  0.00    +0.000 C 
ATOM     49  F9  UNL A   1      60.395  18.471  20.143  1.00  0.00    +0.000 F 
ATOM     50  C35 UNL A   1      59.230  19.369  18.290  1.00  0.00    +0.000 C 
ATOM     51  F10 UNL A   1      58.509  18.241  18.219  1.00  0.00    +0.000 F 
ENDBRANCH   40   41
BRANCH   55   56
ATOM     65  C44 UNL A   1      52.309  24.073  17.042  1.00  0.00    +0.000 C 
ATOM     66  F15 UNL A   1      53.028  24.784  16.161  1.00  0.00    +0.000 F 
ATOM     56  C39 UNL A   1      52.416  22.676  17.071  1.00  0.00    +0.000 C 
ATOM     57  C40 UNL A   1      51.648  21.984  18.018  1.00  0.00    +0.000 C 
ATOM     58  F11 UNL A   1      51.700  20.644  18.073  1.00  0.00    +0.000 F 
ATOM     59  C41 UNL A   1      50.782  22.659  18.876  1.00  0.00    +0.000 C 
ATOM     60  F12 UNL A   1      50.015  21.968  19.730  1.00  0.00    +0.000 F 
ATOM     61  C42 UNL A   1      50.698  24.043  18.832  1.00  0.00    +0.000 C 
ATOM     62  F13 UNL A   1      49.864  24.692  19.656  1.00  0.00    +0.000 F 
ATOM     63  C43 UNL A   1      51.469  24.750  17.924  1.00  0.00    +0.000 C 
ATOM     64  F14 UNL A   1      51.404  26.089  17.888  1.00  0.00    +0.000 F 
ENDBRANCH   55   56
TORSDOF 17
ENDMDL
