MODEL 1
REMARK VINA RESULT:     -11.5      0.000      0.000
ROOT
ATOM     33  C23 UNL A   1       2.094  10.995  37.643  1.00  0.00    +0.000 C 
ATOM     34  C24 UNL A   1       0.767  10.537  37.111  1.00  0.00    +0.000 C 
ATOM     35  N5  UNL A   1       0.404   9.346  36.704  1.00  0.00    +0.000 N 
ATOM     36  C25 UNL A   1      -0.937   9.457  36.361  1.00  0.00    +0.000 C 
ATOM     37  C26 UNL A   1      -1.755   8.512  35.835  1.00  0.00    +0.000 C 
ATOM     49  C33 UNL A   1      -1.342   7.169  35.519  1.00  0.00    +0.000 C 
ATOM     50  C34 UNL A   1      -2.069   6.167  34.901  1.00  0.00    +0.000 C 
ATOM     51  C35 UNL A   1      -1.281   5.011  34.870  1.00  0.00    +0.000 C 
ATOM     52  C36 UNL A   1      -0.046   5.306  35.423  1.00  0.00    +0.000 C 
ATOM     53  N6  UNL A   1      -0.094   6.637  35.808  1.00  0.00    +0.000 N 
ATOM     54  C37 UNL A   1       1.093   4.439  35.594  1.00  0.00    +0.000 C 
ATOM     66  C44 UNL A   1       2.297   4.827  36.084  1.00  0.00    +0.000 C 
ATOM     67  N7  UNL A   1       2.692   6.078  36.535  1.00  0.00    +0.000 N 
ATOM     68  C45 UNL A   1       3.936   5.943  36.926  1.00  0.00    +0.000 C 
ATOM     69  C46 UNL A   1       4.866   6.978  37.497  1.00  0.00    +0.000 C 
ATOM     81  C53 UNL A   1       4.436   8.247  37.635  1.00  0.00    +0.000 C 
ATOM     82  C54 UNL A   1       5.223   9.349  38.180  1.00  0.00    +0.000 C 
ATOM     83  C55 UNL A   1       4.451  10.445  38.248  1.00  0.00    +0.000 C 
ATOM     84  C56 UNL A   1       3.126  10.133  37.711  1.00  0.00    +0.000 C 
ATOM     85  N8  UNL A   1       3.218   8.812  37.346  1.00  0.00    +0.000 N 
ATOM     86  C57 UNL A   1       4.468   4.581  36.779  1.00  0.00    +0.000 C 
ATOM     87  C58 UNL A   1       3.439   3.949  36.232  1.00  0.00    +0.000 C 
ATOM     88  C59 UNL A   1      -1.337  10.816  36.655  1.00  0.00    +0.000 C 
ATOM     89  C60 UNL A   1      -0.305  11.543  37.059  1.00  0.00    +0.000 C 
ATOM    119  H25 UNL A   1      -3.026   6.257  34.525  1.00  0.00    +0.000 H 
ATOM    120  H26 UNL A   1      -1.573   4.093  34.500  1.00  0.00    +0.000 H 
ATOM    121  H27 UNL A   1       0.649   7.132  36.223  1.00  0.00    +0.000 H 
ATOM    122  H28 UNL A   1       6.213   9.295  38.466  1.00  0.00    +0.000 H 
ATOM    123  H29 UNL A   1       4.744  11.361  38.622  1.00  0.00    +0.000 H 
ATOM    124  H30 UNL A   1       2.482   8.318  36.918  1.00  0.00    +0.000 H 
ATOM    125  H31 UNL A   1       5.397   4.213  37.035  1.00  0.00    +0.000 H 
ATOM    126  H32 UNL A   1       3.451   2.957  35.947  1.00  0.00    +0.000 H 
ATOM    127  H33 UNL A   1      -2.300  11.174  36.560  1.00  0.00    +0.000 H 
ATOM    128  H34 UNL A   1      -0.263  12.550  37.279  1.00  0.00    +0.000 H 
ENDROOT
BRANCH   33   32
ATOM    129  H35 UNL A   1       1.686  11.847  40.149  1.00  0.00    +0.000 H 
ATOM    130  H36 UNL A   1       1.939  14.081  41.055  1.00  0.00    +0.000 H 
ATOM    117  H23 UNL A   1       3.258  15.458  37.306  1.00  0.00    +0.000 H 
ATOM    118  H24 UNL A   1       2.801  13.275  36.348  1.00  0.00    +0.000 H 
ATOM     90  C61 UNL A   1       2.007  12.615  39.540  1.00  0.00    +0.000 C 
ATOM     91  C62 UNL A   1       2.191  13.890  40.073  1.00  0.00    +0.000 C 
ATOM     29  C19 UNL A   1       2.716  14.909  39.273  1.00  0.00    +0.000 C 
ATOM     30  C20 UNL A   1       2.923  14.689  37.909  1.00  0.00    +0.000 C 
ATOM     31  C21 UNL A   1       2.675  13.429  37.360  1.00  0.00    +0.000 C 
ATOM     32  C22 UNL A   1       2.254  12.370  38.181  1.00  0.00    +0.000 C 
BRANCH   29   27
ATOM     27  C18 UNL A   1       3.050  16.235  39.838  1.00  0.00    +0.000 C 
ATOM     28  O5  UNL A   1       2.152  17.039  40.069  1.00  0.00    +0.000 O 
BRANCH   27   26
ATOM     26  N4  UNL A   1       4.357  16.579  40.078  1.00  0.00    +0.000 N 
ATOM    116  H22 UNL A   1       4.510  17.534  40.268  1.00  0.00    +0.000 H 
BRANCH   26   25
ATOM     25  C17 UNL A   1       5.550  15.749  40.096  1.00  0.00    +0.000 C 
ATOM    114  H20 UNL A   1       5.400  14.952  40.794  1.00  0.00    +0.000 H 
ATOM    115  H21 UNL A   1       5.702  15.385  39.102  1.00  0.00    +0.000 H 
BRANCH   25   24
ATOM    113  H19 UNL A   1       6.787  16.557  41.569  1.00  0.00    +0.000 H 
ATOM    112  H18 UNL A   1       6.764  17.478  40.026  1.00  0.00    +0.000 H 
ATOM     24  C16 UNL A   1       6.803  16.519  40.499  1.00  0.00    +0.000 C 
BRANCH   24   23
ATOM    111  H17 UNL A   1       7.903  15.145  39.380  1.00  0.00    +0.000 H 
ATOM    110  H16 UNL A   1       8.560  15.461  41.026  1.00  0.00    +0.000 H 
ATOM     23  C15 UNL A   1       8.139  15.869  40.131  1.00  0.00    +0.000 C 
BRANCH   23   22
ATOM    108  H14 UNL A   1       9.925  16.155  39.032  1.00  0.00    +0.000 H 
ATOM    109  H15 UNL A   1       8.649  17.409  38.821  1.00  0.00    +0.000 H 
ATOM     22  C14 UNL A   1       9.191  16.781  39.496  1.00  0.00    +0.000 C 
BRANCH   22   21
ATOM    106  H12 UNL A   1       9.210  18.450  40.794  1.00  0.00    +0.000 H 
ATOM    107  H13 UNL A   1      10.354  17.114  41.189  1.00  0.00    +0.000 H 
ATOM     21  C13 UNL A   1       9.924  17.738  40.435  1.00  0.00    +0.000 C 
BRANCH   21   20
ATOM    105  H11 UNL A   1      10.731  18.988  38.957  1.00  0.00    +0.000 H 
ATOM     20  C12 UNL A   1      11.094  18.516  39.846  1.00  0.00    +0.000 C 
ATOM    104  H10 UNL A   1      11.892  17.828  39.658  1.00  0.00    +0.000 H 
BRANCH   20   19
ATOM     19  N3  UNL A   1      11.601  19.577  40.701  1.00  0.00    +0.000 N 
ATOM    103  H9  UNL A   1      10.907  20.154  41.093  1.00  0.00    +0.000 H 
BRANCH   19   17
ATOM     17  C11 UNL A   1      12.890  19.910  41.052  1.00  0.00    +0.000 C 
ATOM     18  O4  UNL A   1      13.625  19.039  41.523  1.00  0.00    +0.000 O 
BRANCH   17   16
ATOM    131  H37 UNL A   1      13.640  21.856  42.815  1.00  0.00    +0.000 H 
ATOM    100  H6  UNL A   1      14.536  24.870  40.024  1.00  0.00    +0.000 H 
ATOM    101  H7  UNL A   1      14.429  23.218  38.239  1.00  0.00    +0.000 H 
ATOM     11  C6  UNL A   1      14.012  23.498  41.543  1.00  0.00    +0.000 C 
ATOM     12  C7  UNL A   1      14.278  23.894  40.233  1.00  0.00    +0.000 C 
ATOM     13  C8  UNL A   1      14.188  22.951  39.206  1.00  0.00    +0.000 C 
ATOM     14  C9  UNL A   1      13.775  21.647  39.489  1.00  0.00    +0.000 C 
ATOM     16  C10 UNL A   1      13.474  21.254  40.803  1.00  0.00    +0.000 C 
ATOM     92  C63 UNL A   1      13.701  22.166  41.833  1.00  0.00    +0.000 C 
BRANCH   11   10
ATOM     10  C5  UNL A   1      13.892  24.510  42.614  1.00  0.00    +0.000 C 
ATOM     99  H5  UNL A   1      12.965  24.886  42.871  1.00  0.00    +0.000 H 
BRANCH   10    9
ATOM      9  N2  UNL A   1      14.953  24.926  43.230  1.00  0.00    +0.000 N 
BRANCH    9    8
ATOM     97  H3  UNL A   1      16.455  28.687  45.225  1.00  0.00    +0.000 H 
ATOM     98  H4  UNL A   1      15.927  26.318  45.184  1.00  0.00    +0.000 H 
ATOM    132  H38 UNL A   1      14.757  26.634  41.162  1.00  0.00    +0.000 H 
ATOM    133  H39 UNL A   1      15.299  29.000  41.186  1.00  0.00    +0.000 H 
ATOM      6  C2  UNL A   1      16.100  28.250  44.360  1.00  0.00    +0.000 C 
ATOM      5  C1  UNL A   1      15.915  29.017  43.208  1.00  0.00    +0.000 C 
ATOM      7  C3  UNL A   1      15.799  26.885  44.331  1.00  0.00    +0.000 C 
ATOM      8  C4  UNL A   1      15.326  26.275  43.164  1.00  0.00    +0.000 C 
ATOM     93  C64 UNL A   1      15.130  27.064  42.022  1.00  0.00    +0.000 C 
ATOM     94  C65 UNL A   1      15.431  28.430  42.036  1.00  0.00    +0.000 C 
BRANCH    5    2
ATOM      2  S1  UNL A   1      16.303  30.742  43.236  1.00  0.00    +0.000 S 
ATOM      3  O1  UNL A   1      15.253  31.477  42.576  1.00  0.00    +0.000 O 
ATOM      4  O2  UNL A   1      17.700  30.901  42.900  1.00  0.00    +0.000 O 
BRANCH    2    1
ATOM      1  N1  UNL A   1      16.160  31.129  44.866  1.00  0.00    +0.000 N 
ATOM     95  H1  UNL A   1      15.270  31.600  45.027  1.00  0.00    +0.000 H 
ATOM     96  H2  UNL A   1      16.926  31.746  45.137  1.00  0.00    +0.000 H 
ENDBRANCH    2    1
ENDBRANCH    5    2
ENDBRANCH    9    8
ENDBRANCH   10    9
ENDBRANCH   11   10
BRANCH   14   15
ATOM    102  H8  UNL A   1      13.583  19.879  38.553  1.00  0.00    +0.000 H 
ATOM     15  O3  UNL A   1      13.667  20.801  38.415  1.00  0.00    +0.000 O 
ENDBRANCH   14   15
ENDBRANCH   17   16
ENDBRANCH   19   17
ENDBRANCH   20   19
ENDBRANCH   21   20
ENDBRANCH   22   21
ENDBRANCH   23   22
ENDBRANCH   24   23
ENDBRANCH   25   24
ENDBRANCH   26   25
ENDBRANCH   27   26
ENDBRANCH   29   27
ENDBRANCH   33   32
BRANCH   37   38
ATOM     38  C27 UNL A   1      -3.183   8.895  35.578  1.00  0.00    +0.000 C 
ATOM     39  C28 UNL A   1      -4.176   8.763  36.560  1.00  0.00    +0.000 C 
ATOM     40  F1  UNL A   1      -3.873   8.245  37.760  1.00  0.00    +0.000 F 
ATOM     41  C29 UNL A   1      -5.497   9.120  36.298  1.00  0.00    +0.000 C 
ATOM     42  F2  UNL A   1      -6.438   8.932  37.234  1.00  0.00    +0.000 F 
ATOM     43  C30 UNL A   1      -5.843   9.654  35.066  1.00  0.00    +0.000 C 
ATOM     44  F3  UNL A   1      -7.113  10.002  34.817  1.00  0.00    +0.000 F 
ATOM     45  C31 UNL A   1      -4.873   9.820  34.089  1.00  0.00    +0.000 C 
ATOM     46  F4  UNL A   1      -5.202  10.348  32.902  1.00  0.00    +0.000 F 
ATOM     47  C32 UNL A   1      -3.558   9.434  34.336  1.00  0.00    +0.000 C 
ATOM     48  F5  UNL A   1      -2.648   9.589  33.363  1.00  0.00    +0.000 F 
ENDBRANCH   37   38
BRANCH   54   55
ATOM     65  F10 UNL A   1       0.008   2.433  37.300  1.00  0.00    +0.000 F 
ATOM     55  C38 UNL A   1       0.945   3.002  35.187  1.00  0.00    +0.000 C 
ATOM     56  C39 UNL A   1       1.369   2.553  33.928  1.00  0.00    +0.000 C 
ATOM     57  F6  UNL A   1       1.860   3.422  33.032  1.00  0.00    +0.000 F 
ATOM     58  C40 UNL A   1       1.260   1.211  33.573  1.00  0.00    +0.000 C 
ATOM     59  F7  UNL A   1       1.635   0.812  32.349  1.00  0.00    +0.000 F 
ATOM     60  C41 UNL A   1       0.756   0.290  34.478  1.00  0.00    +0.000 C 
ATOM     61  F8  UNL A   1       0.664  -1.004  34.138  1.00  0.00    +0.000 F 
ATOM     62  C42 UNL A   1       0.343   0.710  35.733  1.00  0.00    +0.000 C 
ATOM     63  F9  UNL A   1      -0.131  -0.182  36.614  1.00  0.00    +0.000 F 
ATOM     64  C43 UNL A   1       0.423   2.055  36.082  1.00  0.00    +0.000 C 
ENDBRANCH   54   55
BRANCH   69   70
ATOM     70  C47 UNL A   1       6.249   6.622  37.909  1.00  0.00    +0.000 C 
ATOM     71  C48 UNL A   1       7.344   6.901  37.080  1.00  0.00    +0.000 C 
ATOM     72  F11 UNL A   1       7.146   7.462  35.877  1.00  0.00    +0.000 F 
ATOM     73  C49 UNL A   1       8.642   6.581  37.471  1.00  0.00    +0.000 C 
ATOM     74  F12 UNL A   1       9.667   6.828  36.644  1.00  0.00    +0.000 F 
ATOM     75  C50 UNL A   1       8.873   5.999  38.707  1.00  0.00    +0.000 C 
ATOM     76  F13 UNL A   1      10.124   5.703  39.088  1.00  0.00    +0.000 F 
ATOM     77  C51 UNL A   1       7.806   5.723  39.550  1.00  0.00    +0.000 C 
ATOM     78  F14 UNL A   1       8.028   5.179  40.755  1.00  0.00    +0.000 F 
ATOM     79  C52 UNL A   1       6.506   6.018  39.149  1.00  0.00    +0.000 C 
ATOM     80  F15 UNL A   1       5.492   5.739  39.982  1.00  0.00    +0.000 F 
ENDBRANCH   69   70
TORSDOF 21
ENDMDL
MODEL 2
REMARK VINA RESULT:     -11.5     51.295     57.975
ROOT
ATOM     33  C23 UNL A   1      53.364  19.872  11.752  1.00  0.00    +0.000 C 
ATOM     34  C24 UNL A   1      54.725  19.262  11.580  1.00  0.00    +0.000 C 
ATOM     35  N5  UNL A   1      55.738  19.251  12.409  1.00  0.00    +0.000 N 
ATOM     36  C25 UNL A   1      56.732  18.513  11.780  1.00  0.00    +0.000 C 
ATOM     37  C26 UNL A   1      57.993  18.259  12.207  1.00  0.00    +0.000 C 
ATOM     49  C33 UNL A   1      58.542  18.746  13.446  1.00  0.00    +0.000 C 
ATOM     50  C34 UNL A   1      59.834  18.619  13.926  1.00  0.00    +0.000 C 
ATOM     51  C35 UNL A   1      59.883  19.188  15.203  1.00  0.00    +0.000 C 
ATOM     52  C36 UNL A   1      58.636  19.714  15.499  1.00  0.00    +0.000 C 
ATOM     53  N6  UNL A   1      57.826  19.445  14.408  1.00  0.00    +0.000 N 
ATOM     54  C37 UNL A   1      58.212  20.406  16.690  1.00  0.00    +0.000 C 
ATOM     66  C44 UNL A   1      56.985  20.954  16.874  1.00  0.00    +0.000 C 
ATOM     67  N7  UNL A   1      55.896  20.959  16.014  1.00  0.00    +0.000 N 
ATOM     68  C45 UNL A   1      54.940  21.593  16.649  1.00  0.00    +0.000 C 
ATOM     69  C46 UNL A   1      53.541  21.901  16.189  1.00  0.00    +0.000 C 
ATOM     81  C53 UNL A   1      53.153  21.521  14.957  1.00  0.00    +0.000 C 
ATOM     82  C54 UNL A   1      51.829  21.744  14.384  1.00  0.00    +0.000 C 
ATOM     83  C55 UNL A   1      51.772  21.159  13.177  1.00  0.00    +0.000 C 
ATOM     84  C56 UNL A   1      53.070  20.557  12.873  1.00  0.00    +0.000 C 
ATOM     85  N8  UNL A   1      53.837  20.846  13.975  1.00  0.00    +0.000 N 
ATOM     86  C57 UNL A   1      55.313  22.051  17.995  1.00  0.00    +0.000 C 
ATOM     87  C58 UNL A   1      56.579  21.664  18.068  1.00  0.00    +0.000 C 
ATOM     88  C59 UNL A   1      56.183  18.051  10.523  1.00  0.00    +0.000 C 
ATOM     89  C60 UNL A   1      54.969  18.540  10.322  1.00  0.00    +0.000 C 
ATOM    119  H25 UNL A   1      60.624  18.183  13.427  1.00  0.00    +0.000 H 
ATOM    120  H26 UNL A   1      60.709  19.210  15.822  1.00  0.00    +0.000 H 
ATOM    121  H27 UNL A   1      56.881  19.711  14.325  1.00  0.00    +0.000 H 
ATOM    122  H28 UNL A   1      51.061  22.266  14.834  1.00  0.00    +0.000 H 
ATOM    123  H29 UNL A   1      50.943  21.137  12.562  1.00  0.00    +0.000 H 
ATOM    124  H30 UNL A   1      54.785  20.593  14.055  1.00  0.00    +0.000 H 
ATOM    125  H31 UNL A   1      54.739  22.543  18.697  1.00  0.00    +0.000 H 
ATOM    126  H32 UNL A   1      57.196  21.847  18.875  1.00  0.00    +0.000 H 
ATOM    127  H33 UNL A   1      56.675  17.423   9.868  1.00  0.00    +0.000 H 
ATOM    128  H34 UNL A   1      54.355  18.441   9.498  1.00  0.00    +0.000 H 
ENDROOT
BRANCH   33   32
ATOM    129  H35 UNL A   1      52.532  21.552   9.838  1.00  0.00    +0.000 H 
ATOM    130  H36 UNL A   1      50.811  21.216   8.164  1.00  0.00    +0.000 H 
ATOM    117  H23 UNL A   1      50.186  17.306   9.583  1.00  0.00    +0.000 H 
ATOM    118  H24 UNL A   1      51.752  17.716  11.391  1.00  0.00    +0.000 H 
ATOM     90  C61 UNL A   1      52.025  20.654   9.795  1.00  0.00    +0.000 C 
ATOM     91  C62 UNL A   1      51.066  20.449   8.806  1.00  0.00    +0.000 C 
ATOM     29  C19 UNL A   1      50.447  19.201   8.685  1.00  0.00    +0.000 C 
ATOM     30  C20 UNL A   1      50.685  18.208   9.640  1.00  0.00    +0.000 C 
ATOM     31  C21 UNL A   1      51.598  18.438  10.671  1.00  0.00    +0.000 C 
ATOM     32  C22 UNL A   1      52.306  19.649  10.733  1.00  0.00    +0.000 C 
BRANCH   29   27
ATOM     27  C18 UNL A   1      49.524  18.904   7.566  1.00  0.00    +0.000 C 
ATOM     28  O5  UNL A   1      48.418  19.435   7.537  1.00  0.00    +0.000 O 
BRANCH   27   26
ATOM     26  N4  UNL A   1      49.888  18.021   6.581  1.00  0.00    +0.000 N 
ATOM    116  H22 UNL A   1      49.435  17.146   6.616  1.00  0.00    +0.000 H 
BRANCH   26   25
ATOM     25  C17 UNL A   1      50.839  18.179   5.494  1.00  0.00    +0.000 C 
ATOM    114  H20 UNL A   1      50.339  18.640   4.668  1.00  0.00    +0.000 H 
ATOM    115  H21 UNL A   1      51.645  18.781   5.859  1.00  0.00    +0.000 H 
BRANCH   25   24
ATOM    113  H19 UNL A   1      52.396  16.790   5.486  1.00  0.00    +0.000 H 
ATOM    112  H18 UNL A   1      51.456  16.866   3.956  1.00  0.00    +0.000 H 
ATOM     24  C16 UNL A   1      51.432  16.854   5.026  1.00  0.00    +0.000 C 
BRANCH   24   23
ATOM    111  H17 UNL A   1      50.128  15.880   6.330  1.00  0.00    +0.000 H 
ATOM    110  H16 UNL A   1      51.412  14.826   5.634  1.00  0.00    +0.000 H 
ATOM     23  C15 UNL A   1      50.684  15.592   5.462  1.00  0.00    +0.000 C 
BRANCH   23   22
ATOM    108  H14 UNL A   1      49.952  15.317   3.496  1.00  0.00    +0.000 H 
ATOM    109  H15 UNL A   1      49.627  13.983   4.662  1.00  0.00    +0.000 H 
ATOM     22  C14 UNL A   1      49.648  15.038   4.483  1.00  0.00    +0.000 C 
BRANCH   22   21
ATOM    106  H12 UNL A   1      47.842  15.073   5.581  1.00  0.00    +0.000 H 
ATOM    107  H13 UNL A   1      48.258  16.575   4.674  1.00  0.00    +0.000 H 
ATOM     21  C13 UNL A   1      48.206  15.506   4.673  1.00  0.00    +0.000 C 
BRANCH   21   20
ATOM    105  H11 UNL A   1      46.605  14.364   3.945  1.00  0.00    +0.000 H 
ATOM     20  C12 UNL A   1      47.218  15.156   3.568  1.00  0.00    +0.000 C 
ATOM    104  H10 UNL A   1      47.775  14.874   2.698  1.00  0.00    +0.000 H 
BRANCH   20   19
ATOM     19  N3  UNL A   1      46.319  16.237   3.200  1.00  0.00    +0.000 N 
ATOM    103  H9  UNL A   1      46.433  16.571   2.281  1.00  0.00    +0.000 H 
BRANCH   19   17
ATOM     17  C11 UNL A   1      45.335  16.873   3.924  1.00  0.00    +0.000 C 
ATOM     18  O4  UNL A   1      44.831  16.292   4.887  1.00  0.00    +0.000 O 
BRANCH   17   16
ATOM    131  H37 UNL A   1      43.090  17.832   2.699  1.00  0.00    +0.000 H 
ATOM    100  H6  UNL A   1      44.155  21.899   2.609  1.00  0.00    +0.000 H 
ATOM    101  H7  UNL A   1      45.990  21.429   4.139  1.00  0.00    +0.000 H 
ATOM     11  C6  UNL A   1      43.539  19.882   2.475  1.00  0.00    +0.000 C 
ATOM     12  C7  UNL A   1      44.345  20.931   2.914  1.00  0.00    +0.000 C 
ATOM     13  C8  UNL A   1      45.415  20.657   3.769  1.00  0.00    +0.000 C 
ATOM     14  C9  UNL A   1      45.704  19.337   4.124  1.00  0.00    +0.000 C 
ATOM     16  C10 UNL A   1      44.914  18.274   3.658  1.00  0.00    +0.000 C 
ATOM     92  C63 UNL A   1      43.770  18.576   2.919  1.00  0.00    +0.000 C 
BRANCH   11   10
ATOM     10  C5  UNL A   1      42.538  20.109   1.411  1.00  0.00    +0.000 C 
ATOM     99  H5  UNL A   1      42.842  20.396   0.467  1.00  0.00    +0.000 H 
BRANCH   10    9
ATOM      9  N2  UNL A   1      41.279  19.947   1.666  1.00  0.00    +0.000 N 
BRANCH    9    8
ATOM     97  H3  UNL A   1      36.972  21.055   0.885  1.00  0.00    +0.000 H 
ATOM     98  H4  UNL A   1      38.748  20.058   2.205  1.00  0.00    +0.000 H 
ATOM    132  H38 UNL A   1      41.579  21.301  -0.637  1.00  0.00    +0.000 H 
ATOM    133  H39 UNL A   1      39.813  22.318  -1.958  1.00  0.00    +0.000 H 
ATOM      6  C2  UNL A   1      37.951  21.113   0.564  1.00  0.00    +0.000 C 
ATOM      5  C1  UNL A   1      38.263  21.759  -0.633  1.00  0.00    +0.000 C 
ATOM      7  C3  UNL A   1      38.978  20.543   1.324  1.00  0.00    +0.000 C 
ATOM      8  C4  UNL A   1      40.312  20.621   0.908  1.00  0.00    +0.000 C 
ATOM     93  C64 UNL A   1      40.603  21.258  -0.305  1.00  0.00    +0.000 C 
ATOM     94  C65 UNL A   1      39.587  21.836  -1.073  1.00  0.00    +0.000 C 
BRANCH    5    2
ATOM      2  S1  UNL A   1      36.970  22.490  -1.594  1.00  0.00    +0.000 S 
ATOM      3  O1  UNL A   1      37.207  22.224  -2.990  1.00  0.00    +0.000 O 
ATOM      4  O2  UNL A   1      36.716  23.818  -1.082  1.00  0.00    +0.000 O 
BRANCH    2    1
ATOM      1  N1  UNL A   1      35.631  21.559  -1.184  1.00  0.00    +0.000 N 
ATOM     95  H1  UNL A   1      35.212  21.925  -0.330  1.00  0.00    +0.000 H 
ATOM     96  H2  UNL A   1      35.922  20.593  -1.034  1.00  0.00    +0.000 H 
ENDBRANCH    2    1
ENDBRANCH    5    2
ENDBRANCH    9    8
ENDBRANCH   10    9
ENDBRANCH   11   10
BRANCH   14   15
ATOM    102  H8  UNL A   1      47.292  18.359   4.872  1.00  0.00    +0.000 H 
ATOM     15  O3  UNL A   1      46.800  19.154   4.926  1.00  0.00    +0.000 O 
ENDBRANCH   14   15
ENDBRANCH   17   16
ENDBRANCH   19   17
ENDBRANCH   20   19
ENDBRANCH   21   20
ENDBRANCH   22   21
ENDBRANCH   23   22
ENDBRANCH   24   23
ENDBRANCH   25   24
ENDBRANCH   26   25
ENDBRANCH   27   26
ENDBRANCH   29   27
ENDBRANCH   33   32
BRANCH   37   38
ATOM     38  C27 UNL A   1      58.864  17.405  11.332  1.00  0.00    +0.000 C 
ATOM     39  C28 UNL A   1      59.670  17.954  10.325  1.00  0.00    +0.000 C 
ATOM     40  F1  UNL A   1      59.651  19.276  10.091  1.00  0.00    +0.000 F 
ATOM     41  C29 UNL A   1      60.468  17.143   9.521  1.00  0.00    +0.000 C 
ATOM     42  F2  UNL A   1      61.187  17.686   8.528  1.00  0.00    +0.000 F 
ATOM     43  C30 UNL A   1      60.507  15.774   9.735  1.00  0.00    +0.000 C 
ATOM     44  F3  UNL A   1      61.278  14.995   8.963  1.00  0.00    +0.000 F 
ATOM     45  C31 UNL A   1      59.740  15.210  10.743  1.00  0.00    +0.000 C 
ATOM     46  F4  UNL A   1      59.786  13.889  10.960  1.00  0.00    +0.000 F 
ATOM     47  C32 UNL A   1      58.917  16.015  11.527  1.00  0.00    +0.000 C 
ATOM     48  F5  UNL A   1      58.171  15.437  12.481  1.00  0.00    +0.000 F 
ENDBRANCH   37   38
BRANCH   54   55
ATOM     65  F10 UNL A   1      59.820  22.725  17.077  1.00  0.00    +0.000 F 
ATOM     55  C38 UNL A   1      59.203  20.546  17.808  1.00  0.00    +0.000 C 
ATOM     56  C39 UNL A   1      59.417  19.508  18.727  1.00  0.00    +0.000 C 
ATOM     57  F6  UNL A   1      58.686  18.386  18.659  1.00  0.00    +0.000 F 
ATOM     58  C40 UNL A   1      60.363  19.634  19.741  1.00  0.00    +0.000 C 
ATOM     59  F7  UNL A   1      60.522  18.644  20.633  1.00  0.00    +0.000 F 
ATOM     60  C41 UNL A   1      61.134  20.783  19.836  1.00  0.00    +0.000 C 
ATOM     61  F8  UNL A   1      62.053  20.895  20.805  1.00  0.00    +0.000 F 
ATOM     62  C42 UNL A   1      60.948  21.815  18.931  1.00  0.00    +0.000 C 
ATOM     63  F9  UNL A   1      61.701  22.921  19.013  1.00  0.00    +0.000 F 
ATOM     64  C43 UNL A   1      59.982  21.706  17.934  1.00  0.00    +0.000 C 
ENDBRANCH   54   55
BRANCH   69   70
ATOM     70  C47 UNL A   1      52.583  22.617  17.073  1.00  0.00    +0.000 C 
ATOM     71  C48 UNL A   1      52.423  24.006  16.988  1.00  0.00    +0.000 C 
ATOM     72  F11 UNL A   1      53.169  24.714  16.127  1.00  0.00    +0.000 F 
ATOM     73  C49 UNL A   1      51.516  24.676  17.806  1.00  0.00    +0.000 C 
ATOM     74  F12 UNL A   1      51.407  26.009  17.728  1.00  0.00    +0.000 F 
ATOM     75  C50 UNL A   1      50.735  23.968  18.706  1.00  0.00    +0.000 C 
ATOM     76  F13 UNL A   1      49.853  24.613  19.483  1.00  0.00    +0.000 F 
ATOM     77  C51 UNL A   1      50.868  22.591  18.801  1.00  0.00    +0.000 C 
ATOM     78  F14 UNL A   1      50.100  21.900  19.655  1.00  0.00    +0.000 F 
ATOM     79  C52 UNL A   1      51.794  21.923  18.003  1.00  0.00    +0.000 C 
ATOM     80  F15 UNL A   1      51.904  20.590  18.115  1.00  0.00    +0.000 F 
ENDBRANCH   69   70
TORSDOF 21
ENDMDL
MODEL 3
REMARK VINA RESULT:     -11.3     34.327     42.701
ROOT
ATOM     33  C23 UNL A   1      39.824  29.106  29.023  1.00  0.00    +0.000 C 
ATOM     34  C24 UNL A   1      40.644  30.159  29.712  1.00  0.00    +0.000 C 
ATOM     35  N5  UNL A   1      41.924  30.164  29.986  1.00  0.00    +0.000 N 
ATOM     36  C25 UNL A   1      42.178  31.391  30.584  1.00  0.00    +0.000 C 
ATOM     37  C26 UNL A   1      43.343  31.856  31.097  1.00  0.00    +0.000 C 
ATOM     49  C33 UNL A   1      44.574  31.109  31.116  1.00  0.00    +0.000 C 
ATOM     50  C34 UNL A   1      45.783  31.456  31.692  1.00  0.00    +0.000 C 
ATOM     51  C35 UNL A   1      46.713  30.453  31.395  1.00  0.00    +0.000 C 
ATOM     52  C36 UNL A   1      46.070  29.457  30.677  1.00  0.00    +0.000 C 
ATOM     53  N6  UNL A   1      44.756  29.869  30.522  1.00  0.00    +0.000 N 
ATOM     54  C37 UNL A   1      46.614  28.225  30.166  1.00  0.00    +0.000 C 
ATOM     66  C44 UNL A   1      45.897  27.265  29.529  1.00  0.00    +0.000 C 
ATOM     67  N7  UNL A   1      44.545  27.252  29.215  1.00  0.00    +0.000 N 
ATOM     68  C45 UNL A   1      44.333  26.122  28.585  1.00  0.00    +0.000 C 
ATOM     69  C46 UNL A   1      43.048  25.578  28.023  1.00  0.00    +0.000 C 
ATOM     81  C53 UNL A   1      41.913  26.288  28.167  1.00  0.00    +0.000 C 
ATOM     82  C54 UNL A   1      40.600  25.890  27.667  1.00  0.00    +0.000 C 
ATOM     83  C55 UNL A   1      39.722  26.874  27.915  1.00  0.00    +0.000 C 
ATOM     84  C56 UNL A   1      40.400  27.954  28.632  1.00  0.00    +0.000 C 
ATOM     85  N8  UNL A   1      41.692  27.507  28.761  1.00  0.00    +0.000 N 
ATOM     86  C57 UNL A   1      45.536  25.294  28.416  1.00  0.00    +0.000 C 
ATOM     87  C58 UNL A   1      46.453  26.022  29.037  1.00  0.00    +0.000 C 
ATOM     88  C59 UNL A   1      40.930  32.125  30.587  1.00  0.00    +0.000 C 
ATOM     89  C60 UNL A   1      39.937  31.383  30.119  1.00  0.00    +0.000 C 
ATOM    119  H25 UNL A   1      45.968  32.306  32.247  1.00  0.00    +0.000 H 
ATOM    120  H26 UNL A   1      47.709  30.455  31.664  1.00  0.00    +0.000 H 
ATOM    121  H27 UNL A   1      44.054  29.356  30.060  1.00  0.00    +0.000 H 
ATOM    122  H28 UNL A   1      40.383  24.997  27.198  1.00  0.00    +0.000 H 
ATOM    123  H29 UNL A   1      38.726  26.869  27.642  1.00  0.00    +0.000 H 
ATOM    124  H30 UNL A   1      42.393  28.011  29.235  1.00  0.00    +0.000 H 
ATOM    125  H31 UNL A   1      45.638  24.385  27.938  1.00  0.00    +0.000 H 
ATOM    126  H32 UNL A   1      47.438  25.738  29.155  1.00  0.00    +0.000 H 
ATOM    127  H33 UNL A   1      40.827  33.099  30.912  1.00  0.00    +0.000 H 
ATOM    128  H34 UNL A   1      38.931  31.605  30.056  1.00  0.00    +0.000 H 
ENDROOT
BRANCH   33   32
ATOM    129  H35 UNL A   1      38.795  29.898  26.681  1.00  0.00    +0.000 H 
ATOM    130  H36 UNL A   1      36.478  30.323  26.105  1.00  0.00    +0.000 H 
ATOM    117  H23 UNL A   1      35.299  29.177  29.976  1.00  0.00    +0.000 H 
ATOM    118  H24 UNL A   1      37.630  28.959  30.618  1.00  0.00    +0.000 H 
ATOM     90  C61 UNL A   1      38.055  29.758  27.387  1.00  0.00    +0.000 C 
ATOM     91  C62 UNL A   1      36.721  29.963  27.041  1.00  0.00    +0.000 C 
ATOM     29  C19 UNL A   1      35.712  29.681  27.966  1.00  0.00    +0.000 C 
ATOM     30  C20 UNL A   1      36.044  29.331  29.278  1.00  0.00    +0.000 C 
ATOM     31  C21 UNL A   1      37.385  29.190  29.643  1.00  0.00    +0.000 C 
ATOM     32  C22 UNL A   1      38.400  29.362  28.688  1.00  0.00    +0.000 C 
BRANCH   29   27
ATOM     27  C18 UNL A   1      34.281  29.758  27.593  1.00  0.00    +0.000 C 
ATOM     28  O5  UNL A   1      33.684  30.825  27.703  1.00  0.00    +0.000 O 
BRANCH   27   26
ATOM     26  N4  UNL A   1      33.617  28.641  27.151  1.00  0.00    +0.000 N 
ATOM    116  H22 UNL A   1      33.056  28.195  27.827  1.00  0.00    +0.000 H 
BRANCH   26   25
ATOM     25  C17 UNL A   1      33.616  28.017  25.839  1.00  0.00    +0.000 C 
ATOM    114  H20 UNL A   1      32.657  28.171  25.389  1.00  0.00    +0.000 H 
ATOM    115  H21 UNL A   1      34.401  28.468  25.269  1.00  0.00    +0.000 H 
BRANCH   25   24
ATOM    113  H19 UNL A   1      33.028  26.082  26.350  1.00  0.00    +0.000 H 
ATOM    112  H18 UNL A   1      34.799  26.373  26.445  1.00  0.00    +0.000 H 
ATOM     24  C16 UNL A   1      33.893  26.518  25.894  1.00  0.00    +0.000 C 
BRANCH   24   23
ATOM    111  H17 UNL A   1      34.440  26.554  23.882  1.00  0.00    +0.000 H 
ATOM    110  H16 UNL A   1      33.086  25.431  24.266  1.00  0.00    +0.000 H 
ATOM     23  C15 UNL A   1      34.046  25.813  24.545  1.00  0.00    +0.000 C 
BRANCH   23   22
ATOM    108  H14 UNL A   1      34.606  23.880  23.889  1.00  0.00    +0.000 H 
ATOM    109  H15 UNL A   1      35.941  25.071  24.092  1.00  0.00    +0.000 H 
ATOM     22  C14 UNL A   1      35.041  24.652  24.490  1.00  0.00    +0.000 C 
BRANCH   22   21
ATOM    106  H12 UNL A   1      36.238  24.619  26.231  1.00  0.00    +0.000 H 
ATOM    107  H13 UNL A   1      34.547  24.020  26.410  1.00  0.00    +0.000 H 
ATOM     21  C13 UNL A   1      35.443  24.029  25.825  1.00  0.00    +0.000 C 
BRANCH   21   20
ATOM    105  H11 UNL A   1      35.964  22.254  26.813  1.00  0.00    +0.000 H 
ATOM     20  C12 UNL A   1      35.914  22.581  25.795  1.00  0.00    +0.000 C 
ATOM    104  H10 UNL A   1      36.862  22.548  25.299  1.00  0.00    +0.000 H 
BRANCH   20   19
ATOM     19  N3  UNL A   1      35.012  21.670  25.111  1.00  0.00    +0.000 N 
ATOM    103  H9  UNL A   1      35.374  21.278  24.283  1.00  0.00    +0.000 H 
BRANCH   19   17
ATOM     17  C11 UNL A   1      33.734  21.264  25.427  1.00  0.00    +0.000 C 
ATOM     18  O4  UNL A   1      33.530  20.075  25.681  1.00  0.00    +0.000 O 
BRANCH   17   16
ATOM    131  H37 UNL A   1      31.965  22.184  23.560  1.00  0.00    +0.000 H 
ATOM    100  H6  UNL A   1      29.993  25.019  25.958  1.00  0.00    +0.000 H 
ATOM    101  H7  UNL A   1      31.063  24.065  27.927  1.00  0.00    +0.000 H 
ATOM     11  C6  UNL A   1      30.968  23.723  24.604  1.00  0.00    +0.000 C 
ATOM     12  C7  UNL A   1      30.672  24.248  25.861  1.00  0.00    +0.000 C 
ATOM     13  C8  UNL A   1      31.308  23.719  26.986  1.00  0.00    +0.000 C 
ATOM     14  C9  UNL A   1      32.273  22.720  26.838  1.00  0.00    +0.000 C 
ATOM     16  C10 UNL A   1      32.597  22.212  25.570  1.00  0.00    +0.000 C 
ATOM     92  C63 UNL A   1      31.857  22.651  24.473  1.00  0.00    +0.000 C 
BRANCH   11   10
ATOM     10  C5  UNL A   1      30.476  24.397  23.383  1.00  0.00    +0.000 C 
ATOM     99  H5  UNL A   1      29.593  24.092  22.943  1.00  0.00    +0.000 H 
BRANCH   10    9
ATOM      9  N2  UNL A   1      31.155  25.372  22.867  1.00  0.00    +0.000 N 
BRANCH    9    8
ATOM     97  H3  UNL A   1      27.803  28.304  23.610  1.00  0.00    +0.000 H 
ATOM     98  H4  UNL A   1      28.760  26.074  23.561  1.00  0.00    +0.000 H 
ATOM    132  H38 UNL A   1      32.444  27.668  22.322  1.00  0.00    +0.000 H 
ATOM    133  H39 UNL A   1      31.502  29.905  22.385  1.00  0.00    +0.000 H 
ATOM      6  C2  UNL A   1      28.790  28.170  23.342  1.00  0.00    +0.000 C 
ATOM      5  C1  UNL A   1      29.582  29.267  23.000  1.00  0.00    +0.000 C 
ATOM      7  C3  UNL A   1      29.347  26.887  23.317  1.00  0.00    +0.000 C 
ATOM      8  C4  UNL A   1      30.687  26.689  22.965  1.00  0.00    +0.000 C 
ATOM     93  C64 UNL A   1      31.462  27.801  22.609  1.00  0.00    +0.000 C 
ATOM     94  C65 UNL A   1      30.919  29.090  22.634  1.00  0.00    +0.000 C 
BRANCH    5    2
ATOM      2  S1  UNL A   1      28.886  30.893  23.040  1.00  0.00    +0.000 S 
ATOM      3  O1  UNL A   1      28.810  31.410  21.697  1.00  0.00    +0.000 O 
ATOM      4  O2  UNL A   1      29.497  31.625  24.127  1.00  0.00    +0.000 O 
BRANCH    2    1
ATOM      1  N1  UNL A   1      27.295  30.604  23.498  1.00  0.00    +0.000 N 
ATOM     95  H1  UNL A   1      26.685  30.702  22.687  1.00  0.00    +0.000 H 
ATOM     96  H2  UNL A   1      27.020  31.277  24.213  1.00  0.00    +0.000 H 
ENDBRANCH    2    1
ENDBRANCH    5    2
ENDBRANCH    9    8
ENDBRANCH   10    9
ENDBRANCH   11   10
BRANCH   14   15
ATOM    102  H8  UNL A   1      32.430  22.352  28.807  1.00  0.00    +0.000 H 
ATOM     15  O3  UNL A   1      32.883  22.293  27.989  1.00  0.00    +0.000 O 
ENDBRANCH   14   15
ENDBRANCH   17   16
ENDBRANCH   19   17
ENDBRANCH   20   19
ENDBRANCH   21   20
ENDBRANCH   22   21
ENDBRANCH   23   22
ENDBRANCH   24   23
ENDBRANCH   25   24
ENDBRANCH   26   25
ENDBRANCH   27   26
ENDBRANCH   29   27
ENDBRANCH   33   32
BRANCH   37   38
ATOM     38  C27 UNL A   1      43.345  33.244  31.670  1.00  0.00    +0.000 C 
ATOM     39  C28 UNL A   1      43.635  34.370  30.887  1.00  0.00    +0.000 C 
ATOM     40  F1  UNL A   1      43.961  34.227  29.593  1.00  0.00    +0.000 F 
ATOM     41  C29 UNL A   1      43.636  35.649  31.440  1.00  0.00    +0.000 C 
ATOM     42  F2  UNL A   1      43.971  36.704  30.684  1.00  0.00    +0.000 F 
ATOM     43  C30 UNL A   1      43.307  35.830  32.775  1.00  0.00    +0.000 C 
ATOM     44  F3  UNL A   1      43.305  37.061  33.305  1.00  0.00    +0.000 F 
ATOM     45  C31 UNL A   1      42.991  34.734  33.563  1.00  0.00    +0.000 C 
ATOM     46  F4  UNL A   1      42.660  34.908  34.849  1.00  0.00    +0.000 F 
ATOM     47  C32 UNL A   1      43.020  33.451  33.020  1.00  0.00    +0.000 C 
ATOM     48  F5  UNL A   1      42.727  32.410  33.814  1.00  0.00    +0.000 F 
ENDBRANCH   37   38
BRANCH   54   55
ATOM     65  F10 UNL A   1      47.682  26.874  32.435  1.00  0.00    +0.000 F 
ATOM     55  C38 UNL A   1      48.080  27.972  30.361  1.00  0.00    +0.000 C 
ATOM     56  C39 UNL A   1      49.028  28.423  29.431  1.00  0.00    +0.000 C 
ATOM     57  F6  UNL A   1      48.631  29.038  28.307  1.00  0.00    +0.000 F 
ATOM     58  C40 UNL A   1      50.389  28.215  29.638  1.00  0.00    +0.000 C 
ATOM     59  F7  UNL A   1      51.275  28.618  28.715  1.00  0.00    +0.000 F 
ATOM     60  C41 UNL A   1      50.830  27.581  30.790  1.00  0.00    +0.000 C 
ATOM     61  F8  UNL A   1      52.141  27.394  30.993  1.00  0.00    +0.000 F 
ATOM     62  C42 UNL A   1      49.910  27.140  31.729  1.00  0.00    +0.000 C 
ATOM     63  F9  UNL A   1      50.335  26.540  32.850  1.00  0.00    +0.000 F 
ATOM     64  C43 UNL A   1      48.547  27.320  31.512  1.00  0.00    +0.000 C 
ENDBRANCH   54   55
BRANCH   69   70
ATOM     70  C47 UNL A   1      43.014  24.274  27.312  1.00  0.00    +0.000 C 
ATOM     71  C48 UNL A   1      43.354  24.181  25.956  1.00  0.00    +0.000 C 
ATOM     72  F11 UNL A   1      43.680  25.288  25.271  1.00  0.00    +0.000 F 
ATOM     73  C49 UNL A   1      43.335  22.957  25.291  1.00  0.00    +0.000 C 
ATOM     74  F12 UNL A   1      43.633  22.902  23.986  1.00  0.00    +0.000 F 
ATOM     75  C50 UNL A   1      43.000  21.799  25.975  1.00  0.00    +0.000 C 
ATOM     76  F13 UNL A   1      42.994  20.620  25.338  1.00  0.00    +0.000 F 
ATOM     77  C51 UNL A   1      42.669  21.864  27.321  1.00  0.00    +0.000 C 
ATOM     78  F14 UNL A   1      42.364  20.744  27.990  1.00  0.00    +0.000 F 
ATOM     79  C52 UNL A   1      42.661  23.091  27.979  1.00  0.00    +0.000 C 
ATOM     80  F15 UNL A   1      42.336  23.126  29.280  1.00  0.00    +0.000 F 
ENDBRANCH   69   70
TORSDOF 21
ENDMDL
MODEL 4
REMARK VINA RESULT:     -11.3     50.044     57.472
ROOT
ATOM     33  C23 UNL A   1      53.355  19.818  11.657  1.00  0.00    +0.000 C 
ATOM     34  C24 UNL A   1      53.097  20.461  12.989  1.00  0.00    +0.000 C 
ATOM     35  N5  UNL A   1      53.900  20.590  14.015  1.00  0.00    +0.000 N 
ATOM     36  C25 UNL A   1      53.184  21.303  14.968  1.00  0.00    +0.000 C 
ATOM     37  C26 UNL A   1      53.559  21.645  16.224  1.00  0.00    +0.000 C 
ATOM     49  C33 UNL A   1      54.826  21.299  16.814  1.00  0.00    +0.000 C 
ATOM     50  C34 UNL A   1      55.264  21.521  18.108  1.00  0.00    +0.000 C 
ATOM     51  C35 UNL A   1      56.589  21.079  18.203  1.00  0.00    +0.000 C 
ATOM     52  C36 UNL A   1      56.959  20.535  16.983  1.00  0.00    +0.000 C 
ATOM     53  N6  UNL A   1      55.864  20.668  16.144  1.00  0.00    +0.000 N 
ATOM     54  C37 UNL A   1      58.218  19.943  16.608  1.00  0.00    +0.000 C 
ATOM     66  C44 UNL A   1      58.479  19.369  15.407  1.00  0.00    +0.000 C 
ATOM     67  N7  UNL A   1      57.647  19.239  14.305  1.00  0.00    +0.000 N 
ATOM     68  C45 UNL A   1      58.358  18.632  13.386  1.00  0.00    +0.000 C 
ATOM     69  C46 UNL A   1      57.959  18.228  11.993  1.00  0.00    +0.000 C 
ATOM     81  C53 UNL A   1      56.705  18.474  11.569  1.00  0.00    +0.000 C 
ATOM     82  C54 UNL A   1      56.183  18.146  10.245  1.00  0.00    +0.000 C 
ATOM     83  C55 UNL A   1      54.929  18.611  10.143  1.00  0.00    +0.000 C 
ATOM     84  C56 UNL A   1      54.542  19.231  11.411  1.00  0.00    +0.000 C 
ATOM     85  N8  UNL A   1      55.650  19.079  12.208  1.00  0.00    +0.000 N 
ATOM     86  C57 UNL A   1      59.733  18.319  13.801  1.00  0.00    +0.000 C 
ATOM     87  C58 UNL A   1      59.743  18.760  15.051  1.00  0.00    +0.000 C 
ATOM     88  C59 UNL A   1      51.901  21.622  14.379  1.00  0.00    +0.000 C 
ATOM     89  C60 UNL A   1      51.772  21.069  13.182  1.00  0.00    +0.000 C 
ATOM    119  H25 UNL A   1      54.710  21.938  18.871  1.00  0.00    +0.000 H 
ATOM    120  H26 UNL A   1      57.189  21.147  19.039  1.00  0.00    +0.000 H 
ATOM    121  H27 UNL A   1      55.827  20.359  15.209  1.00  0.00    +0.000 H 
ATOM    122  H28 UNL A   1      56.697  17.640   9.507  1.00  0.00    +0.000 H 
ATOM    123  H29 UNL A   1      54.332  18.543   9.304  1.00  0.00    +0.000 H 
ATOM    124  H30 UNL A   1      55.685  19.374  13.146  1.00  0.00    +0.000 H 
ATOM    125  H31 UNL A   1      60.491  17.874  13.260  1.00  0.00    +0.000 H 
ATOM    126  H32 UNL A   1      60.551  18.679  15.689  1.00  0.00    +0.000 H 
ATOM    127  H33 UNL A   1      51.179  22.204  14.833  1.00  0.00    +0.000 H 
ATOM    128  H34 UNL A   1      50.956  21.065  12.550  1.00  0.00    +0.000 H 
ENDROOT
BRANCH   33   32
ATOM    129  H35 UNL A   1      51.497  18.008  10.988  1.00  0.00    +0.000 H 
ATOM    130  H36 UNL A   1      49.833  18.118   9.228  1.00  0.00    +0.000 H 
ATOM    117  H23 UNL A   1      51.153  21.981   8.214  1.00  0.00    +0.000 H 
ATOM    118  H24 UNL A   1      52.955  21.785   9.828  1.00  0.00    +0.000 H 
ATOM     90  C61 UNL A   1      51.435  18.847  10.391  1.00  0.00    +0.000 C 
ATOM     91  C62 UNL A   1      50.451  18.925   9.407  1.00  0.00    +0.000 C 
ATOM     29  C19 UNL A   1      50.303  20.099   8.662  1.00  0.00    +0.000 C 
ATOM     30  C20 UNL A   1      51.229  21.137   8.803  1.00  0.00    +0.000 C 
ATOM     31  C21 UNL A   1      52.256  21.031   9.743  1.00  0.00    +0.000 C 
ATOM     32  C22 UNL A   1      52.342  19.902  10.574  1.00  0.00    +0.000 C 
BRANCH   29   27
ATOM     27  C18 UNL A   1      49.188  20.267   7.704  1.00  0.00    +0.000 C 
ATOM     28  O5  UNL A   1      48.030  20.230   8.110  1.00  0.00    +0.000 O 
BRANCH   27   26
ATOM     26  N4  UNL A   1      49.441  20.435   6.366  1.00  0.00    +0.000 N 
ATOM    116  H22 UNL A   1      49.730  21.341   6.106  1.00  0.00    +0.000 H 
BRANCH   26   25
ATOM     25  C17 UNL A   1      49.348  19.481   5.273  1.00  0.00    +0.000 C 
ATOM    114  H20 UNL A   1      48.321  19.218   5.137  1.00  0.00    +0.000 H 
ATOM    115  H21 UNL A   1      49.760  19.949   4.404  1.00  0.00    +0.000 H 
BRANCH   25   24
ATOM    113  H19 UNL A   1      50.910  18.481   6.229  1.00  0.00    +0.000 H 
ATOM    112  H18 UNL A   1      50.521  17.861   4.588  1.00  0.00    +0.000 H 
ATOM     24  C16 UNL A   1      50.147  18.208   5.529  1.00  0.00    +0.000 C 
BRANCH   24   23
ATOM    111  H17 UNL A   1      49.609  17.122   7.226  1.00  0.00    +0.000 H 
ATOM    110  H16 UNL A   1      49.702  16.146   5.716  1.00  0.00    +0.000 H 
ATOM     23  C15 UNL A   1      49.383  17.055   6.183  1.00  0.00    +0.000 C 
BRANCH   23   22
ATOM    108  H14 UNL A   1      47.485  17.358   7.069  1.00  0.00    +0.000 H 
ATOM    109  H15 UNL A   1      47.643  17.834   5.339  1.00  0.00    +0.000 H 
ATOM     22  C14 UNL A   1      47.856  17.109   6.096  1.00  0.00    +0.000 C 
BRANCH   22   21
ATOM    106  H12 UNL A   1      47.721  15.414   4.841  1.00  0.00    +0.000 H 
ATOM    107  H13 UNL A   1      47.088  15.222   6.518  1.00  0.00    +0.000 H 
ATOM     21  C13 UNL A   1      47.149  15.834   5.643  1.00  0.00    +0.000 C 
BRANCH   21   20
ATOM    105  H11 UNL A   1      45.083  15.789   6.001  1.00  0.00    +0.000 H 
ATOM     20  C12 UNL A   1      45.713  15.979   5.157  1.00  0.00    +0.000 C 
ATOM    104  H10 UNL A   1      45.558  15.286   4.356  1.00  0.00    +0.000 H 
BRANCH   20   19
ATOM     19  N3  UNL A   1      45.372  17.309   4.678  1.00  0.00    +0.000 N 
ATOM    103  H9  UNL A   1      44.865  17.858   5.319  1.00  0.00    +0.000 H 
BRANCH   19   17
ATOM     17  C11 UNL A   1      45.641  17.928   3.478  1.00  0.00    +0.000 C 
ATOM     18  O4  UNL A   1      46.532  17.475   2.757  1.00  0.00    +0.000 O 
BRANCH   17   16
ATOM    131  H37 UNL A   1      43.401  17.939   1.915  1.00  0.00    +0.000 H 
ATOM    100  H6  UNL A   1      43.127  22.088   1.299  1.00  0.00    +0.000 H 
ATOM    101  H7  UNL A   1      44.786  22.435   3.048  1.00  0.00    +0.000 H 
ATOM     11  C6  UNL A   1      43.205  19.981   1.421  1.00  0.00    +0.000 C 
ATOM     12  C7  UNL A   1      43.569  21.281   1.765  1.00  0.00    +0.000 C 
ATOM     13  C8  UNL A   1      44.541  21.478   2.749  1.00  0.00    +0.000 C 
ATOM     14  C9  UNL A   1      45.180  20.380   3.329  1.00  0.00    +0.000 C 
ATOM     16  C10 UNL A   1      44.839  19.069   2.960  1.00  0.00    +0.000 C 
ATOM     92  C63 UNL A   1      43.773  18.886   2.080  1.00  0.00    +0.000 C 
BRANCH   11   10
ATOM     10  C5  UNL A   1      42.342  19.738   0.245  1.00  0.00    +0.000 C 
ATOM     99  H5  UNL A   1      42.539  18.947  -0.389  1.00  0.00    +0.000 H 
BRANCH   10    9
ATOM      9  N2  UNL A   1      41.336  20.520   0.012  1.00  0.00    +0.000 N 
BRANCH    9    8
ATOM     97  H3  UNL A   1      38.702  18.501   3.073  1.00  0.00    +0.000 H 
ATOM     98  H4  UNL A   1      40.649  18.618   1.630  1.00  0.00    +0.000 H 
ATOM    132  H38 UNL A   1      39.490  22.446   0.350  1.00  0.00    +0.000 H 
ATOM    133  H39 UNL A   1      37.547  22.349   1.803  1.00  0.00    +0.000 H 
ATOM      6  C2  UNL A   1      38.871  19.342   2.499  1.00  0.00    +0.000 C 
ATOM      5  C1  UNL A   1      37.982  20.416   2.543  1.00  0.00    +0.000 C 
ATOM      7  C3  UNL A   1      39.995  19.415   1.670  1.00  0.00    +0.000 C 
ATOM      8  C4  UNL A   1      40.246  20.551   0.893  1.00  0.00    +0.000 C 
ATOM     93  C64 UNL A   1      39.332  21.613   0.936  1.00  0.00    +0.000 C 
ATOM     94  C65 UNL A   1      38.207  21.555   1.765  1.00  0.00    +0.000 C 
BRANCH    5    2
ATOM      2  S1  UNL A   1      36.564  20.334   3.597  1.00  0.00    +0.000 S 
ATOM      3  O1  UNL A   1      36.771  19.311   4.592  1.00  0.00    +0.000 O 
ATOM      4  O2  UNL A   1      35.378  20.396   2.774  1.00  0.00    +0.000 O 
BRANCH    2    1
ATOM      1  N1  UNL A   1      36.638  21.790   4.434  1.00  0.00    +0.000 N 
ATOM     95  H1  UNL A   1      35.698  22.170   4.539  1.00  0.00    +0.000 H 
ATOM     96  H2  UNL A   1      37.216  22.451   3.914  1.00  0.00    +0.000 H 
ENDBRANCH    2    1
ENDBRANCH    5    2
ENDBRANCH    9    8
ENDBRANCH   10    9
ENDBRANCH   11   10
BRANCH   14   15
ATOM    102  H8  UNL A   1      46.946  20.163   4.264  1.00  0.00    +0.000 H 
ATOM     15  O3  UNL A   1      46.156  20.665   4.249  1.00  0.00    +0.000 O 
ENDBRANCH   14   15
ENDBRANCH   17   16
ENDBRANCH   19   17
ENDBRANCH   20   19
ENDBRANCH   21   20
ENDBRANCH   22   21
ENDBRANCH   23   22
ENDBRANCH   24   23
ENDBRANCH   25   24
ENDBRANCH   26   25
ENDBRANCH   27   26
ENDBRANCH   29   27
ENDBRANCH   33   32
BRANCH   37   38
ATOM     38  C27 UNL A   1      52.589  22.446  17.045  1.00  0.00    +0.000 C 
ATOM     39  C28 UNL A   1      52.428  23.827  16.865  1.00  0.00    +0.000 C 
ATOM     40  F1  UNL A   1      53.178  24.483  15.966  1.00  0.00    +0.000 F 
ATOM     41  C29 UNL A   1      51.525  24.552  17.641  1.00  0.00    +0.000 C 
ATOM     42  F2  UNL A   1      51.429  25.880  17.489  1.00  0.00    +0.000 F 
ATOM     43  C30 UNL A   1      50.738  23.904  18.581  1.00  0.00    +0.000 C 
ATOM     44  F3  UNL A   1      49.867  24.601  19.323  1.00  0.00    +0.000 F 
ATOM     45  C31 UNL A   1      50.861  22.534  18.758  1.00  0.00    +0.000 C 
ATOM     46  F4  UNL A   1      50.092  21.904  19.656  1.00  0.00    +0.000 F 
ATOM     47  C32 UNL A   1      51.785  21.812  18.006  1.00  0.00    +0.000 C 
ATOM     48  F5  UNL A   1      51.893  20.491  18.215  1.00  0.00    +0.000 F 
ENDBRANCH   37   38
BRANCH   54   55
ATOM     65  F10 UNL A   1      58.945  17.658  18.145  1.00  0.00    +0.000 F 
ATOM     55  C38 UNL A   1      59.324  19.949  17.623  1.00  0.00    +0.000 C 
ATOM     56  C39 UNL A   1      60.057  21.113  17.897  1.00  0.00    +0.000 C 
ATOM     57  F6  UNL A   1      59.822  22.237  17.203  1.00  0.00    +0.000 F 
ATOM     58  C40 UNL A   1      61.057  21.118  18.865  1.00  0.00    +0.000 C 
ATOM     59  F7  UNL A   1      61.772  22.231  19.082  1.00  0.00    +0.000 F 
ATOM     60  C41 UNL A   1      61.323  19.971  19.598  1.00  0.00    +0.000 C 
ATOM     61  F8  UNL A   1      62.278  19.981  20.538  1.00  0.00    +0.000 F 
ATOM     62  C42 UNL A   1      60.601  18.813  19.352  1.00  0.00    +0.000 C 
ATOM     63  F9  UNL A   1      60.847  17.707  20.069  1.00  0.00    +0.000 F 
ATOM     64  C43 UNL A   1      59.621  18.795  18.365  1.00  0.00    +0.000 C 
ENDBRANCH   54   55
BRANCH   69   70
ATOM     70  C47 UNL A   1      58.926  17.563  11.081  1.00  0.00    +0.000 C 
ATOM     71  C48 UNL A   1      59.054  16.168  11.057  1.00  0.00    +0.000 C 
ATOM     72  F11 UNL A   1      58.325  15.415  11.894  1.00  0.00    +0.000 F 
ATOM     73  C49 UNL A   1      59.950  15.543  10.193  1.00  0.00    +0.000 C 
ATOM     74  F12 UNL A   1      60.076  14.209  10.214  1.00  0.00    +0.000 F 
ATOM     75  C50 UNL A   1      60.717  16.298   9.319  1.00  0.00    +0.000 C 
ATOM     76  F13 UNL A   1      61.569  15.694   8.479  1.00  0.00    +0.000 F 
ATOM     77  C51 UNL A   1      60.601  17.680   9.318  1.00  0.00    +0.000 C 
ATOM     78  F14 UNL A   1      61.325  18.412   8.460  1.00  0.00    +0.000 F 
ATOM     79  C52 UNL A   1      59.725  18.308  10.200  1.00  0.00    +0.000 C 
ATOM     80  F15 UNL A   1      59.633  19.646  10.179  1.00  0.00    +0.000 F 
ENDBRANCH   69   70
TORSDOF 21
ENDMDL
MODEL 5
REMARK VINA RESULT:     -11.2     51.110     57.724
ROOT
ATOM     33  C23 UNL A   1      53.409  19.789  11.605  1.00  0.00    +0.000 C 
ATOM     34  C24 UNL A   1      53.141  20.426  12.938  1.00  0.00    +0.000 C 
ATOM     35  N5  UNL A   1      53.944  20.572  13.962  1.00  0.00    +0.000 N 
ATOM     36  C25 UNL A   1      53.215  21.267  14.917  1.00  0.00    +0.000 C 
ATOM     37  C26 UNL A   1      53.587  21.617  16.173  1.00  0.00    +0.000 C 
ATOM     49  C33 UNL A   1      54.864  21.299  16.758  1.00  0.00    +0.000 C 
ATOM     50  C34 UNL A   1      55.301  21.530  18.050  1.00  0.00    +0.000 C 
ATOM     51  C35 UNL A   1      56.636  21.118  18.140  1.00  0.00    +0.000 C 
ATOM     52  C36 UNL A   1      57.014  20.584  16.919  1.00  0.00    +0.000 C 
ATOM     53  N6  UNL A   1      55.914  20.693  16.083  1.00  0.00    +0.000 N 
ATOM     54  C37 UNL A   1      58.285  20.021  16.540  1.00  0.00    +0.000 C 
ATOM     66  C44 UNL A   1      58.554  19.453  15.337  1.00  0.00    +0.000 C 
ATOM     67  N7  UNL A   1      57.721  19.305  14.237  1.00  0.00    +0.000 N 
ATOM     68  C45 UNL A   1      58.443  18.715  13.316  1.00  0.00    +0.000 C 
ATOM     69  C46 UNL A   1      58.049  18.303  11.924  1.00  0.00    +0.000 C 
ATOM     81  C53 UNL A   1      56.788  18.521  11.504  1.00  0.00    +0.000 C 
ATOM     82  C54 UNL A   1      56.269  18.183  10.182  1.00  0.00    +0.000 C 
ATOM     83  C55 UNL A   1      55.004  18.619  10.085  1.00  0.00    +0.000 C 
ATOM     84  C56 UNL A   1      54.608  19.229  11.354  1.00  0.00    +0.000 C 
ATOM     85  N8  UNL A   1      55.722  19.101  12.147  1.00  0.00    +0.000 N 
ATOM     86  C57 UNL A   1      59.826  18.433  13.726  1.00  0.00    +0.000 C 
ATOM     87  C58 UNL A   1      59.831  18.873  14.976  1.00  0.00    +0.000 C 
ATOM     88  C59 UNL A   1      51.924  21.558  14.333  1.00  0.00    +0.000 C 
ATOM     89  C60 UNL A   1      51.803  21.003  13.136  1.00  0.00    +0.000 C 
ATOM    119  H25 UNL A   1      54.740  21.934  18.816  1.00  0.00    +0.000 H 
ATOM    120  H26 UNL A   1      57.237  21.199  18.975  1.00  0.00    +0.000 H 
ATOM    121  H27 UNL A   1      55.880  20.383  15.149  1.00  0.00    +0.000 H 
ATOM    122  H28 UNL A   1      56.791  17.689   9.442  1.00  0.00    +0.000 H 
ATOM    123  H29 UNL A   1      54.406  18.538   9.247  1.00  0.00    +0.000 H 
ATOM    124  H30 UNL A   1      55.753  19.397  13.086  1.00  0.00    +0.000 H 
ATOM    125  H31 UNL A   1      60.592  18.005  13.182  1.00  0.00    +0.000 H 
ATOM    126  H32 UNL A   1      60.642  18.809  15.611  1.00  0.00    +0.000 H 
ATOM    127  H33 UNL A   1      51.191  22.123  14.790  1.00  0.00    +0.000 H 
ATOM    128  H34 UNL A   1      50.985  20.981  12.507  1.00  0.00    +0.000 H 
ENDROOT
BRANCH   33   32
ATOM    129  H35 UNL A   1      51.650  17.902  10.882  1.00  0.00    +0.000 H 
ATOM    130  H36 UNL A   1      49.979  17.975   9.126  1.00  0.00    +0.000 H 
ATOM    117  H23 UNL A   1      51.085  21.933   8.230  1.00  0.00    +0.000 H 
ATOM    118  H24 UNL A   1      52.898  21.787   9.837  1.00  0.00    +0.000 H 
ATOM     90  C61 UNL A   1      51.542  18.755  10.310  1.00  0.00    +0.000 C 
ATOM     91  C62 UNL A   1      50.553  18.809   9.330  1.00  0.00    +0.000 C 
ATOM     29  C19 UNL A   1      50.340  19.995   8.621  1.00  0.00    +0.000 C 
ATOM     30  C20 UNL A   1      51.208  21.077   8.794  1.00  0.00    +0.000 C 
ATOM     31  C21 UNL A   1      52.241  20.999   9.730  1.00  0.00    +0.000 C 
ATOM     32  C22 UNL A   1      52.391  19.851  10.525  1.00  0.00    +0.000 C 
BRANCH   29   27
ATOM     27  C18 UNL A   1      49.215  20.131   7.669  1.00  0.00    +0.000 C 
ATOM     28  O5  UNL A   1      48.061  20.064   8.082  1.00  0.00    +0.000 O 
BRANCH   27   26
ATOM     26  N4  UNL A   1      49.456  20.305   6.329  1.00  0.00    +0.000 N 
ATOM    116  H22 UNL A   1      49.636  21.234   6.054  1.00  0.00    +0.000 H 
BRANCH   26   25
ATOM     25  C17 UNL A   1      49.488  19.327   5.255  1.00  0.00    +0.000 C 
ATOM    114  H20 UNL A   1      48.482  19.100   4.970  1.00  0.00    +0.000 H 
ATOM    115  H21 UNL A   1      50.045  19.755   4.448  1.00  0.00    +0.000 H 
BRANCH   25   24
ATOM    113  H19 UNL A   1      50.505  18.174   6.665  1.00  0.00    +0.000 H 
ATOM    112  H18 UNL A   1      50.982  17.860   4.961  1.00  0.00    +0.000 H 
ATOM     24  C16 UNL A   1      50.184  18.030   5.654  1.00  0.00    +0.000 C 
BRANCH   24   23
ATOM    111  H17 UNL A   1      49.638  16.216   6.525  1.00  0.00    +0.000 H 
ATOM    110  H16 UNL A   1      49.432  16.276   4.738  1.00  0.00    +0.000 H 
ATOM     23  C15 UNL A   1      49.308  16.776   5.676  1.00  0.00    +0.000 C 
BRANCH   23   22
ATOM    108  H14 UNL A   1      47.664  17.253   6.920  1.00  0.00    +0.000 H 
ATOM    109  H15 UNL A   1      47.531  17.753   5.194  1.00  0.00    +0.000 H 
ATOM     22  C14 UNL A   1      47.809  16.992   5.892  1.00  0.00    +0.000 C 
BRANCH   22   21
ATOM    106  H12 UNL A   1      47.230  15.371   4.665  1.00  0.00    +0.000 H 
ATOM    107  H13 UNL A   1      46.966  15.169   6.437  1.00  0.00    +0.000 H 
ATOM     21  C13 UNL A   1      46.894  15.808   5.582  1.00  0.00    +0.000 C 
BRANCH   21   20
ATOM    105  H11 UNL A   1      44.997  16.114   6.421  1.00  0.00    +0.000 H 
ATOM     20  C12 UNL A   1      45.409  16.109   5.433  1.00  0.00    +0.000 C 
ATOM    104  H10 UNL A   1      44.977  15.357   4.804  1.00  0.00    +0.000 H 
BRANCH   20   19
ATOM     19  N3  UNL A   1      45.114  17.409   4.854  1.00  0.00    +0.000 N 
ATOM    103  H9  UNL A   1      44.751  18.068   5.490  1.00  0.00    +0.000 H 
BRANCH   19   17
ATOM     17  C11 UNL A   1      45.256  17.873   3.566  1.00  0.00    +0.000 C 
ATOM     18  O4  UNL A   1      45.899  17.202   2.756  1.00  0.00    +0.000 O 
BRANCH   17   16
ATOM    131  H37 UNL A   1      42.965  18.172   2.109  1.00  0.00    +0.000 H 
ATOM    100  H6  UNL A   1      43.214  22.318   1.457  1.00  0.00    +0.000 H 
ATOM    101  H7  UNL A   1      44.986  22.451   3.123  1.00  0.00    +0.000 H 
ATOM     11  C6  UNL A   1      43.018  20.219   1.600  1.00  0.00    +0.000 C 
ATOM     12  C7  UNL A   1      43.567  21.462   1.912  1.00  0.00    +0.000 C 
ATOM     13  C8  UNL A   1      44.602  21.534   2.847  1.00  0.00    +0.000 C 
ATOM     14  C9  UNL A   1      45.118  20.363   3.409  1.00  0.00    +0.000 C 
ATOM     16  C10 UNL A   1      44.589  19.107   3.073  1.00  0.00    +0.000 C 
ATOM     92  C63 UNL A   1      43.467  19.063   2.246  1.00  0.00    +0.000 C 
BRANCH   11   10
ATOM     10  C5  UNL A   1      42.075  20.087   0.469  1.00  0.00    +0.000 C 
ATOM     99  H5  UNL A   1      42.339  20.428  -0.469  1.00  0.00    +0.000 H 
BRANCH   10    9
ATOM      9  N2  UNL A   1      40.915  19.542   0.658  1.00  0.00    +0.000 N 
BRANCH    9    8
ATOM     97  H3  UNL A   1      38.598  21.922  -2.400  1.00  0.00    +0.000 H 
ATOM     98  H4  UNL A   1      40.505  20.614  -1.664  1.00  0.00    +0.000 H 
ATOM    132  H38 UNL A   1      38.699  20.066   2.089  1.00  0.00    +0.000 H 
ATOM    133  H39 UNL A   1      36.778  21.359   1.357  1.00  0.00    +0.000 H 
ATOM      6  C2  UNL A   1      38.616  21.524  -1.448  1.00  0.00    +0.000 C 
ATOM      5  C1  UNL A   1      37.549  21.737  -0.575  1.00  0.00    +0.000 C 
ATOM      7  C3  UNL A   1      39.711  20.765  -1.022  1.00  0.00    +0.000 C 
ATOM      8  C4  UNL A   1      39.748  20.209   0.262  1.00  0.00    +0.000 C 
ATOM     93  C64 UNL A   1      38.675  20.449   1.131  1.00  0.00    +0.000 C 
ATOM     94  C65 UNL A   1      37.571  21.201   0.716  1.00  0.00    +0.000 C 
BRANCH    5    2
ATOM      2  S1  UNL A   1      36.157  22.687  -1.112  1.00  0.00    +0.000 S 
ATOM      3  O1  UNL A   1      36.616  23.785  -1.925  1.00  0.00    +0.000 O 
ATOM      4  O2  UNL A   1      35.264  22.865   0.011  1.00  0.00    +0.000 O 
BRANCH    2    1
ATOM      1  N1  UNL A   1      35.380  21.640  -2.173  1.00  0.00    +0.000 N 
ATOM     95  H1  UNL A   1      34.569  21.229  -1.713  1.00  0.00    +0.000 H 
ATOM     96  H2  UNL A   1      36.024  20.900  -2.453  1.00  0.00    +0.000 H 
ENDBRANCH    2    1
ENDBRANCH    5    2
ENDBRANCH    9    8
ENDBRANCH   10    9
ENDBRANCH   11   10
BRANCH   14   15
ATOM    102  H8  UNL A   1      46.000  20.644   5.193  1.00  0.00    +0.000 H 
ATOM     15  O3  UNL A   1      46.165  20.522   4.279  1.00  0.00    +0.000 O 
ENDBRANCH   14   15
ENDBRANCH   17   16
ENDBRANCH   19   17
ENDBRANCH   20   19
ENDBRANCH   21   20
ENDBRANCH   22   21
ENDBRANCH   23   22
ENDBRANCH   24   23
ENDBRANCH   25   24
ENDBRANCH   26   25
ENDBRANCH   27   26
ENDBRANCH   29   27
ENDBRANCH   33   32
BRANCH   37   38
ATOM     38  C27 UNL A   1      52.602  22.395  16.997  1.00  0.00    +0.000 C 
ATOM     39  C28 UNL A   1      52.425  23.777  16.835  1.00  0.00    +0.000 C 
ATOM     40  F1  UNL A   1      53.174  24.453  15.950  1.00  0.00    +0.000 F 
ATOM     41  C29 UNL A   1      51.509  24.480  17.614  1.00  0.00    +0.000 C 
ATOM     42  F2  UNL A   1      51.399  25.809  17.479  1.00  0.00    +0.000 F 
ATOM     43  C30 UNL A   1      50.723  23.811  18.540  1.00  0.00    +0.000 C 
ATOM     44  F3  UNL A   1      49.839  24.487  19.285  1.00  0.00    +0.000 F 
ATOM     45  C31 UNL A   1      50.861  22.440  18.699  1.00  0.00    +0.000 C 
ATOM     46  F4  UNL A   1      50.094  21.789  19.583  1.00  0.00    +0.000 F 
ATOM     47  C32 UNL A   1      51.799  21.739  17.944  1.00  0.00    +0.000 C 
ATOM     48  F5  UNL A   1      51.921  20.417  18.136  1.00  0.00    +0.000 F 
ENDBRANCH   37   38
BRANCH   54   55
ATOM     65  F10 UNL A   1      59.867  22.331  17.062  1.00  0.00    +0.000 F 
ATOM     55  C38 UNL A   1      59.393  20.050  17.551  1.00  0.00    +0.000 C 
ATOM     56  C39 UNL A   1      59.738  18.909  18.289  1.00  0.00    +0.000 C 
ATOM     57  F6  UNL A   1      59.032  17.777  18.149  1.00  0.00    +0.000 F 
ATOM     58  C40 UNL A   1      60.790  18.936  19.200  1.00  0.00    +0.000 C 
ATOM     59  F7  UNL A   1      61.075  17.844  19.925  1.00  0.00    +0.000 F 
ATOM     60  C41 UNL A   1      61.537  20.093  19.367  1.00  0.00    +0.000 C 
ATOM     61  F8  UNL A   1      62.558  20.112  20.235  1.00  0.00    +0.000 F 
ATOM     62  C42 UNL A   1      61.222  21.228  18.637  1.00  0.00    +0.000 C 
ATOM     63  F9  UNL A   1      61.952  22.343  18.787  1.00  0.00    +0.000 F 
ATOM     64  C43 UNL A   1      60.152  21.214  17.747  1.00  0.00    +0.000 C 
ENDBRANCH   54   55
BRANCH   69   70
ATOM     70  C47 UNL A   1      59.028  17.661  11.008  1.00  0.00    +0.000 C 
ATOM     71  C48 UNL A   1      59.805  18.428  10.131  1.00  0.00    +0.000 C 
ATOM     72  F11 UNL A   1      59.644  19.758  10.083  1.00  0.00    +0.000 F 
ATOM     73  C49 UNL A   1      60.733  17.828   9.281  1.00  0.00    +0.000 C 
ATOM     74  F12 UNL A   1      61.440  18.582   8.429  1.00  0.00    +0.000 F 
ATOM     75  C50 UNL A   1      60.918  16.455   9.310  1.00  0.00    +0.000 C 
ATOM     76  F13 UNL A   1      61.820  15.881   8.501  1.00  0.00    +0.000 F 
ATOM     77  C51 UNL A   1      60.166  15.676  10.177  1.00  0.00    +0.000 C 
ATOM     78  F14 UNL A   1      60.356  14.350  10.222  1.00  0.00    +0.000 F 
ATOM     79  C52 UNL A   1      59.220  16.271  11.008  1.00  0.00    +0.000 C 
ATOM     80  F15 UNL A   1      58.505  15.494  11.836  1.00  0.00    +0.000 F 
ENDBRANCH   69   70
TORSDOF 21
ENDMDL
MODEL 6
REMARK VINA RESULT:     -11.1     51.267     58.559
ROOT
ATOM     33  C23 UNL A   1      53.261  19.629  11.597  1.00  0.00    +0.000 C 
ATOM     34  C24 UNL A   1      54.625  19.021  11.440  1.00  0.00    +0.000 C 
ATOM     35  N5  UNL A   1      55.639  19.036  12.269  1.00  0.00    +0.000 N 
ATOM     36  C25 UNL A   1      56.636  18.287  11.659  1.00  0.00    +0.000 C 
ATOM     37  C26 UNL A   1      57.898  18.050  12.093  1.00  0.00    +0.000 C 
ATOM     49  C33 UNL A   1      58.445  18.572  13.319  1.00  0.00    +0.000 C 
ATOM     50  C34 UNL A   1      59.737  18.463  13.801  1.00  0.00    +0.000 C 
ATOM     51  C35 UNL A   1      59.784  19.065  15.064  1.00  0.00    +0.000 C 
ATOM     52  C36 UNL A   1      58.535  19.592  15.347  1.00  0.00    +0.000 C 
ATOM     53  N6  UNL A   1      57.725  19.291  14.263  1.00  0.00    +0.000 N 
ATOM     54  C37 UNL A   1      58.108  20.313  16.519  1.00  0.00    +0.000 C 
ATOM     66  C44 UNL A   1      56.878  20.859  16.689  1.00  0.00    +0.000 C 
ATOM     67  N7  UNL A   1      55.788  20.838  15.830  1.00  0.00    +0.000 N 
ATOM     68  C45 UNL A   1      54.829  21.483  16.448  1.00  0.00    +0.000 C 
ATOM     69  C46 UNL A   1      53.429  21.773  15.981  1.00  0.00    +0.000 C 
ATOM     81  C53 UNL A   1      53.043  21.359  14.759  1.00  0.00    +0.000 C 
ATOM     82  C54 UNL A   1      51.718  21.561  14.180  1.00  0.00    +0.000 C 
ATOM     83  C55 UNL A   1      51.663  20.945  12.989  1.00  0.00    +0.000 C 
ATOM     84  C56 UNL A   1      52.964  20.342  12.700  1.00  0.00    +0.000 C 
ATOM     85  N8  UNL A   1      53.730  20.662  13.795  1.00  0.00    +0.000 N 
ATOM     86  C57 UNL A   1      55.201  21.977  17.782  1.00  0.00    +0.000 C 
ATOM     87  C58 UNL A   1      56.468  21.598  17.865  1.00  0.00    +0.000 C 
ATOM     88  C59 UNL A   1      56.089  17.790  10.415  1.00  0.00    +0.000 C 
ATOM     89  C60 UNL A   1      54.873  18.268  10.201  1.00  0.00    +0.000 C 
ATOM    119  H25 UNL A   1      60.530  18.018  13.314  1.00  0.00    +0.000 H 
ATOM    120  H26 UNL A   1      60.610  19.106  15.682  1.00  0.00    +0.000 H 
ATOM    121  H27 UNL A   1      56.780  19.550  14.174  1.00  0.00    +0.000 H 
ATOM    122  H28 UNL A   1      50.948  22.091  14.617  1.00  0.00    +0.000 H 
ATOM    123  H29 UNL A   1      50.834  20.903  12.375  1.00  0.00    +0.000 H 
ATOM    124  H30 UNL A   1      54.679  20.416  13.881  1.00  0.00    +0.000 H 
ATOM    125  H31 UNL A   1      54.625  22.485  18.472  1.00  0.00    +0.000 H 
ATOM    126  H32 UNL A   1      57.084  21.804  18.667  1.00  0.00    +0.000 H 
ATOM    127  H33 UNL A   1      56.584  17.148   9.776  1.00  0.00    +0.000 H 
ATOM    128  H34 UNL A   1      54.259  18.146   9.381  1.00  0.00    +0.000 H 
ENDROOT
BRANCH   33   32
ATOM    129  H35 UNL A   1      52.187  21.362   9.860  1.00  0.00    +0.000 H 
ATOM    130  H36 UNL A   1      50.464  20.976   8.198  1.00  0.00    +0.000 H 
ATOM    117  H23 UNL A   1      50.328  16.912   9.273  1.00  0.00    +0.000 H 
ATOM    118  H24 UNL A   1      51.893  17.341  11.078  1.00  0.00    +0.000 H 
ATOM     90  C61 UNL A   1      51.783  20.419   9.747  1.00  0.00    +0.000 C 
ATOM     91  C62 UNL A   1      50.823  20.191   8.763  1.00  0.00    +0.000 C 
ATOM     29  C19 UNL A   1      50.346  18.895   8.544  1.00  0.00    +0.000 C 
ATOM     30  C20 UNL A   1      50.723  17.858   9.400  1.00  0.00    +0.000 C 
ATOM     31  C21 UNL A   1      51.636  18.100  10.429  1.00  0.00    +0.000 C 
ATOM     32  C22 UNL A   1      52.205  19.375  10.585  1.00  0.00    +0.000 C 
BRANCH   29   27
ATOM     27  C18 UNL A   1      49.428  18.593   7.422  1.00  0.00    +0.000 C 
ATOM     28  O5  UNL A   1      49.019  17.446   7.267  1.00  0.00    +0.000 O 
BRANCH   27   26
ATOM     26  N4  UNL A   1      49.057  19.579   6.543  1.00  0.00    +0.000 N 
ATOM    116  H22 UNL A   1      48.265  20.102   6.812  1.00  0.00    +0.000 H 
BRANCH   26   25
ATOM     25  C17 UNL A   1      49.653  19.971   5.278  1.00  0.00    +0.000 C 
ATOM    114  H20 UNL A   1      48.914  19.881   4.510  1.00  0.00    +0.000 H 
ATOM    115  H21 UNL A   1      49.997  20.979   5.384  1.00  0.00    +0.000 H 
BRANCH   25   24
ATOM    113  H19 UNL A   1      50.878  19.105   3.828  1.00  0.00    +0.000 H 
ATOM    112  H18 UNL A   1      50.725  18.150   5.343  1.00  0.00    +0.000 H 
ATOM     24  C16 UNL A   1      50.856  19.115   4.898  1.00  0.00    +0.000 C 
BRANCH   24   23
ATOM    111  H17 UNL A   1      52.027  20.598   5.780  1.00  0.00    +0.000 H 
ATOM    110  H16 UNL A   1      52.849  19.684   4.464  1.00  0.00    +0.000 H 
ATOM     23  C15 UNL A   1      52.224  19.647   5.332  1.00  0.00    +0.000 C 
BRANCH   23   22
ATOM    108  H14 UNL A   1      52.443  18.978   7.328  1.00  0.00    +0.000 H 
ATOM    109  H15 UNL A   1      52.975  17.835   6.040  1.00  0.00    +0.000 H 
ATOM     22  C14 UNL A   1      52.964  18.842   6.402  1.00  0.00    +0.000 C 
BRANCH   22   21
ATOM    106  H12 UNL A   1      54.631  20.107   6.107  1.00  0.00    +0.000 H 
ATOM    107  H13 UNL A   1      54.531  19.273   7.702  1.00  0.00    +0.000 H 
ATOM     21  C13 UNL A   1      54.430  19.201   6.639  1.00  0.00    +0.000 C 
BRANCH   21   20
ATOM    105  H11 UNL A   1      55.766  17.650   7.094  1.00  0.00    +0.000 H 
ATOM     20  C12 UNL A   1      55.467  18.173   6.208  1.00  0.00    +0.000 C 
ATOM    104  H10 UNL A   1      56.276  18.691   5.736  1.00  0.00    +0.000 H 
BRANCH   20   19
ATOM     19  N3  UNL A   1      54.970  17.168   5.284  1.00  0.00    +0.000 N 
ATOM    103  H9  UNL A   1      55.216  17.319   4.342  1.00  0.00    +0.000 H 
BRANCH   19   17
ATOM     17  C11 UNL A   1      54.210  16.041   5.504  1.00  0.00    +0.000 C 
ATOM     18  O4  UNL A   1      54.405  15.379   6.526  1.00  0.00    +0.000 O 
BRANCH   17   16
ATOM    131  H37 UNL A   1      51.512  16.325   5.818  1.00  0.00    +0.000 H 
ATOM    100  H6  UNL A   1      50.287  14.115   2.457  1.00  0.00    +0.000 H 
ATOM    101  H7  UNL A   1      52.582  14.125   1.643  1.00  0.00    +0.000 H 
ATOM     11  C6  UNL A   1      50.747  15.148   4.242  1.00  0.00    +0.000 C 
ATOM     12  C7  UNL A   1      51.038  14.544   3.020  1.00  0.00    +0.000 C 
ATOM     13  C8  UNL A   1      52.359  14.526   2.567  1.00  0.00    +0.000 C 
ATOM     14  C9  UNL A   1      53.379  15.052   3.365  1.00  0.00    +0.000 C 
ATOM     16  C10 UNL A   1      53.093  15.631   4.611  1.00  0.00    +0.000 C 
ATOM     92  C63 UNL A   1      51.757  15.767   4.987  1.00  0.00    +0.000 C 
BRANCH   11   10
ATOM     10  C5  UNL A   1      49.405  14.999   4.843  1.00  0.00    +0.000 C 
ATOM     99  H5  UNL A   1      49.304  14.619   5.797  1.00  0.00    +0.000 H 
BRANCH   10    9
ATOM      9  N2  UNL A   1      48.355  15.347   4.169  1.00  0.00    +0.000 N 
BRANCH    9    8
ATOM     97  H3  UNL A   1      44.294  16.607   5.687  1.00  0.00    +0.000 H 
ATOM     98  H4  UNL A   1      46.479  17.044   4.724  1.00  0.00    +0.000 H 
ATOM    132  H38 UNL A   1      47.333  12.931   4.762  1.00  0.00    +0.000 H 
ATOM    133  H39 UNL A   1      45.143  12.480   5.708  1.00  0.00    +0.000 H 
ATOM      6  C2  UNL A   1      44.937  15.825   5.485  1.00  0.00    +0.000 C 
ATOM      5  C1  UNL A   1      44.559  14.512   5.769  1.00  0.00    +0.000 C 
ATOM      7  C3  UNL A   1      46.194  16.072   4.926  1.00  0.00    +0.000 C 
ATOM      8  C4  UNL A   1      47.075  15.023   4.637  1.00  0.00    +0.000 C 
ATOM     93  C64 UNL A   1      46.685  13.712   4.945  1.00  0.00    +0.000 C 
ATOM     94  C65 UNL A   1      45.428  13.451   5.500  1.00  0.00    +0.000 C 
BRANCH    5    2
ATOM      2  S1  UNL A   1      42.966  14.192   6.466  1.00  0.00    +0.000 S 
ATOM      3  O1  UNL A   1      43.107  13.943   7.879  1.00  0.00    +0.000 O 
ATOM      4  O2  UNL A   1      42.250  13.299   5.582  1.00  0.00    +0.000 O 
BRANCH    2    1
ATOM      1  N1  UNL A   1      42.203  15.686   6.351  1.00  0.00    +0.000 N 
ATOM     95  H1  UNL A   1      41.329  15.663   6.875  1.00  0.00    +0.000 H 
ATOM     96  H2  UNL A   1      42.008  15.893   5.372  1.00  0.00    +0.000 H 
ENDBRANCH    2    1
ENDBRANCH    5    2
ENDBRANCH    9    8
ENDBRANCH   10    9
ENDBRANCH   11   10
BRANCH   14   15
ATOM    102  H8  UNL A   1      54.785  14.687   1.976  1.00  0.00    +0.000 H 
ATOM     15  O3  UNL A   1      54.651  14.947   2.866  1.00  0.00    +0.000 O 
ENDBRANCH   14   15
ENDBRANCH   17   16
ENDBRANCH   19   17
ENDBRANCH   20   19
ENDBRANCH   21   20
ENDBRANCH   22   21
ENDBRANCH   23   22
ENDBRANCH   24   23
ENDBRANCH   25   24
ENDBRANCH   26   25
ENDBRANCH   27   26
ENDBRANCH   29   27
ENDBRANCH   33   32
BRANCH   37   38
ATOM     38  C27 UNL A   1      58.773  17.177  11.240  1.00  0.00    +0.000 C 
ATOM     39  C28 UNL A   1      59.579  17.705  10.221  1.00  0.00    +0.000 C 
ATOM     40  F1  UNL A   1      59.556  19.020   9.956  1.00  0.00    +0.000 F 
ATOM     41  C29 UNL A   1      60.381  16.877   9.438  1.00  0.00    +0.000 C 
ATOM     42  F2  UNL A   1      61.100  17.398   8.434  1.00  0.00    +0.000 F 
ATOM     43  C30 UNL A   1      60.424  15.514   9.685  1.00  0.00    +0.000 C 
ATOM     44  F3  UNL A   1      61.198  14.719   8.934  1.00  0.00    +0.000 F 
ATOM     45  C31 UNL A   1      59.656  14.972  10.705  1.00  0.00    +0.000 C 
ATOM     46  F4  UNL A   1      59.706  13.657  10.954  1.00  0.00    +0.000 F 
ATOM     47  C32 UNL A   1      58.829  15.793  11.469  1.00  0.00    +0.000 C 
ATOM     48  F5  UNL A   1      58.084  15.236  12.435  1.00  0.00    +0.000 F 
ENDBRANCH   37   38
BRANCH   54   55
ATOM     65  F10 UNL A   1      59.633  22.687  16.903  1.00  0.00    +0.000 F 
ATOM     55  C38 UNL A   1      59.098  20.486  17.633  1.00  0.00    +0.000 C 
ATOM     56  C39 UNL A   1      59.353  19.455  18.550  1.00  0.00    +0.000 C 
ATOM     57  F6  UNL A   1      58.661  18.307  18.483  1.00  0.00    +0.000 F 
ATOM     58  C40 UNL A   1      60.298  19.612  19.559  1.00  0.00    +0.000 C 
ATOM     59  F7  UNL A   1      60.496  18.628  20.448  1.00  0.00    +0.000 F 
ATOM     60  C41 UNL A   1      61.028  20.788  19.653  1.00  0.00    +0.000 C 
ATOM     61  F8  UNL A   1      61.947  20.931  20.618  1.00  0.00    +0.000 F 
ATOM     62  C42 UNL A   1      60.801  21.814  18.750  1.00  0.00    +0.000 C 
ATOM     63  F9  UNL A   1      61.515  22.946  18.831  1.00  0.00    +0.000 F 
ATOM     64  C43 UNL A   1      59.836  21.673  17.758  1.00  0.00    +0.000 C 
ENDBRANCH   54   55
BRANCH   69   70
ATOM     70  C47 UNL A   1      52.468  22.506  16.846  1.00  0.00    +0.000 C 
ATOM     71  C48 UNL A   1      51.763  21.847  17.861  1.00  0.00    +0.000 C 
ATOM     72  F11 UNL A   1      51.922  20.526  18.037  1.00  0.00    +0.000 F 
ATOM     73  C49 UNL A   1      50.872  22.535  18.682  1.00  0.00    +0.000 C 
ATOM     74  F12 UNL A   1      50.186  21.874  19.623  1.00  0.00    +0.000 F 
ATOM     75  C50 UNL A   1      50.688  23.899  18.519  1.00  0.00    +0.000 C 
ATOM     76  F13 UNL A   1      49.840  24.563  19.318  1.00  0.00    +0.000 F 
ATOM     77  C51 UNL A   1      51.383  24.576  17.527  1.00  0.00    +0.000 C 
ATOM     78  F14 UNL A   1      51.223  25.898  17.380  1.00  0.00    +0.000 F 
ATOM     79  C52 UNL A   1      52.253  23.883  16.689  1.00  0.00    +0.000 C 
ATOM     80  F15 UNL A   1      52.912  24.561  15.737  1.00  0.00    +0.000 F 
ENDBRANCH   69   70
TORSDOF 21
ENDMDL
MODEL 7
REMARK VINA RESULT:     -11.1     21.539     34.896
ROOT
ATOM     33  C23 UNL A   1      21.042  38.143  49.143  1.00  0.00    +0.000 C 
ATOM     34  C24 UNL A   1      21.813  39.424  49.280  1.00  0.00    +0.000 C 
ATOM     35  N5  UNL A   1      23.005  39.725  48.831  1.00  0.00    +0.000 N 
ATOM     36  C25 UNL A   1      23.222  41.048  49.191  1.00  0.00    +0.000 C 
ATOM     37  C26 UNL A   1      24.330  41.805  49.000  1.00  0.00    +0.000 C 
ATOM     49  C33 UNL A   1      25.534  41.332  48.368  1.00  0.00    +0.000 C 
ATOM     50  C34 UNL A   1      26.741  41.991  48.209  1.00  0.00    +0.000 C 
ATOM     51  C35 UNL A   1      27.596  41.165  47.471  1.00  0.00    +0.000 C 
ATOM     52  C36 UNL A   1      26.941  39.971  47.214  1.00  0.00    +0.000 C 
ATOM     53  N6  UNL A   1      25.681  40.084  47.779  1.00  0.00    +0.000 N 
ATOM     54  C37 UNL A   1      27.426  38.816  46.502  1.00  0.00    +0.000 C 
ATOM     66  C44 UNL A   1      26.742  37.654  46.353  1.00  0.00    +0.000 C 
ATOM     67  N7  UNL A   1      25.473  37.325  46.808  1.00  0.00    +0.000 N 
ATOM     68  C45 UNL A   1      25.251  36.099  46.397  1.00  0.00    +0.000 C 
ATOM     69  C46 UNL A   1      24.037  35.236  46.610  1.00  0.00    +0.000 C 
ATOM     81  C53 UNL A   1      23.005  35.715  47.331  1.00  0.00    +0.000 C 
ATOM     82  C54 UNL A   1      21.766  34.995  47.610  1.00  0.00    +0.000 C 
ATOM     83  C55 UNL A   1      20.932  35.806  48.279  1.00  0.00    +0.000 C 
ATOM     84  C56 UNL A   1      21.595  37.088  48.515  1.00  0.00    +0.000 C 
ATOM     85  N8  UNL A   1      22.832  36.934  47.940  1.00  0.00    +0.000 N 
ATOM     86  C57 UNL A   1      26.354  35.516  45.621  1.00  0.00    +0.000 C 
ATOM     87  C58 UNL A   1      27.249  36.493  45.652  1.00  0.00    +0.000 C 
ATOM     88  C59 UNL A   1      22.019  41.508  49.851  1.00  0.00    +0.000 C 
ATOM     89  C60 UNL A   1      21.143  40.524  49.990  1.00  0.00    +0.000 C 
ATOM    119  H25 UNL A   1      26.971  42.928  48.573  1.00  0.00    +0.000 H 
ATOM    120  H26 UNL A   1      28.553  41.406  47.168  1.00  0.00    +0.000 H 
ATOM    121  H27 UNL A   1      24.991  39.381  47.766  1.00  0.00    +0.000 H 
ATOM    122  H28 UNL A   1      21.564  34.021  47.336  1.00  0.00    +0.000 H 
ATOM    123  H29 UNL A   1      19.974  35.563  48.578  1.00  0.00    +0.000 H 
ATOM    124  H30 UNL A   1      23.529  37.629  47.963  1.00  0.00    +0.000 H 
ATOM    125  H31 UNL A   1      26.414  34.590  45.170  1.00  0.00    +0.000 H 
ATOM    126  H32 UNL A   1      28.189  36.432  45.230  1.00  0.00    +0.000 H 
ATOM    127  H33 UNL A   1      21.864  42.476  50.173  1.00  0.00    +0.000 H 
ATOM    128  H34 UNL A   1      20.229  40.528  50.471  1.00  0.00    +0.000 H 
ENDROOT
BRANCH   33   32
ATOM    129  H35 UNL A   1      20.153  37.426  51.566  1.00  0.00    +0.000 H 
ATOM    130  H36 UNL A   1      17.868  37.279  52.364  1.00  0.00    +0.000 H 
ATOM    117  H23 UNL A   1      16.473  38.664  48.646  1.00  0.00    +0.000 H 
ATOM    118  H24 UNL A   1      18.739  38.605  47.778  1.00  0.00    +0.000 H 
ATOM     90  C61 UNL A   1      19.372  37.676  50.939  1.00  0.00    +0.000 C 
ATOM     91  C62 UNL A   1      18.063  37.630  51.413  1.00  0.00    +0.000 C 
ATOM     29  C19 UNL A   1      17.012  38.060  50.598  1.00  0.00    +0.000 C 
ATOM     30  C20 UNL A   1      17.257  38.400  49.264  1.00  0.00    +0.000 C 
ATOM     31  C21 UNL A   1      18.562  38.381  48.769  1.00  0.00    +0.000 C 
ATOM     32  C22 UNL A   1      19.636  38.058  49.615  1.00  0.00    +0.000 C 
BRANCH   29   27
ATOM     27  C18 UNL A   1      15.627  38.152  51.112  1.00  0.00    +0.000 C 
ATOM     28  O5  UNL A   1      15.361  38.962  51.995  1.00  0.00    +0.000 O 
BRANCH   27   26
ATOM     26  N4  UNL A   1      14.649  37.320  50.626  1.00  0.00    +0.000 N 
ATOM    116  H22 UNL A   1      14.540  36.472  51.116  1.00  0.00    +0.000 H 
BRANCH   26   25
ATOM     25  C17 UNL A   1      13.749  37.500  49.499  1.00  0.00    +0.000 C 
ATOM    114  H20 UNL A   1      12.743  37.476  49.859  1.00  0.00    +0.000 H 
ATOM    115  H21 UNL A   1      13.988  38.439  49.045  1.00  0.00    +0.000 H 
BRANCH   25   24
ATOM    113  H19 UNL A   1      13.439  36.811  47.554  1.00  0.00    +0.000 H 
ATOM    112  H18 UNL A   1      13.466  35.523  48.807  1.00  0.00    +0.000 H 
ATOM     24  C16 UNL A   1      13.911  36.421  48.433  1.00  0.00    +0.000 C 
BRANCH   24   23
ATOM    111  H17 UNL A   1      15.416  35.029  48.053  1.00  0.00    +0.000 H 
ATOM    110  H16 UNL A   1      16.004  36.606  48.692  1.00  0.00    +0.000 H 
ATOM     23  C15 UNL A   1      15.347  36.096  48.019  1.00  0.00    +0.000 C 
BRANCH   23   22
ATOM    108  H14 UNL A   1      14.875  36.428  45.982  1.00  0.00    +0.000 H 
ATOM    109  H15 UNL A   1      16.181  37.457  46.677  1.00  0.00    +0.000 H 
ATOM     22  C14 UNL A   1      15.752  36.480  46.594  1.00  0.00    +0.000 C 
BRANCH   22   21
ATOM    106  H12 UNL A   1      17.521  36.286  45.454  1.00  0.00    +0.000 H 
ATOM    107  H13 UNL A   1      17.246  35.037  46.726  1.00  0.00    +0.000 H 
ATOM     21  C13 UNL A   1      16.830  35.623  45.933  1.00  0.00    +0.000 C 
BRANCH   21   20
ATOM    105  H11 UNL A   1      16.062  35.176  44.033  1.00  0.00    +0.000 H 
ATOM     20  C12 UNL A   1      16.363  34.614  44.893  1.00  0.00    +0.000 C 
ATOM    104  H10 UNL A   1      15.565  34.040  45.317  1.00  0.00    +0.000 H 
BRANCH   20   19
ATOM     19  N3  UNL A   1      17.395  33.693  44.444  1.00  0.00    +0.000 N 
ATOM    103  H9  UNL A   1      18.204  33.678  45.005  1.00  0.00    +0.000 H 
BRANCH   19   17
ATOM     17  C11 UNL A   1      17.429  32.838  43.365  1.00  0.00    +0.000 C 
ATOM     18  O4  UNL A   1      17.295  33.302  42.230  1.00  0.00    +0.000 O 
BRANCH   17   16
ATOM    131  H37 UNL A   1      16.111  30.686  42.322  1.00  0.00    +0.000 H 
ATOM    100  H6  UNL A   1      18.274  27.659  44.279  1.00  0.00    +0.000 H 
ATOM    101  H7  UNL A   1      19.931  29.311  44.955  1.00  0.00    +0.000 H 
ATOM     11  C6  UNL A   1      17.025  29.068  43.322  1.00  0.00    +0.000 C 
ATOM     12  C7  UNL A   1      18.141  28.655  44.048  1.00  0.00    +0.000 C 
ATOM     13  C8  UNL A   1      19.076  29.608  44.458  1.00  0.00    +0.000 C 
ATOM     14  C9  UNL A   1      18.855  30.962  44.196  1.00  0.00    +0.000 C 
ATOM     16  C10 UNL A   1      17.716  31.385  43.494  1.00  0.00    +0.000 C 
ATOM     92  C63 UNL A   1      16.864  30.412  42.971  1.00  0.00    +0.000 C 
BRANCH   11   10
ATOM     10  C5  UNL A   1      15.920  28.122  43.058  1.00  0.00    +0.000 C 
ATOM     99  H5  UNL A   1      15.701  27.378  43.739  1.00  0.00    +0.000 H 
BRANCH   10    9
ATOM      9  N2  UNL A   1      15.225  28.230  41.969  1.00  0.00    +0.000 N 
BRANCH    9    8
ATOM     97  H3  UNL A   1      14.335  23.830  41.495  1.00  0.00    +0.000 H 
ATOM     98  H4  UNL A   1      14.574  25.864  42.797  1.00  0.00    +0.000 H 
ATOM    132  H38 UNL A   1      15.464  28.014  39.300  1.00  0.00    +0.000 H 
ATOM    133  H39 UNL A   1      15.211  25.989  37.985  1.00  0.00    +0.000 H 
ATOM      6  C2  UNL A   1      14.570  24.719  41.027  1.00  0.00    +0.000 C 
ATOM      5  C1  UNL A   1      14.757  24.761  39.645  1.00  0.00    +0.000 C 
ATOM      7  C3  UNL A   1      14.703  25.895  41.773  1.00  0.00    +0.000 C 
ATOM      8  C4  UNL A   1      15.011  27.111  41.154  1.00  0.00    +0.000 C 
ATOM     93  C64 UNL A   1      15.212  27.130  39.767  1.00  0.00    +0.000 C 
ATOM     94  C65 UNL A   1      15.076  25.963  39.008  1.00  0.00    +0.000 C 
BRANCH    5    2
ATOM      2  S1  UNL A   1      14.579  23.279  38.695  1.00  0.00    +0.000 S 
ATOM      3  O1  UNL A   1      13.962  23.596  37.431  1.00  0.00    +0.000 O 
ATOM      4  O2  UNL A   1      14.086  22.235  39.565  1.00  0.00    +0.000 O 
BRANCH    2    1
ATOM      1  N1  UNL A   1      16.170  22.880  38.327  1.00  0.00    +0.000 N 
ATOM     95  H1  UNL A   1      16.185  22.241  37.533  1.00  0.00    +0.000 H 
ATOM     96  H2  UNL A   1      16.602  22.430  39.134  1.00  0.00    +0.000 H 
ENDBRANCH    2    1
ENDBRANCH    5    2
ENDBRANCH    9    8
ENDBRANCH   10    9
ENDBRANCH   11   10
BRANCH   14   15
ATOM    102  H8  UNL A   1      19.532  32.612  45.123  1.00  0.00    +0.000 H 
ATOM     15  O3  UNL A   1      19.798  31.832  44.678  1.00  0.00    +0.000 O 
ENDBRANCH   14   15
ENDBRANCH   17   16
ENDBRANCH   19   17
ENDBRANCH   20   19
ENDBRANCH   21   20
ENDBRANCH   22   21
ENDBRANCH   23   22
ENDBRANCH   24   23
ENDBRANCH   25   24
ENDBRANCH   26   25
ENDBRANCH   27   26
ENDBRANCH   29   27
ENDBRANCH   33   32
BRANCH   37   38
ATOM     38  C27 UNL A   1      24.289  43.230  49.472  1.00  0.00    +0.000 C 
ATOM     39  C28 UNL A   1      24.668  43.591  50.773  1.00  0.00    +0.000 C 
ATOM     40  F1  UNL A   1      25.046  42.651  51.652  1.00  0.00    +0.000 F 
ATOM     41  C29 UNL A   1      24.618  44.919  51.192  1.00  0.00    +0.000 C 
ATOM     42  F2  UNL A   1      24.932  45.233  52.457  1.00  0.00    +0.000 F 
ATOM     43  C30 UNL A   1      24.228  45.914  50.309  1.00  0.00    +0.000 C 
ATOM     44  F3  UNL A   1      24.184  47.191  50.712  1.00  0.00    +0.000 F 
ATOM     45  C31 UNL A   1      23.874  45.584  49.010  1.00  0.00    +0.000 C 
ATOM     46  F4  UNL A   1      23.510  46.545  48.150  1.00  0.00    +0.000 F 
ATOM     47  C32 UNL A   1      23.893  44.253  48.597  1.00  0.00    +0.000 C 
ATOM     48  F5  UNL A   1      23.526  43.965  47.339  1.00  0.00    +0.000 F 
ENDBRANCH   37   38
BRANCH   54   55
ATOM     65  F10 UNL A   1      29.748  37.685  47.704  1.00  0.00    +0.000 F 
ATOM     55  C38 UNL A   1      28.793  38.894  45.889  1.00  0.00    +0.000 C 
ATOM     56  C39 UNL A   1      29.013  39.568  44.679  1.00  0.00    +0.000 C 
ATOM     57  F6  UNL A   1      27.981  40.104  44.009  1.00  0.00    +0.000 F 
ATOM     58  C40 UNL A   1      30.290  39.665  44.135  1.00  0.00    +0.000 C 
ATOM     59  F7  UNL A   1      30.470  40.279  42.956  1.00  0.00    +0.000 F 
ATOM     60  C41 UNL A   1      31.375  39.119  44.804  1.00  0.00    +0.000 C 
ATOM     61  F8  UNL A   1      32.607  39.225  44.285  1.00  0.00    +0.000 F 
ATOM     62  C42 UNL A   1      31.183  38.460  46.009  1.00  0.00    +0.000 C 
ATOM     63  F9  UNL A   1      32.233  37.945  46.664  1.00  0.00    +0.000 F 
ATOM     64  C43 UNL A   1      29.903  38.335  46.541  1.00  0.00    +0.000 C 
ENDBRANCH   54   55
BRANCH   69   70
ATOM     70  C47 UNL A   1      23.961  33.866  46.038  1.00  0.00    +0.000 C 
ATOM     71  C48 UNL A   1      24.559  32.779  46.688  1.00  0.00    +0.000 C 
ATOM     72  F11 UNL A   1      25.246  32.973  47.824  1.00  0.00    +0.000 F 
ATOM     73  C49 UNL A   1      24.477  31.492  46.160  1.00  0.00    +0.000 C 
ATOM     74  F12 UNL A   1      25.086  30.475  46.785  1.00  0.00    +0.000 F 
ATOM     75  C50 UNL A   1      23.775  31.264  44.987  1.00  0.00    +0.000 C 
ATOM     76  F13 UNL A   1      23.685  30.023  44.487  1.00  0.00    +0.000 F 
ATOM     77  C51 UNL A   1      23.166  32.324  44.331  1.00  0.00    +0.000 C 
ATOM     78  F14 UNL A   1      22.469  32.104  43.207  1.00  0.00    +0.000 F 
ATOM     79  C52 UNL A   1      23.270  33.614  44.843  1.00  0.00    +0.000 C 
ATOM     80  F15 UNL A   1      22.673  34.621  44.188  1.00  0.00    +0.000 F 
ENDBRANCH   69   70
TORSDOF 21
ENDMDL
MODEL 8
REMARK VINA RESULT:     -11.1     46.261     53.555
ROOT
ATOM     33  C23 UNL A   1      13.874  53.628   5.338  1.00  0.00    +0.000 C 
ATOM     34  C24 UNL A   1      14.822  54.113   4.279  1.00  0.00    +0.000 C 
ATOM     35  N5  UNL A   1      15.331  53.463   3.263  1.00  0.00    +0.000 N 
ATOM     36  C25 UNL A   1      16.104  54.388   2.572  1.00  0.00    +0.000 C 
ATOM     37  C26 UNL A   1      16.877  54.192   1.476  1.00  0.00    +0.000 C 
ATOM     49  C33 UNL A   1      17.042  52.921   0.819  1.00  0.00    +0.000 C 
ATOM     50  C34 UNL A   1      17.871  52.600  -0.241  1.00  0.00    +0.000 C 
ATOM     51  C35 UNL A   1      17.640  51.264  -0.589  1.00  0.00    +0.000 C 
ATOM     52  C36 UNL A   1      16.704  50.738   0.287  1.00  0.00    +0.000 C 
ATOM     53  N6  UNL A   1      16.353  51.763   1.151  1.00  0.00    +0.000 N 
ATOM     54  C37 UNL A   1      16.165  49.403   0.330  1.00  0.00    +0.000 C 
ATOM     66  C44 UNL A   1      15.298  48.946   1.267  1.00  0.00    +0.000 C 
ATOM     67  N7  UNL A   1      14.736  49.624   2.339  1.00  0.00    +0.000 N 
ATOM     68  C45 UNL A   1      13.951  48.762   2.939  1.00  0.00    +0.000 C 
ATOM     69  C46 UNL A   1      13.098  48.952   4.163  1.00  0.00    +0.000 C 
ATOM     81  C53 UNL A   1      13.107  50.142   4.796  1.00  0.00    +0.000 C 
ATOM     82  C54 UNL A   1      12.326  50.470   5.984  1.00  0.00    +0.000 C 
ATOM     83  C55 UNL A   1      12.516  51.764   6.288  1.00  0.00    +0.000 C 
ATOM     84  C56 UNL A   1      13.468  52.344   5.340  1.00  0.00    +0.000 C 
ATOM     85  N8  UNL A   1      13.786  51.300   4.507  1.00  0.00    +0.000 N 
ATOM     86  C57 UNL A   1      13.917  47.438   2.304  1.00  0.00    +0.000 C 
ATOM     87  C58 UNL A   1      14.779  47.594   1.310  1.00  0.00    +0.000 C 
ATOM     88  C59 UNL A   1      15.956  55.655   3.256  1.00  0.00    +0.000 C 
ATOM     89  C60 UNL A   1      15.227  55.525   4.354  1.00  0.00    +0.000 C 
ATOM    119  H25 UNL A   1      18.545  53.235  -0.696  1.00  0.00    +0.000 H 
ATOM    120  H26 UNL A   1      18.090  50.757  -1.367  1.00  0.00    +0.000 H 
ATOM    121  H27 UNL A   1      15.711  51.682   1.893  1.00  0.00    +0.000 H 
ATOM    122  H28 UNL A   1      11.724  49.814   6.507  1.00  0.00    +0.000 H 
ATOM    123  H29 UNL A   1      12.062  52.269   7.066  1.00  0.00    +0.000 H 
ATOM    124  H30 UNL A   1      14.438  51.375   3.772  1.00  0.00    +0.000 H 
ATOM    125  H31 UNL A   1      13.365  46.605   2.564  1.00  0.00    +0.000 H 
ATOM    126  H32 UNL A   1      15.047  46.847   0.650  1.00  0.00    +0.000 H 
ATOM    127  H33 UNL A   1      16.367  56.544   2.930  1.00  0.00    +0.000 H 
ATOM    128  H34 UNL A   1      15.002  56.230   5.074  1.00  0.00    +0.000 H 
ENDROOT
BRANCH   33   32
ATOM    129  H35 UNL A   1      14.835  54.252   7.759  1.00  0.00    +0.000 H 
ATOM    130  H36 UNL A   1      13.935  55.794   9.400  1.00  0.00    +0.000 H 
ATOM    117  H23 UNL A   1      10.826  56.804   6.754  1.00  0.00    +0.000 H 
ATOM    118  H24 UNL A   1      11.600  55.107   5.201  1.00  0.00    +0.000 H 
ATOM     90  C61 UNL A   1      13.975  54.782   7.549  1.00  0.00    +0.000 C 
ATOM     91  C62 UNL A   1      13.483  55.698   8.477  1.00  0.00    +0.000 C 
ATOM     29  C19 UNL A   1      12.375  56.487   8.155  1.00  0.00    +0.000 C 
ATOM     30  C20 UNL A   1      11.677  56.259   6.966  1.00  0.00    +0.000 C 
ATOM     31  C21 UNL A   1      12.131  55.294   6.065  1.00  0.00    +0.000 C 
ATOM     32  C22 UNL A   1      13.309  54.576   6.332  1.00  0.00    +0.000 C 
BRANCH   29   27
ATOM     27  C18 UNL A   1      11.907  57.562   9.059  1.00  0.00    +0.000 C 
ATOM     28  O5  UNL A   1      12.448  58.663   9.022  1.00  0.00    +0.000 O 
BRANCH   27   26
ATOM     26  N4  UNL A   1      10.894  57.324   9.954  1.00  0.00    +0.000 N 
ATOM    116  H22 UNL A   1       9.984  57.463   9.602  1.00  0.00    +0.000 H 
BRANCH   26   25
ATOM     25  C17 UNL A   1      10.959  56.897  11.342  1.00  0.00    +0.000 C 
ATOM    114  H20 UNL A   1      11.687  57.495  11.849  1.00  0.00    +0.000 H 
ATOM    115  H21 UNL A   1       9.981  57.019  11.760  1.00  0.00    +0.000 H 
BRANCH   25   24
ATOM    113  H19 UNL A   1      12.248  55.308  10.936  1.00  0.00    +0.000 H 
ATOM    112  H18 UNL A   1      10.525  54.839  11.136  1.00  0.00    +0.000 H 
ATOM     24  C16 UNL A   1      11.342  55.429  11.494  1.00  0.00    +0.000 C 
BRANCH   24   23
ATOM    111  H17 UNL A   1      10.747  54.595  13.310  1.00  0.00    +0.000 H 
ATOM    110  H16 UNL A   1      12.079  55.799  13.444  1.00  0.00    +0.000 H 
ATOM     23  C15 UNL A   1      11.670  54.964  12.914  1.00  0.00    +0.000 C 
BRANCH   23   22
ATOM    108  H14 UNL A   1      12.847  53.652  14.086  1.00  0.00    +0.000 H 
ATOM    109  H15 UNL A   1      12.188  52.977  12.552  1.00  0.00    +0.000 H 
ATOM     22  C14 UNL A   1      12.658  53.803  13.043  1.00  0.00    +0.000 C 
BRANCH   22   21
ATOM    106  H12 UNL A   1      13.817  54.124  11.305  1.00  0.00    +0.000 H 
ATOM    107  H13 UNL A   1      14.477  54.793  12.843  1.00  0.00    +0.000 H 
ATOM     21  C13 UNL A   1      14.007  53.970  12.347  1.00  0.00    +0.000 C 
BRANCH   21   20
ATOM    105  H11 UNL A   1      14.482  52.031  12.990  1.00  0.00    +0.000 H 
ATOM     20  C12 UNL A   1      14.992  52.815  12.469  1.00  0.00    +0.000 C 
ATOM    104  H10 UNL A   1      15.858  53.167  12.990  1.00  0.00    +0.000 H 
BRANCH   20   19
ATOM     19  N3  UNL A   1      15.423  52.256  11.199  1.00  0.00    +0.000 N 
ATOM    103  H9  UNL A   1      15.039  52.694  10.406  1.00  0.00    +0.000 H 
BRANCH   19   17
ATOM     17  C11 UNL A   1      16.280  51.214  10.920  1.00  0.00    +0.000 C 
ATOM     18  O4  UNL A   1      17.251  51.024  11.655  1.00  0.00    +0.000 O 
BRANCH   17   16
ATOM    131  H37 UNL A   1      14.273  49.389  10.598  1.00  0.00    +0.000 H 
ATOM    100  H6  UNL A   1      15.770  47.456   7.178  1.00  0.00    +0.000 H 
ATOM    101  H7  UNL A   1      17.396  49.249   6.905  1.00  0.00    +0.000 H 
ATOM     11  C6  UNL A   1      14.957  48.250   8.960  1.00  0.00    +0.000 C 
ATOM     12  C7  UNL A   1      15.827  48.219   7.871  1.00  0.00    +0.000 C 
ATOM     13  C8  UNL A   1      16.778  49.233   7.730  1.00  0.00    +0.000 C 
ATOM     14  C9  UNL A   1      16.890  50.225   8.707  1.00  0.00    +0.000 C 
ATOM     16  C10 UNL A   1      16.037  50.240   9.822  1.00  0.00    +0.000 C 
ATOM     92  C63 UNL A   1      15.005  49.304   9.877  1.00  0.00    +0.000 C 
BRANCH   11   10
ATOM     10  C5  UNL A   1      14.089  47.088   9.249  1.00  0.00    +0.000 C 
ATOM     99  H5  UNL A   1      14.311  46.163   8.849  1.00  0.00    +0.000 H 
BRANCH   10    9
ATOM      9  N2  UNL A   1      13.048  47.235  10.006  1.00  0.00    +0.000 N 
BRANCH    9    8
ATOM     97  H3  UNL A   1       9.817  49.398   7.711  1.00  0.00    +0.000 H 
ATOM     98  H4  UNL A   1      12.067  49.171   8.592  1.00  0.00    +0.000 H 
ATOM    132  H38 UNL A   1      11.074  45.420  10.201  1.00  0.00    +0.000 H 
ATOM    133  H39 UNL A   1       8.825  45.629   9.309  1.00  0.00    +0.000 H 
ATOM      6  C2  UNL A   1      10.085  48.551   8.235  1.00  0.00    +0.000 C 
ATOM      5  C1  UNL A   1       9.156  47.530   8.447  1.00  0.00    +0.000 C 
ATOM      7  C3  UNL A   1      11.382  48.414   8.740  1.00  0.00    +0.000 C 
ATOM      8  C4  UNL A   1      11.765  47.266   9.444  1.00  0.00    +0.000 C 
ATOM     93  C64 UNL A   1      10.813  46.260   9.662  1.00  0.00    +0.000 C 
ATOM     94  C65 UNL A   1       9.514  46.382   9.158  1.00  0.00    +0.000 C 
BRANCH    5    2
ATOM      2  S1  UNL A   1       7.518  47.693   7.801  1.00  0.00    +0.000 S 
ATOM      3  O1  UNL A   1       6.667  48.281   8.806  1.00  0.00    +0.000 O 
ATOM      4  O2  UNL A   1       7.177  46.473   7.104  1.00  0.00    +0.000 O 
BRANCH    2    1
ATOM      1  N1  UNL A   1       7.699  48.878   6.623  1.00  0.00    +0.000 N 
ATOM     95  H1  UNL A   1       6.898  49.509   6.649  1.00  0.00    +0.000 H 
ATOM     96  H2  UNL A   1       7.755  48.438   5.704  1.00  0.00    +0.000 H 
ENDBRANCH    2    1
ENDBRANCH    5    2
ENDBRANCH    9    8
ENDBRANCH   10    9
ENDBRANCH   11   10
BRANCH   14   15
ATOM    102  H8  UNL A   1      18.746  50.872   8.288  1.00  0.00    +0.000 H 
ATOM     15  O3  UNL A   1      17.882  51.152   8.515  1.00  0.00    +0.000 O 
ENDBRANCH   14   15
ENDBRANCH   17   16
ENDBRANCH   19   17
ENDBRANCH   20   19
ENDBRANCH   21   20
ENDBRANCH   22   21
ENDBRANCH   23   22
ENDBRANCH   24   23
ENDBRANCH   25   24
ENDBRANCH   26   25
ENDBRANCH   27   26
ENDBRANCH   29   27
ENDBRANCH   33   32
BRANCH   37   38
ATOM     38  C27 UNL A   1      17.597  55.382   0.912  1.00  0.00    +0.000 C 
ATOM     39  C28 UNL A   1      17.026  56.194  -0.079  1.00  0.00    +0.000 C 
ATOM     40  F1  UNL A   1      15.817  55.897  -0.581  1.00  0.00    +0.000 F 
ATOM     41  C29 UNL A   1      17.713  57.291  -0.592  1.00  0.00    +0.000 C 
ATOM     42  F2  UNL A   1      17.170  58.019  -1.578  1.00  0.00    +0.000 F 
ATOM     43  C30 UNL A   1      18.966  57.622  -0.097  1.00  0.00    +0.000 C 
ATOM     44  F3  UNL A   1      19.624  58.681  -0.589  1.00  0.00    +0.000 F 
ATOM     45  C31 UNL A   1      19.539  56.850   0.902  1.00  0.00    +0.000 C 
ATOM     46  F4  UNL A   1      20.743  57.176   1.391  1.00  0.00    +0.000 F 
ATOM     47  C32 UNL A   1      18.868  55.734   1.395  1.00  0.00    +0.000 C 
ATOM     48  F5  UNL A   1      19.458  54.996   2.347  1.00  0.00    +0.000 F 
ENDBRANCH   37   38
BRANCH   54   55
ATOM     65  F10 UNL A   1      14.561  48.719  -1.922  1.00  0.00    +0.000 F 
ATOM     55  C38 UNL A   1      16.603  48.437  -0.732  1.00  0.00    +0.000 C 
ATOM     56  C39 UNL A   1      17.841  47.782  -0.657  1.00  0.00    +0.000 C 
ATOM     57  F6  UNL A   1      18.691  48.059   0.343  1.00  0.00    +0.000 F 
ATOM     58  C40 UNL A   1      18.223  46.861  -1.629  1.00  0.00    +0.000 C 
ATOM     59  F7  UNL A   1      19.429  46.278  -1.558  1.00  0.00    +0.000 F 
ATOM     60  C41 UNL A   1      17.366  46.555  -2.675  1.00  0.00    +0.000 C 
ATOM     61  F8  UNL A   1      17.731  45.659  -3.602  1.00  0.00    +0.000 F 
ATOM     62  C42 UNL A   1      16.132  47.181  -2.761  1.00  0.00    +0.000 C 
ATOM     63  F9  UNL A   1      15.296  46.876  -3.763  1.00  0.00    +0.000 F 
ATOM     64  C43 UNL A   1      15.757  48.124  -1.808  1.00  0.00    +0.000 C 
ENDBRANCH   54   55
BRANCH   69   70
ATOM     70  C47 UNL A   1      12.247  47.850   4.684  1.00  0.00    +0.000 C 
ATOM     71  C48 UNL A   1      12.762  46.900   5.575  1.00  0.00    +0.000 C 
ATOM     72  F11 UNL A   1      14.053  46.955   5.938  1.00  0.00    +0.000 F 
ATOM     73  C49 UNL A   1      11.963  45.874   6.074  1.00  0.00    +0.000 C 
ATOM     74  F12 UNL A   1      12.490  44.959   6.898  1.00  0.00    +0.000 F 
ATOM     75  C50 UNL A   1      10.627  45.794   5.712  1.00  0.00    +0.000 C 
ATOM     76  F13 UNL A   1       9.855  44.814   6.203  1.00  0.00    +0.000 F 
ATOM     77  C51 UNL A   1      10.092  46.729   4.839  1.00  0.00    +0.000 C 
ATOM     78  F14 UNL A   1       8.796  46.667   4.503  1.00  0.00    +0.000 F 
ATOM     79  C52 UNL A   1      10.897  47.739   4.318  1.00  0.00    +0.000 C 
ATOM     80  F15 UNL A   1      10.354  48.630   3.475  1.00  0.00    +0.000 F 
ENDBRANCH   69   70
TORSDOF 21
ENDMDL
MODEL 9
REMARK VINA RESULT:     -11.1     34.715     43.730
ROOT
ATOM     33  C23 UNL A   1      40.832  30.563  29.900  1.00  0.00    +0.000 C 
ATOM     34  C24 UNL A   1      42.011  31.454  29.634  1.00  0.00    +0.000 C 
ATOM     35  N5  UNL A   1      43.124  31.186  28.998  1.00  0.00    +0.000 N 
ATOM     36  C25 UNL A   1      43.850  32.369  28.995  1.00  0.00    +0.000 C 
ATOM     37  C26 UNL A   1      45.094  32.595  28.506  1.00  0.00    +0.000 C 
ATOM     49  C33 UNL A   1      45.915  31.588  27.885  1.00  0.00    +0.000 C 
ATOM     50  C34 UNL A   1      47.221  31.694  27.439  1.00  0.00    +0.000 C 
ATOM     51  C35 UNL A   1      47.579  30.481  26.841  1.00  0.00    +0.000 C 
ATOM     52  C36 UNL A   1      46.514  29.602  26.959  1.00  0.00    +0.000 C 
ATOM     53  N6  UNL A   1      45.504  30.291  27.610  1.00  0.00    +0.000 N 
ATOM     54  C37 UNL A   1      46.422  28.236  26.507  1.00  0.00    +0.000 C 
ATOM     66  C44 UNL A   1      45.363  27.417  26.724  1.00  0.00    +0.000 C 
ATOM     67  N7  UNL A   1      44.171  27.689  27.379  1.00  0.00    +0.000 N 
ATOM     68  C45 UNL A   1      43.463  26.588  27.311  1.00  0.00    +0.000 C 
ATOM     69  C46 UNL A   1      42.090  26.309  27.859  1.00  0.00    +0.000 C 
ATOM     81  C53 UNL A   1      41.446  27.273  28.545  1.00  0.00    +0.000 C 
ATOM     82  C54 UNL A   1      40.112  27.147  29.124  1.00  0.00    +0.000 C 
ATOM     83  C55 UNL A   1      39.755  28.326  29.658  1.00  0.00    +0.000 C 
ATOM     84  C56 UNL A   1      40.854  29.278  29.497  1.00  0.00    +0.000 C 
ATOM     85  N8  UNL A   1      41.827  28.557  28.850  1.00  0.00    +0.000 N 
ATOM     86  C57 UNL A   1      44.125  25.492  26.589  1.00  0.00    +0.000 C 
ATOM     87  C58 UNL A   1      45.293  26.040  26.282  1.00  0.00    +0.000 C 
ATOM     88  C59 UNL A   1      43.031  33.369  29.646  1.00  0.00    +0.000 C 
ATOM     89  C60 UNL A   1      41.912  32.839  30.117  1.00  0.00    +0.000 C 
ATOM    119  H25 UNL A   1      47.826  32.524  27.533  1.00  0.00    +0.000 H 
ATOM    120  H26 UNL A   1      48.483  30.276  26.387  1.00  0.00    +0.000 H 
ATOM    121  H27 UNL A   1      44.624  29.916  27.846  1.00  0.00    +0.000 H 
ATOM    122  H28 UNL A   1      39.536  26.291  29.123  1.00  0.00    +0.000 H 
ATOM    123  H29 UNL A   1      38.849  28.528  30.109  1.00  0.00    +0.000 H 
ATOM    124  H30 UNL A   1      42.712  28.925  28.625  1.00  0.00    +0.000 H 
ATOM    125  H31 UNL A   1      43.773  24.546  26.377  1.00  0.00    +0.000 H 
ATOM    126  H32 UNL A   1      46.054  25.547  25.789  1.00  0.00    +0.000 H 
ATOM    127  H33 UNL A   1      43.286  34.365  29.733  1.00  0.00    +0.000 H 
ATOM    128  H34 UNL A   1      41.166  33.282  30.677  1.00  0.00    +0.000 H 
ENDROOT
BRANCH   33   32
ATOM    129  H35 UNL A   1      38.816  31.870  28.716  1.00  0.00    +0.000 H 
ATOM    130  H36 UNL A   1      36.799  32.775  29.712  1.00  0.00    +0.000 H 
ATOM    117  H23 UNL A   1      37.969  31.274  33.462  1.00  0.00    +0.000 H 
ATOM    118  H24 UNL A   1      40.085  30.558  32.512  1.00  0.00    +0.000 H 
ATOM     90  C61 UNL A   1      38.645  31.755  29.727  1.00  0.00    +0.000 C 
ATOM     91  C62 UNL A   1      37.466  32.239  30.289  1.00  0.00    +0.000 C 
ATOM     29  C19 UNL A   1      37.188  32.000  31.638  1.00  0.00    +0.000 C 
ATOM     30  C20 UNL A   1      38.152  31.401  32.454  1.00  0.00    +0.000 C 
ATOM     31  C21 UNL A   1      39.363  30.974  31.904  1.00  0.00    +0.000 C 
ATOM     32  C22 UNL A   1      39.602  31.111  30.527  1.00  0.00    +0.000 C 
BRANCH   29   27
ATOM     27  C18 UNL A   1      35.889  32.381  32.236  1.00  0.00    +0.000 C 
ATOM     28  O5  UNL A   1      35.752  32.354  33.455  1.00  0.00    +0.000 O 
BRANCH   27   26
ATOM     26  N4  UNL A   1      34.833  32.737  31.434  1.00  0.00    +0.000 N 
ATOM    116  H22 UNL A   1      34.270  31.988  31.127  1.00  0.00    +0.000 H 
BRANCH   26   25
ATOM     25  C17 UNL A   1      34.418  34.050  30.970  1.00  0.00    +0.000 C 
ATOM    114  H20 UNL A   1      33.641  34.409  31.611  1.00  0.00    +0.000 H 
ATOM    115  H21 UNL A   1      35.279  34.685  30.993  1.00  0.00    +0.000 H 
BRANCH   25   24
ATOM    113  H19 UNL A   1      33.303  34.920  29.436  1.00  0.00    +0.000 H 
ATOM    112  H18 UNL A   1      33.354  33.124  29.395  1.00  0.00    +0.000 H 
ATOM     24  C16 UNL A   1      33.897  34.035  29.536  1.00  0.00    +0.000 C 
BRANCH   24   23
ATOM    111  H17 UNL A   1      35.817  34.553  28.906  1.00  0.00    +0.000 H 
ATOM    110  H16 UNL A   1      34.548  34.710  27.638  1.00  0.00    +0.000 H 
ATOM     23  C15 UNL A   1      34.956  34.125  28.436  1.00  0.00    +0.000 C 
BRANCH   23   22
ATOM    108  H14 UNL A   1      35.612  32.959  26.796  1.00  0.00    +0.000 H 
ATOM    109  H15 UNL A   1      36.310  32.539  28.403  1.00  0.00    +0.000 H 
ATOM     22  C14 UNL A   1      35.438  32.801  27.840  1.00  0.00    +0.000 C 
BRANCH   22   21
ATOM    106  H12 UNL A   1      34.040  31.662  28.943  1.00  0.00    +0.000 H 
ATOM    107  H13 UNL A   1      33.819  31.688  27.154  1.00  0.00    +0.000 H 
ATOM     21  C13 UNL A   1      34.498  31.605  27.977  1.00  0.00    +0.000 C 
BRANCH   21   20
ATOM    105  H11 UNL A   1      34.936  29.712  28.767  1.00  0.00    +0.000 H 
ATOM     20  C12 UNL A   1      35.120  30.221  27.843  1.00  0.00    +0.000 C 
ATOM    104  H10 UNL A   1      36.163  30.342  27.634  1.00  0.00    +0.000 H 
BRANCH   20   19
ATOM     19  N3  UNL A   1      34.539  29.400  26.794  1.00  0.00    +0.000 N 
ATOM    103  H9  UNL A   1      34.940  29.527  25.904  1.00  0.00    +0.000 H 
BRANCH   19   17
ATOM     17  C11 UNL A   1      33.520  28.475  26.838  1.00  0.00    +0.000 C 
ATOM     18  O4  UNL A   1      32.762  28.464  27.811  1.00  0.00    +0.000 O 
BRANCH   17   16
ATOM    131  H37 UNL A   1      34.478  25.966  26.341  1.00  0.00    +0.000 H 
ATOM    100  H6  UNL A   1      32.757  25.414  22.545  1.00  0.00    +0.000 H 
ATOM    101  H7  UNL A   1      31.366  27.379  22.915  1.00  0.00    +0.000 H 
ATOM     11  C6  UNL A   1      33.781  25.596  24.384  1.00  0.00    +0.000 C 
ATOM     12  C7  UNL A   1      32.861  25.972  23.407  1.00  0.00    +0.000 C 
ATOM     13  C8  UNL A   1      32.084  27.115  23.608  1.00  0.00    +0.000 C 
ATOM     14  C9  UNL A   1      32.278  27.900  24.747  1.00  0.00    +0.000 C 
ATOM     16  C10 UNL A   1      33.227  27.542  25.717  1.00  0.00    +0.000 C 
ATOM     92  C63 UNL A   1      33.896  26.327  25.571  1.00  0.00    +0.000 C 
BRANCH   11   10
ATOM     10  C5  UNL A   1      34.759  24.522  24.109  1.00  0.00    +0.000 C 
ATOM     99  H5  UNL A   1      35.177  24.430  23.169  1.00  0.00    +0.000 H 
BRANCH   10    9
ATOM      9  N2  UNL A   1      35.091  23.696  25.050  1.00  0.00    +0.000 N 
BRANCH    9    8
ATOM     97  H3  UNL A   1      36.074  19.290  25.135  1.00  0.00    +0.000 H 
ATOM     98  H4  UNL A   1      36.632  21.640  25.375  1.00  0.00    +0.000 H 
ATOM    132  H38 UNL A   1      32.658  22.687  24.508  1.00  0.00    +0.000 H 
ATOM    133  H39 UNL A   1      32.084  20.339  24.282  1.00  0.00    +0.000 H 
ATOM      6  C2  UNL A   1      35.347  20.011  25.007  1.00  0.00    +0.000 C 
ATOM      5  C1  UNL A   1      34.038  19.643  24.690  1.00  0.00    +0.000 C 
ATOM      7  C3  UNL A   1      35.663  21.366  25.149  1.00  0.00    +0.000 C 
ATOM      8  C4  UNL A   1      34.687  22.356  24.989  1.00  0.00    +0.000 C 
ATOM     93  C64 UNL A   1      33.383  21.968  24.654  1.00  0.00    +0.000 C 
ATOM     94  C65 UNL A   1      33.052  20.616  24.514  1.00  0.00    +0.000 C 
BRANCH    5    2
ATOM      2  S1  UNL A   1      33.630  17.931  24.519  1.00  0.00    +0.000 S 
ATOM      3  O1  UNL A   1      32.568  17.601  25.436  1.00  0.00    +0.000 O 
ATOM      4  O2  UNL A   1      34.859  17.173  24.441  1.00  0.00    +0.000 O 
BRANCH    2    1
ATOM      1  N1  UNL A   1      32.935  17.865  22.990  1.00  0.00    +0.000 N 
ATOM     95  H1  UNL A   1      32.538  18.775  22.758  1.00  0.00    +0.000 H 
ATOM     96  H2  UNL A   1      32.198  17.160  22.981  1.00  0.00    +0.000 H 
ENDBRANCH    2    1
ENDBRANCH    5    2
ENDBRANCH    9    8
ENDBRANCH   10    9
ENDBRANCH   11   10
BRANCH   14   15
ATOM    102  H8  UNL A   1      31.244  29.482  24.062  1.00  0.00    +0.000 H 
ATOM     15  O3  UNL A   1      31.508  29.030  24.839  1.00  0.00    +0.000 O 
ENDBRANCH   14   15
ENDBRANCH   17   16
ENDBRANCH   19   17
ENDBRANCH   20   19
ENDBRANCH   21   20
ENDBRANCH   22   21
ENDBRANCH   23   22
ENDBRANCH   24   23
ENDBRANCH   25   24
ENDBRANCH   26   25
ENDBRANCH   27   26
ENDBRANCH   29   27
ENDBRANCH   33   32
BRANCH   37   38
ATOM     38  C27 UNL A   1      45.640  33.989  28.613  1.00  0.00    +0.000 C 
ATOM     39  C28 UNL A   1      45.432  34.947  27.610  1.00  0.00    +0.000 C 
ATOM     40  F1  UNL A   1      44.760  34.621  26.495  1.00  0.00    +0.000 F 
ATOM     41  C29 UNL A   1      45.951  36.235  27.727  1.00  0.00    +0.000 C 
ATOM     42  F2  UNL A   1      45.786  37.115  26.730  1.00  0.00    +0.000 F 
ATOM     43  C30 UNL A   1      46.653  36.601  28.865  1.00  0.00    +0.000 C 
ATOM     44  F3  UNL A   1      47.149  37.841  28.979  1.00  0.00    +0.000 F 
ATOM     45  C31 UNL A   1      46.849  35.679  29.882  1.00  0.00    +0.000 C 
ATOM     46  F4  UNL A   1      47.515  36.035  30.989  1.00  0.00    +0.000 F 
ATOM     47  C32 UNL A   1      46.358  34.382  29.754  1.00  0.00    +0.000 C 
ATOM     48  F5  UNL A   1      46.581  33.508  30.747  1.00  0.00    +0.000 F 
ENDBRANCH   37   38
BRANCH   54   55
ATOM     65  F10 UNL A   1      48.713  27.112  27.773  1.00  0.00    +0.000 F 
ATOM     55  C38 UNL A   1      47.588  27.669  25.751  1.00  0.00    +0.000 C 
ATOM     56  C39 UNL A   1      47.627  27.688  24.349  1.00  0.00    +0.000 C 
ATOM     57  F6  UNL A   1      46.583  28.161  23.652  1.00  0.00    +0.000 F 
ATOM     58  C40 UNL A   1      48.728  27.192  23.657  1.00  0.00    +0.000 C 
ATOM     59  F7  UNL A   1      48.725  27.183  22.316  1.00  0.00    +0.000 F 
ATOM     60  C41 UNL A   1      49.821  26.696  24.351  1.00  0.00    +0.000 C 
ATOM     61  F8  UNL A   1      50.885  26.230  23.682  1.00  0.00    +0.000 F 
ATOM     62  C42 UNL A   1      49.810  26.680  25.737  1.00  0.00    +0.000 C 
ATOM     63  F9  UNL A   1      50.872  26.215  26.409  1.00  0.00    +0.000 F 
ATOM     64  C43 UNL A   1      48.699  27.149  26.432  1.00  0.00    +0.000 C 
ENDBRANCH   54   55
BRANCH   69   70
ATOM     70  C47 UNL A   1      41.436  24.990  27.655  1.00  0.00    +0.000 C 
ATOM     71  C48 UNL A   1      40.359  24.849  26.770  1.00  0.00    +0.000 C 
ATOM     72  F11 UNL A   1      39.879  25.921  26.123  1.00  0.00    +0.000 F 
ATOM     73  C49 UNL A   1      39.753  23.610  26.568  1.00  0.00    +0.000 C 
ATOM     74  F12 UNL A   1      38.703  23.509  25.742  1.00  0.00    +0.000 F 
ATOM     75  C50 UNL A   1      40.228  22.487  27.226  1.00  0.00    +0.000 C 
ATOM     76  F13 UNL A   1      39.653  21.294  27.020  1.00  0.00    +0.000 F 
ATOM     77  C51 UNL A   1      41.300  22.601  28.099  1.00  0.00    +0.000 C 
ATOM     78  F14 UNL A   1      41.775  21.514  28.722  1.00  0.00    +0.000 F 
ATOM     79  C52 UNL A   1      41.889  23.843  28.323  1.00  0.00    +0.000 C 
ATOM     80  F15 UNL A   1      42.923  23.925  29.173  1.00  0.00    +0.000 F 
ENDBRANCH   69   70
TORSDOF 21
ENDMDL
MODEL 10
REMARK VINA RESULT:     -11.1     50.277     57.522
ROOT
ATOM     33  C23 UNL A   1      53.186  19.781  11.398  1.00  0.00    +0.000 C 
ATOM     34  C24 UNL A   1      52.945  20.402  12.744  1.00  0.00    +0.000 C 
ATOM     35  N5  UNL A   1      53.763  20.523  13.759  1.00  0.00    +0.000 N 
ATOM     36  C25 UNL A   1      53.056  21.214  14.733  1.00  0.00    +0.000 C 
ATOM     37  C26 UNL A   1      53.449  21.542  15.988  1.00  0.00    +0.000 C 
ATOM     49  C33 UNL A   1      54.729  21.198  16.552  1.00  0.00    +0.000 C 
ATOM     50  C34 UNL A   1      55.186  21.404  17.842  1.00  0.00    +0.000 C 
ATOM     51  C35 UNL A   1      56.516  20.972  17.909  1.00  0.00    +0.000 C 
ATOM     52  C36 UNL A   1      56.871  20.451  16.675  1.00  0.00    +0.000 C 
ATOM     53  N6  UNL A   1      55.761  20.586  15.856  1.00  0.00    +0.000 N 
ATOM     54  C37 UNL A   1      58.129  19.876  16.271  1.00  0.00    +0.000 C 
ATOM     66  C44 UNL A   1      58.374  19.321  15.058  1.00  0.00    +0.000 C 
ATOM     67  N7  UNL A   1      57.526  19.201  13.966  1.00  0.00    +0.000 N 
ATOM     68  C45 UNL A   1      58.228  18.614  13.028  1.00  0.00    +0.000 C 
ATOM     69  C46 UNL A   1      57.809  18.228  11.635  1.00  0.00    +0.000 C 
ATOM     81  C53 UNL A   1      56.546  18.469  11.235  1.00  0.00    +0.000 C 
ATOM     82  C54 UNL A   1      56.006  18.157   9.915  1.00  0.00    +0.000 C 
ATOM     83  C55 UNL A   1      54.746  18.612   9.841  1.00  0.00    +0.000 C 
ATOM     84  C56 UNL A   1      54.374  19.209  11.124  1.00  0.00    +0.000 C 
ATOM     85  N8  UNL A   1      55.497  19.054  11.900  1.00  0.00    +0.000 N 
ATOM     86  C57 UNL A   1      59.612  18.307  13.415  1.00  0.00    +0.000 C 
ATOM     87  C58 UNL A   1      59.638  18.729  14.672  1.00  0.00    +0.000 C 
ATOM     88  C59 UNL A   1      51.761  21.531  14.170  1.00  0.00    +0.000 C 
ATOM     89  C60 UNL A   1      51.618  20.995  12.967  1.00  0.00    +0.000 C 
ATOM    119  H25 UNL A   1      54.641  21.805  18.621  1.00  0.00    +0.000 H 
ATOM    120  H26 UNL A   1      57.129  21.034  18.736  1.00  0.00    +0.000 H 
ATOM    121  H27 UNL A   1      55.712  20.291  14.917  1.00  0.00    +0.000 H 
ATOM    122  H28 UNL A   1      56.512  17.666   9.161  1.00  0.00    +0.000 H 
ATOM    123  H29 UNL A   1      54.136  18.551   9.010  1.00  0.00    +0.000 H 
ATOM    124  H30 UNL A   1      55.545  19.336  12.842  1.00  0.00    +0.000 H 
ATOM    125  H31 UNL A   1      60.364  17.877  12.855  1.00  0.00    +0.000 H 
ATOM    126  H32 UNL A   1      60.457  18.646  15.295  1.00  0.00    +0.000 H 
ATOM    127  H33 UNL A   1      51.042  22.099  14.645  1.00  0.00    +0.000 H 
ATOM    128  H34 UNL A   1      50.792  20.994  12.348  1.00  0.00    +0.000 H 
ENDROOT
BRANCH   33   32
ATOM    129  H35 UNL A   1      52.525  21.913   9.917  1.00  0.00    +0.000 H 
ATOM    130  H36 UNL A   1      50.849  22.090   8.173  1.00  0.00    +0.000 H 
ATOM    117  H23 UNL A   1      49.946  18.007   8.616  1.00  0.00    +0.000 H 
ATOM    118  H24 UNL A   1      51.466  17.879  10.504  1.00  0.00    +0.000 H 
ATOM     90  C61 UNL A   1      51.968  21.085   9.652  1.00  0.00    +0.000 C 
ATOM     91  C62 UNL A   1      51.035  21.180   8.621  1.00  0.00    +0.000 C 
ATOM     29  C19 UNL A   1      50.350  20.038   8.196  1.00  0.00    +0.000 C 
ATOM     30  C20 UNL A   1      50.494  18.836   8.895  1.00  0.00    +0.000 C 
ATOM     31  C21 UNL A   1      51.381  18.758   9.972  1.00  0.00    +0.000 C 
ATOM     32  C22 UNL A   1      52.156  19.872  10.332  1.00  0.00    +0.000 C 
BRANCH   29   27
ATOM     27  C18 UNL A   1      49.453  20.072   7.020  1.00  0.00    +0.000 C 
ATOM     28  O5  UNL A   1      49.918  20.313   5.910  1.00  0.00    +0.000 O 
BRANCH   27   26
ATOM     26  N4  UNL A   1      48.104  19.864   7.168  1.00  0.00    +0.000 N 
ATOM    116  H22 UNL A   1      47.645  20.504   7.761  1.00  0.00    +0.000 H 
BRANCH   26   25
ATOM     25  C17 UNL A   1      47.250  18.844   6.584  1.00  0.00    +0.000 C 
ATOM    114  H20 UNL A   1      46.466  18.618   7.276  1.00  0.00    +0.000 H 
ATOM    115  H21 UNL A   1      46.869  19.234   5.663  1.00  0.00    +0.000 H 
BRANCH   25   24
ATOM    113  H19 UNL A   1      48.524  17.295   7.157  1.00  0.00    +0.000 H 
ATOM    112  H18 UNL A   1      48.634  17.748   5.422  1.00  0.00    +0.000 H 
ATOM     24  C16 UNL A   1      47.999  17.556   6.261  1.00  0.00    +0.000 C 
BRANCH   24   23
ATOM    111  H17 UNL A   1      46.171  16.738   5.681  1.00  0.00    +0.000 H 
ATOM    110  H16 UNL A   1      47.143  15.688   6.772  1.00  0.00    +0.000 H 
ATOM     23  C15 UNL A   1      47.133  16.340   5.924  1.00  0.00    +0.000 C 
BRANCH   23   22
ATOM    108  H14 UNL A   1      48.566  15.771   4.475  1.00  0.00    +0.000 H 
ATOM    109  H15 UNL A   1      47.397  14.499   4.983  1.00  0.00    +0.000 H 
ATOM     22  C14 UNL A   1      47.551  15.520   4.702  1.00  0.00    +0.000 C 
BRANCH   22   21
ATOM    106  H12 UNL A   1      47.247  15.228   2.631  1.00  0.00    +0.000 H 
ATOM    107  H13 UNL A   1      45.765  15.309   3.655  1.00  0.00    +0.000 H 
ATOM     21  C13 UNL A   1      46.729  15.716   3.430  1.00  0.00    +0.000 C 
BRANCH   21   20
ATOM    105  H11 UNL A   1      46.627  17.189   1.941  1.00  0.00    +0.000 H 
ATOM     20  C12 UNL A   1      46.464  17.152   2.998  1.00  0.00    +0.000 C 
ATOM    104  H10 UNL A   1      47.123  17.794   3.545  1.00  0.00    +0.000 H 
BRANCH   20   19
ATOM     19  N3  UNL A   1      45.101  17.605   3.221  1.00  0.00    +0.000 N 
ATOM    103  H9  UNL A   1      44.433  16.884   3.280  1.00  0.00    +0.000 H 
BRANCH   19   17
ATOM     17  C11 UNL A   1      44.587  18.875   3.364  1.00  0.00    +0.000 C 
ATOM     18  O4  UNL A   1      45.109  19.644   4.173  1.00  0.00    +0.000 O 
BRANCH   17   16
ATOM    131  H37 UNL A   1      41.892  18.907   3.803  1.00  0.00    +0.000 H 
ATOM    100  H6  UNL A   1      40.695  20.362   0.045  1.00  0.00    +0.000 H 
ATOM    101  H7  UNL A   1      43.012  20.925  -0.450  1.00  0.00    +0.000 H 
ATOM     11  C6  UNL A   1      41.136  19.514   1.929  1.00  0.00    +0.000 C 
ATOM     12  C7  UNL A   1      41.443  20.129   0.716  1.00  0.00    +0.000 C 
ATOM     13  C8  UNL A   1      42.775  20.427   0.422  1.00  0.00    +0.000 C 
ATOM     14  C9  UNL A   1      43.787  20.050   1.308  1.00  0.00    +0.000 C 
ATOM     16  C10 UNL A   1      43.484  19.400   2.515  1.00  0.00    +0.000 C 
ATOM     92  C63 UNL A   1      42.143  19.236   2.859  1.00  0.00    +0.000 C 
BRANCH   11   10
ATOM     10  C5  UNL A   1      39.772  18.999   2.176  1.00  0.00    +0.000 C 
ATOM     99  H5  UNL A   1      39.554  18.005   2.004  1.00  0.00    +0.000 H 
BRANCH   10    9
ATOM      9  N2  UNL A   1      38.850  19.799   2.610  1.00  0.00    +0.000 N 
BRANCH    9    8
ATOM     97  H3  UNL A   1      37.834  21.239  -1.547  1.00  0.00    +0.000 H 
ATOM     98  H4  UNL A   1      39.230  20.078   0.063  1.00  0.00    +0.000 H 
ATOM    132  H38 UNL A   1      36.481  20.968   3.111  1.00  0.00    +0.000 H 
ATOM    133  H39 UNL A   1      35.067  22.117   1.506  1.00  0.00    +0.000 H 
ATOM      6  C2  UNL A   1      37.543  21.177  -0.559  1.00  0.00    +0.000 C 
ATOM      5  C1  UNL A   1      36.349  21.763  -0.138  1.00  0.00    +0.000 C 
ATOM      7  C3  UNL A   1      38.343  20.504   0.371  1.00  0.00    +0.000 C 
ATOM      8  C4  UNL A   1      37.958  20.402   1.712  1.00  0.00    +0.000 C 
ATOM     93  C64 UNL A   1      36.764  21.013   2.120  1.00  0.00    +0.000 C 
ATOM     94  C65 UNL A   1      35.953  21.684   1.199  1.00  0.00    +0.000 C 
BRANCH    5    2
ATOM      2  S1  UNL A   1      35.329  22.606  -1.312  1.00  0.00    +0.000 S 
ATOM      3  O1  UNL A   1      35.153  21.772  -2.475  1.00  0.00    +0.000 O 
ATOM      4  O2  UNL A   1      35.768  23.981  -1.394  1.00  0.00    +0.000 O 
BRANCH    2    1
ATOM      1  N1  UNL A   1      33.830  22.631  -0.551  1.00  0.00    +0.000 N 
ATOM     95  H1  UNL A   1      33.787  21.883   0.140  1.00  0.00    +0.000 H 
ATOM     96  H2  UNL A   1      33.095  22.496  -1.245  1.00  0.00    +0.000 H 
ENDBRANCH    2    1
ENDBRANCH    5    2
ENDBRANCH    9    8
ENDBRANCH   10    9
ENDBRANCH   11   10
BRANCH   14   15
ATOM    102  H8  UNL A   1      45.753  19.712   1.063  1.00  0.00    +0.000 H 
ATOM     15  O3  UNL A   1      45.070  20.336   0.917  1.00  0.00    +0.000 O 
ENDBRANCH   14   15
ENDBRANCH   17   16
ENDBRANCH   19   17
ENDBRANCH   20   19
ENDBRANCH   21   20
ENDBRANCH   22   21
ENDBRANCH   23   22
ENDBRANCH   24   23
ENDBRANCH   25   24
ENDBRANCH   26   25
ENDBRANCH   27   26
ENDBRANCH   29   27
ENDBRANCH   33   32
BRANCH   37   38
ATOM     38  C27 UNL A   1      52.485  22.321  16.837  1.00  0.00    +0.000 C 
ATOM     39  C28 UNL A   1      51.760  21.721  17.876  1.00  0.00    +0.000 C 
ATOM     40  F1  UNL A   1      51.883  20.407  18.115  1.00  0.00    +0.000 F 
ATOM     41  C29 UNL A   1      50.867  22.462  18.649  1.00  0.00    +0.000 C 
ATOM     42  F2  UNL A   1      50.144  21.855  19.600  1.00  0.00    +0.000 F 
ATOM     43  C30 UNL A   1      50.714  23.821  18.425  1.00  0.00    +0.000 C 
ATOM     44  F3  UNL A   1      49.859  24.534  19.171  1.00  0.00    +0.000 F 
ATOM     45  C31 UNL A   1      51.442  24.441  17.420  1.00  0.00    +0.000 C 
ATOM     46  F4  UNL A   1      51.306  25.758  17.210  1.00  0.00    +0.000 F 
ATOM     47  C32 UNL A   1      52.311  23.698  16.625  1.00  0.00    +0.000 C 
ATOM     48  F5  UNL A   1      52.985  24.324  15.649  1.00  0.00    +0.000 F 
ENDBRANCH   37   38
BRANCH   54   55
ATOM     65  F10 UNL A   1      59.674  22.187  16.890  1.00  0.00    +0.000 F 
ATOM     55  C38 UNL A   1      59.250  19.876  17.268  1.00  0.00    +0.000 C 
ATOM     56  C39 UNL A   1      59.627  18.705  17.943  1.00  0.00    +0.000 C 
ATOM     57  F6  UNL A   1      58.941  17.568  17.754  1.00  0.00    +0.000 F 
ATOM     58  C40 UNL A   1      60.691  18.707  18.840  1.00  0.00    +0.000 C 
ATOM     59  F7  UNL A   1      61.007  17.585  19.504  1.00  0.00    +0.000 F 
ATOM     60  C41 UNL A   1      61.418  19.868  19.056  1.00  0.00    +0.000 C 
ATOM     61  F8  UNL A   1      62.451  19.864  19.910  1.00  0.00    +0.000 F 
ATOM     62  C42 UNL A   1      61.072  21.033  18.389  1.00  0.00    +0.000 C 
ATOM     63  F9  UNL A   1      61.782  22.153  18.586  1.00  0.00    +0.000 F 
ATOM     64  C43 UNL A   1      59.990  21.043  17.514  1.00  0.00    +0.000 C 
ENDBRANCH   54   55
BRANCH   69   70
ATOM     70  C47 UNL A   1      58.767  17.585  10.697  1.00  0.00    +0.000 C 
ATOM     71  C48 UNL A   1      58.897  16.192  10.641  1.00  0.00    +0.000 C 
ATOM     72  F11 UNL A   1      58.178  15.419  11.469  1.00  0.00    +0.000 F 
ATOM     73  C49 UNL A   1      59.784  15.587   9.753  1.00  0.00    +0.000 C 
ATOM     74  F12 UNL A   1      59.913  14.254   9.742  1.00  0.00    +0.000 F 
ATOM     75  C50 UNL A   1      60.540  16.363   8.888  1.00  0.00    +0.000 C 
ATOM     76  F13 UNL A   1      61.383  15.780   8.025  1.00  0.00    +0.000 F 
ATOM     77  C51 UNL A   1      60.421  17.745   8.918  1.00  0.00    +0.000 C 
ATOM     78  F14 UNL A   1      61.135  18.498   8.070  1.00  0.00    +0.000 F 
ATOM     79  C52 UNL A   1      59.554  18.351   9.824  1.00  0.00    +0.000 C 
ATOM     80  F15 UNL A   1      59.460  19.690   9.834  1.00  0.00    +0.000 F 
ENDBRANCH   69   70
TORSDOF 21
ENDMDL
