MODEL 1
REMARK VINA RESULT:     -11.0      0.000      0.000
ROOT
ATOM    129  H39 UNL A   1      38.311  27.435  31.044  1.00  0.00    +0.000 H 
ATOM     28  C23 UNL A   1      39.898  28.847  29.090  1.00  0.00    +0.000 C 
ATOM     29  C24 UNL A   1      40.165  28.638  30.534  1.00  0.00    +0.000 C 
ATOM     30  N3  UNL A   1      41.131  29.152  31.220  1.00  0.00    +0.000 N 
ATOM     31  C25 UNL A   1      40.989  28.666  32.515  1.00  0.00    +0.000 C 
ATOM     32  C26 UNL A   1      42.057  28.640  33.361  1.00  0.00    +0.000 C 
ATOM     44  C33 UNL A   1      43.120  29.487  32.871  1.00  0.00    +0.000 C 
ATOM     45  C34 UNL A   1      43.233  30.836  32.599  1.00  0.00    +0.000 C 
ATOM     46  C35 UNL A   1      44.014  30.907  31.408  1.00  0.00    +0.000 C 
ATOM     47  C36 UNL A   1      44.391  29.607  31.068  1.00  0.00    +0.000 C 
ATOM     48  N4  UNL A   1      44.169  28.889  32.214  1.00  0.00    +0.000 N 
ATOM     49  C37 UNL A   1      44.838  29.013  29.829  1.00  0.00    +0.000 C 
ATOM     61  C44 UNL A   1      44.709  27.689  29.520  1.00  0.00    +0.000 C 
ATOM     62  N5  UNL A   1      44.732  27.251  28.204  1.00  0.00    +0.000 N 
ATOM     63  C45 UNL A   1      44.032  26.148  28.207  1.00  0.00    +0.000 C 
ATOM     64  C46 UNL A   1      43.080  25.790  27.120  1.00  0.00    +0.000 C 
ATOM     76  C53 UNL A   1      42.070  26.692  27.183  1.00  0.00    +0.000 C 
ATOM     77  C54 UNL A   1      41.128  27.114  26.173  1.00  0.00    +0.000 C 
ATOM     78  C55 UNL A   1      40.343  28.074  26.705  1.00  0.00    +0.000 C 
ATOM     79  C56 UNL A   1      40.602  28.190  28.144  1.00  0.00    +0.000 C 
ATOM     80  N6  UNL A   1      41.712  27.406  28.340  1.00  0.00    +0.000 N 
ATOM     81  C57 UNL A   1      43.832  25.535  29.510  1.00  0.00    +0.000 C 
ATOM     82  C58 UNL A   1      44.184  26.562  30.288  1.00  0.00    +0.000 C 
ATOM     83  C59 UNL A   1      39.689  28.050  32.569  1.00  0.00    +0.000 C 
ATOM     84  C60 UNL A   1      39.173  27.917  31.343  1.00  0.00    +0.000 C 
ATOM    120  H30 UNL A   1      42.837  31.622  33.139  1.00  0.00    +0.000 H 
ATOM    121  H31 UNL A   1      44.258  31.766  30.891  1.00  0.00    +0.000 H 
ATOM    122  H32 UNL A   1      44.669  28.095  32.512  1.00  0.00    +0.000 H 
ATOM    123  H33 UNL A   1      41.065  26.747  25.211  1.00  0.00    +0.000 H 
ATOM    124  H34 UNL A   1      39.662  28.643  26.178  1.00  0.00    +0.000 H 
ATOM    125  H35 UNL A   1      42.201  27.351  29.193  1.00  0.00    +0.000 H 
ATOM    126  H36 UNL A   1      43.511  24.586  29.760  1.00  0.00    +0.000 H 
ATOM    127  H37 UNL A   1      44.095  26.560  31.316  1.00  0.00    +0.000 H 
ATOM    128  H38 UNL A   1      39.218  27.750  33.437  1.00  0.00    +0.000 H 
ENDROOT
BRANCH   28   27
ATOM    130  H40 UNL A   1      37.614  28.102  28.034  1.00  0.00    +0.000 H 
ATOM    131  H41 UNL A   1      35.914  29.567  27.130  1.00  0.00    +0.000 H 
ATOM     27  C22 UNL A   1      38.754  29.698  28.797  1.00  0.00    +0.000 C 
ATOM     85  C61 UNL A   1      37.653  29.122  28.188  1.00  0.00    +0.000 C 
ATOM     86  C62 UNL A   1      36.618  29.925  27.793  1.00  0.00    +0.000 C 
ATOM    118  H28 UNL A   1      37.542  32.795  29.259  1.00  0.00    +0.000 H 
ATOM     24  C19 UNL A   1      36.514  31.221  28.282  1.00  0.00    +0.000 C 
ATOM     25  C20 UNL A   1      37.594  31.814  28.941  1.00  0.00    +0.000 C 
ATOM     26  C21 UNL A   1      38.743  31.056  29.161  1.00  0.00    +0.000 C 
ATOM    119  H29 UNL A   1      39.577  31.488  29.586  1.00  0.00    +0.000 H 
BRANCH   24   22
ATOM     22  C18 UNL A   1      35.235  31.947  28.098  1.00  0.00    +0.000 C 
ATOM     23  O3  UNL A   1      35.229  33.141  27.944  1.00  0.00    +0.000 O 
BRANCH   22   21
ATOM    117  H27 UNL A   1      33.871  30.707  28.940  1.00  0.00    +0.000 H 
ATOM     21  N2  UNL A   1      34.046  31.220  28.118  1.00  0.00    +0.000 N 
BRANCH   21   20
ATOM    116  H26 UNL A   1      33.158  31.962  26.431  1.00  0.00    +0.000 H 
ATOM    115  H25 UNL A   1      32.064  31.110  27.547  1.00  0.00    +0.000 H 
ATOM     20  C17 UNL A   1      33.023  31.119  27.076  1.00  0.00    +0.000 C 
BRANCH   20   19
ATOM    113  H23 UNL A   1      32.276  29.834  25.577  1.00  0.00    +0.000 H 
ATOM    114  H24 UNL A   1      34.066  29.985  25.676  1.00  0.00    +0.000 H 
ATOM     19  C16 UNL A   1      33.142  29.875  26.204  1.00  0.00    +0.000 C 
BRANCH   19   18
ATOM     18  C15 UNL A   1      33.251  28.529  26.945  1.00  0.00    +0.000 C 
ATOM    111  H21 UNL A   1      33.837  28.702  27.822  1.00  0.00    +0.000 H 
ATOM    112  H22 UNL A   1      32.230  28.240  27.093  1.00  0.00    +0.000 H 
BRANCH   18   17
ATOM     17  C14 UNL A   1      33.869  27.314  26.223  1.00  0.00    +0.000 C 
ATOM    109  H19 UNL A   1      34.930  27.452  26.226  1.00  0.00    +0.000 H 
ATOM    110  H20 UNL A   1      33.499  26.472  26.768  1.00  0.00    +0.000 H 
BRANCH   17   16
ATOM    107  H17 UNL A   1      33.592  27.927  24.205  1.00  0.00    +0.000 H 
ATOM    108  H18 UNL A   1      34.067  26.210  24.450  1.00  0.00    +0.000 H 
ATOM     16  C13 UNL A   1      33.454  27.027  24.767  1.00  0.00    +0.000 C 
BRANCH   16   15
ATOM    105  H15 UNL A   1      31.325  27.345  24.847  1.00  0.00    +0.000 H 
ATOM    106  H16 UNL A   1      31.897  26.296  23.513  1.00  0.00    +0.000 H 
ATOM     15  C12 UNL A   1      31.976  26.550  24.550  1.00  0.00    +0.000 C 
BRANCH   15   14
ATOM     14  N1  UNL A   1      31.569  25.281  25.331  1.00  0.00    +0.000 N 
ATOM    104  H14 UNL A   1      30.618  25.163  25.105  1.00  0.00    +0.000 H 
BRANCH   14   12
ATOM     12  C11 UNL A   1      31.834  24.234  26.174  1.00  0.00    +0.000 C 
ATOM     13  O2  UNL A   1      30.752  23.849  26.676  1.00  0.00    +0.000 O 
BRANCH   12   11
ATOM     11  C10 UNL A   1      33.149  23.497  26.809  1.00  0.00    +0.000 C 
ATOM    102  H12 UNL A   1      33.933  23.844  26.168  1.00  0.00    +0.000 H 
ATOM    103  H13 UNL A   1      32.864  23.704  27.819  1.00  0.00    +0.000 H 
BRANCH   11   10
ATOM     10  C9  UNL A   1      33.620  21.990  27.137  1.00  0.00    +0.000 C 
ATOM    100  H10 UNL A   1      34.650  22.112  27.402  1.00  0.00    +0.000 H 
ATOM    101  H11 UNL A   1      32.771  21.745  27.739  1.00  0.00    +0.000 H 
BRANCH   10    9
ATOM      9  C8  UNL A   1      33.620  20.631  26.309  1.00  0.00    +0.000 C 
ATOM     98  H8  UNL A   1      34.033  19.899  26.971  1.00  0.00    +0.000 H 
ATOM     99  H9  UNL A   1      32.598  20.606  25.994  1.00  0.00    +0.000 H 
BRANCH    9    8
ATOM      8  O1  UNL A   1      34.277  20.418  25.049  1.00  0.00    +0.000 O 
BRANCH    8    7
ATOM      2  C2  UNL A   1      38.045  23.535  26.062  1.00  0.00    +0.000 C 
ATOM      3  C3  UNL A   1      36.927  23.970  25.353  1.00  0.00    +0.000 C 
ATOM      4  C4  UNL A   1      36.139  23.063  24.617  1.00  0.00    +0.000 C 
ATOM      6  C6  UNL A   1      36.407  21.737  24.884  1.00  0.00    +0.000 C 
ATOM      7  C7  UNL A   1      35.613  20.568  24.863  1.00  0.00    +0.000 C 
ATOM     87  N7  UNL A   1      36.293  19.423  24.800  1.00  0.00    +0.000 N 
ATOM     88  S1  UNL A   1      37.906  19.768  25.107  1.00  0.00    +0.000 S 
ATOM     89  C63 UNL A   1      37.663  21.430  25.378  1.00  0.00    +0.000 C 
ATOM     90  N8  UNL A   1      38.538  22.285  25.945  1.00  0.00    +0.000 N 
ATOM     94  H4  UNL A   1      36.673  24.970  25.367  1.00  0.00    +0.000 H 
BRANCH    2    1
ATOM      1  C1  UNL A   1      38.742  24.482  27.004  1.00  0.00    +0.000 C 
ATOM     91  H1  UNL A   1      38.047  24.829  27.739  1.00  0.00    +0.000 H 
ATOM     92  H2  UNL A   1      39.124  25.317  26.452  1.00  0.00    +0.000 H 
ATOM     93  H3  UNL A   1      39.549  23.974  27.487  1.00  0.00    +0.000 H 
ENDBRANCH    2    1
BRANCH    4    5
ATOM     97  H7  UNL A   1      34.574  22.404  23.387  1.00  0.00    +0.000 H 
ATOM      5  C5  UNL A   1      35.044  23.328  23.655  1.00  0.00    +0.000 C 
ATOM     95  H5  UNL A   1      35.444  23.793  22.778  1.00  0.00    +0.000 H 
ATOM     96  H6  UNL A   1      34.321  23.976  24.105  1.00  0.00    +0.000 H 
ENDBRANCH    4    5
ENDBRANCH    8    7
ENDBRANCH    9    8
ENDBRANCH   10    9
ENDBRANCH   11   10
ENDBRANCH   12   11
ENDBRANCH   14   12
ENDBRANCH   15   14
ENDBRANCH   16   15
ENDBRANCH   17   16
ENDBRANCH   18   17
ENDBRANCH   19   18
ENDBRANCH   20   19
ENDBRANCH   21   20
ENDBRANCH   22   21
ENDBRANCH   24   22
ENDBRANCH   28   27
BRANCH   32   33
ATOM     33  C27 UNL A   1      42.306  27.587  34.414  1.00  0.00    +0.000 C 
ATOM     34  C28 UNL A   1      42.894  26.365  34.022  1.00  0.00    +0.000 C 
ATOM     35  F1  UNL A   1      43.496  26.246  32.829  1.00  0.00    +0.000 F 
ATOM     36  C29 UNL A   1      42.786  25.209  34.798  1.00  0.00    +0.000 C 
ATOM     37  F2  UNL A   1      43.232  24.041  34.315  1.00  0.00    +0.000 F 
ATOM     38  C30 UNL A   1      42.152  25.247  36.024  1.00  0.00    +0.000 C 
ATOM     39  F3  UNL A   1      41.980  24.126  36.737  1.00  0.00    +0.000 F 
ATOM     40  C31 UNL A   1      41.655  26.445  36.490  1.00  0.00    +0.000 C 
ATOM     41  F4  UNL A   1      41.029  26.500  37.674  1.00  0.00    +0.000 F 
ATOM     42  C32 UNL A   1      41.715  27.589  35.695  1.00  0.00    +0.000 C 
ATOM     43  F5  UNL A   1      41.078  28.656  36.190  1.00  0.00    +0.000 F 
ENDBRANCH   32   33
BRANCH   49   50
ATOM     50  C38 UNL A   1      45.237  29.967  28.738  1.00  0.00    +0.000 C 
ATOM     51  C39 UNL A   1      44.324  30.597  27.875  1.00  0.00    +0.000 C 
ATOM     52  F6  UNL A   1      43.017  30.304  27.926  1.00  0.00    +0.000 F 
ATOM     53  C40 UNL A   1      44.733  31.595  26.990  1.00  0.00    +0.000 C 
ATOM     54  F7  UNL A   1      43.840  32.181  26.178  1.00  0.00    +0.000 F 
ATOM     55  C41 UNL A   1      46.052  32.015  26.980  1.00  0.00    +0.000 C 
ATOM     56  F8  UNL A   1      46.437  33.010  26.169  1.00  0.00    +0.000 F 
ATOM     57  C42 UNL A   1      46.968  31.423  27.835  1.00  0.00    +0.000 C 
ATOM     58  F9  UNL A   1      48.235  31.859  27.864  1.00  0.00    +0.000 F 
ATOM     59  C43 UNL A   1      46.568  30.402  28.692  1.00  0.00    +0.000 C 
ATOM     60  F10 UNL A   1      47.475  29.874  29.529  1.00  0.00    +0.000 F 
ENDBRANCH   49   50
BRANCH   64   65
ATOM     65  C47 UNL A   1      43.077  24.468  26.452  1.00  0.00    +0.000 C 
ATOM     66  C48 UNL A   1      43.921  24.214  25.359  1.00  0.00    +0.000 C 
ATOM     67  F11 UNL A   1      44.563  25.225  24.756  1.00  0.00    +0.000 F 
ATOM     68  C49 UNL A   1      44.180  22.913  24.919  1.00  0.00    +0.000 C 
ATOM     69  F12 UNL A   1      45.047  22.705  23.917  1.00  0.00    +0.000 F 
ATOM     70  C50 UNL A   1      43.594  21.829  25.552  1.00  0.00    +0.000 C 
ATOM     71  F13 UNL A   1      43.895  20.578  25.175  1.00  0.00    +0.000 F 
ATOM     72  C51 UNL A   1      42.726  22.046  26.606  1.00  0.00    +0.000 C 
ATOM     73  F14 UNL A   1      42.177  21.005  27.248  1.00  0.00    +0.000 F 
ATOM     74  C52 UNL A   1      42.469  23.344  27.049  1.00  0.00    +0.000 C 
ATOM     75  F15 UNL A   1      41.691  23.475  28.132  1.00  0.00    +0.000 F 
ENDBRANCH   64   65
TORSDOF 21
ENDMDL
MODEL 2
REMARK VINA RESULT:     -10.6      3.227      8.996
ROOT
ATOM    129  H39 UNL A   1      40.937  28.819  25.906  1.00  0.00    +0.000 H 
ATOM     28  C23 UNL A   1      40.530  27.937  28.625  1.00  0.00    +0.000 C 
ATOM     29  C24 UNL A   1      41.628  28.763  28.066  1.00  0.00    +0.000 C 
ATOM     30  N3  UNL A   1      42.685  29.162  28.691  1.00  0.00    +0.000 N 
ATOM     31  C25 UNL A   1      43.416  29.914  27.778  1.00  0.00    +0.000 C 
ATOM     32  C26 UNL A   1      44.324  30.831  28.213  1.00  0.00    +0.000 C 
ATOM     44  C33 UNL A   1      44.651  30.611  29.603  1.00  0.00    +0.000 C 
ATOM     45  C34 UNL A   1      45.210  29.564  30.310  1.00  0.00    +0.000 C 
ATOM     46  C35 UNL A   1      44.480  29.515  31.535  1.00  0.00    +0.000 C 
ATOM     47  C36 UNL A   1      43.573  30.576  31.532  1.00  0.00    +0.000 C 
ATOM     48  N4  UNL A   1      44.038  31.404  30.543  1.00  0.00    +0.000 N 
ATOM     49  C37 UNL A   1      42.358  30.823  32.273  1.00  0.00    +0.000 C 
ATOM     61  C44 UNL A   1      41.346  31.632  31.843  1.00  0.00    +0.000 C 
ATOM     62  N5  UNL A   1      40.057  31.498  32.339  1.00  0.00    +0.000 N 
ATOM     63  C45 UNL A   1      39.283  31.938  31.382  1.00  0.00    +0.000 C 
ATOM     64  C46 UNL A   1      37.996  31.285  31.018  1.00  0.00    +0.000 C 
ATOM     76  C53 UNL A   1      38.313  30.071  30.505  1.00  0.00    +0.000 C 
ATOM     77  C54 UNL A   1      37.524  28.867  30.391  1.00  0.00    +0.000 C 
ATOM     78  C55 UNL A   1      38.299  27.904  29.853  1.00  0.00    +0.000 C 
ATOM     79  C56 UNL A   1      39.572  28.480  29.408  1.00  0.00    +0.000 C 
ATOM     80  N6  UNL A   1      39.551  29.755  29.918  1.00  0.00    +0.000 N 
ATOM     81  C57 UNL A   1      39.937  32.755  30.372  1.00  0.00    +0.000 C 
ATOM     82  C58 UNL A   1      41.210  32.462  30.648  1.00  0.00    +0.000 C 
ATOM     83  C59 UNL A   1      42.815  29.673  26.492  1.00  0.00    +0.000 C 
ATOM     84  C60 UNL A   1      41.643  29.044  26.624  1.00  0.00    +0.000 C 
ATOM    120  H30 UNL A   1      45.986  28.950  30.016  1.00  0.00    +0.000 H 
ATOM    121  H31 UNL A   1      44.602  28.820  32.288  1.00  0.00    +0.000 H 
ATOM    122  H32 UNL A   1      43.950  32.384  30.513  1.00  0.00    +0.000 H 
ATOM    123  H33 UNL A   1      36.537  28.760  30.674  1.00  0.00    +0.000 H 
ATOM    124  H34 UNL A   1      38.037  26.909  29.769  1.00  0.00    +0.000 H 
ATOM    125  H35 UNL A   1      40.315  30.375  29.876  1.00  0.00    +0.000 H 
ATOM    126  H36 UNL A   1      39.534  33.379  29.655  1.00  0.00    +0.000 H 
ATOM    127  H37 UNL A   1      42.009  32.785  30.080  1.00  0.00    +0.000 H 
ATOM    128  H38 UNL A   1      43.232  29.949  25.590  1.00  0.00    +0.000 H 
ENDROOT
BRANCH   28   27
ATOM    130  H40 UNL A   1      42.104  25.987  29.401  1.00  0.00    +0.000 H 
ATOM    131  H41 UNL A   1      42.369  23.845  28.308  1.00  0.00    +0.000 H 
ATOM     27  C22 UNL A   1      40.504  26.559  28.159  1.00  0.00    +0.000 C 
ATOM     85  C61 UNL A   1      41.458  25.687  28.655  1.00  0.00    +0.000 C 
ATOM     86  C62 UNL A   1      41.530  24.421  28.140  1.00  0.00    +0.000 C 
ATOM    118  H28 UNL A   1      38.719  24.396  26.313  1.00  0.00    +0.000 H 
ATOM     24  C19 UNL A   1      40.477  23.910  27.392  1.00  0.00    +0.000 C 
ATOM     25  C20 UNL A   1      39.475  24.760  26.915  1.00  0.00    +0.000 C 
ATOM     26  C21 UNL A   1      39.515  26.108  27.267  1.00  0.00    +0.000 C 
ATOM    119  H29 UNL A   1      38.826  26.768  26.877  1.00  0.00    +0.000 H 
BRANCH   24   22
ATOM     22  C18 UNL A   1      40.438  22.453  27.124  1.00  0.00    +0.000 C 
ATOM     23  O3  UNL A   1      40.986  21.682  27.869  1.00  0.00    +0.000 O 
BRANCH   22   21
ATOM    117  H27 UNL A   1      40.230  22.135  25.134  1.00  0.00    +0.000 H 
ATOM     21  N2  UNL A   1      39.765  22.001  25.991  1.00  0.00    +0.000 N 
BRANCH   21   20
ATOM    116  H26 UNL A   1      37.960  21.540  26.838  1.00  0.00    +0.000 H 
ATOM    115  H25 UNL A   1      38.610  20.308  25.728  1.00  0.00    +0.000 H 
ATOM     20  C17 UNL A   1      38.456  21.350  25.909  1.00  0.00    +0.000 C 
BRANCH   20   19
ATOM    113  H23 UNL A   1      38.167  22.091  23.953  1.00  0.00    +0.000 H 
ATOM    114  H24 UNL A   1      36.803  21.154  24.659  1.00  0.00    +0.000 H 
ATOM     19  C16 UNL A   1      37.555  21.900  24.809  1.00  0.00    +0.000 C 
BRANCH   19   18
ATOM     18  C15 UNL A   1      36.789  23.196  25.137  1.00  0.00    +0.000 C 
ATOM    111  H21 UNL A   1      37.455  23.820  25.693  1.00  0.00    +0.000 H 
ATOM    112  H22 UNL A   1      36.479  23.554  24.176  1.00  0.00    +0.000 H 
BRANCH   18   17
ATOM     17  C14 UNL A   1      35.472  23.117  25.937  1.00  0.00    +0.000 C 
ATOM    109  H19 UNL A   1      35.620  23.668  26.841  1.00  0.00    +0.000 H 
ATOM    110  H20 UNL A   1      34.736  23.499  25.263  1.00  0.00    +0.000 H 
BRANCH   17   16
ATOM    107  H17 UNL A   1      35.347  21.012  25.662  1.00  0.00    +0.000 H 
ATOM    108  H18 UNL A   1      35.213  21.596  27.358  1.00  0.00    +0.000 H 
ATOM     16  C13 UNL A   1      34.930  21.731  26.335  1.00  0.00    +0.000 C 
BRANCH   16   15
ATOM    105  H15 UNL A   1      33.148  20.616  25.861  1.00  0.00    +0.000 H 
ATOM    106  H16 UNL A   1      33.046  21.645  27.325  1.00  0.00    +0.000 H 
ATOM     15  C12 UNL A   1      33.371  21.563  26.307  1.00  0.00    +0.000 C 
BRANCH   15   14
ATOM     14  N1  UNL A   1      32.602  22.652  25.526  1.00  0.00    +0.000 N 
ATOM    104  H14 UNL A   1      33.314  23.169  25.086  1.00  0.00    +0.000 H 
BRANCH   14   12
ATOM     12  C11 UNL A   1      31.451  23.277  25.125  1.00  0.00    +0.000 C 
ATOM     13  O2  UNL A   1      30.511  22.871  25.849  1.00  0.00    +0.000 O 
BRANCH   12   11
ATOM     11  C10 UNL A   1      30.962  24.235  23.893  1.00  0.00    +0.000 C 
ATOM    102  H12 UNL A   1      30.102  23.712  23.529  1.00  0.00    +0.000 H 
ATOM    103  H13 UNL A   1      31.107  25.139  24.447  1.00  0.00    +0.000 H 
BRANCH   11   10
ATOM     10  C9  UNL A   1      31.594  24.836  22.537  1.00  0.00    +0.000 C 
ATOM    100  H10 UNL A   1      31.726  23.967  21.926  1.00  0.00    +0.000 H 
ATOM    101  H11 UNL A   1      30.901  25.647  22.451  1.00  0.00    +0.000 H 
BRANCH   10    9
ATOM      9  C8  UNL A   1      32.888  25.704  22.215  1.00  0.00    +0.000 C 
ATOM     98  H8  UNL A   1      33.700  25.180  22.675  1.00  0.00    +0.000 H 
ATOM     99  H9  UNL A   1      32.792  25.794  21.153  1.00  0.00    +0.000 H 
BRANCH    9    8
ATOM      8  O1  UNL A   1      33.079  27.084  22.567  1.00  0.00    +0.000 O 
BRANCH    8    7
ATOM      2  C2  UNL A   1      33.432  29.900  26.677  1.00  0.00    +0.000 C 
ATOM      3  C3  UNL A   1      33.980  28.620  26.637  1.00  0.00    +0.000 C 
ATOM      4  C4  UNL A   1      33.473  27.642  25.758  1.00  0.00    +0.000 C 
ATOM      6  C6  UNL A   1      32.614  28.137  24.799  1.00  0.00    +0.000 C 
ATOM      7  C7  UNL A   1      32.314  27.741  23.476  1.00  0.00    +0.000 C 
ATOM     87  N7  UNL A   1      31.164  28.211  22.992  1.00  0.00    +0.000 N 
ATOM     88  S1  UNL A   1      30.620  29.407  24.036  1.00  0.00    +0.000 S 
ATOM     89  C63 UNL A   1      31.957  29.320  25.085  1.00  0.00    +0.000 C 
ATOM     90  N8  UNL A   1      32.294  30.223  26.028  1.00  0.00    +0.000 N 
ATOM     94  H4  UNL A   1      34.769  28.385  27.259  1.00  0.00    +0.000 H 
BRANCH    2    1
ATOM      1  C1  UNL A   1      34.124  30.980  27.467  1.00  0.00    +0.000 C 
ATOM     91  H1  UNL A   1      35.057  30.608  27.837  1.00  0.00    +0.000 H 
ATOM     92  H2  UNL A   1      33.505  31.272  28.290  1.00  0.00    +0.000 H 
ATOM     93  H3  UNL A   1      34.302  31.825  26.836  1.00  0.00    +0.000 H 
ENDBRANCH    2    1
BRANCH    4    5
ATOM     97  H7  UNL A   1      34.654  25.980  26.249  1.00  0.00    +0.000 H 
ATOM      5  C5  UNL A   1      33.769  26.192  25.686  1.00  0.00    +0.000 C 
ATOM     95  H5  UNL A   1      33.918  25.908  24.666  1.00  0.00    +0.000 H 
ATOM     96  H6  UNL A   1      32.948  25.640  26.094  1.00  0.00    +0.000 H 
ENDBRANCH    4    5
ENDBRANCH    8    7
ENDBRANCH    9    8
ENDBRANCH   10    9
ENDBRANCH   11   10
ENDBRANCH   12   11
ENDBRANCH   14   12
ENDBRANCH   15   14
ENDBRANCH   16   15
ENDBRANCH   17   16
ENDBRANCH   18   17
ENDBRANCH   19   18
ENDBRANCH   20   19
ENDBRANCH   21   20
ENDBRANCH   22   21
ENDBRANCH   24   22
ENDBRANCH   28   27
BRANCH   32   33
ATOM     33  C27 UNL A   1      44.638  32.138  27.525  1.00  0.00    +0.000 C 
ATOM     34  C28 UNL A   1      45.839  32.245  26.793  1.00  0.00    +0.000 C 
ATOM     35  F1  UNL A   1      46.535  31.149  26.453  1.00  0.00    +0.000 F 
ATOM     36  C29 UNL A   1      46.411  33.481  26.483  1.00  0.00    +0.000 C 
ATOM     37  F2  UNL A   1      47.625  33.529  25.917  1.00  0.00    +0.000 F 
ATOM     38  C30 UNL A   1      45.769  34.654  26.828  1.00  0.00    +0.000 C 
ATOM     39  F3  UNL A   1      46.347  35.840  26.602  1.00  0.00    +0.000 F 
ATOM     40  C31 UNL A   1      44.542  34.592  27.454  1.00  0.00    +0.000 C 
ATOM     41  F4  UNL A   1      43.907  35.720  27.804  1.00  0.00    +0.000 F 
ATOM     42  C32 UNL A   1      43.993  33.361  27.810  1.00  0.00    +0.000 C 
ATOM     43  F5  UNL A   1      42.871  33.429  28.534  1.00  0.00    +0.000 F 
ENDBRANCH   32   33
BRANCH   49   50
ATOM     50  C38 UNL A   1      42.110  29.936  33.462  1.00  0.00    +0.000 C 
ATOM     51  C39 UNL A   1      41.641  28.614  33.368  1.00  0.00    +0.000 C 
ATOM     52  F6  UNL A   1      41.298  28.089  32.184  1.00  0.00    +0.000 F 
ATOM     53  C40 UNL A   1      41.585  27.785  34.489  1.00  0.00    +0.000 C 
ATOM     54  F7  UNL A   1      41.134  26.526  34.373  1.00  0.00    +0.000 F 
ATOM     55  C41 UNL A   1      42.036  28.244  35.715  1.00  0.00    +0.000 C 
ATOM     56  F8  UNL A   1      42.033  27.432  36.782  1.00  0.00    +0.000 F 
ATOM     57  C42 UNL A   1      42.521  29.537  35.829  1.00  0.00    +0.000 C 
ATOM     58  F9  UNL A   1      43.004  29.970  37.001  1.00  0.00    +0.000 F 
ATOM     59  C43 UNL A   1      42.543  30.377  34.719  1.00  0.00    +0.000 C 
ATOM     60  F10 UNL A   1      43.050  31.612  34.858  1.00  0.00    +0.000 F 
ENDBRANCH   49   50
BRANCH   64   65
ATOM     65  C47 UNL A   1      36.727  32.033  30.862  1.00  0.00    +0.000 C 
ATOM     66  C48 UNL A   1      35.877  32.241  31.960  1.00  0.00    +0.000 C 
ATOM     67  F11 UNL A   1      36.078  31.567  33.103  1.00  0.00    +0.000 F 
ATOM     68  C49 UNL A   1      34.857  33.197  31.928  1.00  0.00    +0.000 C 
ATOM     69  F12 UNL A   1      34.111  33.415  33.021  1.00  0.00    +0.000 F 
ATOM     70  C50 UNL A   1      34.653  33.965  30.795  1.00  0.00    +0.000 C 
ATOM     71  F13 UNL A   1      33.721  34.930  30.787  1.00  0.00    +0.000 F 
ATOM     72  C51 UNL A   1      35.446  33.759  29.682  1.00  0.00    +0.000 C 
ATOM     73  F14 UNL A   1      35.280  34.519  28.589  1.00  0.00    +0.000 F 
ATOM     74  C52 UNL A   1      36.466  32.807  29.713  1.00  0.00    +0.000 C 
ATOM     75  F15 UNL A   1      37.255  32.725  28.632  1.00  0.00    +0.000 F 
ENDBRANCH   64   65
TORSDOF 21
ENDMDL
MODEL 3
REMARK VINA RESULT:     -10.5      3.244      9.074
ROOT
ATOM    129  H39 UNL A   1      41.438  28.840  26.271  1.00  0.00    +0.000 H 
ATOM     28  C23 UNL A   1      40.940  27.863  28.941  1.00  0.00    +0.000 C 
ATOM     29  C24 UNL A   1      42.070  28.687  28.444  1.00  0.00    +0.000 C 
ATOM     30  N3  UNL A   1      43.117  29.038  29.112  1.00  0.00    +0.000 N 
ATOM     31  C25 UNL A   1      43.888  29.810  28.249  1.00  0.00    +0.000 C 
ATOM     32  C26 UNL A   1      44.802  30.690  28.743  1.00  0.00    +0.000 C 
ATOM     44  C33 UNL A   1      45.086  30.409  30.131  1.00  0.00    +0.000 C 
ATOM     45  C34 UNL A   1      45.605  29.325  30.811  1.00  0.00    +0.000 C 
ATOM     46  C35 UNL A   1      44.841  29.244  32.013  1.00  0.00    +0.000 C 
ATOM     47  C36 UNL A   1      43.957  30.323  32.029  1.00  0.00    +0.000 C 
ATOM     48  N4  UNL A   1      44.464  31.179  31.085  1.00  0.00    +0.000 N 
ATOM     49  C37 UNL A   1      42.727  30.566  32.746  1.00  0.00    +0.000 C 
ATOM     61  C44 UNL A   1      41.743  31.413  32.322  1.00  0.00    +0.000 C 
ATOM     62  N5  UNL A   1      40.439  31.287  32.779  1.00  0.00    +0.000 N 
ATOM     63  C45 UNL A   1      39.701  31.780  31.819  1.00  0.00    +0.000 C 
ATOM     64  C46 UNL A   1      38.411  31.169  31.396  1.00  0.00    +0.000 C 
ATOM     76  C53 UNL A   1      38.717  29.969  30.845  1.00  0.00    +0.000 C 
ATOM     77  C54 UNL A   1      37.907  28.788  30.663  1.00  0.00    +0.000 C 
ATOM     78  C55 UNL A   1      38.677  27.829  30.109  1.00  0.00    +0.000 C 
ATOM     79  C56 UNL A   1      39.973  28.395  29.720  1.00  0.00    +0.000 C 
ATOM     80  N6  UNL A   1      39.963  29.650  30.278  1.00  0.00    +0.000 N 
ATOM     81  C57 UNL A   1      40.397  32.622  30.860  1.00  0.00    +0.000 C 
ATOM     82  C58 UNL A   1      41.656  32.291  31.157  1.00  0.00    +0.000 C 
ATOM     83  C59 UNL A   1      43.316  29.631  26.939  1.00  0.00    +0.000 C 
ATOM     84  C60 UNL A   1      42.129  29.023  27.015  1.00  0.00    +0.000 C 
ATOM    120  H30 UNL A   1      46.377  28.706  30.514  1.00  0.00    +0.000 H 
ATOM    121  H31 UNL A   1      44.929  28.518  32.742  1.00  0.00    +0.000 H 
ATOM    122  H32 UNL A   1      44.397  32.161  31.092  1.00  0.00    +0.000 H 
ATOM    123  H33 UNL A   1      36.911  28.691  30.916  1.00  0.00    +0.000 H 
ATOM    124  H34 UNL A   1      38.398  26.845  29.978  1.00  0.00    +0.000 H 
ATOM    125  H35 UNL A   1      40.741  30.255  30.281  1.00  0.00    +0.000 H 
ATOM    126  H36 UNL A   1      40.027  33.281  30.157  1.00  0.00    +0.000 H 
ATOM    127  H37 UNL A   1      42.477  32.619  30.623  1.00  0.00    +0.000 H 
ATOM    128  H38 UNL A   1      43.763  29.934  26.059  1.00  0.00    +0.000 H 
ENDROOT
BRANCH   28   27
ATOM    130  H40 UNL A   1      39.170  26.870  27.280  1.00  0.00    +0.000 H 
ATOM    131  H41 UNL A   1      38.833  24.525  26.786  1.00  0.00    +0.000 H 
ATOM     27  C22 UNL A   1      40.900  26.505  28.421  1.00  0.00    +0.000 C 
ATOM     85  C61 UNL A   1      39.848  26.157  27.591  1.00  0.00    +0.000 C 
ATOM     86  C62 UNL A   1      39.723  24.855  27.190  1.00  0.00    +0.000 C 
ATOM    118  H28 UNL A   1      42.657  23.648  28.272  1.00  0.00    +0.000 H 
ATOM     24  C19 UNL A   1      40.789  23.976  27.327  1.00  0.00    +0.000 C 
ATOM     25  C20 UNL A   1      41.886  24.318  28.123  1.00  0.00    +0.000 C 
ATOM     26  C21 UNL A   1      41.918  25.581  28.713  1.00  0.00    +0.000 C 
ATOM    119  H29 UNL A   1      42.683  25.835  29.356  1.00  0.00    +0.000 H 
BRANCH   24   22
ATOM     22  C18 UNL A   1      40.741  22.684  26.604  1.00  0.00    +0.000 C 
ATOM     23  O3  UNL A   1      41.682  22.315  25.950  1.00  0.00    +0.000 O 
BRANCH   22   21
ATOM    117  H27 UNL A   1      39.370  21.556  27.582  1.00  0.00    +0.000 H 
ATOM     21  N2  UNL A   1      39.581  21.915  26.689  1.00  0.00    +0.000 N 
BRANCH   21   20
ATOM    116  H26 UNL A   1      38.083  20.723  25.969  1.00  0.00    +0.000 H 
ATOM    115  H25 UNL A   1      39.191  21.370  24.735  1.00  0.00    +0.000 H 
ATOM     20  C17 UNL A   1      38.636  21.572  25.626  1.00  0.00    +0.000 C 
BRANCH   20   19
ATOM    113  H23 UNL A   1      37.145  22.935  26.240  1.00  0.00    +0.000 H 
ATOM    114  H24 UNL A   1      38.179  23.453  24.861  1.00  0.00    +0.000 H 
ATOM     19  C16 UNL A   1      37.619  22.664  25.320  1.00  0.00    +0.000 C 
BRANCH   19   18
ATOM     18  C15 UNL A   1      36.513  22.306  24.310  1.00  0.00    +0.000 C 
ATOM    111  H21 UNL A   1      36.990  22.152  23.366  1.00  0.00    +0.000 H 
ATOM    112  H22 UNL A   1      36.032  21.458  24.754  1.00  0.00    +0.000 H 
BRANCH   18   17
ATOM     17  C14 UNL A   1      35.353  23.296  24.071  1.00  0.00    +0.000 C 
ATOM    109  H19 UNL A   1      35.582  23.840  23.179  1.00  0.00    +0.000 H 
ATOM    110  H20 UNL A   1      34.484  22.674  24.039  1.00  0.00    +0.000 H 
BRANCH   17   16
ATOM    107  H17 UNL A   1      35.957  24.712  25.540  1.00  0.00    +0.000 H 
ATOM    108  H18 UNL A   1      34.414  25.067  24.688  1.00  0.00    +0.000 H 
ATOM     16  C13 UNL A   1      35.029  24.334  25.163  1.00  0.00    +0.000 C 
BRANCH   16   15
ATOM    105  H15 UNL A   1      34.329  22.756  26.453  1.00  0.00    +0.000 H 
ATOM    106  H16 UNL A   1      34.557  24.350  27.240  1.00  0.00    +0.000 H 
ATOM     15  C12 UNL A   1      34.194  23.816  26.385  1.00  0.00    +0.000 C 
BRANCH   15   14
ATOM     14  N1  UNL A   1      32.677  24.101  26.318  1.00  0.00    +0.000 N 
ATOM    104  H14 UNL A   1      32.274  23.205  26.264  1.00  0.00    +0.000 H 
BRANCH   14   12
ATOM     12  C11 UNL A   1      31.598  24.946  26.294  1.00  0.00    +0.000 C 
ATOM     13  O2  UNL A   1      30.600  24.297  25.901  1.00  0.00    +0.000 O 
BRANCH   12   11
ATOM     11  C10 UNL A   1      31.313  26.547  26.464  1.00  0.00    +0.000 C 
ATOM    102  H12 UNL A   1      30.951  26.815  25.493  1.00  0.00    +0.000 H 
ATOM    103  H13 UNL A   1      30.858  26.435  27.426  1.00  0.00    +0.000 H 
BRANCH   11   10
ATOM     10  C9  UNL A   1      32.145  27.860  26.891  1.00  0.00    +0.000 C 
ATOM    100  H10 UNL A   1      31.994  27.908  27.950  1.00  0.00    +0.000 H 
ATOM    101  H11 UNL A   1      33.018  27.618  26.324  1.00  0.00    +0.000 H 
BRANCH   10    9
ATOM      9  C8  UNL A   1      32.094  29.388  26.450  1.00  0.00    +0.000 C 
ATOM     98  H8  UNL A   1      31.193  29.775  26.879  1.00  0.00    +0.000 H 
ATOM     99  H9  UNL A   1      33.063  29.707  26.770  1.00  0.00    +0.000 H 
BRANCH    9    8
ATOM      8  O1  UNL A   1      32.105  29.869  25.096  1.00  0.00    +0.000 O 
BRANCH    8    7
ATOM      2  C2  UNL A   1      32.035  25.505  22.669  1.00  0.00    +0.000 C 
ATOM      3  C3  UNL A   1      33.207  26.251  22.766  1.00  0.00    +0.000 C 
ATOM      4  C4  UNL A   1      33.164  27.647  22.953  1.00  0.00    +0.000 C 
ATOM      6  C6  UNL A   1      31.918  28.132  23.293  1.00  0.00    +0.000 C 
ATOM      7  C7  UNL A   1      31.489  29.234  24.067  1.00  0.00    +0.000 C 
ATOM     87  N7  UNL A   1      30.229  29.615  23.858  1.00  0.00    +0.000 N 
ATOM     88  S1  UNL A   1      29.472  28.415  22.964  1.00  0.00    +0.000 S 
ATOM     89  C63 UNL A   1      30.820  27.377  22.920  1.00  0.00    +0.000 C 
ATOM     90  N8  UNL A   1      30.817  26.076  22.566  1.00  0.00    +0.000 N 
ATOM     94  H4  UNL A   1      34.120  25.775  22.700  1.00  0.00    +0.000 H 
BRANCH    2    1
ATOM      1  C1  UNL A   1      32.110  24.000  22.681  1.00  0.00    +0.000 C 
ATOM     91  H1  UNL A   1      32.172  23.655  23.691  1.00  0.00    +0.000 H 
ATOM     92  H2  UNL A   1      32.977  23.682  22.141  1.00  0.00    +0.000 H 
ATOM     93  H3  UNL A   1      31.233  23.597  22.219  1.00  0.00    +0.000 H 
ENDBRANCH    2    1
BRANCH    4    5
ATOM     97  H7  UNL A   1      33.885  29.602  23.185  1.00  0.00    +0.000 H 
ATOM      5  C5  UNL A   1      34.259  28.644  22.891  1.00  0.00    +0.000 C 
ATOM     95  H5  UNL A   1      34.636  28.698  21.892  1.00  0.00    +0.000 H 
ATOM     96  H6  UNL A   1      35.046  28.350  23.554  1.00  0.00    +0.000 H 
ENDBRANCH    4    5
ENDBRANCH    8    7
ENDBRANCH    9    8
ENDBRANCH   10    9
ENDBRANCH   11   10
ENDBRANCH   12   11
ENDBRANCH   14   12
ENDBRANCH   15   14
ENDBRANCH   16   15
ENDBRANCH   17   16
ENDBRANCH   18   17
ENDBRANCH   19   18
ENDBRANCH   20   19
ENDBRANCH   21   20
ENDBRANCH   22   21
ENDBRANCH   24   22
ENDBRANCH   28   27
BRANCH   32   33
ATOM     33  C27 UNL A   1      45.160  32.016  28.115  1.00  0.00    +0.000 C 
ATOM     34  C28 UNL A   1      44.130  32.952  27.879  1.00  0.00    +0.000 C 
ATOM     35  F1  UNL A   1      42.930  32.813  28.464  1.00  0.00    +0.000 F 
ATOM     36  C29 UNL A   1      44.270  33.992  26.958  1.00  0.00    +0.000 C 
ATOM     37  F2  UNL A   1      43.216  34.764  26.661  1.00  0.00    +0.000 F 
ATOM     38  C30 UNL A   1      45.466  34.180  26.293  1.00  0.00    +0.000 C 
ATOM     39  F3  UNL A   1      45.582  35.127  25.354  1.00  0.00    +0.000 F 
ATOM     40  C31 UNL A   1      46.530  33.349  26.572  1.00  0.00    +0.000 C 
ATOM     41  F4  UNL A   1      47.696  33.510  25.931  1.00  0.00    +0.000 F 
ATOM     42  C32 UNL A   1      46.377  32.279  27.453  1.00  0.00    +0.000 C 
ATOM     43  F5  UNL A   1      47.432  31.461  27.539  1.00  0.00    +0.000 F 
ENDBRANCH   32   33
BRANCH   49   50
ATOM     50  C38 UNL A   1      42.429  29.640  33.892  1.00  0.00    +0.000 C 
ATOM     51  C39 UNL A   1      41.839  28.373  33.742  1.00  0.00    +0.000 C 
ATOM     52  F6  UNL A   1      41.420  27.948  32.543  1.00  0.00    +0.000 F 
ATOM     53  C40 UNL A   1      41.736  27.491  34.818  1.00  0.00    +0.000 C 
ATOM     54  F7  UNL A   1      41.169  26.286  34.648  1.00  0.00    +0.000 F 
ATOM     55  C41 UNL A   1      42.258  27.837  36.053  1.00  0.00    +0.000 C 
ATOM     56  F8  UNL A   1      42.208  26.969  37.074  1.00  0.00    +0.000 F 
ATOM     57  C42 UNL A   1      42.862  29.072  36.221  1.00  0.00    +0.000 C 
ATOM     58  F9  UNL A   1      43.413  29.393  37.400  1.00  0.00    +0.000 F 
ATOM     59  C43 UNL A   1      42.933  29.969  35.158  1.00  0.00    +0.000 C 
ATOM     60  F10 UNL A   1      43.554  31.143  35.348  1.00  0.00    +0.000 F 
ENDBRANCH   49   50
BRANCH   64   65
ATOM     65  C47 UNL A   1      37.162  31.949  31.236  1.00  0.00    +0.000 C 
ATOM     66  C48 UNL A   1      36.317  32.185  32.334  1.00  0.00    +0.000 C 
ATOM     67  F11 UNL A   1      36.501  31.512  33.480  1.00  0.00    +0.000 F 
ATOM     68  C49 UNL A   1      35.323  33.167  32.297  1.00  0.00    +0.000 C 
ATOM     69  F12 UNL A   1      34.583  33.411  33.388  1.00  0.00    +0.000 F 
ATOM     70  C50 UNL A   1      35.139  33.934  31.160  1.00  0.00    +0.000 C 
ATOM     71  F13 UNL A   1      34.232  34.923  31.147  1.00  0.00    +0.000 F 
ATOM     72  C51 UNL A   1      35.926  33.701  30.047  1.00  0.00    +0.000 C 
ATOM     73  F14 UNL A   1      35.779  34.459  28.951  1.00  0.00    +0.000 F 
ATOM     74  C52 UNL A   1      36.921  32.723  30.083  1.00  0.00    +0.000 C 
ATOM     75  F15 UNL A   1      37.706  32.615  29.003  1.00  0.00    +0.000 F 
ENDBRANCH   64   65
TORSDOF 21
ENDMDL
MODEL 4
REMARK VINA RESULT:     -10.5      3.423      8.776
ROOT
ATOM    129  H39 UNL A   1      41.269  28.905  26.293  1.00  0.00    +0.000 H 
ATOM     28  C23 UNL A   1      40.741  27.961  28.969  1.00  0.00    +0.000 C 
ATOM     29  C24 UNL A   1      41.931  28.679  28.451  1.00  0.00    +0.000 C 
ATOM     30  N3  UNL A   1      43.021  28.928  29.097  1.00  0.00    +0.000 N 
ATOM     31  C25 UNL A   1      43.841  29.630  28.220  1.00  0.00    +0.000 C 
ATOM     32  C26 UNL A   1      44.843  30.419  28.698  1.00  0.00    +0.000 C 
ATOM     44  C33 UNL A   1      45.130  30.104  30.078  1.00  0.00    +0.000 C 
ATOM     45  C34 UNL A   1      45.561  28.971  30.741  1.00  0.00    +0.000 C 
ATOM     46  C35 UNL A   1      44.819  28.954  31.960  1.00  0.00    +0.000 C 
ATOM     47  C36 UNL A   1      44.039  30.110  32.000  1.00  0.00    +0.000 C 
ATOM     48  N4  UNL A   1      44.603  30.921  31.049  1.00  0.00    +0.000 N 
ATOM     49  C37 UNL A   1      42.853  30.461  32.746  1.00  0.00    +0.000 C 
ATOM     61  C44 UNL A   1      41.943  31.398  32.348  1.00  0.00    +0.000 C 
ATOM     62  N5  UNL A   1      40.643  31.391  32.833  1.00  0.00    +0.000 N 
ATOM     63  C45 UNL A   1      39.933  31.956  31.893  1.00  0.00    +0.000 C 
ATOM     64  C46 UNL A   1      38.583  31.470  31.496  1.00  0.00    +0.000 C 
ATOM     76  C53 UNL A   1      38.765  30.251  30.932  1.00  0.00    +0.000 C 
ATOM     77  C54 UNL A   1      37.845  29.150  30.763  1.00  0.00    +0.000 C 
ATOM     78  C55 UNL A   1      38.511  28.129  30.187  1.00  0.00    +0.000 C 
ATOM     79  C56 UNL A   1      39.845  28.575  29.772  1.00  0.00    +0.000 C 
ATOM     80  N6  UNL A   1      39.963  29.821  30.336  1.00  0.00    +0.000 N 
ATOM     81  C57 UNL A   1      40.683  32.736  30.922  1.00  0.00    +0.000 C 
ATOM     82  C58 UNL A   1      41.913  32.288  31.189  1.00  0.00    +0.000 C 
ATOM     83  C59 UNL A   1      43.226  29.515  26.922  1.00  0.00    +0.000 C 
ATOM     84  C60 UNL A   1      41.990  29.019  27.023  1.00  0.00    +0.000 C 
ATOM    120  H30 UNL A   1      46.265  28.286  30.424  1.00  0.00    +0.000 H 
ATOM    121  H31 UNL A   1      44.855  28.218  32.682  1.00  0.00    +0.000 H 
ATOM    122  H32 UNL A   1      44.628  31.905  31.062  1.00  0.00    +0.000 H 
ATOM    123  H33 UNL A   1      36.850  29.145  31.037  1.00  0.00    +0.000 H 
ATOM    124  H34 UNL A   1      38.138  27.175  30.058  1.00  0.00    +0.000 H 
ATOM    125  H35 UNL A   1      40.793  30.352  30.325  1.00  0.00    +0.000 H 
ATOM    126  H36 UNL A   1      40.361  33.431  30.231  1.00  0.00    +0.000 H 
ATOM    127  H37 UNL A   1      42.748  32.543  30.639  1.00  0.00    +0.000 H 
ATOM    128  H38 UNL A   1      43.680  29.780  26.034  1.00  0.00    +0.000 H 
ENDROOT
BRANCH   28   27
ATOM    130  H40 UNL A   1      38.750  27.102  27.492  1.00  0.00    +0.000 H 
ATOM    131  H41 UNL A   1      38.220  24.789  27.015  1.00  0.00    +0.000 H 
ATOM     27  C22 UNL A   1      40.563  26.615  28.444  1.00  0.00    +0.000 C 
ATOM     85  C61 UNL A   1      39.412  26.345  27.725  1.00  0.00    +0.000 C 
ATOM     86  C62 UNL A   1      39.166  25.058  27.327  1.00  0.00    +0.000 C 
ATOM    118  H28 UNL A   1      42.117  23.661  28.086  1.00  0.00    +0.000 H 
ATOM     24  C19 UNL A   1      40.185  24.115  27.344  1.00  0.00    +0.000 C 
ATOM     25  C20 UNL A   1      41.377  24.378  28.025  1.00  0.00    +0.000 C 
ATOM     26  C21 UNL A   1      41.548  25.628  28.619  1.00  0.00    +0.000 C 
ATOM    119  H29 UNL A   1      42.389  25.825  29.182  1.00  0.00    +0.000 H 
BRANCH   24   22
ATOM     22  C18 UNL A   1      39.982  22.839  26.618  1.00  0.00    +0.000 C 
ATOM     23  O3  UNL A   1      40.883  22.048  26.513  1.00  0.00    +0.000 O 
BRANCH   22   21
ATOM    117  H27 UNL A   1      38.118  23.352  26.007  1.00  0.00    +0.000 H 
ATOM     21  N2  UNL A   1      38.733  22.584  26.055  1.00  0.00    +0.000 N 
BRANCH   21   20
ATOM    116  H26 UNL A   1      37.823  20.777  26.358  1.00  0.00    +0.000 H 
ATOM    115  H25 UNL A   1      39.015  20.809  25.035  1.00  0.00    +0.000 H 
ATOM     20  C17 UNL A   1      38.214  21.322  25.525  1.00  0.00    +0.000 C 
BRANCH   20   19
ATOM    113  H23 UNL A   1      37.282  20.864  23.687  1.00  0.00    +0.000 H 
ATOM    114  H24 UNL A   1      36.185  21.220  25.069  1.00  0.00    +0.000 H 
ATOM     19  C16 UNL A   1      37.071  21.487  24.531  1.00  0.00    +0.000 C 
BRANCH   19   18
ATOM     18  C15 UNL A   1      36.819  22.914  24.009  1.00  0.00    +0.000 C 
ATOM    111  H21 UNL A   1      37.236  23.587  24.727  1.00  0.00    +0.000 H 
ATOM    112  H22 UNL A   1      37.265  22.908  23.035  1.00  0.00    +0.000 H 
BRANCH   18   17
ATOM     17  C14 UNL A   1      35.373  23.380  23.742  1.00  0.00    +0.000 C 
ATOM    109  H19 UNL A   1      35.303  23.609  22.699  1.00  0.00    +0.000 H 
ATOM    110  H20 UNL A   1      34.770  22.568  24.090  1.00  0.00    +0.000 H 
BRANCH   17   16
ATOM    107  H17 UNL A   1      35.587  25.360  24.487  1.00  0.00    +0.000 H 
ATOM    108  H18 UNL A   1      33.922  24.868  24.022  1.00  0.00    +0.000 H 
ATOM     16  C13 UNL A   1      34.834  24.601  24.511  1.00  0.00    +0.000 C 
BRANCH   16   15
ATOM    105  H15 UNL A   1      35.187  24.832  26.624  1.00  0.00    +0.000 H 
ATOM    106  H16 UNL A   1      33.465  24.766  26.134  1.00  0.00    +0.000 H 
ATOM     15  C12 UNL A   1      34.448  24.359  26.012  1.00  0.00    +0.000 C 
BRANCH   15   14
ATOM     14  N1  UNL A   1      34.351  22.878  26.439  1.00  0.00    +0.000 N 
ATOM    104  H14 UNL A   1      35.099  22.768  27.069  1.00  0.00    +0.000 H 
BRANCH   14   12
ATOM     12  C11 UNL A   1      33.771  21.637  26.403  1.00  0.00    +0.000 C 
ATOM     13  O2  UNL A   1      33.749  21.179  27.570  1.00  0.00    +0.000 O 
BRANCH   12   11
ATOM     11  C10 UNL A   1      33.281  20.565  25.269  1.00  0.00    +0.000 C 
ATOM    102  H12 UNL A   1      34.169  19.990  25.105  1.00  0.00    +0.000 H 
ATOM    103  H13 UNL A   1      32.346  20.373  25.754  1.00  0.00    +0.000 H 
BRANCH   11   10
ATOM     10  C9  UNL A   1      32.630  20.613  23.795  1.00  0.00    +0.000 C 
ATOM    100  H10 UNL A   1      33.298  20.009  23.216  1.00  0.00    +0.000 H 
ATOM    101  H11 UNL A   1      31.628  20.426  24.119  1.00  0.00    +0.000 H 
BRANCH   10    9
ATOM      9  C8  UNL A   1      32.251  21.792  22.796  1.00  0.00    +0.000 C 
ATOM     98  H8  UNL A   1      33.131  22.398  22.729  1.00  0.00    +0.000 H 
ATOM     99  H9  UNL A   1      31.883  21.224  21.968  1.00  0.00    +0.000 H 
BRANCH    9    8
ATOM      8  O1  UNL A   1      31.166  22.718  22.968  1.00  0.00    +0.000 O 
BRANCH    8    7
ATOM      2  C2  UNL A   1      30.128  27.601  23.117  1.00  0.00    +0.000 C 
ATOM      3  C3  UNL A   1      31.006  27.085  22.167  1.00  0.00    +0.000 C 
ATOM      4  C4  UNL A   1      31.708  25.887  22.405  1.00  0.00    +0.000 C 
ATOM      6  C6  UNL A   1      31.252  25.172  23.493  1.00  0.00    +0.000 C 
ATOM      7  C7  UNL A   1      31.218  23.793  23.796  1.00  0.00    +0.000 C 
ATOM     87  N7  UNL A   1      31.063  23.501  25.088  1.00  0.00    +0.000 N 
ATOM     88  S1  UNL A   1      30.623  24.911  25.882  1.00  0.00    +0.000 S 
ATOM     89  C63 UNL A   1      30.586  25.876  24.481  1.00  0.00    +0.000 C 
ATOM     90  N8  UNL A   1      30.034  27.101  24.367  1.00  0.00    +0.000 N 
ATOM     94  H4  UNL A   1      31.143  27.587  21.276  1.00  0.00    +0.000 H 
BRANCH    2    1
ATOM      1  C1  UNL A   1      29.238  28.761  22.754  1.00  0.00    +0.000 C 
ATOM     91  H1  UNL A   1      29.251  28.902  21.694  1.00  0.00    +0.000 H 
ATOM     92  H2  UNL A   1      29.594  29.648  23.236  1.00  0.00    +0.000 H 
ATOM     93  H3  UNL A   1      28.238  28.557  23.074  1.00  0.00    +0.000 H 
ENDBRANCH    2    1
BRANCH    4    5
ATOM     97  H7  UNL A   1      32.958  25.813  20.723  1.00  0.00    +0.000 H 
ATOM      5  C5  UNL A   1      32.813  25.270  21.634  1.00  0.00    +0.000 C 
ATOM     95  H5  UNL A   1      32.567  24.254  21.408  1.00  0.00    +0.000 H 
ATOM     96  H6  UNL A   1      33.712  25.300  22.213  1.00  0.00    +0.000 H 
ENDBRANCH    4    5
ENDBRANCH    8    7
ENDBRANCH    9    8
ENDBRANCH   10    9
ENDBRANCH   11   10
ENDBRANCH   12   11
ENDBRANCH   14   12
ENDBRANCH   15   14
ENDBRANCH   16   15
ENDBRANCH   17   16
ENDBRANCH   18   17
ENDBRANCH   19   18
ENDBRANCH   20   19
ENDBRANCH   21   20
ENDBRANCH   22   21
ENDBRANCH   24   22
ENDBRANCH   28   27
BRANCH   32   33
ATOM     33  C27 UNL A   1      45.308  31.711  28.068  1.00  0.00    +0.000 C 
ATOM     34  C28 UNL A   1      44.345  32.690  27.744  1.00  0.00    +0.000 C 
ATOM     35  F1  UNL A   1      43.103  32.624  28.249  1.00  0.00    +0.000 F 
ATOM     36  C29 UNL A   1      44.599  33.699  26.813  1.00  0.00    +0.000 C 
ATOM     37  F2  UNL A   1      43.607  34.514  26.429  1.00  0.00    +0.000 F 
ATOM     38  C30 UNL A   1      45.844  33.812  26.227  1.00  0.00    +0.000 C 
ATOM     39  F3  UNL A   1      46.071  34.730  25.278  1.00  0.00    +0.000 F 
ATOM     40  C31 UNL A   1      46.844  32.937  26.594  1.00  0.00    +0.000 C 
ATOM     41  F4  UNL A   1      48.057  33.025  26.030  1.00  0.00    +0.000 F 
ATOM     42  C32 UNL A   1      46.579  31.897  27.484  1.00  0.00    +0.000 C 
ATOM     43  F5  UNL A   1      47.583  31.031  27.659  1.00  0.00    +0.000 F 
ENDBRANCH   32   33
BRANCH   49   50
ATOM     50  C38 UNL A   1      42.496  29.559  33.894  1.00  0.00    +0.000 C 
ATOM     51  C39 UNL A   1      41.819  28.336  33.748  1.00  0.00    +0.000 C 
ATOM     52  F6  UNL A   1      41.366  27.941  32.550  1.00  0.00    +0.000 F 
ATOM     53  C40 UNL A   1      41.659  27.464  34.824  1.00  0.00    +0.000 C 
ATOM     54  F7  UNL A   1      41.008  26.301  34.658  1.00  0.00    +0.000 F 
ATOM     55  C41 UNL A   1      42.208  27.774  36.057  1.00  0.00    +0.000 C 
ATOM     56  F8  UNL A   1      42.102  26.912  37.079  1.00  0.00    +0.000 F 
ATOM     57  C42 UNL A   1      42.897  28.964  36.221  1.00  0.00    +0.000 C 
ATOM     58  F9  UNL A   1      43.474  29.247  37.398  1.00  0.00    +0.000 F 
ATOM     59  C43 UNL A   1      43.027  29.852  35.157  1.00  0.00    +0.000 C 
ATOM     60  F10 UNL A   1      43.729  30.981  35.344  1.00  0.00    +0.000 F 
ENDBRANCH   49   50
BRANCH   64   65
ATOM     65  C47 UNL A   1      37.409  32.364  31.368  1.00  0.00    +0.000 C 
ATOM     66  C48 UNL A   1      37.159  33.052  30.169  1.00  0.00    +0.000 C 
ATOM     67  F11 UNL A   1      38.099  33.101  29.214  1.00  0.00    +0.000 F 
ATOM     68  C49 UNL A   1      35.916  33.634  29.903  1.00  0.00    +0.000 C 
ATOM     69  F12 UNL A   1      35.693  34.223  28.719  1.00  0.00    +0.000 F 
ATOM     70  C50 UNL A   1      34.891  33.552  30.830  1.00  0.00    +0.000 C 
ATOM     71  F13 UNL A   1      33.678  34.049  30.547  1.00  0.00    +0.000 F 
ATOM     72  C51 UNL A   1      35.116  32.916  32.037  1.00  0.00    +0.000 C 
ATOM     73  F14 UNL A   1      34.122  32.802  32.930  1.00  0.00    +0.000 F 
ATOM     74  C52 UNL A   1      36.355  32.332  32.303  1.00  0.00    +0.000 C 
ATOM     75  F15 UNL A   1      36.473  31.653  33.453  1.00  0.00    +0.000 F 
ENDBRANCH   64   65
TORSDOF 21
ENDMDL
MODEL 5
REMARK VINA RESULT:     -10.5      1.179      2.114
ROOT
ATOM    129  H39 UNL A   1      38.407  27.568  30.890  1.00  0.00    +0.000 H 
ATOM     28  C23 UNL A   1      39.967  29.181  29.075  1.00  0.00    +0.000 C 
ATOM     29  C24 UNL A   1      40.208  28.893  30.510  1.00  0.00    +0.000 C 
ATOM     30  N3  UNL A   1      41.128  29.409  31.254  1.00  0.00    +0.000 N 
ATOM     31  C25 UNL A   1      40.979  28.835  32.512  1.00  0.00    +0.000 C 
ATOM     32  C26 UNL A   1      42.025  28.807  33.384  1.00  0.00    +0.000 C 
ATOM     44  C33 UNL A   1      43.054  29.736  32.980  1.00  0.00    +0.000 C 
ATOM     45  C34 UNL A   1      43.104  31.105  32.797  1.00  0.00    +0.000 C 
ATOM     46  C35 UNL A   1      43.911  31.292  31.636  1.00  0.00    +0.000 C 
ATOM     47  C36 UNL A   1      44.364  30.038  31.225  1.00  0.00    +0.000 C 
ATOM     48  N4  UNL A   1      44.150  29.237  32.317  1.00  0.00    +0.000 N 
ATOM     49  C37 UNL A   1      44.872  29.548  29.965  1.00  0.00    +0.000 C 
ATOM     61  C44 UNL A   1      44.820  28.242  29.569  1.00  0.00    +0.000 C 
ATOM     62  N5  UNL A   1      44.899  27.892  28.229  1.00  0.00    +0.000 N 
ATOM     63  C45 UNL A   1      44.258  26.756  28.142  1.00  0.00    +0.000 C 
ATOM     64  C46 UNL A   1      43.354  26.422  27.008  1.00  0.00    +0.000 C 
ATOM     76  C53 UNL A   1      42.297  27.266  27.099  1.00  0.00    +0.000 C 
ATOM     77  C54 UNL A   1      41.360  27.705  26.091  1.00  0.00    +0.000 C 
ATOM     78  C55 UNL A   1      40.513  28.588  26.659  1.00  0.00    +0.000 C 
ATOM     79  C56 UNL A   1      40.729  28.623  28.109  1.00  0.00    +0.000 C 
ATOM     80  N6  UNL A   1      41.873  27.885  28.288  1.00  0.00    +0.000 N 
ATOM     81  C57 UNL A   1      44.057  26.051  29.398  1.00  0.00    +0.000 C 
ATOM     82  C58 UNL A   1      44.335  27.042  30.249  1.00  0.00    +0.000 C 
ATOM     83  C59 UNL A   1      39.712  28.151  32.489  1.00  0.00    +0.000 C 
ATOM     84  C60 UNL A   1      39.235  28.072  31.243  1.00  0.00    +0.000 C 
ATOM    120  H30 UNL A   1      42.654  31.834  33.374  1.00  0.00    +0.000 H 
ATOM    121  H31 UNL A   1      44.123  32.194  31.181  1.00  0.00    +0.000 H 
ATOM    122  H32 UNL A   1      44.683  28.451  32.578  1.00  0.00    +0.000 H 
ATOM    123  H33 UNL A   1      41.341  27.398  25.106  1.00  0.00    +0.000 H 
ATOM    124  H34 UNL A   1      39.817  29.155  26.150  1.00  0.00    +0.000 H 
ATOM    125  H35 UNL A   1      42.343  27.799  29.150  1.00  0.00    +0.000 H 
ATOM    126  H36 UNL A   1      43.780  25.073  29.578  1.00  0.00    +0.000 H 
ATOM    127  H37 UNL A   1      44.221  26.969  31.272  1.00  0.00    +0.000 H 
ATOM    128  H38 UNL A   1      39.236  27.773  33.322  1.00  0.00    +0.000 H 
ENDROOT
BRANCH   28   27
ATOM    130  H40 UNL A   1      37.746  28.387  27.927  1.00  0.00    +0.000 H 
ATOM    131  H41 UNL A   1      35.993  29.816  27.066  1.00  0.00    +0.000 H 
ATOM     27  C22 UNL A   1      38.789  29.991  28.804  1.00  0.00    +0.000 C 
ATOM     85  C61 UNL A   1      37.731  29.397  28.138  1.00  0.00    +0.000 C 
ATOM     86  C62 UNL A   1      36.665  30.170  27.765  1.00  0.00    +0.000 C 
ATOM    118  H28 UNL A   1      37.414  32.993  29.410  1.00  0.00    +0.000 H 
ATOM     24  C19 UNL A   1      36.486  31.429  28.323  1.00  0.00    +0.000 C 
ATOM     25  C20 UNL A   1      37.522  32.036  29.039  1.00  0.00    +0.000 C 
ATOM     26  C21 UNL A   1      38.703  31.324  29.242  1.00  0.00    +0.000 C 
ATOM    119  H29 UNL A   1      39.505  31.771  29.711  1.00  0.00    +0.000 H 
BRANCH   24   22
ATOM     22  C18 UNL A   1      35.177  32.102  28.150  1.00  0.00    +0.000 C 
ATOM     23  O3  UNL A   1      35.115  33.301  28.060  1.00  0.00    +0.000 O 
BRANCH   22   21
ATOM    117  H27 UNL A   1      33.853  30.763  28.901  1.00  0.00    +0.000 H 
ATOM     21  N2  UNL A   1      34.025  31.318  28.106  1.00  0.00    +0.000 N 
BRANCH   21   20
ATOM    116  H26 UNL A   1      33.423  31.769  26.204  1.00  0.00    +0.000 H 
ATOM    115  H25 UNL A   1      32.107  31.597  27.391  1.00  0.00    +0.000 H 
ATOM     20  C17 UNL A   1      33.037  31.212  27.031  1.00  0.00    +0.000 C 
BRANCH   20   19
ATOM    113  H23 UNL A   1      32.281  29.851  25.605  1.00  0.00    +0.000 H 
ATOM    114  H24 UNL A   1      33.781  29.351  26.464  1.00  0.00    +0.000 H 
ATOM     19  C16 UNL A   1      32.807  29.790  26.535  1.00  0.00    +0.000 C 
BRANCH   19   18
ATOM     18  C15 UNL A   1      32.006  28.861  27.467  1.00  0.00    +0.000 C 
ATOM    111  H21 UNL A   1      32.615  28.683  28.328  1.00  0.00    +0.000 H 
ATOM    112  H22 UNL A   1      31.089  29.391  27.623  1.00  0.00    +0.000 H 
BRANCH   18   17
ATOM     17  C14 UNL A   1      31.544  27.482  26.950  1.00  0.00    +0.000 C 
ATOM    109  H19 UNL A   1      32.380  26.820  27.028  1.00  0.00    +0.000 H 
ATOM    110  H20 UNL A   1      30.695  27.249  27.557  1.00  0.00    +0.000 H 
BRANCH   17   16
ATOM    107  H17 UNL A   1      30.576  28.314  25.249  1.00  0.00    +0.000 H 
ATOM    108  H18 UNL A   1      31.857  27.098  24.912  1.00  0.00    +0.000 H 
ATOM     16  C13 UNL A   1      31.013  27.372  25.508  1.00  0.00    +0.000 C 
BRANCH   16   15
ATOM    105  H15 UNL A   1      29.033  26.554  25.737  1.00  0.00    +0.000 H 
ATOM    106  H16 UNL A   1      29.846  26.181  24.185  1.00  0.00    +0.000 H 
ATOM     15  C12 UNL A   1      29.938  26.260  25.248  1.00  0.00    +0.000 C 
BRANCH   15   14
ATOM     14  N1  UNL A   1      30.315  24.847  25.749  1.00  0.00    +0.000 N 
ATOM    104  H14 UNL A   1      29.527  24.302  25.522  1.00  0.00    +0.000 H 
BRANCH   14   12
ATOM     12  C11 UNL A   1      31.168  23.955  26.343  1.00  0.00    +0.000 C 
ATOM     13  O2  UNL A   1      30.485  23.019  26.823  1.00  0.00    +0.000 O 
BRANCH   12   11
ATOM     11  C10 UNL A   1      32.754  23.874  26.732  1.00  0.00    +0.000 C 
ATOM    102  H12 UNL A   1      33.225  24.152  25.811  1.00  0.00    +0.000 H 
ATOM    103  H13 UNL A   1      32.619  24.357  27.677  1.00  0.00    +0.000 H 
BRANCH   11   10
ATOM     10  C9  UNL A   1      33.776  22.773  27.318  1.00  0.00    +0.000 C 
ATOM    100  H10 UNL A   1      34.735  23.196  27.102  1.00  0.00    +0.000 H 
ATOM    101  H11 UNL A   1      33.267  22.646  28.250  1.00  0.00    +0.000 H 
BRANCH   10    9
ATOM      9  C8  UNL A   1      33.996  21.221  27.049  1.00  0.00    +0.000 C 
ATOM     98  H8  UNL A   1      34.527  20.859  27.905  1.00  0.00    +0.000 H 
ATOM     99  H9  UNL A   1      32.992  20.925  26.831  1.00  0.00    +0.000 H 
BRANCH    9    8
ATOM      8  O1  UNL A   1      34.675  20.656  25.915  1.00  0.00    +0.000 O 
BRANCH    8    7
ATOM      2  C2  UNL A   1      32.696  23.985  22.762  1.00  0.00    +0.000 C 
ATOM      3  C3  UNL A   1      32.071  22.763  22.997  1.00  0.00    +0.000 C 
ATOM      4  C4  UNL A   1      32.810  21.642  23.425  1.00  0.00    +0.000 C 
ATOM      6  C6  UNL A   1      34.094  21.936  23.834  1.00  0.00    +0.000 C 
ATOM      7  C7  UNL A   1      34.961  21.353  24.786  1.00  0.00    +0.000 C 
ATOM     87  N7  UNL A   1      36.251  21.658  24.638  1.00  0.00    +0.000 N 
ATOM     88  S1  UNL A   1      36.355  22.923  23.541  1.00  0.00    +0.000 S 
ATOM     89  C63 UNL A   1      34.675  23.085  23.327  1.00  0.00    +0.000 C 
ATOM     90  N8  UNL A   1      34.038  24.125  22.751  1.00  0.00    +0.000 N 
ATOM     94  H4  UNL A   1      31.053  22.677  22.856  1.00  0.00    +0.000 H 
BRANCH    2    1
ATOM      1  C1  UNL A   1      31.858  25.212  22.511  1.00  0.00    +0.000 C 
ATOM     91  H1  UNL A   1      31.680  25.313  21.462  1.00  0.00    +0.000 H 
ATOM     92  H2  UNL A   1      32.375  26.077  22.871  1.00  0.00    +0.000 H 
ATOM     93  H3  UNL A   1      30.924  25.116  23.024  1.00  0.00    +0.000 H 
ENDBRANCH    2    1
BRANCH    4    5
ATOM     97  H7  UNL A   1      31.343  20.146  23.360  1.00  0.00    +0.000 H 
ATOM      5  C5  UNL A   1      32.393  20.225  23.547  1.00  0.00    +0.000 C 
ATOM     95  H5  UNL A   1      32.608  19.873  24.534  1.00  0.00    +0.000 H 
ATOM     96  H6  UNL A   1      32.928  19.634  22.832  1.00  0.00    +0.000 H 
ENDBRANCH    4    5
ENDBRANCH    8    7
ENDBRANCH    9    8
ENDBRANCH   10    9
ENDBRANCH   11   10
ENDBRANCH   12   11
ENDBRANCH   14   12
ENDBRANCH   15   14
ENDBRANCH   16   15
ENDBRANCH   17   16
ENDBRANCH   18   17
ENDBRANCH   19   18
ENDBRANCH   20   19
ENDBRANCH   21   20
ENDBRANCH   22   21
ENDBRANCH   24   22
ENDBRANCH   28   27
BRANCH   32   33
ATOM     33  C27 UNL A   1      42.302  27.702  34.376  1.00  0.00    +0.000 C 
ATOM     34  C28 UNL A   1      42.891  26.508  33.909  1.00  0.00    +0.000 C 
ATOM     35  F1  UNL A   1      43.472  26.457  32.700  1.00  0.00    +0.000 F 
ATOM     36  C29 UNL A   1      42.807  25.311  34.624  1.00  0.00    +0.000 C 
ATOM     37  F2  UNL A   1      43.252  24.174  34.072  1.00  0.00    +0.000 F 
ATOM     38  C30 UNL A   1      42.196  25.279  35.862  1.00  0.00    +0.000 C 
ATOM     39  F3  UNL A   1      42.045  24.121  36.518  1.00  0.00    +0.000 F 
ATOM     40  C31 UNL A   1      41.698  26.447  36.399  1.00  0.00    +0.000 C 
ATOM     41  F4  UNL A   1      41.094  26.434  37.596  1.00  0.00    +0.000 F 
ATOM     42  C32 UNL A   1      41.735  27.632  35.666  1.00  0.00    +0.000 C 
ATOM     43  F5  UNL A   1      41.100  28.666  36.228  1.00  0.00    +0.000 F 
ENDBRANCH   32   33
BRANCH   49   50
ATOM     50  C38 UNL A   1      45.248  30.589  28.948  1.00  0.00    +0.000 C 
ATOM     51  C39 UNL A   1      46.574  30.949  28.649  1.00  0.00    +0.000 C 
ATOM     52  F6  UNL A   1      47.599  30.428  29.338  1.00  0.00    +0.000 F 
ATOM     53  C40 UNL A   1      46.871  31.800  27.585  1.00  0.00    +0.000 C 
ATOM     54  F7  UNL A   1      48.146  32.127  27.320  1.00  0.00    +0.000 F 
ATOM     55  C41 UNL A   1      45.856  32.274  26.771  1.00  0.00    +0.000 C 
ATOM     56  F8  UNL A   1      46.144  33.049  25.715  1.00  0.00    +0.000 F 
ATOM     57  C42 UNL A   1      44.543  31.919  27.033  1.00  0.00    +0.000 C 
ATOM     58  F9  UNL A   1      43.562  32.334  26.220  1.00  0.00    +0.000 F 
ATOM     59  C43 UNL A   1      44.242  31.099  28.117  1.00  0.00    +0.000 C 
ATOM     60  F10 UNL A   1      42.962  30.748  28.321  1.00  0.00    +0.000 F 
ENDBRANCH   49   50
BRANCH   64   65
ATOM     65  C47 UNL A   1      43.436  25.148  26.258  1.00  0.00    +0.000 C 
ATOM     66  C48 UNL A   1      44.455  24.934  25.315  1.00  0.00    +0.000 C 
ATOM     67  F11 UNL A   1      45.220  25.959  24.908  1.00  0.00    +0.000 F 
ATOM     68  C49 UNL A   1      44.756  23.656  24.836  1.00  0.00    +0.000 C 
ATOM     69  F12 UNL A   1      45.782  23.482  23.990  1.00  0.00    +0.000 F 
ATOM     70  C50 UNL A   1      44.040  22.556  25.278  1.00  0.00    +0.000 C 
ATOM     71  F13 UNL A   1      44.372  21.321  24.873  1.00  0.00    +0.000 F 
ATOM     72  C51 UNL A   1      43.004  22.736  26.175  1.00  0.00    +0.000 C 
ATOM     73  F14 UNL A   1      42.324  21.675  26.636  1.00  0.00    +0.000 F 
ATOM     74  C52 UNL A   1      42.705  24.011  26.657  1.00  0.00    +0.000 C 
ATOM     75  F15 UNL A   1      41.750  24.099  27.593  1.00  0.00    +0.000 F 
ENDBRANCH   64   65
TORSDOF 21
ENDMDL
MODEL 6
REMARK VINA RESULT:     -10.4      3.314      9.181
ROOT
ATOM    129  H39 UNL A   1      41.030  28.797  26.000  1.00  0.00    +0.000 H 
ATOM     28  C23 UNL A   1      40.610  27.934  28.722  1.00  0.00    +0.000 C 
ATOM     29  C24 UNL A   1      41.706  28.764  28.165  1.00  0.00    +0.000 C 
ATOM     30  N3  UNL A   1      42.755  29.175  28.795  1.00  0.00    +0.000 N 
ATOM     31  C25 UNL A   1      43.488  29.925  27.882  1.00  0.00    +0.000 C 
ATOM     32  C26 UNL A   1      44.385  30.853  28.316  1.00  0.00    +0.000 C 
ATOM     44  C33 UNL A   1      44.703  30.646  29.710  1.00  0.00    +0.000 C 
ATOM     45  C34 UNL A   1      45.265  29.609  30.429  1.00  0.00    +0.000 C 
ATOM     46  C35 UNL A   1      44.526  29.565  31.649  1.00  0.00    +0.000 C 
ATOM     47  C36 UNL A   1      43.612  30.618  31.631  1.00  0.00    +0.000 C 
ATOM     48  N4  UNL A   1      44.077  31.442  30.639  1.00  0.00    +0.000 N 
ATOM     49  C37 UNL A   1      42.389  30.862  32.361  1.00  0.00    +0.000 C 
ATOM     61  C44 UNL A   1      41.374  31.660  31.917  1.00  0.00    +0.000 C 
ATOM     62  N5  UNL A   1      40.082  31.520  32.404  1.00  0.00    +0.000 N 
ATOM     63  C45 UNL A   1      39.313  31.947  31.438  1.00  0.00    +0.000 C 
ATOM     64  C46 UNL A   1      38.033  31.281  31.069  1.00  0.00    +0.000 C 
ATOM     76  C53 UNL A   1      38.363  30.066  30.568  1.00  0.00    +0.000 C 
ATOM     77  C54 UNL A   1      37.583  28.855  30.458  1.00  0.00    +0.000 C 
ATOM     78  C55 UNL A   1      38.370  27.893  29.934  1.00  0.00    +0.000 C 
ATOM     79  C56 UNL A   1      39.642  28.475  29.494  1.00  0.00    +0.000 C 
ATOM     80  N6  UNL A   1      39.607  29.754  29.993  1.00  0.00    +0.000 N 
ATOM     81  C57 UNL A   1      39.967  32.761  30.427  1.00  0.00    +0.000 C 
ATOM     82  C58 UNL A   1      41.240  32.479  30.714  1.00  0.00    +0.000 C 
ATOM     83  C59 UNL A   1      42.898  29.670  26.593  1.00  0.00    +0.000 C 
ATOM     84  C60 UNL A   1      41.730  29.034  26.721  1.00  0.00    +0.000 C 
ATOM    120  H30 UNL A   1      46.048  28.998  30.146  1.00  0.00    +0.000 H 
ATOM    121  H31 UNL A   1      44.647  28.876  32.408  1.00  0.00    +0.000 H 
ATOM    122  H32 UNL A   1      43.982  32.421  30.601  1.00  0.00    +0.000 H 
ATOM    123  H33 UNL A   1      36.595  28.743  30.734  1.00  0.00    +0.000 H 
ATOM    124  H34 UNL A   1      38.116  26.896  29.855  1.00  0.00    +0.000 H 
ATOM    125  H35 UNL A   1      40.367  30.380  29.952  1.00  0.00    +0.000 H 
ATOM    126  H36 UNL A   1      39.566  33.376  29.701  1.00  0.00    +0.000 H 
ATOM    127  H37 UNL A   1      42.042  32.804  30.150  1.00  0.00    +0.000 H 
ATOM    128  H38 UNL A   1      43.319  29.942  25.691  1.00  0.00    +0.000 H 
ENDROOT
BRANCH   28   27
ATOM    130  H40 UNL A   1      38.875  26.832  27.090  1.00  0.00    +0.000 H 
ATOM    131  H41 UNL A   1      38.583  24.461  26.705  1.00  0.00    +0.000 H 
ATOM     27  C22 UNL A   1      40.598  26.552  28.267  1.00  0.00    +0.000 C 
ATOM     85  C61 UNL A   1      39.562  26.147  27.442  1.00  0.00    +0.000 C 
ATOM     86  C62 UNL A   1      39.463  24.825  27.103  1.00  0.00    +0.000 C 
ATOM    118  H28 UNL A   1      42.405  23.722  28.273  1.00  0.00    +0.000 H 
ATOM     24  C19 UNL A   1      40.543  23.972  27.293  1.00  0.00    +0.000 C 
ATOM     25  C20 UNL A   1      41.624  24.371  28.083  1.00  0.00    +0.000 C 
ATOM     26  C21 UNL A   1      41.628  25.661  28.613  1.00  0.00    +0.000 C 
ATOM    119  H29 UNL A   1      42.381  25.958  29.252  1.00  0.00    +0.000 H 
BRANCH   24   22
ATOM     22  C18 UNL A   1      40.524  22.647  26.632  1.00  0.00    +0.000 C 
ATOM     23  O3  UNL A   1      41.529  22.192  26.149  1.00  0.00    +0.000 O 
BRANCH   22   21
ATOM    117  H27 UNL A   1      38.780  21.954  27.397  1.00  0.00    +0.000 H 
ATOM     21  N2  UNL A   1      39.320  21.947  26.573  1.00  0.00    +0.000 N 
BRANCH   21   20
ATOM    116  H26 UNL A   1      38.872  20.166  25.673  1.00  0.00    +0.000 H 
ATOM    115  H25 UNL A   1      39.269  21.496  24.558  1.00  0.00    +0.000 H 
ATOM     20  C17 UNL A   1      38.752  21.204  25.448  1.00  0.00    +0.000 C 
BRANCH   20   19
ATOM    113  H23 UNL A   1      36.905  20.682  24.567  1.00  0.00    +0.000 H 
ATOM    114  H24 UNL A   1      36.826  21.407  26.212  1.00  0.00    +0.000 H 
ATOM     19  C16 UNL A   1      37.261  21.439  25.235  1.00  0.00    +0.000 C 
BRANCH   19   18
ATOM     18  C15 UNL A   1      36.860  22.806  24.651  1.00  0.00    +0.000 C 
ATOM    111  H21 UNL A   1      37.710  23.181  24.120  1.00  0.00    +0.000 H 
ATOM    112  H22 UNL A   1      35.986  22.587  24.073  1.00  0.00    +0.000 H 
BRANCH   18   17
ATOM     17  C14 UNL A   1      36.393  23.929  25.601  1.00  0.00    +0.000 C 
ATOM    109  H19 UNL A   1      36.677  23.642  26.591  1.00  0.00    +0.000 H 
ATOM    110  H20 UNL A   1      36.859  24.810  25.211  1.00  0.00    +0.000 H 
BRANCH   17   16
ATOM    107  H17 UNL A   1      34.724  24.867  26.527  1.00  0.00    +0.000 H 
ATOM    108  H18 UNL A   1      34.698  24.806  24.730  1.00  0.00    +0.000 H 
ATOM     16  C13 UNL A   1      34.895  24.287  25.644  1.00  0.00    +0.000 C 
BRANCH   16   15
ATOM    105  H15 UNL A   1      34.441  22.203  25.942  1.00  0.00    +0.000 H 
ATOM    106  H16 UNL A   1      33.125  23.345  26.359  1.00  0.00    +0.000 H 
ATOM     15  C12 UNL A   1      33.895  23.080  25.664  1.00  0.00    +0.000 C 
BRANCH   15   14
ATOM     14  N1  UNL A   1      33.179  22.793  24.325  1.00  0.00    +0.000 N 
ATOM    104  H14 UNL A   1      32.731  21.930  24.481  1.00  0.00    +0.000 H 
BRANCH   14   12
ATOM     12  C11 UNL A   1      32.840  23.106  23.035  1.00  0.00    +0.000 C 
ATOM     13  O2  UNL A   1      32.262  22.116  22.529  1.00  0.00    +0.000 O 
BRANCH   12   11
ATOM     11  C10 UNL A   1      33.132  24.311  21.968  1.00  0.00    +0.000 C 
ATOM    102  H12 UNL A   1      33.998  23.950  21.453  1.00  0.00    +0.000 H 
ATOM    103  H13 UNL A   1      32.100  24.424  21.706  1.00  0.00    +0.000 H 
BRANCH   11   10
ATOM     10  C9  UNL A   1      33.404  25.899  22.019  1.00  0.00    +0.000 C 
ATOM    100  H10 UNL A   1      34.270  26.015  21.400  1.00  0.00    +0.000 H 
ATOM    101  H11 UNL A   1      32.387  26.183  21.851  1.00  0.00    +0.000 H 
BRANCH   10    9
ATOM      9  C8  UNL A   1      33.661  26.936  23.198  1.00  0.00    +0.000 C 
ATOM     98  H8  UNL A   1      34.693  26.817  23.457  1.00  0.00    +0.000 H 
ATOM     99  H9  UNL A   1      33.283  27.829  22.747  1.00  0.00    +0.000 H 
BRANCH    9    8
ATOM      8  O1  UNL A   1      32.957  26.970  24.451  1.00  0.00    +0.000 O 
BRANCH    8    7
ATOM      2  C2  UNL A   1      28.901  29.353  22.774  1.00  0.00    +0.000 C 
ATOM      3  C3  UNL A   1      29.908  30.040  23.447  1.00  0.00    +0.000 C 
ATOM      4  C4  UNL A   1      30.756  29.377  24.356  1.00  0.00    +0.000 C 
ATOM      6  C6  UNL A   1      30.672  28.001  24.304  1.00  0.00    +0.000 C 
ATOM      7  C7  UNL A   1      31.603  26.967  24.553  1.00  0.00    +0.000 C 
ATOM     87  N7  UNL A   1      31.069  25.767  24.777  1.00  0.00    +0.000 N 
ATOM     88  S1  UNL A   1      29.449  25.839  24.350  1.00  0.00    +0.000 S 
ATOM     89  C63 UNL A   1      29.499  27.454  23.815  1.00  0.00    +0.000 C 
ATOM     90  N8  UNL A   1      28.561  28.082  23.078  1.00  0.00    +0.000 N 
ATOM     94  H4  UNL A   1      30.036  31.050  23.277  1.00  0.00    +0.000 H 
BRANCH    2    1
ATOM      1  C1  UNL A   1      28.152  30.035  21.659  1.00  0.00    +0.000 C 
ATOM     91  H1  UNL A   1      28.850  30.446  20.961  1.00  0.00    +0.000 H 
ATOM     92  H2  UNL A   1      27.548  30.821  22.064  1.00  0.00    +0.000 H 
ATOM     93  H3  UNL A   1      27.527  29.324  21.162  1.00  0.00    +0.000 H 
ENDBRANCH    2    1
BRANCH    4    5
ATOM     97  H7  UNL A   1      31.407  30.891  25.652  1.00  0.00    +0.000 H 
ATOM      5  C5  UNL A   1      31.745  29.936  25.307  1.00  0.00    +0.000 C 
ATOM     95  H5  UNL A   1      32.689  30.048  24.815  1.00  0.00    +0.000 H 
ATOM     96  H6  UNL A   1      31.853  29.274  26.141  1.00  0.00    +0.000 H 
ENDBRANCH    4    5
ENDBRANCH    8    7
ENDBRANCH    9    8
ENDBRANCH   10    9
ENDBRANCH   11   10
ENDBRANCH   12   11
ENDBRANCH   14   12
ENDBRANCH   15   14
ENDBRANCH   16   15
ENDBRANCH   17   16
ENDBRANCH   18   17
ENDBRANCH   19   18
ENDBRANCH   20   19
ENDBRANCH   21   20
ENDBRANCH   22   21
ENDBRANCH   24   22
ENDBRANCH   28   27
BRANCH   32   33
ATOM     33  C27 UNL A   1      44.694  32.157  27.620  1.00  0.00    +0.000 C 
ATOM     34  C28 UNL A   1      45.899  32.266  26.894  1.00  0.00    +0.000 C 
ATOM     35  F1  UNL A   1      46.604  31.172  26.565  1.00  0.00    +0.000 F 
ATOM     36  C29 UNL A   1      46.465  33.504  26.578  1.00  0.00    +0.000 C 
ATOM     37  F2  UNL A   1      47.681  33.555  26.019  1.00  0.00    +0.000 F 
ATOM     38  C30 UNL A   1      45.813  34.675  26.911  1.00  0.00    +0.000 C 
ATOM     39  F3  UNL A   1      46.385  35.863  26.678  1.00  0.00    +0.000 F 
ATOM     40  C31 UNL A   1      44.583  34.610  27.530  1.00  0.00    +0.000 C 
ATOM     41  F4  UNL A   1      43.939  35.736  27.868  1.00  0.00    +0.000 F 
ATOM     42  C32 UNL A   1      44.041  33.378  27.892  1.00  0.00    +0.000 C 
ATOM     43  F5  UNL A   1      42.914  33.443  28.610  1.00  0.00    +0.000 F 
ENDBRANCH   32   33
BRANCH   49   50
ATOM     50  C38 UNL A   1      42.138  29.982  33.554  1.00  0.00    +0.000 C 
ATOM     51  C39 UNL A   1      41.669  28.660  33.469  1.00  0.00    +0.000 C 
ATOM     52  F6  UNL A   1      41.328  28.128  32.287  1.00  0.00    +0.000 F 
ATOM     53  C40 UNL A   1      41.611  27.838  34.594  1.00  0.00    +0.000 C 
ATOM     54  F7  UNL A   1      41.160  26.579  34.485  1.00  0.00    +0.000 F 
ATOM     55  C41 UNL A   1      42.060  28.304  35.818  1.00  0.00    +0.000 C 
ATOM     56  F8  UNL A   1      42.055  27.499  36.890  1.00  0.00    +0.000 F 
ATOM     57  C42 UNL A   1      42.545  29.598  35.924  1.00  0.00    +0.000 C 
ATOM     58  F9  UNL A   1      43.027  30.038  37.095  1.00  0.00    +0.000 F 
ATOM     59  C43 UNL A   1      42.570  30.431  34.810  1.00  0.00    +0.000 C 
ATOM     60  F10 UNL A   1      43.077  31.667  34.942  1.00  0.00    +0.000 F 
ENDBRANCH   49   50
BRANCH   64   65
ATOM     65  C47 UNL A   1      36.760  32.019  30.898  1.00  0.00    +0.000 C 
ATOM     66  C48 UNL A   1      35.899  32.227  31.988  1.00  0.00    +0.000 C 
ATOM     67  F11 UNL A   1      36.096  31.563  33.137  1.00  0.00    +0.000 F 
ATOM     68  C49 UNL A   1      34.873  33.175  31.941  1.00  0.00    +0.000 C 
ATOM     69  F12 UNL A   1      34.116  33.396  33.026  1.00  0.00    +0.000 F 
ATOM     70  C50 UNL A   1      34.671  33.934  30.801  1.00  0.00    +0.000 C 
ATOM     71  F13 UNL A   1      33.732  34.892  30.779  1.00  0.00    +0.000 F 
ATOM     72  C51 UNL A   1      35.475  33.726  29.695  1.00  0.00    +0.000 C 
ATOM     73  F14 UNL A   1      35.312  34.477  28.597  1.00  0.00    +0.000 F 
ATOM     74  C52 UNL A   1      36.502  32.783  29.741  1.00  0.00    +0.000 C 
ATOM     75  F15 UNL A   1      37.300  32.699  28.668  1.00  0.00    +0.000 F 
ENDBRANCH   64   65
TORSDOF 21
ENDMDL
MODEL 7
REMARK VINA RESULT:     -10.3      3.192      8.904
ROOT
ATOM    129  H39 UNL A   1      41.020  28.766  26.055  1.00  0.00    +0.000 H 
ATOM     28  C23 UNL A   1      40.753  27.920  28.802  1.00  0.00    +0.000 C 
ATOM     29  C24 UNL A   1      41.803  28.766  28.184  1.00  0.00    +0.000 C 
ATOM     30  N3  UNL A   1      42.874  29.204  28.757  1.00  0.00    +0.000 N 
ATOM     31  C25 UNL A   1      43.545  29.960  27.802  1.00  0.00    +0.000 C 
ATOM     32  C26 UNL A   1      44.444  30.909  28.184  1.00  0.00    +0.000 C 
ATOM     44  C33 UNL A   1      44.835  30.721  29.561  1.00  0.00    +0.000 C 
ATOM     45  C34 UNL A   1      45.453  29.702  30.260  1.00  0.00    +0.000 C 
ATOM     46  C35 UNL A   1      44.777  29.654  31.516  1.00  0.00    +0.000 C 
ATOM     47  C36 UNL A   1      43.842  30.690  31.536  1.00  0.00    +0.000 C 
ATOM     48  N4  UNL A   1      44.241  31.513  30.515  1.00  0.00    +0.000 N 
ATOM     49  C37 UNL A   1      42.652  30.915  32.323  1.00  0.00    +0.000 C 
ATOM     61  C44 UNL A   1      41.600  31.690  31.924  1.00  0.00    +0.000 C 
ATOM     62  N5  UNL A   1      40.338  31.529  32.477  1.00  0.00    +0.000 N 
ATOM     63  C45 UNL A   1      39.513  31.931  31.547  1.00  0.00    +0.000 C 
ATOM     64  C46 UNL A   1      38.230  31.238  31.248  1.00  0.00    +0.000 C 
ATOM     76  C53 UNL A   1      38.559  30.024  30.741  1.00  0.00    +0.000 C 
ATOM     77  C54 UNL A   1      37.799  28.797  30.680  1.00  0.00    +0.000 C 
ATOM     78  C55 UNL A   1      38.578  27.846  30.125  1.00  0.00    +0.000 C 
ATOM     79  C56 UNL A   1      39.815  28.449  29.617  1.00  0.00    +0.000 C 
ATOM     80  N6  UNL A   1      39.779  29.732  30.107  1.00  0.00    +0.000 N 
ATOM     81  C57 UNL A   1      40.100  32.749  30.498  1.00  0.00    +0.000 C 
ATOM     82  C58 UNL A   1      41.391  32.495  30.723  1.00  0.00    +0.000 C 
ATOM     83  C59 UNL A   1      42.896  29.681  26.547  1.00  0.00    +0.000 C 
ATOM     84  C60 UNL A   1      41.749  29.024  26.738  1.00  0.00    +0.000 C 
ATOM    120  H30 UNL A   1      46.233  29.104  29.943  1.00  0.00    +0.000 H 
ATOM    121  H31 UNL A   1      44.949  28.975  32.274  1.00  0.00    +0.000 H 
ATOM    122  H32 UNL A   1      44.124  32.490  30.473  1.00  0.00    +0.000 H 
ATOM    123  H33 UNL A   1      36.828  28.669  31.006  1.00  0.00    +0.000 H 
ATOM    124  H34 UNL A   1      38.341  26.844  30.067  1.00  0.00    +0.000 H 
ATOM    125  H35 UNL A   1      40.523  30.372  30.023  1.00  0.00    +0.000 H 
ATOM    126  H36 UNL A   1      39.650  33.349  29.788  1.00  0.00    +0.000 H 
ATOM    127  H37 UNL A   1      42.156  32.831  30.117  1.00  0.00    +0.000 H 
ATOM    128  H38 UNL A   1      43.267  29.954  25.623  1.00  0.00    +0.000 H 
ENDROOT
BRANCH   28   27
ATOM    130  H40 UNL A   1      38.873  26.722  27.418  1.00  0.00    +0.000 H 
ATOM    131  H41 UNL A   1      38.645  24.336  27.086  1.00  0.00    +0.000 H 
ATOM     27  C22 UNL A   1      40.746  26.534  28.359  1.00  0.00    +0.000 C 
ATOM     85  C61 UNL A   1      39.631  26.073  27.680  1.00  0.00    +0.000 C 
ATOM     86  C62 UNL A   1      39.551  24.744  27.363  1.00  0.00    +0.000 C 
ATOM    118  H28 UNL A   1      42.669  23.790  28.142  1.00  0.00    +0.000 H 
ATOM     24  C19 UNL A   1      40.685  23.944  27.414  1.00  0.00    +0.000 C 
ATOM     25  C20 UNL A   1      41.840  24.401  28.054  1.00  0.00    +0.000 C 
ATOM     26  C21 UNL A   1      41.854  25.695  28.571  1.00  0.00    +0.000 C 
ATOM    119  H29 UNL A   1      42.669  26.033  29.104  1.00  0.00    +0.000 H 
BRANCH   24   22
ATOM     22  C18 UNL A   1      40.641  22.612  26.768  1.00  0.00    +0.000 C 
ATOM     23  O3  UNL A   1      41.647  22.112  26.333  1.00  0.00    +0.000 O 
BRANCH   22   21
ATOM    117  H27 UNL A   1      38.995  21.698  27.519  1.00  0.00    +0.000 H 
ATOM     21  N2  UNL A   1      39.414  21.959  26.666  1.00  0.00    +0.000 N 
BRANCH   21   20
ATOM    116  H26 UNL A   1      38.820  20.565  25.292  1.00  0.00    +0.000 H 
ATOM    115  H25 UNL A   1      39.026  22.214  24.653  1.00  0.00    +0.000 H 
ATOM     20  C17 UNL A   1      38.665  21.610  25.459  1.00  0.00    +0.000 C 
BRANCH   20   19
ATOM    113  H23 UNL A   1      36.940  22.027  26.603  1.00  0.00    +0.000 H 
ATOM    114  H24 UNL A   1      36.930  22.618  24.903  1.00  0.00    +0.000 H 
ATOM     19  C16 UNL A   1      37.160  21.818  25.577  1.00  0.00    +0.000 C 
BRANCH   19   18
ATOM     18  C15 UNL A   1      36.270  20.642  25.135  1.00  0.00    +0.000 C 
ATOM    111  H21 UNL A   1      36.788  20.136  24.348  1.00  0.00    +0.000 H 
ATOM    112  H22 UNL A   1      36.111  20.093  26.041  1.00  0.00    +0.000 H 
BRANCH   18   17
ATOM     17  C14 UNL A   1      34.841  20.921  24.626  1.00  0.00    +0.000 C 
ATOM    109  H19 UNL A   1      34.894  21.781  23.992  1.00  0.00    +0.000 H 
ATOM    110  H20 UNL A   1      34.548  20.005  24.158  1.00  0.00    +0.000 H 
BRANCH   17   16
ATOM    107  H17 UNL A   1      33.960  20.631  26.540  1.00  0.00    +0.000 H 
ATOM    108  H18 UNL A   1      33.708  22.247  25.792  1.00  0.00    +0.000 H 
ATOM     16  C13 UNL A   1      33.726  21.186  25.656  1.00  0.00    +0.000 C 
BRANCH   16   15
ATOM    105  H15 UNL A   1      32.272  20.651  24.159  1.00  0.00    +0.000 H 
ATOM    106  H16 UNL A   1      32.022  19.914  25.773  1.00  0.00    +0.000 H 
ATOM     15  C12 UNL A   1      32.271  20.796  25.219  1.00  0.00    +0.000 C 
BRANCH   15   14
ATOM     14  N1  UNL A   1      31.178  21.834  25.558  1.00  0.00    +0.000 N 
ATOM    104  H14 UNL A   1      30.340  21.328  25.465  1.00  0.00    +0.000 H 
BRANCH   14   12
ATOM     12  C11 UNL A   1      30.763  23.089  25.920  1.00  0.00    +0.000 C 
ATOM     13  O2  UNL A   1      30.096  22.992  26.977  1.00  0.00    +0.000 O 
BRANCH   12   11
ATOM     11  C10 UNL A   1      30.753  24.592  25.275  1.00  0.00    +0.000 C 
ATOM    102  H12 UNL A   1      31.591  24.556  24.609  1.00  0.00    +0.000 H 
ATOM    103  H13 UNL A   1      29.692  24.603  25.139  1.00  0.00    +0.000 H 
BRANCH   11   10
ATOM     10  C9  UNL A   1      30.809  26.112  25.810  1.00  0.00    +0.000 C 
ATOM    100  H10 UNL A   1      30.855  26.684  24.907  1.00  0.00    +0.000 H 
ATOM    101  H11 UNL A   1      30.020  25.999  26.523  1.00  0.00    +0.000 H 
BRANCH   10    9
ATOM      9  C8  UNL A   1      31.787  26.900  26.787  1.00  0.00    +0.000 C 
ATOM     98  H8  UNL A   1      31.184  27.663  27.233  1.00  0.00    +0.000 H 
ATOM     99  H9  UNL A   1      32.185  26.083  27.351  1.00  0.00    +0.000 H 
BRANCH    9    8
ATOM      8  O1  UNL A   1      33.006  27.556  26.401  1.00  0.00    +0.000 O 
BRANCH    8    7
ATOM      2  C2  UNL A   1      33.389  24.634  22.369  1.00  0.00    +0.000 C 
ATOM      3  C3  UNL A   1      33.910  24.232  23.597  1.00  0.00    +0.000 C 
ATOM      4  C4  UNL A   1      34.287  25.179  24.569  1.00  0.00    +0.000 C 
ATOM      6  C6  UNL A   1      33.852  26.461  24.306  1.00  0.00    +0.000 C 
ATOM      7  C7  UNL A   1      33.496  27.548  25.135  1.00  0.00    +0.000 C 
ATOM     87  N7  UNL A   1      33.497  28.740  24.537  1.00  0.00    +0.000 N 
ATOM     88  S1  UNL A   1      33.607  28.483  22.883  1.00  0.00    +0.000 S 
ATOM     89  C63 UNL A   1      33.590  26.784  22.986  1.00  0.00    +0.000 C 
ATOM     90  N8  UNL A   1      33.384  25.923  21.970  1.00  0.00    +0.000 N 
ATOM     94  H4  UNL A   1      34.020  23.225  23.798  1.00  0.00    +0.000 H 
BRANCH    2    1
ATOM      1  C1  UNL A   1      32.801  23.605  21.439  1.00  0.00    +0.000 C 
ATOM     91  H1  UNL A   1      33.569  22.930  21.124  1.00  0.00    +0.000 H 
ATOM     92  H2  UNL A   1      32.385  24.095  20.583  1.00  0.00    +0.000 H 
ATOM     93  H3  UNL A   1      32.034  23.061  21.948  1.00  0.00    +0.000 H 
ENDBRANCH    2    1
BRANCH    4    5
ATOM     97  H7  UNL A   1      34.559  24.212  26.410  1.00  0.00    +0.000 H 
ATOM      5  C5  UNL A   1      35.027  24.987  25.839  1.00  0.00    +0.000 C 
ATOM     95  H5  UNL A   1      35.017  25.898  26.399  1.00  0.00    +0.000 H 
ATOM     96  H6  UNL A   1      36.038  24.710  25.625  1.00  0.00    +0.000 H 
ENDBRANCH    4    5
ENDBRANCH    8    7
ENDBRANCH    9    8
ENDBRANCH   10    9
ENDBRANCH   11   10
ENDBRANCH   12   11
ENDBRANCH   14   12
ENDBRANCH   15   14
ENDBRANCH   16   15
ENDBRANCH   17   16
ENDBRANCH   18   17
ENDBRANCH   19   18
ENDBRANCH   20   19
ENDBRANCH   21   20
ENDBRANCH   22   21
ENDBRANCH   24   22
ENDBRANCH   28   27
BRANCH   32   33
ATOM     33  C27 UNL A   1      44.692  32.213  27.463  1.00  0.00    +0.000 C 
ATOM     34  C28 UNL A   1      45.888  32.362  26.728  1.00  0.00    +0.000 C 
ATOM     35  F1  UNL A   1      46.638  31.294  26.416  1.00  0.00    +0.000 F 
ATOM     36  C29 UNL A   1      46.396  33.617  26.387  1.00  0.00    +0.000 C 
ATOM     37  F2  UNL A   1      47.606  33.712  25.820  1.00  0.00    +0.000 F 
ATOM     38  C30 UNL A   1      45.694  34.764  26.702  1.00  0.00    +0.000 C 
ATOM     39  F3  UNL A   1      46.212  35.972  26.445  1.00  0.00    +0.000 F 
ATOM     40  C31 UNL A   1      44.471  34.656  27.329  1.00  0.00    +0.000 C 
ATOM     41  F4  UNL A   1      43.780  35.758  27.650  1.00  0.00    +0.000 F 
ATOM     42  C32 UNL A   1      43.986  33.408  27.716  1.00  0.00    +0.000 C 
ATOM     43  F5  UNL A   1      42.860  33.437  28.438  1.00  0.00    +0.000 F 
ENDBRANCH   32   33
BRANCH   49   50
ATOM     50  C38 UNL A   1      42.479  30.042  33.535  1.00  0.00    +0.000 C 
ATOM     51  C39 UNL A   1      42.652  30.493  34.855  1.00  0.00    +0.000 C 
ATOM     52  F6  UNL A   1      43.076  31.739  35.107  1.00  0.00    +0.000 F 
ATOM     53  C40 UNL A   1      42.320  29.686  35.944  1.00  0.00    +0.000 C 
ATOM     54  F7  UNL A   1      42.493  30.141  37.195  1.00  0.00    +0.000 F 
ATOM     55  C41 UNL A   1      41.769  28.433  35.738  1.00  0.00    +0.000 C 
ATOM     56  F8  UNL A   1      41.400  27.677  36.782  1.00  0.00    +0.000 F 
ATOM     57  C42 UNL A   1      41.572  27.974  34.445  1.00  0.00    +0.000 C 
ATOM     58  F9  UNL A   1      40.994  26.782  34.239  1.00  0.00    +0.000 F 
ATOM     59  C43 UNL A   1      41.936  28.763  33.358  1.00  0.00    +0.000 C 
ATOM     60  F10 UNL A   1      41.700  28.300  32.120  1.00  0.00    +0.000 F 
ENDBRANCH   49   50
BRANCH   64   65
ATOM     65  C47 UNL A   1      36.935  31.948  31.135  1.00  0.00    +0.000 C 
ATOM     66  C48 UNL A   1      36.118  32.136  32.262  1.00  0.00    +0.000 C 
ATOM     67  F11 UNL A   1      36.380  31.474  33.399  1.00  0.00    +0.000 F 
ATOM     68  C49 UNL A   1      35.072  33.062  32.263  1.00  0.00    +0.000 C 
ATOM     69  F12 UNL A   1      34.358  33.264  33.380  1.00  0.00    +0.000 F 
ATOM     70  C50 UNL A   1      34.805  33.819  31.135  1.00  0.00    +0.000 C 
ATOM     71  F13 UNL A   1      33.846  34.757  31.157  1.00  0.00    +0.000 F 
ATOM     72  C51 UNL A   1      35.563  33.630  29.995  1.00  0.00    +0.000 C 
ATOM     73  F14 UNL A   1      35.336  34.380  28.906  1.00  0.00    +0.000 F 
ATOM     74  C52 UNL A   1      36.611  32.709  29.993  1.00  0.00    +0.000 C 
ATOM     75  F15 UNL A   1      37.363  32.644  28.885  1.00  0.00    +0.000 F 
ENDBRANCH   64   65
TORSDOF 21
ENDMDL
MODEL 8
REMARK VINA RESULT:     -10.2      4.061      6.858
ROOT
ATOM    129  H39 UNL A   1      38.434  27.246  30.727  1.00  0.00    +0.000 H 
ATOM     28  C23 UNL A   1      39.972  29.056  29.087  1.00  0.00    +0.000 C 
ATOM     29  C24 UNL A   1      40.208  28.639  30.492  1.00  0.00    +0.000 C 
ATOM     30  N3  UNL A   1      41.110  29.103  31.290  1.00  0.00    +0.000 N 
ATOM     31  C25 UNL A   1      40.964  28.410  32.487  1.00  0.00    +0.000 C 
ATOM     32  C26 UNL A   1      42.003  28.323  33.363  1.00  0.00    +0.000 C 
ATOM     44  C33 UNL A   1      43.014  29.308  33.058  1.00  0.00    +0.000 C 
ATOM     45  C34 UNL A   1      43.034  30.688  33.005  1.00  0.00    +0.000 C 
ATOM     46  C35 UNL A   1      43.846  31.001  31.875  1.00  0.00    +0.000 C 
ATOM     47  C36 UNL A   1      44.330  29.801  31.353  1.00  0.00    +0.000 C 
ATOM     48  N4  UNL A   1      44.126  28.897  32.362  1.00  0.00    +0.000 N 
ATOM     49  C37 UNL A   1      44.859  29.444  30.057  1.00  0.00    +0.000 C 
ATOM     61  C44 UNL A   1      44.840  28.180  29.540  1.00  0.00    +0.000 C 
ATOM     62  N5  UNL A   1      44.938  27.959  28.173  1.00  0.00    +0.000 N 
ATOM     63  C45 UNL A   1      44.323  26.823  27.974  1.00  0.00    +0.000 C 
ATOM     64  C46 UNL A   1      43.436  26.578  26.804  1.00  0.00    +0.000 C 
ATOM     76  C53 UNL A   1      42.359  27.387  26.963  1.00  0.00    +0.000 C 
ATOM     77  C54 UNL A   1      41.421  27.898  25.992  1.00  0.00    +0.000 C 
ATOM     78  C55 UNL A   1      40.549  28.705  26.632  1.00  0.00    +0.000 C 
ATOM     79  C56 UNL A   1      40.754  28.608  28.082  1.00  0.00    +0.000 C 
ATOM     80  N6  UNL A   1      41.913  27.881  28.201  1.00  0.00    +0.000 N 
ATOM     81  C57 UNL A   1      44.128  25.999  29.156  1.00  0.00    +0.000 C 
ATOM     82  C58 UNL A   1      44.377  26.911  30.099  1.00  0.00    +0.000 C 
ATOM     83  C59 UNL A   1      39.712  27.704  32.387  1.00  0.00    +0.000 C 
ATOM     84  C60 UNL A   1      39.248  27.732  31.134  1.00  0.00    +0.000 C 
ATOM    120  H30 UNL A   1      42.564  31.349  33.644  1.00  0.00    +0.000 H 
ATOM    121  H31 UNL A   1      44.041  31.947  31.509  1.00  0.00    +0.000 H 
ATOM    122  H32 UNL A   1      44.674  28.102  32.554  1.00  0.00    +0.000 H 
ATOM    123  H33 UNL A   1      41.417  27.685  24.982  1.00  0.00    +0.000 H 
ATOM    124  H34 UNL A   1      39.845  29.302  26.172  1.00  0.00    +0.000 H 
ATOM    125  H35 UNL A   1      42.377  27.725  29.056  1.00  0.00    +0.000 H 
ATOM    126  H36 UNL A   1      43.872  25.003  29.240  1.00  0.00    +0.000 H 
ATOM    127  H37 UNL A   1      44.256  26.740  31.109  1.00  0.00    +0.000 H 
ATOM    128  H38 UNL A   1      39.238  27.238  33.176  1.00  0.00    +0.000 H 
ENDROOT
BRANCH   28   27
ATOM    130  H40 UNL A   1      37.600  28.195  28.368  1.00  0.00    +0.000 H 
ATOM    131  H41 UNL A   1      35.762  29.560  27.584  1.00  0.00    +0.000 H 
ATOM     27  C22 UNL A   1      38.778  29.862  28.882  1.00  0.00    +0.000 C 
ATOM     85  C61 UNL A   1      37.628  29.223  28.450  1.00  0.00    +0.000 C 
ATOM     86  C62 UNL A   1      36.531  29.977  28.132  1.00  0.00    +0.000 C 
ATOM    118  H28 UNL A   1      37.542  32.957  29.288  1.00  0.00    +0.000 H 
ATOM     24  C19 UNL A   1      36.449  31.300  28.546  1.00  0.00    +0.000 C 
ATOM     25  C20 UNL A   1      37.583  31.958  29.030  1.00  0.00    +0.000 C 
ATOM     26  C21 UNL A   1      38.772  31.241  29.156  1.00  0.00    +0.000 C 
ATOM    119  H29 UNL A   1      39.638  31.718  29.448  1.00  0.00    +0.000 H 
BRANCH   24   22
ATOM     22  C18 UNL A   1      35.137  31.986  28.473  1.00  0.00    +0.000 C 
ATOM     23  O3  UNL A   1      34.144  31.371  28.183  1.00  0.00    +0.000 O 
BRANCH   22   21
ATOM    117  H27 UNL A   1      35.485  33.642  29.589  1.00  0.00    +0.000 H 
ATOM     21  N2  UNL A   1      35.084  33.354  28.736  1.00  0.00    +0.000 N 
BRANCH   21   20
ATOM    116  H26 UNL A   1      33.637  34.011  27.449  1.00  0.00    +0.000 H 
ATOM    115  H25 UNL A   1      35.249  34.726  27.201  1.00  0.00    +0.000 H 
ATOM     20  C17 UNL A   1      34.511  34.418  27.912  1.00  0.00    +0.000 C 
BRANCH   20   19
ATOM    113  H23 UNL A   1      34.937  36.212  28.941  1.00  0.00    +0.000 H 
ATOM    114  H24 UNL A   1      33.367  36.151  28.063  1.00  0.00    +0.000 H 
ATOM     19  C16 UNL A   1      34.064  35.643  28.699  1.00  0.00    +0.000 C 
BRANCH   19   18
ATOM     18  C15 UNL A   1      33.301  35.374  30.009  1.00  0.00    +0.000 C 
ATOM    111  H21 UNL A   1      32.410  34.843  29.748  1.00  0.00    +0.000 H 
ATOM    112  H22 UNL A   1      34.015  34.853  30.614  1.00  0.00    +0.000 H 
BRANCH   18   17
ATOM     17  C14 UNL A   1      32.873  36.561  30.897  1.00  0.00    +0.000 C 
ATOM    109  H19 UNL A   1      33.603  37.332  30.766  1.00  0.00    +0.000 H 
ATOM    110  H20 UNL A   1      31.881  36.787  30.568  1.00  0.00    +0.000 H 
BRANCH   17   16
ATOM    107  H17 UNL A   1      31.944  36.982  32.763  1.00  0.00    +0.000 H 
ATOM    108  H18 UNL A   1      32.512  35.292  32.528  1.00  0.00    +0.000 H 
ATOM     16  C13 UNL A   1      32.721  36.335  32.413  1.00  0.00    +0.000 C 
BRANCH   16   15
ATOM    105  H15 UNL A   1      34.358  37.583  33.048  1.00  0.00    +0.000 H 
ATOM    106  H16 UNL A   1      33.685  36.497  34.305  1.00  0.00    +0.000 H 
ATOM     15  C12 UNL A   1      33.996  36.605  33.285  1.00  0.00    +0.000 C 
BRANCH   15   14
ATOM     14  N1  UNL A   1      35.157  35.605  33.086  1.00  0.00    +0.000 N 
ATOM    104  H14 UNL A   1      35.958  36.177  33.082  1.00  0.00    +0.000 H 
BRANCH   14   12
ATOM     12  C11 UNL A   1      35.658  34.342  32.912  1.00  0.00    +0.000 C 
ATOM     13  O2  UNL A   1      36.906  34.397  33.011  1.00  0.00    +0.000 O 
BRANCH   12   11
ATOM     11  C10 UNL A   1      35.102  32.874  32.453  1.00  0.00    +0.000 C 
ATOM    102  H12 UNL A   1      34.359  32.672  33.197  1.00  0.00    +0.000 H 
ATOM    103  H13 UNL A   1      35.068  33.133  31.415  1.00  0.00    +0.000 H 
BRANCH   11   10
ATOM     10  C9  UNL A   1      35.713  31.408  32.178  1.00  0.00    +0.000 C 
ATOM    100  H10 UNL A   1      34.970  30.755  32.588  1.00  0.00    +0.000 H 
ATOM    101  H11 UNL A   1      35.987  31.599  31.162  1.00  0.00    +0.000 H 
BRANCH   10    9
ATOM      9  C8  UNL A   1      37.079  30.692  32.573  1.00  0.00    +0.000 C 
ATOM     98  H8  UNL A   1      36.986  30.464  33.614  1.00  0.00    +0.000 H 
ATOM     99  H9  UNL A   1      37.115  29.932  31.821  1.00  0.00    +0.000 H 
BRANCH    9    8
ATOM      8  O1  UNL A   1      38.393  31.255  32.424  1.00  0.00    +0.000 O 
BRANCH    8    7
ATOM      2  C2  UNL A   1      40.436  34.997  35.025  1.00  0.00    +0.000 C 
ATOM      3  C3  UNL A   1      40.627  34.894  33.649  1.00  0.00    +0.000 C 
ATOM      4  C4  UNL A   1      40.537  33.648  32.996  1.00  0.00    +0.000 C 
ATOM      6  C6  UNL A   1      39.993  32.644  33.771  1.00  0.00    +0.000 C 
ATOM      7  C7  UNL A   1      39.231  31.495  33.465  1.00  0.00    +0.000 C 
ATOM     87  N7  UNL A   1      39.212  30.559  34.414  1.00  0.00    +0.000 N 
ATOM     88  S1  UNL A   1      39.850  31.234  35.811  1.00  0.00    +0.000 S 
ATOM     89  C63 UNL A   1      40.085  32.782  35.145  1.00  0.00    +0.000 C 
ATOM     90  N8  UNL A   1      40.336  33.917  35.828  1.00  0.00    +0.000 N 
ATOM     94  H4  UNL A   1      40.838  35.741  33.100  1.00  0.00    +0.000 H 
BRANCH    2    1
ATOM      1  C1  UNL A   1      40.331  36.359  35.660  1.00  0.00    +0.000 C 
ATOM     91  H1  UNL A   1      41.161  36.960  35.353  1.00  0.00    +0.000 H 
ATOM     92  H2  UNL A   1      40.339  36.257  36.725  1.00  0.00    +0.000 H 
ATOM     93  H3  UNL A   1      39.419  36.826  35.352  1.00  0.00    +0.000 H 
ENDBRANCH    2    1
BRANCH    4    5
ATOM     97  H7  UNL A   1      41.756  33.828  31.300  1.00  0.00    +0.000 H 
ATOM      5  C5  UNL A   1      40.886  33.283  31.604  1.00  0.00    +0.000 C 
ATOM     95  H5  UNL A   1      40.070  33.523  30.956  1.00  0.00    +0.000 H 
ATOM     96  H6  UNL A   1      41.088  32.233  31.550  1.00  0.00    +0.000 H 
ENDBRANCH    4    5
ENDBRANCH    8    7
ENDBRANCH    9    8
ENDBRANCH   10    9
ENDBRANCH   11   10
ENDBRANCH   12   11
ENDBRANCH   14   12
ENDBRANCH   15   14
ENDBRANCH   16   15
ENDBRANCH   17   16
ENDBRANCH   18   17
ENDBRANCH   19   18
ENDBRANCH   20   19
ENDBRANCH   21   20
ENDBRANCH   22   21
ENDBRANCH   24   22
ENDBRANCH   28   27
BRANCH   32   33
ATOM     33  C27 UNL A   1      42.296  27.136  34.249  1.00  0.00    +0.000 C 
ATOM     34  C28 UNL A   1      41.962  27.215  35.618  1.00  0.00    +0.000 C 
ATOM     35  F1  UNL A   1      41.136  28.173  36.067  1.00  0.00    +0.000 F 
ATOM     36  C29 UNL A   1      42.547  26.382  36.573  1.00  0.00    +0.000 C 
ATOM     37  F2  UNL A   1      42.309  26.594  37.875  1.00  0.00    +0.000 F 
ATOM     38  C30 UNL A   1      43.431  25.392  36.190  1.00  0.00    +0.000 C 
ATOM     39  F3  UNL A   1      44.052  24.641  37.108  1.00  0.00    +0.000 F 
ATOM     40  C31 UNL A   1      43.705  25.215  34.851  1.00  0.00    +0.000 C 
ATOM     41  F4  UNL A   1      44.567  24.266  34.460  1.00  0.00    +0.000 F 
ATOM     42  C32 UNL A   1      43.163  26.078  33.900  1.00  0.00    +0.000 C 
ATOM     43  F5  UNL A   1      43.608  25.898  32.652  1.00  0.00    +0.000 F 
ENDBRANCH   32   33
BRANCH   49   50
ATOM     50  C38 UNL A   1      45.221  30.584  29.146  1.00  0.00    +0.000 C 
ATOM     51  C39 UNL A   1      44.287  31.294  28.372  1.00  0.00    +0.000 C 
ATOM     52  F6  UNL A   1      42.999  30.924  28.339  1.00  0.00    +0.000 F 
ATOM     53  C40 UNL A   1      44.652  32.445  27.673  1.00  0.00    +0.000 C 
ATOM     54  F7  UNL A   1      43.740  33.105  26.942  1.00  0.00    +0.000 F 
ATOM     55  C41 UNL A   1      45.944  32.934  27.767  1.00  0.00    +0.000 C 
ATOM     56  F8  UNL A   1      46.283  34.069  27.139  1.00  0.00    +0.000 F 
ATOM     57  C42 UNL A   1      46.877  32.263  28.539  1.00  0.00    +0.000 C 
ATOM     58  F9  UNL A   1      48.116  32.758  28.674  1.00  0.00    +0.000 F 
ATOM     59  C43 UNL A   1      46.524  31.094  29.208  1.00  0.00    +0.000 C 
ATOM     60  F10 UNL A   1      47.446  30.488  29.974  1.00  0.00    +0.000 F 
ENDBRANCH   49   50
BRANCH   64   65
ATOM     65  C47 UNL A   1      43.553  25.382  25.939  1.00  0.00    +0.000 C 
ATOM     66  C48 UNL A   1      44.730  25.132  25.215  1.00  0.00    +0.000 C 
ATOM     67  F11 UNL A   1      45.668  26.085  25.107  1.00  0.00    +0.000 F 
ATOM     68  C49 UNL A   1      44.997  23.878  24.658  1.00  0.00    +0.000 C 
ATOM     69  F12 UNL A   1      46.164  23.657  24.034  1.00  0.00    +0.000 F 
ATOM     70  C50 UNL A   1      44.091  22.841  24.800  1.00  0.00    +0.000 C 
ATOM     71  F13 UNL A   1      44.376  21.619  24.326  1.00  0.00    +0.000 F 
ATOM     72  C51 UNL A   1      42.903  23.064  25.472  1.00  0.00    +0.000 C 
ATOM     73  F14 UNL A   1      42.032  22.060  25.645  1.00  0.00    +0.000 F 
ATOM     74  C52 UNL A   1      42.637  24.315  26.031  1.00  0.00    +0.000 C 
ATOM     75  F15 UNL A   1      41.510  24.433  26.747  1.00  0.00    +0.000 F 
ENDBRANCH   64   65
TORSDOF 21
ENDMDL
MODEL 9
REMARK VINA RESULT:     -10.2      1.468      2.309
ROOT
ATOM    129  H39 UNL A   1      38.562  27.240  31.059  1.00  0.00    +0.000 H 
ATOM     28  C23 UNL A   1      39.966  28.829  29.100  1.00  0.00    +0.000 C 
ATOM     29  C24 UNL A   1      40.301  28.596  30.526  1.00  0.00    +0.000 C 
ATOM     30  N3  UNL A   1      41.250  29.160  31.195  1.00  0.00    +0.000 N 
ATOM     31  C25 UNL A   1      41.193  28.626  32.477  1.00  0.00    +0.000 C 
ATOM     32  C26 UNL A   1      42.290  28.654  33.284  1.00  0.00    +0.000 C 
ATOM     44  C33 UNL A   1      43.268  29.594  32.788  1.00  0.00    +0.000 C 
ATOM     45  C34 UNL A   1      43.269  30.956  32.557  1.00  0.00    +0.000 C 
ATOM     46  C35 UNL A   1      43.999  31.124  31.343  1.00  0.00    +0.000 C 
ATOM     47  C36 UNL A   1      44.460  29.868  30.947  1.00  0.00    +0.000 C 
ATOM     48  N4  UNL A   1      44.334  29.100  32.075  1.00  0.00    +0.000 N 
ATOM     49  C37 UNL A   1      44.903  29.348  29.674  1.00  0.00    +0.000 C 
ATOM     61  C44 UNL A   1      44.863  28.028  29.325  1.00  0.00    +0.000 C 
ATOM     62  N5  UNL A   1      44.871  27.635  27.995  1.00  0.00    +0.000 N 
ATOM     63  C45 UNL A   1      44.256  26.481  27.985  1.00  0.00    +0.000 C 
ATOM     64  C46 UNL A   1      43.294  26.086  26.919  1.00  0.00    +0.000 C 
ATOM     76  C53 UNL A   1      42.222  26.906  27.048  1.00  0.00    +0.000 C 
ATOM     77  C54 UNL A   1      41.214  27.287  26.086  1.00  0.00    +0.000 C 
ATOM     78  C55 UNL A   1      40.380  28.167  26.676  1.00  0.00    +0.000 C 
ATOM     79  C56 UNL A   1      40.683  28.258  28.108  1.00  0.00    +0.000 C 
ATOM     80  N6  UNL A   1      41.855  27.554  28.240  1.00  0.00    +0.000 N 
ATOM     81  C57 UNL A   1      44.150  25.815  29.273  1.00  0.00    +0.000 C 
ATOM     82  C58 UNL A   1      44.453  26.841  30.072  1.00  0.00    +0.000 C 
ATOM     83  C59 UNL A   1      39.945  27.910  32.555  1.00  0.00    +0.000 C 
ATOM     84  C60 UNL A   1      39.397  27.777  31.344  1.00  0.00    +0.000 C 
ATOM    120  H30 UNL A   1      42.836  31.693  33.137  1.00  0.00    +0.000 H 
ATOM    121  H31 UNL A   1      44.158  32.015  30.847  1.00  0.00    +0.000 H 
ATOM    122  H32 UNL A   1      44.903  28.337  32.329  1.00  0.00    +0.000 H 
ATOM    123  H33 UNL A   1      41.144  26.946  25.114  1.00  0.00    +0.000 H 
ATOM    124  H34 UNL A   1      39.639  28.699  26.192  1.00  0.00    +0.000 H 
ATOM    125  H35 UNL A   1      42.378  27.510  29.073  1.00  0.00    +0.000 H 
ATOM    126  H36 UNL A   1      43.912  24.837  29.501  1.00  0.00    +0.000 H 
ATOM    127  H37 UNL A   1      44.402  26.800  31.102  1.00  0.00    +0.000 H 
ATOM    128  H38 UNL A   1      39.531  27.549  33.428  1.00  0.00    +0.000 H 
ENDROOT
BRANCH   28   27
ATOM    130  H40 UNL A   1      39.595  31.370  29.639  1.00  0.00    +0.000 H 
ATOM    131  H41 UNL A   1      37.468  32.521  29.701  1.00  0.00    +0.000 H 
ATOM     27  C22 UNL A   1      38.752  29.599  28.876  1.00  0.00    +0.000 C 
ATOM     85  C61 UNL A   1      38.738  30.923  29.278  1.00  0.00    +0.000 C 
ATOM     86  C62 UNL A   1      37.570  31.631  29.189  1.00  0.00    +0.000 C 
ATOM    118  H28 UNL A   1      35.727  29.456  27.425  1.00  0.00    +0.000 H 
ATOM     24  C19 UNL A   1      36.521  31.153  28.414  1.00  0.00    +0.000 C 
ATOM     25  C20 UNL A   1      36.529  29.833  27.956  1.00  0.00    +0.000 C 
ATOM     26  C21 UNL A   1      37.638  29.035  28.229  1.00  0.00    +0.000 C 
ATOM    119  H29 UNL A   1      37.642  28.039  27.959  1.00  0.00    +0.000 H 
BRANCH   24   22
ATOM     22  C18 UNL A   1      35.410  32.075  28.079  1.00  0.00    +0.000 C 
ATOM     23  O3  UNL A   1      35.636  33.221  27.787  1.00  0.00    +0.000 O 
BRANCH   22   21
ATOM    117  H27 UNL A   1      33.741  31.411  29.019  1.00  0.00    +0.000 H 
ATOM     21  N2  UNL A   1      34.104  31.588  28.121  1.00  0.00    +0.000 N 
BRANCH   21   20
ATOM    116  H26 UNL A   1      33.779  31.411  26.109  1.00  0.00    +0.000 H 
ATOM    115  H25 UNL A   1      32.385  31.997  27.050  1.00  0.00    +0.000 H 
ATOM     20  C17 UNL A   1      33.202  31.308  27.004  1.00  0.00    +0.000 C 
BRANCH   20   19
ATOM    113  H23 UNL A   1      32.350  29.655  28.003  1.00  0.00    +0.000 H 
ATOM    114  H24 UNL A   1      31.825  29.913  26.302  1.00  0.00    +0.000 H 
ATOM     19  C16 UNL A   1      32.636  29.893  27.000  1.00  0.00    +0.000 C 
BRANCH   19   18
ATOM     18  C15 UNL A   1      33.578  28.780  26.503  1.00  0.00    +0.000 C 
ATOM    111  H21 UNL A   1      34.087  29.163  25.644  1.00  0.00    +0.000 H 
ATOM    112  H22 UNL A   1      34.177  28.556  27.362  1.00  0.00    +0.000 H 
BRANCH   18   17
ATOM     17  C14 UNL A   1      32.990  27.410  26.105  1.00  0.00    +0.000 C 
ATOM    109  H19 UNL A   1      33.166  26.742  26.921  1.00  0.00    +0.000 H 
ATOM    110  H20 UNL A   1      31.967  27.623  25.878  1.00  0.00    +0.000 H 
BRANCH   17   16
ATOM    107  H17 UNL A   1      34.440  26.238  25.082  1.00  0.00    +0.000 H 
ATOM    108  H18 UNL A   1      32.741  26.054  24.525  1.00  0.00    +0.000 H 
ATOM     16  C13 UNL A   1      33.518  26.720  24.833  1.00  0.00    +0.000 C 
BRANCH   16   15
ATOM    105  H15 UNL A   1      34.496  28.394  23.892  1.00  0.00    +0.000 H 
ATOM    106  H16 UNL A   1      34.131  27.010  22.814  1.00  0.00    +0.000 H 
ATOM     15  C12 UNL A   1      33.784  27.651  23.599  1.00  0.00    +0.000 C 
BRANCH   15   14
ATOM     14  N1  UNL A   1      32.541  28.376  23.038  1.00  0.00    +0.000 N 
ATOM    104  H14 UNL A   1      32.921  29.117  22.512  1.00  0.00    +0.000 H 
BRANCH   14   12
ATOM     12  C11 UNL A   1      31.188  28.532  22.887  1.00  0.00    +0.000 C 
ATOM     13  O2  UNL A   1      30.976  29.656  22.374  1.00  0.00    +0.000 O 
BRANCH   12   11
ATOM     11  C10 UNL A   1      29.824  27.751  23.339  1.00  0.00    +0.000 C 
ATOM    102  H12 UNL A   1      29.348  28.474  23.968  1.00  0.00    +0.000 H 
ATOM    103  H13 UNL A   1      29.630  27.373  22.357  1.00  0.00    +0.000 H 
BRANCH   11   10
ATOM     10  C9  UNL A   1      29.438  26.364  24.065  1.00  0.00    +0.000 C 
ATOM    100  H10 UNL A   1      28.596  26.633  24.669  1.00  0.00    +0.000 H 
ATOM    101  H11 UNL A   1      29.495  25.765  23.181  1.00  0.00    +0.000 H 
BRANCH   10    9
ATOM      9  C8  UNL A   1      30.236  25.346  24.992  1.00  0.00    +0.000 C 
ATOM     98  H8  UNL A   1      31.119  25.871  25.291  1.00  0.00    +0.000 H 
ATOM     99  H9  UNL A   1      29.465  25.082  25.685  1.00  0.00    +0.000 H 
BRANCH    9    8
ATOM      8  O1  UNL A   1      30.685  24.037  24.606  1.00  0.00    +0.000 O 
BRANCH    8    7
ATOM      2  C2  UNL A   1      35.604  23.257  24.984  1.00  0.00    +0.000 C 
ATOM      3  C3  UNL A   1      34.934  23.038  23.782  1.00  0.00    +0.000 C 
ATOM      4  C4  UNL A   1      33.558  22.738  23.763  1.00  0.00    +0.000 C 
ATOM      6  C6  UNL A   1      32.918  22.948  24.968  1.00  0.00    +0.000 C 
ATOM      7  C7  UNL A   1      31.598  23.317  25.308  1.00  0.00    +0.000 C 
ATOM     87  N7  UNL A   1      31.240  23.050  26.564  1.00  0.00    +0.000 N 
ATOM     88  S1  UNL A   1      32.630  22.656  27.418  1.00  0.00    +0.000 S 
ATOM     89  C63 UNL A   1      33.693  22.907  26.114  1.00  0.00    +0.000 C 
ATOM     90  N8  UNL A   1      35.035  23.021  26.185  1.00  0.00    +0.000 N 
ATOM     94  H4  UNL A   1      35.454  23.097  22.893  1.00  0.00    +0.000 H 
BRANCH    2    1
ATOM      1  C1  UNL A   1      37.016  23.779  24.964  1.00  0.00    +0.000 C 
ATOM     91  H1  UNL A   1      37.020  24.807  25.261  1.00  0.00    +0.000 H 
ATOM     92  H2  UNL A   1      37.414  23.693  23.974  1.00  0.00    +0.000 H 
ATOM     93  H3  UNL A   1      37.617  23.210  25.641  1.00  0.00    +0.000 H 
ENDBRANCH    2    1
BRANCH    4    5
ATOM     97  H7  UNL A   1      32.253  23.138  22.172  1.00  0.00    +0.000 H 
ATOM      5  C5  UNL A   1      32.704  22.288  22.639  1.00  0.00    +0.000 C 
ATOM     95  H5  UNL A   1      31.940  21.637  23.010  1.00  0.00    +0.000 H 
ATOM     96  H6  UNL A   1      33.303  21.764  21.923  1.00  0.00    +0.000 H 
ENDBRANCH    4    5
ENDBRANCH    8    7
ENDBRANCH    9    8
ENDBRANCH   10    9
ENDBRANCH   11   10
ENDBRANCH   12   11
ENDBRANCH   14   12
ENDBRANCH   15   14
ENDBRANCH   16   15
ENDBRANCH   17   16
ENDBRANCH   18   17
ENDBRANCH   19   18
ENDBRANCH   20   19
ENDBRANCH   21   20
ENDBRANCH   22   21
ENDBRANCH   24   22
ENDBRANCH   28   27
BRANCH   32   33
ATOM     33  C27 UNL A   1      42.656  27.591  34.293  1.00  0.00    +0.000 C 
ATOM     34  C28 UNL A   1      43.226  26.387  33.827  1.00  0.00    +0.000 C 
ATOM     35  F1  UNL A   1      43.716  26.296  32.581  1.00  0.00    +0.000 F 
ATOM     36  C29 UNL A   1      43.213  25.217  34.590  1.00  0.00    +0.000 C 
ATOM     37  F2  UNL A   1      43.632  24.065  34.049  1.00  0.00    +0.000 F 
ATOM     38  C30 UNL A   1      42.697  25.225  35.872  1.00  0.00    +0.000 C 
ATOM     39  F3  UNL A   1      42.612  24.091  36.579  1.00  0.00    +0.000 F 
ATOM     40  C31 UNL A   1      42.224  26.407  36.401  1.00  0.00    +0.000 C 
ATOM     41  F4  UNL A   1      41.711  26.432  37.639  1.00  0.00    +0.000 F 
ATOM     42  C32 UNL A   1      42.188  27.563  35.623  1.00  0.00    +0.000 C 
ATOM     43  F5  UNL A   1      41.582  28.611  36.193  1.00  0.00    +0.000 F 
ENDBRANCH   32   33
BRANCH   49   50
ATOM     50  C38 UNL A   1      45.189  30.364  28.602  1.00  0.00    +0.000 C 
ATOM     51  C39 UNL A   1      44.205  30.917  27.766  1.00  0.00    +0.000 C 
ATOM     52  F6  UNL A   1      42.936  30.493  27.824  1.00  0.00    +0.000 F 
ATOM     53  C40 UNL A   1      44.500  31.973  26.902  1.00  0.00    +0.000 C 
ATOM     54  F7  UNL A   1      43.542  32.484  26.114  1.00  0.00    +0.000 F 
ATOM     55  C41 UNL A   1      45.770  32.524  26.887  1.00  0.00    +0.000 C 
ATOM     56  F8  UNL A   1      46.041  33.573  26.097  1.00  0.00    +0.000 F 
ATOM     57  C42 UNL A   1      46.752  32.008  27.717  1.00  0.00    +0.000 C 
ATOM     58  F9  UNL A   1      47.969  32.569  27.743  1.00  0.00    +0.000 F 
ATOM     59  C43 UNL A   1      46.469  30.931  28.553  1.00  0.00    +0.000 C 
ATOM     60  F10 UNL A   1      47.436  30.479  29.367  1.00  0.00    +0.000 F 
ENDBRANCH   49   50
BRANCH   64   65
ATOM     65  C47 UNL A   1      43.365  24.789  26.208  1.00  0.00    +0.000 C 
ATOM     66  C48 UNL A   1      44.360  24.553  25.244  1.00  0.00    +0.000 C 
ATOM     67  F11 UNL A   1      45.104  25.569  24.784  1.00  0.00    +0.000 F 
ATOM     68  C49 UNL A   1      44.656  23.262  24.797  1.00  0.00    +0.000 C 
ATOM     69  F12 UNL A   1      45.660  23.069  23.929  1.00  0.00    +0.000 F 
ATOM     70  C50 UNL A   1      43.961  22.172  25.294  1.00  0.00    +0.000 C 
ATOM     71  F13 UNL A   1      44.291  20.928  24.918  1.00  0.00    +0.000 F 
ATOM     72  C51 UNL A   1      42.949  22.373  26.213  1.00  0.00    +0.000 C 
ATOM     73  F14 UNL A   1      42.290  21.323  26.726  1.00  0.00    +0.000 F 
ATOM     74  C52 UNL A   1      42.654  23.661  26.663  1.00  0.00    +0.000 C 
ATOM     75  F15 UNL A   1      41.724  23.772  27.622  1.00  0.00    +0.000 F 
ENDBRANCH   64   65
TORSDOF 21
ENDMDL
MODEL 10
REMARK VINA RESULT:     -10.1      1.773      3.010
ROOT
ATOM    129  H39 UNL A   1      38.408  27.407  31.118  1.00  0.00    +0.000 H 
ATOM     28  C23 UNL A   1      39.865  28.964  29.172  1.00  0.00    +0.000 C 
ATOM     29  C24 UNL A   1      40.191  28.708  30.597  1.00  0.00    +0.000 C 
ATOM     30  N3  UNL A   1      41.159  29.234  31.270  1.00  0.00    +0.000 N 
ATOM     31  C25 UNL A   1      41.083  28.691  32.548  1.00  0.00    +0.000 C 
ATOM     32  C26 UNL A   1      42.180  28.676  33.356  1.00  0.00    +0.000 C 
ATOM     44  C33 UNL A   1      43.189  29.586  32.867  1.00  0.00    +0.000 C 
ATOM     45  C34 UNL A   1      43.237  30.949  32.648  1.00  0.00    +0.000 C 
ATOM     46  C35 UNL A   1      43.972  31.102  31.435  1.00  0.00    +0.000 C 
ATOM     47  C36 UNL A   1      44.391  29.834  31.028  1.00  0.00    +0.000 C 
ATOM     48  N4  UNL A   1      44.239  29.061  32.150  1.00  0.00    +0.000 N 
ATOM     49  C37 UNL A   1      44.817  29.310  29.751  1.00  0.00    +0.000 C 
ATOM     61  C44 UNL A   1      44.732  27.995  29.392  1.00  0.00    +0.000 C 
ATOM     62  N5  UNL A   1      44.727  27.613  28.058  1.00  0.00    +0.000 N 
ATOM     63  C45 UNL A   1      44.073  26.481  28.039  1.00  0.00    +0.000 C 
ATOM     64  C46 UNL A   1      43.099  26.128  26.970  1.00  0.00    +0.000 C 
ATOM     76  C53 UNL A   1      42.056  26.982  27.105  1.00  0.00    +0.000 C 
ATOM     77  C54 UNL A   1      41.061  27.405  26.146  1.00  0.00    +0.000 C 
ATOM     78  C55 UNL A   1      40.257  28.308  26.743  1.00  0.00    +0.000 C 
ATOM     79  C56 UNL A   1      40.562  28.376  28.176  1.00  0.00    +0.000 C 
ATOM     80  N6  UNL A   1      41.710  27.632  28.302  1.00  0.00    +0.000 N 
ATOM     81  C57 UNL A   1      43.945  25.808  29.321  1.00  0.00    +0.000 C 
ATOM     82  C58 UNL A   1      44.281  26.817  30.129  1.00  0.00    +0.000 C 
ATOM     83  C59 UNL A   1      39.812  28.018  32.620  1.00  0.00    +0.000 C 
ATOM     84  C60 UNL A   1      39.259  27.913  31.408  1.00  0.00    +0.000 C 
ATOM    120  H30 UNL A   1      42.829  31.695  33.233  1.00  0.00    +0.000 H 
ATOM    121  H31 UNL A   1      44.162  31.991  30.947  1.00  0.00    +0.000 H 
ATOM    122  H32 UNL A   1      44.781  28.278  32.398  1.00  0.00    +0.000 H 
ATOM    123  H33 UNL A   1      40.980  27.074  25.171  1.00  0.00    +0.000 H 
ATOM    124  H34 UNL A   1      39.535  28.868  26.264  1.00  0.00    +0.000 H 
ATOM    125  H35 UNL A   1      42.230  27.564  29.135  1.00  0.00    +0.000 H 
ATOM    126  H36 UNL A   1      43.673  24.837  29.541  1.00  0.00    +0.000 H 
ATOM    127  H37 UNL A   1      44.229  26.769  31.159  1.00  0.00    +0.000 H 
ATOM    128  H38 UNL A   1      39.385  27.663  33.490  1.00  0.00    +0.000 H 
ENDROOT
BRANCH   28   27
ATOM    130  H40 UNL A   1      39.642  31.551  29.546  1.00  0.00    +0.000 H 
ATOM    131  H41 UNL A   1      37.577  32.809  29.631  1.00  0.00    +0.000 H 
ATOM     27  C22 UNL A   1      38.678  29.776  28.954  1.00  0.00    +0.000 C 
ATOM     85  C61 UNL A   1      38.747  31.124  29.261  1.00  0.00    +0.000 C 
ATOM     86  C62 UNL A   1      37.610  31.882  29.181  1.00  0.00    +0.000 C 
ATOM    118  H28 UNL A   1      35.577  29.685  27.670  1.00  0.00    +0.000 H 
ATOM     24  C19 UNL A   1      36.500  31.405  28.495  1.00  0.00    +0.000 C 
ATOM     25  C20 UNL A   1      36.422  30.057  28.132  1.00  0.00    +0.000 C 
ATOM     26  C21 UNL A   1      37.507  29.225  28.407  1.00  0.00    +0.000 C 
ATOM    119  H29 UNL A   1      37.449  28.215  28.208  1.00  0.00    +0.000 H 
BRANCH   24   22
ATOM     22  C18 UNL A   1      35.417  32.355  28.151  1.00  0.00    +0.000 C 
ATOM     23  O3  UNL A   1      35.680  33.472  27.786  1.00  0.00    +0.000 O 
BRANCH   22   21
ATOM    117  H27 UNL A   1      33.902  31.332  29.026  1.00  0.00    +0.000 H 
ATOM     21  N2  UNL A   1      34.095  31.931  28.268  1.00  0.00    +0.000 N 
BRANCH   21   20
ATOM    116  H26 UNL A   1      33.323  32.900  26.641  1.00  0.00    +0.000 H 
ATOM    115  H25 UNL A   1      32.207  32.731  28.017  1.00  0.00    +0.000 H 
ATOM     20  C17 UNL A   1      32.953  32.260  27.414  1.00  0.00    +0.000 C 
BRANCH   20   19
ATOM    113  H23 UNL A   1      31.541  30.692  27.356  1.00  0.00    +0.000 H 
ATOM    114  H24 UNL A   1      31.992  31.415  25.772  1.00  0.00    +0.000 H 
ATOM     19  C16 UNL A   1      32.323  31.056  26.724  1.00  0.00    +0.000 C 
BRANCH   19   18
ATOM     18  C15 UNL A   1      33.263  29.876  26.414  1.00  0.00    +0.000 C 
ATOM    111  H21 UNL A   1      33.081  29.590  25.400  1.00  0.00    +0.000 H 
ATOM    112  H22 UNL A   1      34.236  30.263  26.641  1.00  0.00    +0.000 H 
BRANCH   18   17
ATOM     17  C14 UNL A   1      33.176  28.592  27.266  1.00  0.00    +0.000 C 
ATOM    109  H19 UNL A   1      34.149  28.419  27.675  1.00  0.00    +0.000 H 
ATOM    110  H20 UNL A   1      32.396  28.799  27.968  1.00  0.00    +0.000 H 
BRANCH   17   16
ATOM    107  H17 UNL A   1      32.420  26.606  27.356  1.00  0.00    +0.000 H 
ATOM    108  H18 UNL A   1      31.954  27.563  25.906  1.00  0.00    +0.000 H 
ATOM     16  C13 UNL A   1      32.730  27.283  26.587  1.00  0.00    +0.000 C 
BRANCH   16   15
ATOM    105  H15 UNL A   1      33.570  26.719  24.685  1.00  0.00    +0.000 H 
ATOM    106  H16 UNL A   1      34.754  26.962  26.008  1.00  0.00    +0.000 H 
ATOM     15  C12 UNL A   1      33.809  26.552  25.714  1.00  0.00    +0.000 C 
BRANCH   15   14
ATOM     14  N1  UNL A   1      33.918  25.027  25.938  1.00  0.00    +0.000 N 
ATOM    104  H14 UNL A   1      33.271  24.851  26.658  1.00  0.00    +0.000 H 
BRANCH   14   12
ATOM     12  C11 UNL A   1      34.443  23.792  25.662  1.00  0.00    +0.000 C 
ATOM     13  O2  UNL A   1      35.094  23.409  26.663  1.00  0.00    +0.000 O 
BRANCH   12   11
ATOM     11  C10 UNL A   1      34.590  22.804  24.368  1.00  0.00    +0.000 C 
ATOM    102  H12 UNL A   1      34.730  23.500  23.567  1.00  0.00    +0.000 H 
ATOM    103  H13 UNL A   1      35.230  22.114  24.878  1.00  0.00    +0.000 H 
BRANCH   11   10
ATOM     10  C9  UNL A   1      33.725  21.642  23.659  1.00  0.00    +0.000 C 
ATOM    100  H10 UNL A   1      34.303  21.406  22.790  1.00  0.00    +0.000 H 
ATOM    101  H11 UNL A   1      33.554  21.081  24.554  1.00  0.00    +0.000 H 
BRANCH   10    9
ATOM      9  C8  UNL A   1      32.226  21.551  23.132  1.00  0.00    +0.000 C 
ATOM     98  H8  UNL A   1      32.293  21.070  22.178  1.00  0.00    +0.000 H 
ATOM     99  H9  UNL A   1      31.760  21.086  23.976  1.00  0.00    +0.000 H 
BRANCH    9    8
ATOM      8  O1  UNL A   1      31.339  22.664  22.936  1.00  0.00    +0.000 O 
BRANCH    8    7
ATOM      2  C2  UNL A   1      30.007  27.468  23.237  1.00  0.00    +0.000 C 
ATOM      3  C3  UNL A   1      31.061  27.067  22.419  1.00  0.00    +0.000 C 
ATOM      4  C4  UNL A   1      31.782  25.888  22.692  1.00  0.00    +0.000 C 
ATOM      6  C6  UNL A   1      31.192  25.071  23.634  1.00  0.00    +0.000 C 
ATOM      7  C7  UNL A   1      31.188  23.672  23.832  1.00  0.00    +0.000 C 
ATOM     87  N7  UNL A   1      30.835  23.275  25.055  1.00  0.00    +0.000 N 
ATOM     88  S1  UNL A   1      30.185  24.598  25.856  1.00  0.00    +0.000 S 
ATOM     89  C63 UNL A   1      30.329  25.666  24.539  1.00  0.00    +0.000 C 
ATOM     90  N8  UNL A   1      29.734  26.869  24.415  1.00  0.00    +0.000 N 
ATOM     94  H4  UNL A   1      31.317  27.642  21.601  1.00  0.00    +0.000 H 
BRANCH    2    1
ATOM      1  C1  UNL A   1      29.125  28.610  22.806  1.00  0.00    +0.000 C 
ATOM     91  H1  UNL A   1      29.000  28.583  21.743  1.00  0.00    +0.000 H 
ATOM     92  H2  UNL A   1      29.579  29.537  23.088  1.00  0.00    +0.000 H 
ATOM     93  H3  UNL A   1      28.170  28.521  23.279  1.00  0.00    +0.000 H 
ENDBRANCH    2    1
BRANCH    4    5
ATOM     97  H7  UNL A   1      33.649  26.211  21.794  1.00  0.00    +0.000 H 
ATOM      5  C5  UNL A   1      33.035  25.383  22.083  1.00  0.00    +0.000 C 
ATOM     95  H5  UNL A   1      32.801  24.795  21.221  1.00  0.00    +0.000 H 
ATOM     96  H6  UNL A   1      33.561  24.782  22.795  1.00  0.00    +0.000 H 
ENDBRANCH    4    5
ENDBRANCH    8    7
ENDBRANCH    9    8
ENDBRANCH   10    9
ENDBRANCH   11   10
ENDBRANCH   12   11
ENDBRANCH   14   12
ENDBRANCH   15   14
ENDBRANCH   16   15
ENDBRANCH   17   16
ENDBRANCH   18   17
ENDBRANCH   19   18
ENDBRANCH   20   19
ENDBRANCH   21   20
ENDBRANCH   22   21
ENDBRANCH   24   22
ENDBRANCH   28   27
BRANCH   32   33
ATOM     33  C27 UNL A   1      42.510  27.592  34.355  1.00  0.00    +0.000 C 
ATOM     34  C28 UNL A   1      43.065  26.384  33.883  1.00  0.00    +0.000 C 
ATOM     35  F1  UNL A   1      43.574  26.301  32.644  1.00  0.00    +0.000 F 
ATOM     36  C29 UNL A   1      43.018  25.205  34.630  1.00  0.00    +0.000 C 
ATOM     37  F2  UNL A   1      43.424  24.053  34.079  1.00  0.00    +0.000 F 
ATOM     38  C30 UNL A   1      42.480  25.205  35.902  1.00  0.00    +0.000 C 
ATOM     39  F3  UNL A   1      42.363  24.064  36.592  1.00  0.00    +0.000 F 
ATOM     40  C31 UNL A   1      42.020  26.388  36.440  1.00  0.00    +0.000 C 
ATOM     41  F4  UNL A   1      41.488  26.407  37.670  1.00  0.00    +0.000 F 
ATOM     42  C32 UNL A   1      42.019  27.556  35.678  1.00  0.00    +0.000 C 
ATOM     43  F5  UNL A   1      41.423  28.606  36.251  1.00  0.00    +0.000 F 
ENDBRANCH   32   33
BRANCH   49   50
ATOM     50  C38 UNL A   1      45.138  30.324  28.688  1.00  0.00    +0.000 C 
ATOM     51  C39 UNL A   1      44.174  30.914  27.853  1.00  0.00    +0.000 C 
ATOM     52  F6  UNL A   1      42.892  30.529  27.904  1.00  0.00    +0.000 F 
ATOM     53  C40 UNL A   1      44.504  31.966  26.998  1.00  0.00    +0.000 C 
ATOM     54  F7  UNL A   1      43.564  32.513  26.211  1.00  0.00    +0.000 F 
ATOM     55  C41 UNL A   1      45.790  32.478  26.991  1.00  0.00    +0.000 C 
ATOM     56  F8  UNL A   1      46.096  33.524  26.209  1.00  0.00    +0.000 F 
ATOM     57  C42 UNL A   1      46.753  31.926  27.820  1.00  0.00    +0.000 C 
ATOM     58  F9  UNL A   1      47.987  32.449  27.854  1.00  0.00    +0.000 F 
ATOM     59  C43 UNL A   1      46.435  30.852  28.647  1.00  0.00    +0.000 C 
ATOM     60  F10 UNL A   1      47.384  30.364  29.460  1.00  0.00    +0.000 F 
ENDBRANCH   49   50
BRANCH   64   65
ATOM     65  C47 UNL A   1      43.127  24.835  26.248  1.00  0.00    +0.000 C 
ATOM     66  C48 UNL A   1      44.092  24.585  25.259  1.00  0.00    +0.000 C 
ATOM     67  F11 UNL A   1      44.847  25.590  24.788  1.00  0.00    +0.000 F 
ATOM     68  C49 UNL A   1      44.352  23.292  24.796  1.00  0.00    +0.000 C 
ATOM     69  F12 UNL A   1      45.330  23.085  23.902  1.00  0.00    +0.000 F 
ATOM     70  C50 UNL A   1      43.646  22.213  25.301  1.00  0.00    +0.000 C 
ATOM     71  F13 UNL A   1      43.942  20.965  24.909  1.00  0.00    +0.000 F 
ATOM     72  C51 UNL A   1      42.660  22.428  26.246  1.00  0.00    +0.000 C 
ATOM     73  F14 UNL A   1      41.993  21.388  26.767  1.00  0.00    +0.000 F 
ATOM     74  C52 UNL A   1      42.403  23.718  26.712  1.00  0.00    +0.000 C 
ATOM     75  F15 UNL A   1      41.499  23.841  27.694  1.00  0.00    +0.000 F 
ENDBRANCH   64   65
TORSDOF 21
ENDMDL
