MODEL 1
REMARK VINA RESULT:     -10.7      0.000      0.000
ROOT
ATOM     21  C16 UNL A   1      38.032  30.086  29.794  1.00  0.00    +0.000 C 
ATOM     22  C17 UNL A   1      39.092  29.173  29.244  1.00  0.00    +0.000 C 
ATOM     23  N4  UNL A   1      40.193  28.747  29.809  1.00  0.00    +0.000 N 
ATOM     24  C18 UNL A   1      40.786  27.896  28.886  1.00  0.00    +0.000 C 
ATOM     25  C19 UNL A   1      41.971  27.246  28.975  1.00  0.00    +0.000 C 
ATOM     37  C26 UNL A   1      42.864  27.336  30.100  1.00  0.00    +0.000 C 
ATOM     38  C27 UNL A   1      44.114  26.764  30.260  1.00  0.00    +0.000 C 
ATOM     39  C28 UNL A   1      44.588  27.098  31.533  1.00  0.00    +0.000 C 
ATOM     40  C29 UNL A   1      43.653  27.914  32.149  1.00  0.00    +0.000 C 
ATOM     41  N5  UNL A   1      42.597  28.048  31.261  1.00  0.00    +0.000 N 
ATOM     42  C30 UNL A   1      43.715  28.525  33.452  1.00  0.00    +0.000 C 
ATOM     54  C37 UNL A   1      42.757  29.324  33.983  1.00  0.00    +0.000 C 
ATOM     55  N6  UNL A   1      41.553  29.731  33.425  1.00  0.00    +0.000 N 
ATOM     56  C38 UNL A   1      40.974  30.484  34.329  1.00  0.00    +0.000 C 
ATOM     57  C39 UNL A   1      39.661  31.215  34.256  1.00  0.00    +0.000 C 
ATOM     69  C46 UNL A   1      38.930  31.145  33.127  1.00  0.00    +0.000 C 
ATOM     70  C47 UNL A   1      37.646  31.802  32.908  1.00  0.00    +0.000 C 
ATOM     71  C48 UNL A   1      37.187  31.472  31.690  1.00  0.00    +0.000 C 
ATOM     72  C49 UNL A   1      38.165  30.607  31.028  1.00  0.00    +0.000 C 
ATOM     73  N7  UNL A   1      39.171  30.476  31.953  1.00  0.00    +0.000 N 
ATOM     74  C50 UNL A   1      41.738  30.618  35.578  1.00  0.00    +0.000 C 
ATOM     75  C51 UNL A   1      42.831  29.924  35.299  1.00  0.00    +0.000 C 
ATOM     76  C52 UNL A   1      39.901  27.829  27.742  1.00  0.00    +0.000 C 
ATOM     77  C53 UNL A   1      38.872  28.651  27.886  1.00  0.00    +0.000 C 
ATOM    113  H21 UNL A   1      44.610  26.191  29.561  1.00  0.00    +0.000 H 
ATOM    114  H22 UNL A   1      45.483  26.790  31.944  1.00  0.00    +0.000 H 
ATOM    115  H23 UNL A   1      41.781  28.571  31.428  1.00  0.00    +0.000 H 
ATOM    116  H24 UNL A   1      37.166  32.421  33.581  1.00  0.00    +0.000 H 
ATOM    117  H25 UNL A   1      36.289  31.779  31.284  1.00  0.00    +0.000 H 
ATOM    118  H26 UNL A   1      39.987  29.951  31.790  1.00  0.00    +0.000 H 
ATOM    119  H27 UNL A   1      41.487  31.120  36.444  1.00  0.00    +0.000 H 
ATOM    120  H28 UNL A   1      43.635  29.824  35.939  1.00  0.00    +0.000 H 
ATOM    121  H29 UNL A   1      40.051  27.220  26.923  1.00  0.00    +0.000 H 
ATOM    122  H30 UNL A   1      38.115  28.869  27.220  1.00  0.00    +0.000 H 
ENDROOT
BRANCH   21   20
ATOM     78  C54 UNL A   1      35.899  29.315  28.755  1.00  0.00    +0.000 C 
ATOM    111  H19 UNL A   1      35.130  32.840  27.476  1.00  0.00    +0.000 H 
ATOM     79  C55 UNL A   1      34.746  29.549  28.009  1.00  0.00    +0.000 C 
ATOM     17  C12 UNL A   1      34.437  30.847  27.593  1.00  0.00    +0.000 C 
ATOM     18  C13 UNL A   1      35.339  31.890  27.821  1.00  0.00    +0.000 C 
ATOM     19  C14 UNL A   1      36.527  31.641  28.512  1.00  0.00    +0.000 C 
ATOM    112  H20 UNL A   1      37.205  32.406  28.659  1.00  0.00    +0.000 H 
ATOM     20  C15 UNL A   1      36.802  30.358  29.011  1.00  0.00    +0.000 C 
ATOM    123  H31 UNL A   1      36.091  28.370  29.122  1.00  0.00    +0.000 H 
ATOM    124  H32 UNL A   1      34.122  28.765  27.764  1.00  0.00    +0.000 H 
BRANCH   17   15
ATOM     15  C11 UNL A   1      33.175  31.139  26.880  1.00  0.00    +0.000 C 
ATOM     16  O2  UNL A   1      32.555  32.166  27.135  1.00  0.00    +0.000 O 
BRANCH   15   14
ATOM    110  H18 UNL A   1      33.051  30.373  25.034  1.00  0.00    +0.000 H 
ATOM     14  N3  UNL A   1      32.691  30.260  25.943  1.00  0.00    +0.000 N 
BRANCH   14   13
ATOM    109  H17 UNL A   1      30.906  29.377  25.439  1.00  0.00    +0.000 H 
ATOM    108  H16 UNL A   1      31.401  29.154  27.119  1.00  0.00    +0.000 H 
ATOM     13  C10 UNL A   1      31.724  29.183  26.099  1.00  0.00    +0.000 C 
BRANCH   13   12
ATOM    106  H14 UNL A   1      32.071  27.620  24.710  1.00  0.00    +0.000 H 
ATOM    107  H15 UNL A   1      33.370  27.898  25.904  1.00  0.00    +0.000 H 
ATOM     12  C9  UNL A   1      32.316  27.825  25.732  1.00  0.00    +0.000 C 
BRANCH   12   11
ATOM    105  H13 UNL A   1      31.611  27.066  27.556  1.00  0.00    +0.000 H 
ATOM     11  C8  UNL A   1      31.816  26.659  26.587  1.00  0.00    +0.000 C 
ATOM    104  H12 UNL A   1      32.575  25.904  26.593  1.00  0.00    +0.000 H 
BRANCH   11   10
ATOM     10  C7  UNL A   1      30.508  26.013  26.111  1.00  0.00    +0.000 C 
ATOM    102  H10 UNL A   1      29.700  26.473  26.640  1.00  0.00    +0.000 H 
ATOM    103  H11 UNL A   1      30.468  26.168  25.053  1.00  0.00    +0.000 H 
BRANCH   10    9
ATOM      9  C6  UNL A   1      30.416  24.497  26.326  1.00  0.00    +0.000 C 
ATOM    100  H8  UNL A   1      29.575  24.295  26.956  1.00  0.00    +0.000 H 
ATOM    101  H9  UNL A   1      30.315  24.048  25.360  1.00  0.00    +0.000 H 
BRANCH    9    8
ATOM     98  H6  UNL A   1      32.531  24.369  26.565  1.00  0.00    +0.000 H 
ATOM     99  H7  UNL A   1      31.603  24.054  28.030  1.00  0.00    +0.000 H 
ATOM      8  C5  UNL A   1      31.663  23.895  26.974  1.00  0.00    +0.000 C 
BRANCH    8    7
ATOM     97  H5  UNL A   1      31.007  21.932  27.091  1.00  0.00    +0.000 H 
ATOM      7  N2  UNL A   1      31.752  22.469  26.736  1.00  0.00    +0.000 N 
BRANCH    7    5
ATOM      5  C4  UNL A   1      32.728  21.767  26.088  1.00  0.00    +0.000 C 
ATOM      6  O1  UNL A   1      33.481  21.062  26.762  1.00  0.00    +0.000 O 
BRANCH    5    4
ATOM      4  C3  UNL A   1      32.930  21.921  24.588  1.00  0.00    +0.000 C 
ATOM     95  H3  UNL A   1      33.793  21.353  24.309  1.00  0.00    +0.000 H 
ATOM     96  H4  UNL A   1      32.028  21.577  24.127  1.00  0.00    +0.000 H 
BRANCH    4    3
ATOM      2  C1  UNL A   1      32.210  24.045  23.281  1.00  0.00    +0.000 C 
ATOM      3  C2  UNL A   1      33.133  23.350  24.113  1.00  0.00    +0.000 C 
ATOM     80  C56 UNL A   1      34.329  23.979  24.512  1.00  0.00    +0.000 C 
ATOM     81  C57 UNL A   1      34.632  25.268  24.097  1.00  0.00    +0.000 C 
ATOM     82  C58 UNL A   1      33.741  25.952  23.281  1.00  0.00    +0.000 C 
ATOM     83  C59 UNL A   1      32.526  25.369  22.867  1.00  0.00    +0.000 C 
ATOM    125  H33 UNL A   1      34.990  23.473  25.121  1.00  0.00    +0.000 H 
ATOM    126  H34 UNL A   1      35.514  25.714  24.393  1.00  0.00    +0.000 H 
ATOM    127  H35 UNL A   1      33.973  26.908  22.969  1.00  0.00    +0.000 H 
BRANCH    2    1
ATOM      1  N1  UNL A   1      30.990  23.439  22.951  1.00  0.00    +0.000 N 
ATOM     93  H1  UNL A   1      30.979  22.543  22.543  1.00  0.00    +0.000 H 
ATOM     94  H2  UNL A   1      30.143  23.910  23.127  1.00  0.00    +0.000 H 
ENDBRANCH    2    1
BRANCH   83   84
ATOM     84  C60 UNL A   1      31.709  26.231  21.944  1.00  0.00    +0.000 C 
ATOM     85  O3  UNL A   1      31.689  25.997  20.735  1.00  0.00    +0.000 O 
BRANCH   84   86
ATOM    129  H37 UNL A   1      30.712  30.671  22.372  1.00  0.00    +0.000 H 
ATOM    130  H38 UNL A   1      27.811  27.939  23.729  1.00  0.00    +0.000 H 
ATOM    131  H39 UNL A   1      29.299  26.086  23.198  1.00  0.00    +0.000 H 
ATOM     86  C61 UNL A   1      30.824  27.317  22.403  1.00  0.00    +0.000 C 
ATOM     87  C62 UNL A   1      31.251  28.636  22.201  1.00  0.00    +0.000 C 
ATOM     88  C63 UNL A   1      30.407  29.698  22.528  1.00  0.00    +0.000 C 
ATOM     89  C64 UNL A   1      29.147  29.433  23.067  1.00  0.00    +0.000 C 
ATOM     90 Br1  UNL A   1      27.978  30.869  23.449  1.00  0.00    +0.000 Br
ATOM     91  C65 UNL A   1      28.738  28.121  23.313  1.00  0.00    +0.000 C 
ATOM     92  C66 UNL A   1      29.586  27.056  22.996  1.00  0.00    +0.000 C 
ATOM    128  H36 UNL A   1      32.189  28.822  21.812  1.00  0.00    +0.000 H 
ENDBRANCH   84   86
ENDBRANCH   83   84
ENDBRANCH    4    3
ENDBRANCH    5    4
ENDBRANCH    7    5
ENDBRANCH    8    7
ENDBRANCH    9    8
ENDBRANCH   10    9
ENDBRANCH   11   10
ENDBRANCH   12   11
ENDBRANCH   13   12
ENDBRANCH   14   13
ENDBRANCH   15   14
ENDBRANCH   17   15
ENDBRANCH   21   20
BRANCH   25   26
ATOM     33  C24 UNL A   1      42.267  24.252  26.641  1.00  0.00    +0.000 C 
ATOM     34  F4  UNL A   1      41.791  23.002  26.555  1.00  0.00    +0.000 F 
ATOM     35  C25 UNL A   1      41.873  25.075  27.694  1.00  0.00    +0.000 C 
ATOM     36  F5  UNL A   1      41.007  24.595  28.599  1.00  0.00    +0.000 F 
ATOM     26  C20 UNL A   1      42.374  26.379  27.817  1.00  0.00    +0.000 C 
ATOM     27  C21 UNL A   1      43.283  26.828  26.846  1.00  0.00    +0.000 C 
ATOM     28  F1  UNL A   1      43.782  28.071  26.912  1.00  0.00    +0.000 F 
ATOM     29  C22 UNL A   1      43.653  26.013  25.779  1.00  0.00    +0.000 C 
ATOM     30  F2  UNL A   1      44.485  26.480  24.838  1.00  0.00    +0.000 F 
ATOM     31  C23 UNL A   1      43.150  24.724  25.681  1.00  0.00    +0.000 C 
ATOM     32  F3  UNL A   1      43.511  23.939  24.657  1.00  0.00    +0.000 F 
ENDBRANCH   25   26
BRANCH   42   43
ATOM     43  C31 UNL A   1      44.940  28.279  34.281  1.00  0.00    +0.000 C 
ATOM     44  C32 UNL A   1      46.046  29.138  34.232  1.00  0.00    +0.000 C 
ATOM     45  F6  UNL A   1      46.051  30.184  33.391  1.00  0.00    +0.000 F 
ATOM     46  C33 UNL A   1      47.169  28.905  35.022  1.00  0.00    +0.000 C 
ATOM     47  F7  UNL A   1      48.233  29.715  34.927  1.00  0.00    +0.000 F 
ATOM     48  C34 UNL A   1      47.194  27.828  35.895  1.00  0.00    +0.000 C 
ATOM     49  F8  UNL A   1      48.274  27.609  36.659  1.00  0.00    +0.000 F 
ATOM     50  C35 UNL A   1      46.104  26.974  35.972  1.00  0.00    +0.000 C 
ATOM     51  F9  UNL A   1      46.122  25.940  36.824  1.00  0.00    +0.000 F 
ATOM     52  C36 UNL A   1      44.991  27.189  35.165  1.00  0.00    +0.000 C 
ATOM     53  F10 UNL A   1      43.956  26.340  35.252  1.00  0.00    +0.000 F 
ENDBRANCH   42   43
BRANCH   57   58
ATOM     65  C44 UNL A   1      39.025  34.159  36.572  1.00  0.00    +0.000 C 
ATOM     66  F14 UNL A   1      39.334  35.461  36.649  1.00  0.00    +0.000 F 
ATOM     67  C45 UNL A   1      39.471  33.402  35.491  1.00  0.00    +0.000 C 
ATOM     68  F15 UNL A   1      40.198  34.000  34.537  1.00  0.00    +0.000 F 
ATOM     58  C40 UNL A   1      39.182  32.033  35.400  1.00  0.00    +0.000 C 
ATOM     59  C41 UNL A   1      38.423  31.454  36.426  1.00  0.00    +0.000 C 
ATOM     60  F11 UNL A   1      38.105  30.153  36.372  1.00  0.00    +0.000 F 
ATOM     61  C42 UNL A   1      37.956  32.218  37.494  1.00  0.00    +0.000 C 
ATOM     62  F12 UNL A   1      37.199  31.649  38.441  1.00  0.00    +0.000 F 
ATOM     63  C43 UNL A   1      38.261  33.569  37.568  1.00  0.00    +0.000 C 
ATOM     64  F13 UNL A   1      37.816  34.302  38.597  1.00  0.00    +0.000 F 
ENDBRANCH   57   58
TORSDOF 19
ENDMDL
MODEL 2
REMARK VINA RESULT:     -10.6      0.172      1.925
ROOT
ATOM     21  C16 UNL A   1      37.971  30.088  29.854  1.00  0.00    +0.000 C 
ATOM     22  C17 UNL A   1      39.009  29.157  29.291  1.00  0.00    +0.000 C 
ATOM     23  N4  UNL A   1      40.102  28.701  29.849  1.00  0.00    +0.000 N 
ATOM     24  C18 UNL A   1      40.673  27.846  28.916  1.00  0.00    +0.000 C 
ATOM     25  C19 UNL A   1      41.844  27.169  28.995  1.00  0.00    +0.000 C 
ATOM     37  C26 UNL A   1      42.742  27.230  30.118  1.00  0.00    +0.000 C 
ATOM     38  C27 UNL A   1      43.980  26.630  30.268  1.00  0.00    +0.000 C 
ATOM     39  C28 UNL A   1      44.465  26.942  31.543  1.00  0.00    +0.000 C 
ATOM     40  C29 UNL A   1      43.551  27.772  32.169  1.00  0.00    +0.000 C 
ATOM     41  N5  UNL A   1      42.495  27.937  31.285  1.00  0.00    +0.000 N 
ATOM     42  C30 UNL A   1      43.631  28.370  33.477  1.00  0.00    +0.000 C 
ATOM     54  C37 UNL A   1      42.692  29.186  34.018  1.00  0.00    +0.000 C 
ATOM     55  N6  UNL A   1      41.495  29.624  33.468  1.00  0.00    +0.000 N 
ATOM     56  C38 UNL A   1      40.937  30.381  34.381  1.00  0.00    +0.000 C 
ATOM     57  C39 UNL A   1      39.639  31.141  34.319  1.00  0.00    +0.000 C 
ATOM     69  C46 UNL A   1      38.903  31.098  33.192  1.00  0.00    +0.000 C 
ATOM     70  C47 UNL A   1      37.633  31.785  32.984  1.00  0.00    +0.000 C 
ATOM     71  C48 UNL A   1      37.163  31.475  31.764  1.00  0.00    +0.000 C 
ATOM     72  C49 UNL A   1      38.120  30.595  31.091  1.00  0.00    +0.000 C 
ATOM     73  N7  UNL A   1      39.126  30.434  32.011  1.00  0.00    +0.000 N 
ATOM     74  C50 UNL A   1      41.707  30.488  35.628  1.00  0.00    +0.000 C 
ATOM     75  C51 UNL A   1      42.784  29.772  35.339  1.00  0.00    +0.000 C 
ATOM     76  C52 UNL A   1      39.782  27.808  27.775  1.00  0.00    +0.000 C 
ATOM     77  C53 UNL A   1      38.773  28.652  27.930  1.00  0.00    +0.000 C 
ATOM    113  H21 UNL A   1      44.461  26.052  29.562  1.00  0.00    +0.000 H 
ATOM    114  H22 UNL A   1      45.355  26.610  31.947  1.00  0.00    +0.000 H 
ATOM    115  H23 UNL A   1      41.691  28.476  31.460  1.00  0.00    +0.000 H 
ATOM    116  H24 UNL A   1      37.169  32.408  33.664  1.00  0.00    +0.000 H 
ATOM    117  H25 UNL A   1      36.271  31.806  31.365  1.00  0.00    +0.000 H 
ATOM    118  H26 UNL A   1      39.930  29.892  31.840  1.00  0.00    +0.000 H 
ATOM    119  H27 UNL A   1      41.470  30.987  36.499  1.00  0.00    +0.000 H 
ATOM    120  H28 UNL A   1      43.588  29.649  35.975  1.00  0.00    +0.000 H 
ATOM    121  H29 UNL A   1      39.917  27.203  26.950  1.00  0.00    +0.000 H 
ATOM    122  H30 UNL A   1      38.018  28.892  27.268  1.00  0.00    +0.000 H 
ENDROOT
BRANCH   21   20
ATOM     78  C54 UNL A   1      35.802  29.382  28.844  1.00  0.00    +0.000 C 
ATOM    111  H19 UNL A   1      35.150  32.913  27.520  1.00  0.00    +0.000 H 
ATOM     79  C55 UNL A   1      34.651  29.646  28.105  1.00  0.00    +0.000 C 
ATOM     17  C12 UNL A   1      34.386  30.949  27.673  1.00  0.00    +0.000 C 
ATOM     18  C13 UNL A   1      35.328  31.961  27.877  1.00  0.00    +0.000 C 
ATOM     19  C14 UNL A   1      36.512  31.679  28.562  1.00  0.00    +0.000 C 
ATOM    112  H20 UNL A   1      37.219  32.420  28.691  1.00  0.00    +0.000 H 
ATOM     20  C15 UNL A   1      36.745  30.394  29.077  1.00  0.00    +0.000 C 
ATOM    123  H31 UNL A   1      35.961  28.435  29.224  1.00  0.00    +0.000 H 
ATOM    124  H32 UNL A   1      33.996  28.882  27.877  1.00  0.00    +0.000 H 
BRANCH   17   15
ATOM     15  C11 UNL A   1      33.129  31.276  26.966  1.00  0.00    +0.000 C 
ATOM     16  O2  UNL A   1      32.570  32.347  27.183  1.00  0.00    +0.000 O 
BRANCH   15   14
ATOM    110  H18 UNL A   1      32.785  30.553  25.132  1.00  0.00    +0.000 H 
ATOM     14  N3  UNL A   1      32.581  30.384  26.080  1.00  0.00    +0.000 N 
BRANCH   14   13
ATOM    109  H17 UNL A   1      30.781  29.409  25.911  1.00  0.00    +0.000 H 
ATOM    108  H16 UNL A   1      31.677  29.072  27.395  1.00  0.00    +0.000 H 
ATOM     13  C10 UNL A   1      31.744  29.222  26.337  1.00  0.00    +0.000 C 
BRANCH   13   12
ATOM    106  H14 UNL A   1      31.932  27.896  24.694  1.00  0.00    +0.000 H 
ATOM    107  H15 UNL A   1      33.373  28.044  25.739  1.00  0.00    +0.000 H 
ATOM     12  C9  UNL A   1      32.307  27.957  25.695  1.00  0.00    +0.000 C 
BRANCH   12   11
ATOM    105  H13 UNL A   1      31.944  26.891  27.465  1.00  0.00    +0.000 H 
ATOM     11  C8  UNL A   1      31.946  26.658  26.420  1.00  0.00    +0.000 C 
ATOM    104  H12 UNL A   1      32.669  25.917  26.149  1.00  0.00    +0.000 H 
BRANCH   11   10
ATOM     10  C7  UNL A   1      30.553  26.099  26.106  1.00  0.00    +0.000 C 
ATOM    102  H10 UNL A   1      29.844  26.609  26.725  1.00  0.00    +0.000 H 
ATOM    103  H11 UNL A   1      30.397  26.259  25.060  1.00  0.00    +0.000 H 
BRANCH   10    9
ATOM      9  C6  UNL A   1      30.389  24.592  26.338  1.00  0.00    +0.000 C 
ATOM    100  H8  UNL A   1      29.521  24.435  26.945  1.00  0.00    +0.000 H 
ATOM    101  H9  UNL A   1      30.299  24.133  25.376  1.00  0.00    +0.000 H 
BRANCH    9    8
ATOM     98  H6  UNL A   1      32.485  24.424  26.695  1.00  0.00    +0.000 H 
ATOM     99  H7  UNL A   1      31.468  24.068  28.090  1.00  0.00    +0.000 H 
ATOM      8  C5  UNL A   1      31.588  23.947  27.034  1.00  0.00    +0.000 C 
BRANCH    8    7
ATOM     97  H5  UNL A   1      30.917  21.986  27.066  1.00  0.00    +0.000 H 
ATOM      7  N2  UNL A   1      31.673  22.530  26.747  1.00  0.00    +0.000 N 
BRANCH    7    5
ATOM      5  C4  UNL A   1      32.658  21.845  26.094  1.00  0.00    +0.000 C 
ATOM      6  O1  UNL A   1      33.448  21.182  26.768  1.00  0.00    +0.000 O 
BRANCH    5    4
ATOM      4  C3  UNL A   1      32.822  21.969  24.586  1.00  0.00    +0.000 C 
ATOM     95  H3  UNL A   1      33.661  21.373  24.294  1.00  0.00    +0.000 H 
ATOM     96  H4  UNL A   1      31.899  21.643  24.156  1.00  0.00    +0.000 H 
BRANCH    4    3
ATOM      2  C1  UNL A   1      32.118  24.095  23.276  1.00  0.00    +0.000 C 
ATOM      3  C2  UNL A   1      33.050  23.384  24.082  1.00  0.00    +0.000 C 
ATOM     80  C56 UNL A   1      34.280  23.980  24.424  1.00  0.00    +0.000 C 
ATOM     81  C57 UNL A   1      34.607  25.253  23.978  1.00  0.00    +0.000 C 
ATOM     82  C58 UNL A   1      33.705  25.953  23.186  1.00  0.00    +0.000 C 
ATOM     83  C59 UNL A   1      32.457  25.403  22.830  1.00  0.00    +0.000 C 
ATOM    125  H33 UNL A   1      34.949  23.462  25.014  1.00  0.00    +0.000 H 
ATOM    126  H34 UNL A   1      35.513  25.676  24.232  1.00  0.00    +0.000 H 
ATOM    127  H35 UNL A   1      33.954  26.897  22.851  1.00  0.00    +0.000 H 
BRANCH    2    1
ATOM      1  N1  UNL A   1      30.867  23.524  23.003  1.00  0.00    +0.000 N 
ATOM     93  H1  UNL A   1      30.748  22.958  22.206  1.00  0.00    +0.000 H 
ATOM     94  H2  UNL A   1      30.108  23.689  23.608  1.00  0.00    +0.000 H 
ENDBRANCH    2    1
BRANCH   83   84
ATOM     84  C60 UNL A   1      31.632  26.277  21.926  1.00  0.00    +0.000 C 
ATOM     85  O3  UNL A   1      31.567  26.034  20.720  1.00  0.00    +0.000 O 
BRANCH   84   86
ATOM    129  H37 UNL A   1      30.836  30.743  22.486  1.00  0.00    +0.000 H 
ATOM    130  H38 UNL A   1      27.779  28.109  23.686  1.00  0.00    +0.000 H 
ATOM    131  H39 UNL A   1      29.190  26.206  23.122  1.00  0.00    +0.000 H 
ATOM     86  C61 UNL A   1      30.789  27.388  22.403  1.00  0.00    +0.000 C 
ATOM     87  C62 UNL A   1      31.283  28.691  22.256  1.00  0.00    +0.000 C 
ATOM     88  C63 UNL A   1      30.482  29.781  22.602  1.00  0.00    +0.000 C 
ATOM     89  C64 UNL A   1      29.199  29.559  23.105  1.00  0.00    +0.000 C 
ATOM     90 Br1  UNL A   1      28.091  31.036  23.511  1.00  0.00    +0.000 Br
ATOM     91  C65 UNL A   1      28.723  28.261  23.296  1.00  0.00    +0.000 C 
ATOM     92  C66 UNL A   1      29.527  27.168  22.961  1.00  0.00    +0.000 C 
ATOM    128  H36 UNL A   1      32.237  28.845  21.894  1.00  0.00    +0.000 H 
ENDBRANCH   84   86
ENDBRANCH   83   84
ENDBRANCH    4    3
ENDBRANCH    5    4
ENDBRANCH    7    5
ENDBRANCH    8    7
ENDBRANCH    9    8
ENDBRANCH   10    9
ENDBRANCH   11   10
ENDBRANCH   12   11
ENDBRANCH   13   12
ENDBRANCH   14   13
ENDBRANCH   15   14
ENDBRANCH   17   15
ENDBRANCH   21   20
BRANCH   25   26
ATOM     33  C24 UNL A   1      43.420  26.006  25.731  1.00  0.00    +0.000 C 
ATOM     34  F4  UNL A   1      44.230  26.497  24.782  1.00  0.00    +0.000 F 
ATOM     35  C25 UNL A   1      43.087  26.789  26.833  1.00  0.00    +0.000 C 
ATOM     36  F5  UNL A   1      43.602  28.024  26.927  1.00  0.00    +0.000 F 
ATOM     26  C20 UNL A   1      42.224  26.304  27.828  1.00  0.00    +0.000 C 
ATOM     27  C21 UNL A   1      41.709  25.009  27.676  1.00  0.00    +0.000 C 
ATOM     28  F1  UNL A   1      40.889  24.495  28.605  1.00  0.00    +0.000 F 
ATOM     29  C22 UNL A   1      42.066  24.218  26.587  1.00  0.00    +0.000 C 
ATOM     30  F2  UNL A   1      41.599  22.966  26.488  1.00  0.00    +0.000 F 
ATOM     31  C23 UNL A   1      42.916  24.719  25.612  1.00  0.00    +0.000 C 
ATOM     32  F3  UNL A   1      43.254  23.960  24.561  1.00  0.00    +0.000 F 
ENDBRANCH   25   26
BRANCH   42   43
ATOM     43  C31 UNL A   1      44.853  28.090  34.299  1.00  0.00    +0.000 C 
ATOM     44  C32 UNL A   1      44.931  26.975  35.145  1.00  0.00    +0.000 C 
ATOM     45  F6  UNL A   1      43.878  26.153  35.276  1.00  0.00    +0.000 F 
ATOM     46  C33 UNL A   1      46.080  26.719  35.889  1.00  0.00    +0.000 C 
ATOM     47  F7  UNL A   1      46.116  25.671  36.723  1.00  0.00    +0.000 F 
ATOM     48  C34 UNL A   1      47.181  27.556  35.778  1.00  0.00    +0.000 C 
ATOM     49  F8  UNL A   1      48.288  27.305  36.490  1.00  0.00    +0.000 F 
ATOM     50  C35 UNL A   1      47.131  28.656  34.935  1.00  0.00    +0.000 C 
ATOM     51  F9  UNL A   1      48.198  29.458  34.818  1.00  0.00    +0.000 F 
ATOM     52  C36 UNL A   1      45.975  28.929  34.210  1.00  0.00    +0.000 C 
ATOM     53  F10 UNL A   1      45.952  30.007  33.412  1.00  0.00    +0.000 F 
ENDBRANCH   42   43
BRANCH   57   58
ATOM     65  C44 UNL A   1      37.910  32.203  37.531  1.00  0.00    +0.000 C 
ATOM     66  F14 UNL A   1      37.087  31.677  38.449  1.00  0.00    +0.000 F 
ATOM     67  C45 UNL A   1      38.341  31.426  36.458  1.00  0.00    +0.000 C 
ATOM     68  F15 UNL A   1      37.927  30.154  36.372  1.00  0.00    +0.000 F 
ATOM     58  C40 UNL A   1      39.182  31.960  35.471  1.00  0.00    +0.000 C 
ATOM     59  C41 UNL A   1      39.580  33.297  35.604  1.00  0.00    +0.000 C 
ATOM     60  F11 UNL A   1      40.400  33.844  34.695  1.00  0.00    +0.000 F 
ATOM     61  C42 UNL A   1      39.170  34.065  36.691  1.00  0.00    +0.000 C 
ATOM     62  F12 UNL A   1      39.598  35.328  36.816  1.00  0.00    +0.000 F 
ATOM     63  C43 UNL A   1      38.331  33.519  37.651  1.00  0.00    +0.000 C 
ATOM     64  F13 UNL A   1      37.932  34.260  38.694  1.00  0.00    +0.000 F 
ENDBRANCH   57   58
TORSDOF 19
ENDMDL
MODEL 3
REMARK VINA RESULT:     -10.6     37.515     42.769
ROOT
ATOM     21  C16 UNL A   1      14.027  53.784   5.113  1.00  0.00    +0.000 C 
ATOM     22  C17 UNL A   1      14.969  54.235   4.032  1.00  0.00    +0.000 C 
ATOM     23  N4  UNL A   1      15.441  53.565   3.011  1.00  0.00    +0.000 N 
ATOM     24  C18 UNL A   1      16.229  54.463   2.303  1.00  0.00    +0.000 C 
ATOM     25  C19 UNL A   1      16.979  54.239   1.198  1.00  0.00    +0.000 C 
ATOM     37  C26 UNL A   1      17.093  52.964   0.539  1.00  0.00    +0.000 C 
ATOM     38  C27 UNL A   1      17.874  52.621  -0.550  1.00  0.00    +0.000 C 
ATOM     39  C28 UNL A   1      17.628  51.279  -0.860  1.00  0.00    +0.000 C 
ATOM     40  C29 UNL A   1      16.728  50.774   0.063  1.00  0.00    +0.000 C 
ATOM     41  N5  UNL A   1      16.404  51.820   0.913  1.00  0.00    +0.000 N 
ATOM     42  C30 UNL A   1      16.199  49.438   0.163  1.00  0.00    +0.000 C 
ATOM     54  C37 UNL A   1      15.323  49.017   1.108  1.00  0.00    +0.000 C 
ATOM     55  N6  UNL A   1      14.760  49.731   2.157  1.00  0.00    +0.000 N 
ATOM     56  C38 UNL A   1      13.972  48.891   2.782  1.00  0.00    +0.000 C 
ATOM     57  C39 UNL A   1      13.129  49.115   4.009  1.00  0.00    +0.000 C 
ATOM     69  C46 UNL A   1      13.151  50.318   4.613  1.00  0.00    +0.000 C 
ATOM     70  C47 UNL A   1      12.394  50.679   5.807  1.00  0.00    +0.000 C 
ATOM     71  C48 UNL A   1      12.623  51.970   6.097  1.00  0.00    +0.000 C 
ATOM     72  C49 UNL A   1      13.573  52.517   5.126  1.00  0.00    +0.000 C 
ATOM     73  N7  UNL A   1      13.837  51.462   4.290  1.00  0.00    +0.000 N 
ATOM     74  C50 UNL A   1      13.925  47.551   2.182  1.00  0.00    +0.000 C 
ATOM     75  C51 UNL A   1      14.795  47.671   1.189  1.00  0.00    +0.000 C 
ATOM     76  C52 UNL A   1      16.136  55.737   2.983  1.00  0.00    +0.000 C 
ATOM     77  C53 UNL A   1      15.422  55.634   4.094  1.00  0.00    +0.000 C 
ATOM    113  H21 UNL A   1      18.526  53.247  -1.049  1.00  0.00    +0.000 H 
ATOM    114  H22 UNL A   1      18.047  50.754  -1.643  1.00  0.00    +0.000 H 
ATOM    115  H23 UNL A   1      15.778  51.760   1.670  1.00  0.00    +0.000 H 
ATOM    116  H24 UNL A   1      11.781  50.044   6.344  1.00  0.00    +0.000 H 
ATOM    117  H25 UNL A   1      12.199  52.493   6.879  1.00  0.00    +0.000 H 
ATOM    118  H26 UNL A   1      14.460  51.520   3.530  1.00  0.00    +0.000 H 
ATOM    119  H27 UNL A   1      13.361  46.732   2.460  1.00  0.00    +0.000 H 
ATOM    120  H28 UNL A   1      15.062  46.902   0.555  1.00  0.00    +0.000 H 
ATOM    121  H29 UNL A   1      16.568  56.611   2.646  1.00  0.00    +0.000 H 
ATOM    122  H30 UNL A   1      15.234  56.348   4.816  1.00  0.00    +0.000 H 
ENDROOT
BRANCH   21   20
ATOM     78  C54 UNL A   1      12.392  55.515   5.858  1.00  0.00    +0.000 C 
ATOM    111  H19 UNL A   1      14.178  55.902   9.221  1.00  0.00    +0.000 H 
ATOM     79  C55 UNL A   1      11.926  56.438   6.792  1.00  0.00    +0.000 C 
ATOM     17  C12 UNL A   1      12.544  56.536   8.041  1.00  0.00    +0.000 C 
ATOM     18  C13 UNL A   1      13.698  55.797   8.313  1.00  0.00    +0.000 C 
ATOM     19  C14 UNL A   1      14.203  54.920   7.351  1.00  0.00    +0.000 C 
ATOM    112  H20 UNL A   1      15.070  54.393   7.541  1.00  0.00    +0.000 H 
ATOM     20  C15 UNL A   1      13.537  54.750   6.127  1.00  0.00    +0.000 C 
ATOM    123  H31 UNL A   1      11.893  55.394   4.963  1.00  0.00    +0.000 H 
ATOM    124  H32 UNL A   1      11.126  57.047   6.561  1.00  0.00    +0.000 H 
BRANCH   17   15
ATOM     15  C11 UNL A   1      12.013  57.440   9.085  1.00  0.00    +0.000 C 
ATOM     16  O2  UNL A   1      12.295  58.634   9.056  1.00  0.00    +0.000 O 
BRANCH   15   14
ATOM    110  H18 UNL A   1      11.478  57.214  11.000  1.00  0.00    +0.000 H 
ATOM     14  N3  UNL A   1      11.219  56.947  10.089  1.00  0.00    +0.000 N 
BRANCH   14   13
ATOM    109  H17 UNL A   1       9.771  56.009   8.973  1.00  0.00    +0.000 H 
ATOM    108  H16 UNL A   1       9.260  56.517  10.585  1.00  0.00    +0.000 H 
ATOM     13  C10 UNL A   1      10.048  56.087  10.003  1.00  0.00    +0.000 C 
BRANCH   13   12
ATOM    106  H14 UNL A   1      11.132  54.741  11.231  1.00  0.00    +0.000 H 
ATOM    107  H15 UNL A   1       9.417  54.325  10.951  1.00  0.00    +0.000 H 
ATOM     12  C9  UNL A   1      10.332  54.680  10.522  1.00  0.00    +0.000 C 
BRANCH   12   11
ATOM    105  H13 UNL A   1      10.875  54.233   8.545  1.00  0.00    +0.000 H 
ATOM     11  C8  UNL A   1      10.727  53.669   9.442  1.00  0.00    +0.000 C 
ATOM    104  H12 UNL A   1       9.942  52.944   9.366  1.00  0.00    +0.000 H 
BRANCH   11   10
ATOM     10  C7  UNL A   1      12.041  52.921   9.697  1.00  0.00    +0.000 C 
ATOM    102  H10 UNL A   1      11.908  51.904   9.392  1.00  0.00    +0.000 H 
ATOM    103  H11 UNL A   1      12.792  53.439   9.139  1.00  0.00    +0.000 H 
BRANCH   10    9
ATOM      9  C6  UNL A   1      12.516  52.920  11.156  1.00  0.00    +0.000 C 
ATOM    100  H8  UNL A   1      11.767  53.392  11.757  1.00  0.00    +0.000 H 
ATOM    101  H9  UNL A   1      12.675  51.899  11.434  1.00  0.00    +0.000 H 
BRANCH    9    8
ATOM     98  H6  UNL A   1      14.064  54.227  10.492  1.00  0.00    +0.000 H 
ATOM     99  H7  UNL A   1      13.738  54.291  12.223  1.00  0.00    +0.000 H 
ATOM      8  C5  UNL A   1      13.840  53.655  11.368  1.00  0.00    +0.000 C 
BRANCH    8    7
ATOM     97  H5  UNL A   1      15.319  52.770  12.520  1.00  0.00    +0.000 H 
ATOM      7  N2  UNL A   1      14.929  52.733  11.617  1.00  0.00    +0.000 N 
BRANCH    7    5
ATOM      5  C4  UNL A   1      15.489  51.819  10.770  1.00  0.00    +0.000 C 
ATOM      6  O1  UNL A   1      15.583  52.115   9.577  1.00  0.00    +0.000 O 
BRANCH    5    4
ATOM      4  C3  UNL A   1      15.903  50.445  11.274  1.00  0.00    +0.000 C 
ATOM     95  H3  UNL A   1      16.971  50.386  11.236  1.00  0.00    +0.000 H 
ATOM     96  H4  UNL A   1      15.508  50.356  12.264  1.00  0.00    +0.000 H 
BRANCH    4    3
ATOM      2  C1  UNL A   1      14.029  48.752  10.676  1.00  0.00    +0.000 C 
ATOM      3  C2  UNL A   1      15.338  49.276  10.484  1.00  0.00    +0.000 C 
ATOM     80  C56 UNL A   1      16.200  48.682   9.541  1.00  0.00    +0.000 C 
ATOM     81  C57 UNL A   1      15.798  47.582   8.798  1.00  0.00    +0.000 C 
ATOM     82  C58 UNL A   1      14.524  47.060   8.981  1.00  0.00    +0.000 C 
ATOM     83  C59 UNL A   1      13.622  47.629   9.904  1.00  0.00    +0.000 C 
ATOM    125  H33 UNL A   1      17.146  49.071   9.402  1.00  0.00    +0.000 H 
ATOM    126  H34 UNL A   1      16.441  47.154   8.114  1.00  0.00    +0.000 H 
ATOM    127  H35 UNL A   1      14.230  46.238   8.431  1.00  0.00    +0.000 H 
BRANCH    2    1
ATOM      1  N1  UNL A   1      13.153  49.395  11.562  1.00  0.00    +0.000 N 
ATOM     93  H1  UNL A   1      12.180  49.284  11.459  1.00  0.00    +0.000 H 
ATOM     94  H2  UNL A   1      13.511  49.956  12.288  1.00  0.00    +0.000 H 
ENDBRANCH    2    1
BRANCH   83   84
ATOM     84  C60 UNL A   1      12.308  46.905  10.010  1.00  0.00    +0.000 C 
ATOM     85  O3  UNL A   1      12.169  45.992  10.826  1.00  0.00    +0.000 O 
BRANCH   84   86
ATOM    129  H37 UNL A   1       7.984  46.143   8.743  1.00  0.00    +0.000 H 
ATOM    130  H38 UNL A   1       9.758  49.707   7.376  1.00  0.00    +0.000 H 
ATOM    131  H39 UNL A   1      11.863  49.068   8.422  1.00  0.00    +0.000 H 
ATOM     86  C61 UNL A   1      11.101  47.277   9.252  1.00  0.00    +0.000 C 
ATOM     87  C62 UNL A   1       9.999  46.413   9.313  1.00  0.00    +0.000 C 
ATOM     88  C63 UNL A   1       8.801  46.770   8.693  1.00  0.00    +0.000 C 
ATOM     89  C64 UNL A   1       8.717  47.981   8.004  1.00  0.00    +0.000 C 
ATOM     90 Br1  UNL A   1       7.075  48.495   7.220  1.00  0.00    +0.000 Br
ATOM     91  C65 UNL A   1       9.827  48.822   7.902  1.00  0.00    +0.000 C 
ATOM     92  C66 UNL A   1      11.032  48.462   8.514  1.00  0.00    +0.000 C 
ATOM    128  H36 UNL A   1      10.074  45.515   9.814  1.00  0.00    +0.000 H 
ENDBRANCH   84   86
ENDBRANCH   83   84
ENDBRANCH    4    3
ENDBRANCH    5    4
ENDBRANCH    7    5
ENDBRANCH    8    7
ENDBRANCH    9    8
ENDBRANCH   10    9
ENDBRANCH   11   10
ENDBRANCH   12   11
ENDBRANCH   13   12
ENDBRANCH   14   13
ENDBRANCH   15   14
ENDBRANCH   17   15
ENDBRANCH   21   20
BRANCH   25   26
ATOM     33  C24 UNL A   1      17.941  57.192  -1.003  1.00  0.00    +0.000 C 
ATOM     34  F4  UNL A   1      17.438  57.864  -2.048  1.00  0.00    +0.000 F 
ATOM     35  C25 UNL A   1      17.226  56.133  -0.449  1.00  0.00    +0.000 C 
ATOM     36  F5  UNL A   1      16.033  55.816  -0.973  1.00  0.00    +0.000 F 
ATOM     26  C20 UNL A   1      17.741  55.401   0.631  1.00  0.00    +0.000 C 
ATOM     27  C21 UNL A   1      18.997  55.771   1.135  1.00  0.00    +0.000 C 
ATOM     28  F1  UNL A   1      19.529  55.110   2.174  1.00  0.00    +0.000 F 
ATOM     29  C22 UNL A   1      19.697  56.848   0.597  1.00  0.00    +0.000 C 
ATOM     30  F2  UNL A   1      20.873  57.212   1.126  1.00  0.00    +0.000 F 
ATOM     31  C23 UNL A   1      19.171  57.554  -0.475  1.00  0.00    +0.000 C 
ATOM     32  F3  UNL A   1      19.848  58.587  -0.995  1.00  0.00    +0.000 F 
ENDBRANCH   25   26
BRANCH   42   43
ATOM     43  C31 UNL A   1      16.666  48.426  -0.839  1.00  0.00    +0.000 C 
ATOM     44  C32 UNL A   1      17.892  47.761  -0.698  1.00  0.00    +0.000 C 
ATOM     45  F6  UNL A   1      18.707  48.061   0.325  1.00  0.00    +0.000 F 
ATOM     46  C33 UNL A   1      18.302  46.810  -1.629  1.00  0.00    +0.000 C 
ATOM     47  F7  UNL A   1      19.498  46.219  -1.498  1.00  0.00    +0.000 F 
ATOM     48  C34 UNL A   1      17.483  46.486  -2.700  1.00  0.00    +0.000 C 
ATOM     49  F8  UNL A   1      17.877  45.567  -3.592  1.00  0.00    +0.000 F 
ATOM     50  C35 UNL A   1      16.259  47.119  -2.851  1.00  0.00    +0.000 C 
ATOM     51  F9  UNL A   1      15.460  46.798  -3.878  1.00  0.00    +0.000 F 
ATOM     52  C36 UNL A   1      15.857  48.089  -1.936  1.00  0.00    +0.000 C 
ATOM     53  F10 UNL A   1      14.672  48.694  -2.114  1.00  0.00    +0.000 F 
ENDBRANCH   42   43
BRANCH   57   58
ATOM     65  C44 UNL A   1      12.055  46.065   6.005  1.00  0.00    +0.000 C 
ATOM     66  F14 UNL A   1      12.593  45.185   6.860  1.00  0.00    +0.000 F 
ATOM     67  C45 UNL A   1      12.835  47.097   5.488  1.00  0.00    +0.000 C 
ATOM     68  F15 UNL A   1      14.116  47.193   5.868  1.00  0.00    +0.000 F 
ATOM     58  C40 UNL A   1      12.302  48.017   4.573  1.00  0.00    +0.000 C 
ATOM     59  C41 UNL A   1      10.959  47.868   4.203  1.00  0.00    +0.000 C 
ATOM     60  F11 UNL A   1      10.401  48.735   3.345  1.00  0.00    +0.000 F 
ATOM     61  C42 UNL A   1      10.172  46.851   4.740  1.00  0.00    +0.000 C 
ATOM     62  F12 UNL A   1       8.880  46.756   4.400  1.00  0.00    +0.000 F 
ATOM     63  C43 UNL A   1      10.723  45.948   5.637  1.00  0.00    +0.000 C 
ATOM     64  F13 UNL A   1       9.967  44.967   6.150  1.00  0.00    +0.000 F 
ENDBRANCH   57   58
TORSDOF 19
ENDMDL
MODEL 4
REMARK VINA RESULT:     -10.5     20.201     24.986
ROOT
ATOM     21  C16 UNL A   1      53.054  20.203  11.478  1.00  0.00    +0.000 C 
ATOM     22  C17 UNL A   1      54.384  19.538  11.260  1.00  0.00    +0.000 C 
ATOM     23  N4  UNL A   1      55.391  19.408  12.087  1.00  0.00    +0.000 N 
ATOM     24  C18 UNL A   1      56.351  18.676  11.400  1.00  0.00    +0.000 C 
ATOM     25  C19 UNL A   1      57.595  18.326  11.804  1.00  0.00    +0.000 C 
ATOM     37  C26 UNL A   1      58.163  18.677  13.080  1.00  0.00    +0.000 C 
ATOM     38  C27 UNL A   1      59.435  18.421  13.559  1.00  0.00    +0.000 C 
ATOM     39  C28 UNL A   1      59.519  18.917  14.865  1.00  0.00    +0.000 C 
ATOM     40  C29 UNL A   1      58.313  19.520  15.183  1.00  0.00    +0.000 C 
ATOM     41  N5  UNL A   1      57.488  19.361  14.080  1.00  0.00    +0.000 N 
ATOM     42  C30 UNL A   1      57.939  20.190  16.401  1.00  0.00    +0.000 C 
ATOM     54  C37 UNL A   1      56.734  20.768  16.633  1.00  0.00    +0.000 C 
ATOM     55  N6  UNL A   1      55.632  20.855  15.793  1.00  0.00    +0.000 N 
ATOM     56  C38 UNL A   1      54.712  21.494  16.473  1.00  0.00    +0.000 C 
ATOM     57  C39 UNL A   1      53.324  21.893  16.049  1.00  0.00    +0.000 C 
ATOM     69  C46 UNL A   1      52.906  21.601  14.803  1.00  0.00    +0.000 C 
ATOM     70  C47 UNL A   1      51.596  21.928  14.250  1.00  0.00    +0.000 C 
ATOM     71  C48 UNL A   1      51.514  21.442  13.001  1.00  0.00    +0.000 C 
ATOM     72  C49 UNL A   1      52.782  20.799  12.653  1.00  0.00    +0.000 C 
ATOM     73  N7  UNL A   1      53.551  20.951  13.780  1.00  0.00    +0.000 N 
ATOM     74  C50 UNL A   1      55.119  21.862  17.837  1.00  0.00    +0.000 C 
ATOM     75  C51 UNL A   1      56.371  21.431  17.869  1.00  0.00    +0.000 C 
ATOM     76  C52 UNL A   1      55.789  18.350  10.106  1.00  0.00    +0.000 C 
ATOM     77  C53 UNL A   1      54.602  18.915   9.945  1.00  0.00    +0.000 C 
ATOM    113  H21 UNL A   1      60.192  17.947  13.043  1.00  0.00    +0.000 H 
ATOM    114  H22 UNL A   1      60.340  18.847  15.486  1.00  0.00    +0.000 H 
ATOM    115  H23 UNL A   1      56.561  19.686  14.017  1.00  0.00    +0.000 H 
ATOM    116  H24 UNL A   1      50.851  22.449  14.741  1.00  0.00    +0.000 H 
ATOM    117  H25 UNL A   1      50.689  21.511  12.385  1.00  0.00    +0.000 H 
ATOM    118  H26 UNL A   1      54.477  20.624  13.848  1.00  0.00    +0.000 H 
ATOM    119  H27 UNL A   1      54.572  22.333  18.575  1.00  0.00    +0.000 H 
ATOM    120  H28 UNL A   1      57.007  21.552  18.672  1.00  0.00    +0.000 H 
ATOM    121  H29 UNL A   1      56.253  17.754   9.403  1.00  0.00    +0.000 H 
ATOM    122  H30 UNL A   1      53.990  18.917   9.114  1.00  0.00    +0.000 H 
ENDROOT
BRANCH   21   20
ATOM     78  C54 UNL A   1      51.267  18.964  10.255  1.00  0.00    +0.000 C 
ATOM    111  H19 UNL A   1      50.530  22.002   8.046  1.00  0.00    +0.000 H 
ATOM     79  C55 UNL A   1      50.291  18.884   9.263  1.00  0.00    +0.000 C 
ATOM     17  C12 UNL A   1      49.983  20.011   8.497  1.00  0.00    +0.000 C 
ATOM     18  C13 UNL A   1      50.731  21.183   8.641  1.00  0.00    +0.000 C 
ATOM     19  C14 UNL A   1      51.752  21.242   9.591  1.00  0.00    +0.000 C 
ATOM    112  H20 UNL A   1      52.322  22.098   9.681  1.00  0.00    +0.000 H 
ATOM     20  C15 UNL A   1      52.009  20.142  10.426  1.00  0.00    +0.000 C 
ATOM    123  H31 UNL A   1      51.444  18.153  10.867  1.00  0.00    +0.000 H 
ATOM    124  H32 UNL A   1      49.798  17.993   9.095  1.00  0.00    +0.000 H 
BRANCH   17   15
ATOM     15  C11 UNL A   1      48.890  19.981   7.501  1.00  0.00    +0.000 C 
ATOM     16  O2  UNL A   1      48.367  21.030   7.139  1.00  0.00    +0.000 O 
BRANCH   15   14
ATOM    110  H18 UNL A   1      49.072  18.028   7.102  1.00  0.00    +0.000 H 
ATOM     14  N3  UNL A   1      48.452  18.784   6.992  1.00  0.00    +0.000 N 
BRANCH   14   13
ATOM    109  H17 UNL A   1      47.158  19.052   5.418  1.00  0.00    +0.000 H 
ATOM    108  H16 UNL A   1      46.388  18.702   6.968  1.00  0.00    +0.000 H 
ATOM     13  C10 UNL A   1      47.203  18.470   6.314  1.00  0.00    +0.000 C 
BRANCH   13   12
ATOM    106  H14 UNL A   1      47.884  16.468   6.452  1.00  0.00    +0.000 H 
ATOM    107  H15 UNL A   1      46.130  16.673   6.183  1.00  0.00    +0.000 H 
ATOM     12  C9  UNL A   1      47.118  16.997   5.925  1.00  0.00    +0.000 C 
BRANCH   12   11
ATOM    105  H13 UNL A   1      47.918  15.859   4.354  1.00  0.00    +0.000 H 
ATOM     11  C8  UNL A   1      47.289  16.722   4.429  1.00  0.00    +0.000 C 
ATOM    104  H12 UNL A   1      47.709  17.597   3.978  1.00  0.00    +0.000 H 
BRANCH   11   10
ATOM     10  C7  UNL A   1      45.998  16.373   3.677  1.00  0.00    +0.000 C 
ATOM    102  H10 UNL A   1      46.268  15.961   2.727  1.00  0.00    +0.000 H 
ATOM    103  H11 UNL A   1      45.465  15.687   4.302  1.00  0.00    +0.000 H 
BRANCH   10    9
ATOM      9  C6  UNL A   1      45.050  17.554   3.431  1.00  0.00    +0.000 C 
ATOM    100  H8  UNL A   1      44.280  17.235   2.759  1.00  0.00    +0.000 H 
ATOM    101  H9  UNL A   1      44.661  17.849   4.383  1.00  0.00    +0.000 H 
BRANCH    9    8
ATOM     98  H6  UNL A   1      46.672  18.934   3.334  1.00  0.00    +0.000 H 
ATOM     99  H7  UNL A   1      45.900  18.594   1.786  1.00  0.00    +0.000 H 
ATOM      8  C5  UNL A   1      45.742  18.777   2.828  1.00  0.00    +0.000 C 
BRANCH    8    7
ATOM     97  H5  UNL A   1      45.002  20.438   3.824  1.00  0.00    +0.000 H 
ATOM      7  N2  UNL A   1      44.929  19.969   2.961  1.00  0.00    +0.000 N 
BRANCH    7    5
ATOM      5  C4  UNL A   1      44.076  20.530   2.055  1.00  0.00    +0.000 C 
ATOM      6  O1  UNL A   1      44.054  21.759   1.963  1.00  0.00    +0.000 O 
BRANCH    5    4
ATOM      4  C3  UNL A   1      43.121  19.665   1.247  1.00  0.00    +0.000 C 
ATOM     95  H3  UNL A   1      43.051  20.078   0.262  1.00  0.00    +0.000 H 
ATOM     96  H4  UNL A   1      43.526  18.675   1.263  1.00  0.00    +0.000 H 
BRANCH    4    3
ATOM      2  C1  UNL A   1      40.639  20.403   1.419  1.00  0.00    +0.000 C 
ATOM      3  C2  UNL A   1      41.716  19.560   1.815  1.00  0.00    +0.000 C 
ATOM     80  C56 UNL A   1      41.514  18.585   2.811  1.00  0.00    +0.000 C 
ATOM     81  C57 UNL A   1      40.279  18.435   3.426  1.00  0.00    +0.000 C 
ATOM     82  C58 UNL A   1      39.223  19.256   3.051  1.00  0.00    +0.000 C 
ATOM     83  C59 UNL A   1      39.375  20.237   2.049  1.00  0.00    +0.000 C 
ATOM    125  H33 UNL A   1      42.296  17.972   3.089  1.00  0.00    +0.000 H 
ATOM    126  H34 UNL A   1      40.147  17.720   4.158  1.00  0.00    +0.000 H 
ATOM    127  H35 UNL A   1      38.308  19.146   3.515  1.00  0.00    +0.000 H 
BRANCH    2    1
ATOM      1  N1  UNL A   1      40.829  21.319   0.376  1.00  0.00    +0.000 N 
ATOM     93  H1  UNL A   1      41.202  21.016  -0.484  1.00  0.00    +0.000 H 
ATOM     94  H2  UNL A   1      40.590  22.266   0.503  1.00  0.00    +0.000 H 
ENDBRANCH    2    1
BRANCH   83   84
ATOM     84  C60 UNL A   1      38.144  21.069   1.808  1.00  0.00    +0.000 C 
ATOM     85  O3  UNL A   1      37.607  21.663   2.743  1.00  0.00    +0.000 O 
BRANCH   84   86
ATOM    129  H37 UNL A   1      34.991  20.244  -1.395  1.00  0.00    +0.000 H 
ATOM    130  H38 UNL A   1      37.774  23.294  -2.217  1.00  0.00    +0.000 H 
ATOM    131  H39 UNL A   1      38.925  22.816  -0.125  1.00  0.00    +0.000 H 
ATOM     86  C61 UNL A   1      37.565  21.311   0.475  1.00  0.00    +0.000 C 
ATOM     87  C62 UNL A   1      36.457  20.541   0.095  1.00  0.00    +0.000 C 
ATOM     88  C63 UNL A   1      35.813  20.801  -1.115  1.00  0.00    +0.000 C 
ATOM     89  C64 UNL A   1      36.289  21.818  -1.943  1.00  0.00    +0.000 C 
ATOM     90 Br1  UNL A   1      35.377  22.213  -3.551  1.00  0.00    +0.000 Br
ATOM     91  C65 UNL A   1      37.421  22.555  -1.588  1.00  0.00    +0.000 C 
ATOM     92  C66 UNL A   1      38.074  22.291  -0.382  1.00  0.00    +0.000 C 
ATOM    128  H36 UNL A   1      36.119  19.784   0.709  1.00  0.00    +0.000 H 
ENDBRANCH   84   86
ENDBRANCH   83   84
ENDBRANCH    4    3
ENDBRANCH    5    4
ENDBRANCH    7    5
ENDBRANCH    8    7
ENDBRANCH    9    8
ENDBRANCH   10    9
ENDBRANCH   11   10
ENDBRANCH   12   11
ENDBRANCH   13   12
ENDBRANCH   14   13
ENDBRANCH   15   14
ENDBRANCH   17   15
ENDBRANCH   21   20
BRANCH   25   26
ATOM     33  C24 UNL A   1      59.185  15.369  10.011  1.00  0.00    +0.000 C 
ATOM     34  F4  UNL A   1      59.140  14.030  10.060  1.00  0.00    +0.000 F 
ATOM     35  C25 UNL A   1      58.387  16.122  10.869  1.00  0.00    +0.000 C 
ATOM     36  F5  UNL A   1      57.575  15.482  11.723  1.00  0.00    +0.000 F 
ATOM     26  C20 UNL A   1      58.433  17.524  10.851  1.00  0.00    +0.000 C 
ATOM     27  C21 UNL A   1      59.306  18.141   9.943  1.00  0.00    +0.000 C 
ATOM     28  F1  UNL A   1      59.378  19.479   9.879  1.00  0.00    +0.000 F 
ATOM     29  C22 UNL A   1      60.081  17.386   9.067  1.00  0.00    +0.000 C 
ATOM     30  F2  UNL A   1      60.873  17.999   8.176  1.00  0.00    +0.000 F 
ATOM     31  C23 UNL A   1      60.025  16.001   9.107  1.00  0.00    +0.000 C 
ATOM     32  F3  UNL A   1      60.776  15.274   8.267  1.00  0.00    +0.000 F 
ENDBRANCH   25   26
BRANCH   42   43
ATOM     43  C31 UNL A   1      58.962  20.277  17.493  1.00  0.00    +0.000 C 
ATOM     44  C32 UNL A   1      59.631  21.476  17.781  1.00  0.00    +0.000 C 
ATOM     45  F6  UNL A   1      59.402  22.570  17.039  1.00  0.00    +0.000 F 
ATOM     46  C33 UNL A   1      60.567  21.544  18.810  1.00  0.00    +0.000 C 
ATOM     47  F7  UNL A   1      61.226  22.688  19.040  1.00  0.00    +0.000 F 
ATOM     48  C34 UNL A   1      60.828  20.426  19.589  1.00  0.00    +0.000 C 
ATOM     49  F8  UNL A   1      61.725  20.495  20.582  1.00  0.00    +0.000 F 
ATOM     50  C35 UNL A   1      60.166  19.235  19.332  1.00  0.00    +0.000 C 
ATOM     51  F9  UNL A   1      60.409  18.157  20.091  1.00  0.00    +0.000 F 
ATOM     52  C36 UNL A   1      59.250  19.156  18.287  1.00  0.00    +0.000 C 
ATOM     53  F10 UNL A   1      58.634  17.987  18.055  1.00  0.00    +0.000 F 
ENDBRANCH   42   43
BRANCH   57   58
ATOM     65  C44 UNL A   1      51.471  24.710  17.801  1.00  0.00    +0.000 C 
ATOM     66  F14 UNL A   1      51.390  26.046  17.744  1.00  0.00    +0.000 F 
ATOM     67  C45 UNL A   1      52.307  24.026  16.921  1.00  0.00    +0.000 C 
ATOM     68  F15 UNL A   1      53.011  24.727  16.021  1.00  0.00    +0.000 F 
ATOM     58  C40 UNL A   1      52.428  22.630  16.977  1.00  0.00    +0.000 C 
ATOM     59  C41 UNL A   1      51.676  21.946  17.941  1.00  0.00    +0.000 C 
ATOM     60  F11 UNL A   1      51.745  20.609  18.019  1.00  0.00    +0.000 F 
ATOM     61  C42 UNL A   1      50.821  22.628  18.804  1.00  0.00    +0.000 C 
ATOM     62  F12 UNL A   1      50.082  21.947  19.689  1.00  0.00    +0.000 F 
ATOM     63  C43 UNL A   1      50.723  24.010  18.736  1.00  0.00    +0.000 C 
ATOM     64  F13 UNL A   1      49.904  24.666  19.569  1.00  0.00    +0.000 F 
ENDBRANCH   57   58
TORSDOF 19
ENDMDL
MODEL 5
REMARK VINA RESULT:     -10.5     20.206     25.164
ROOT
ATOM     21  C16 UNL A   1      53.274  19.826  11.599  1.00  0.00    +0.000 C 
ATOM     22  C17 UNL A   1      54.627  19.193  11.434  1.00  0.00    +0.000 C 
ATOM     23  N4  UNL A   1      55.623  19.134  12.281  1.00  0.00    +0.000 N 
ATOM     24  C18 UNL A   1      56.616  18.399  11.646  1.00  0.00    +0.000 C 
ATOM     25  C19 UNL A   1      57.863  18.107  12.085  1.00  0.00    +0.000 C 
ATOM     37  C26 UNL A   1      58.398  18.536  13.350  1.00  0.00    +0.000 C 
ATOM     38  C27 UNL A   1      59.670  18.343  13.861  1.00  0.00    +0.000 C 
ATOM     39  C28 UNL A   1      59.717  18.904  15.142  1.00  0.00    +0.000 C 
ATOM     40  C29 UNL A   1      58.489  19.485  15.412  1.00  0.00    +0.000 C 
ATOM     41  N5  UNL A   1      57.687  19.247  14.306  1.00  0.00    +0.000 N 
ATOM     42  C30 UNL A   1      58.074  20.201  16.590  1.00  0.00    +0.000 C 
ATOM     54  C37 UNL A   1      56.850  20.752  16.775  1.00  0.00    +0.000 C 
ATOM     55  N6  UNL A   1      55.760  20.765  15.916  1.00  0.00    +0.000 N 
ATOM     56  C38 UNL A   1      54.809  21.408  16.550  1.00  0.00    +0.000 C 
ATOM     57  C39 UNL A   1      53.418  21.743  16.085  1.00  0.00    +0.000 C 
ATOM     69  C46 UNL A   1      53.030  21.378  14.849  1.00  0.00    +0.000 C 
ATOM     70  C47 UNL A   1      51.720  21.638  14.262  1.00  0.00    +0.000 C 
ATOM     71  C48 UNL A   1      51.672  21.090  13.036  1.00  0.00    +0.000 C 
ATOM     72  C49 UNL A   1      52.965  20.470  12.740  1.00  0.00    +0.000 C 
ATOM     73  N7  UNL A   1      53.710  20.700  13.869  1.00  0.00    +0.000 N 
ATOM     74  C50 UNL A   1      55.183  21.854  17.900  1.00  0.00    +0.000 C 
ATOM     75  C51 UNL A   1      56.447  21.463  17.971  1.00  0.00    +0.000 C 
ATOM     76  C52 UNL A   1      56.085  17.993  10.361  1.00  0.00    +0.000 C 
ATOM     77  C53 UNL A   1      54.885  18.513  10.154  1.00  0.00    +0.000 C 
ATOM    113  H21 UNL A   1      60.449  17.868  13.380  1.00  0.00    +0.000 H 
ATOM    114  H22 UNL A   1      60.530  18.889  15.778  1.00  0.00    +0.000 H 
ATOM    115  H23 UNL A   1      56.752  19.540  14.212  1.00  0.00    +0.000 H 
ATOM    116  H24 UNL A   1      50.952  22.159  14.715  1.00  0.00    +0.000 H 
ATOM    117  H25 UNL A   1      50.856  21.104  12.405  1.00  0.00    +0.000 H 
ATOM    118  H26 UNL A   1      54.644  20.405  13.966  1.00  0.00    +0.000 H 
ATOM    119  H27 UNL A   1      54.610  22.342  18.606  1.00  0.00    +0.000 H 
ATOM    120  H28 UNL A   1      57.066  21.642  18.777  1.00  0.00    +0.000 H 
ATOM    121  H29 UNL A   1      56.578  17.379   9.694  1.00  0.00    +0.000 H 
ATOM    122  H30 UNL A   1      54.287  18.457   9.315  1.00  0.00    +0.000 H 
ENDROOT
BRANCH   21   20
ATOM     78  C54 UNL A   1      51.995  20.756   9.669  1.00  0.00    +0.000 C 
ATOM    111  H19 UNL A   1      50.079  17.473   9.224  1.00  0.00    +0.000 H 
ATOM     79  C55 UNL A   1      51.027  20.645   8.674  1.00  0.00    +0.000 C 
ATOM     17  C12 UNL A   1      50.370  19.427   8.475  1.00  0.00    +0.000 C 
ATOM     18  C13 UNL A   1      50.595  18.358   9.346  1.00  0.00    +0.000 C 
ATOM     19  C14 UNL A   1      51.520  18.492  10.384  1.00  0.00    +0.000 C 
ATOM    112  H20 UNL A   1      51.668  17.711  11.043  1.00  0.00    +0.000 H 
ATOM     20  C15 UNL A   1      52.248  19.683  10.536  1.00  0.00    +0.000 C 
ATOM    123  H31 UNL A   1      52.530  21.633   9.769  1.00  0.00    +0.000 H 
ATOM    124  H32 UNL A   1      50.795  21.459   8.085  1.00  0.00    +0.000 H 
BRANCH   17   15
ATOM     15  C11 UNL A   1      49.404  19.253   7.368  1.00  0.00    +0.000 C 
ATOM     16  O2  UNL A   1      48.307  19.800   7.426  1.00  0.00    +0.000 O 
BRANCH   15   14
ATOM    110  H18 UNL A   1      49.151  17.690   6.144  1.00  0.00    +0.000 H 
ATOM     14  N3  UNL A   1      49.727  18.475   6.285  1.00  0.00    +0.000 N 
BRANCH   14   13
ATOM    109  H17 UNL A   1      51.482  19.369   5.698  1.00  0.00    +0.000 H 
ATOM    108  H16 UNL A   1      50.371  18.968   4.384  1.00  0.00    +0.000 H 
ATOM     13  C10 UNL A   1      50.796  18.644   5.312  1.00  0.00    +0.000 C 
BRANCH   13   12
ATOM    106  H14 UNL A   1      51.389  17.035   4.067  1.00  0.00    +0.000 H 
ATOM    107  H15 UNL A   1      52.594  17.564   5.275  1.00  0.00    +0.000 H 
ATOM     12  C9  UNL A   1      51.564  17.347   5.075  1.00  0.00    +0.000 C 
BRANCH   12   11
ATOM    105  H13 UNL A   1      50.385  16.568   6.626  1.00  0.00    +0.000 H 
ATOM     11  C8  UNL A   1      51.175  16.196   6.007  1.00  0.00    +0.000 C 
ATOM    104  H12 UNL A   1      52.048  15.906   6.556  1.00  0.00    +0.000 H 
BRANCH   11   10
ATOM     10  C7  UNL A   1      50.618  14.950   5.307  1.00  0.00    +0.000 C 
ATOM    102  H10 UNL A   1      51.418  14.487   4.768  1.00  0.00    +0.000 H 
ATOM    103  H11 UNL A   1      50.212  14.331   6.079  1.00  0.00    +0.000 H 
BRANCH   10    9
ATOM      9  C6  UNL A   1      49.472  15.215   4.322  1.00  0.00    +0.000 C 
ATOM    100  H8  UNL A   1      49.449  16.262   4.103  1.00  0.00    +0.000 H 
ATOM    101  H9  UNL A   1      49.662  14.623   3.452  1.00  0.00    +0.000 H 
BRANCH    9    8
ATOM     98  H6  UNL A   1      47.455  14.589   4.029  1.00  0.00    +0.000 H 
ATOM     99  H7  UNL A   1      48.226  13.938   5.474  1.00  0.00    +0.000 H 
ATOM      8  C5  UNL A   1      48.100  14.802   4.856  1.00  0.00    +0.000 C 
BRANCH    8    7
ATOM     97  H5  UNL A   1      47.738  15.838   6.615  1.00  0.00    +0.000 H 
ATOM      7  N2  UNL A   1      47.503  15.850   5.659  1.00  0.00    +0.000 N 
BRANCH    7    5
ATOM      5  C4  UNL A   1      46.659  16.852   5.271  1.00  0.00    +0.000 C 
ATOM      6  O1  UNL A   1      45.551  16.917   5.807  1.00  0.00    +0.000 O 
BRANCH    5    4
ATOM      4  C3  UNL A   1      47.047  17.804   4.150  1.00  0.00    +0.000 C 
ATOM     95  H3  UNL A   1      47.945  18.308   4.439  1.00  0.00    +0.000 H 
ATOM     96  H4  UNL A   1      47.160  17.203   3.272  1.00  0.00    +0.000 H 
BRANCH    4    3
ATOM      2  C1  UNL A   1      44.928  18.641   2.907  1.00  0.00    +0.000 C 
ATOM      3  C2  UNL A   1      46.003  18.856   3.814  1.00  0.00    +0.000 C 
ATOM     80  C56 UNL A   1      46.161  20.113   4.430  1.00  0.00    +0.000 C 
ATOM     81  C57 UNL A   1      45.288  21.157   4.158  1.00  0.00    +0.000 C 
ATOM     82  C58 UNL A   1      44.239  20.959   3.270  1.00  0.00    +0.000 C 
ATOM     83  C59 UNL A   1      44.033  19.714   2.641  1.00  0.00    +0.000 C 
ATOM    125  H33 UNL A   1      46.938  20.261   5.092  1.00  0.00    +0.000 H 
ATOM    126  H34 UNL A   1      45.418  22.074   4.613  1.00  0.00    +0.000 H 
ATOM    127  H35 UNL A   1      43.595  21.739   3.065  1.00  0.00    +0.000 H 
BRANCH    2    1
ATOM      1  N1  UNL A   1      44.736  17.366   2.357  1.00  0.00    +0.000 N 
ATOM     93  H1  UNL A   1      44.922  16.563   2.897  1.00  0.00    +0.000 H 
ATOM     94  H2  UNL A   1      44.414  17.272   1.431  1.00  0.00    +0.000 H 
ENDBRANCH    2    1
BRANCH   83   84
ATOM     84  C60 UNL A   1      42.883  19.694   1.671  1.00  0.00    +0.000 C 
ATOM     85  O3  UNL A   1      43.097  19.697   0.458  1.00  0.00    +0.000 O 
BRANCH   84   86
ATOM    129  H37 UNL A   1      39.611  17.880   4.297  1.00  0.00    +0.000 H 
ATOM    130  H38 UNL A   1      38.430  20.902   1.615  1.00  0.00    +0.000 H 
ATOM    131  H39 UNL A   1      40.699  21.018   0.737  1.00  0.00    +0.000 H 
ATOM     86  C61 UNL A   1      41.471  19.573   2.074  1.00  0.00    +0.000 C 
ATOM     87  C62 UNL A   1      41.154  18.640   3.071  1.00  0.00    +0.000 C 
ATOM     88  C63 UNL A   1      39.848  18.558   3.556  1.00  0.00    +0.000 C 
ATOM     89  C64 UNL A   1      38.866  19.399   3.032  1.00  0.00    +0.000 C 
ATOM     90 Br1  UNL A   1      37.112  19.333   3.735  1.00  0.00    +0.000 Br
ATOM     91  C65 UNL A   1      39.169  20.297   2.006  1.00  0.00    +0.000 C 
ATOM     92  C66 UNL A   1      40.474  20.374   1.511  1.00  0.00    +0.000 C 
ATOM    128  H36 UNL A   1      41.885  18.014   3.444  1.00  0.00    +0.000 H 
ENDBRANCH   84   86
ENDBRANCH   83   84
ENDBRANCH    4    3
ENDBRANCH    5    4
ENDBRANCH    7    5
ENDBRANCH    8    7
ENDBRANCH    9    8
ENDBRANCH   10    9
ENDBRANCH   11   10
ENDBRANCH   12   11
ENDBRANCH   13   12
ENDBRANCH   14   13
ENDBRANCH   15   14
ENDBRANCH   17   15
ENDBRANCH   21   20
BRANCH   25   26
ATOM     33  C24 UNL A   1      59.611  15.121  10.499  1.00  0.00    +0.000 C 
ATOM     34  F4  UNL A   1      59.644  13.789  10.647  1.00  0.00    +0.000 F 
ATOM     35  C25 UNL A   1      58.776  15.889  11.307  1.00  0.00    +0.000 C 
ATOM     36  F5  UNL A   1      58.008  15.268  12.215  1.00  0.00    +0.000 F 
ATOM     26  C20 UNL A   1      58.740  17.286  11.185  1.00  0.00    +0.000 C 
ATOM     27  C21 UNL A   1      59.569  17.883  10.225  1.00  0.00    +0.000 C 
ATOM     28  F1  UNL A   1      59.563  19.214  10.061  1.00  0.00    +0.000 F 
ATOM     29  C22 UNL A   1      60.382  17.110   9.399  1.00  0.00    +0.000 C 
ATOM     30  F2  UNL A   1      61.130  17.699   8.456  1.00  0.00    +0.000 F 
ATOM     31  C23 UNL A   1      60.407  15.731   9.541  1.00  0.00    +0.000 C 
ATOM     32  F3  UNL A   1      61.193  14.989   8.749  1.00  0.00    +0.000 F 
ENDBRANCH   25   26
BRANCH   42   43
ATOM     43  C31 UNL A   1      59.077  20.372  17.692  1.00  0.00    +0.000 C 
ATOM     44  C32 UNL A   1      59.771  21.577  17.874  1.00  0.00    +0.000 C 
ATOM     45  F6  UNL A   1      59.588  22.597  17.021  1.00  0.00    +0.000 F 
ATOM     46  C33 UNL A   1      60.687  21.725  18.913  1.00  0.00    +0.000 C 
ATOM     47  F7  UNL A   1      61.372  22.870  19.042  1.00  0.00    +0.000 F 
ATOM     48  C34 UNL A   1      60.902  20.684  19.805  1.00  0.00    +0.000 C 
ATOM     49  F8  UNL A   1      61.778  20.831  20.808  1.00  0.00    +0.000 F 
ATOM     50  C35 UNL A   1      60.213  19.490  19.653  1.00  0.00    +0.000 C 
ATOM     51  F9  UNL A   1      60.411  18.488  20.522  1.00  0.00    +0.000 F 
ATOM     52  C36 UNL A   1      59.317  19.330  18.600  1.00  0.00    +0.000 C 
ATOM     53  F10 UNL A   1      58.675  18.159  18.471  1.00  0.00    +0.000 F 
ENDBRANCH   42   43
BRANCH   57   58
ATOM     65  C44 UNL A   1      51.455  24.584  17.672  1.00  0.00    +0.000 C 
ATOM     66  F14 UNL A   1      51.337  25.913  17.550  1.00  0.00    +0.000 F 
ATOM     67  C45 UNL A   1      52.326  23.884  16.839  1.00  0.00    +0.000 C 
ATOM     68  F15 UNL A   1      53.026  24.562  15.918  1.00  0.00    +0.000 F 
ATOM     58  C40 UNL A   1      52.485  22.497  16.963  1.00  0.00    +0.000 C 
ATOM     59  C41 UNL A   1      51.735  21.837  17.946  1.00  0.00    +0.000 C 
ATOM     60  F11 UNL A   1      51.840  20.508  18.087  1.00  0.00    +0.000 F 
ATOM     61  C42 UNL A   1      50.846  22.534  18.761  1.00  0.00    +0.000 C 
ATOM     62  F12 UNL A   1      50.110  21.873  19.664  1.00  0.00    +0.000 F 
ATOM     63  C43 UNL A   1      50.710  23.908  18.627  1.00  0.00    +0.000 C 
ATOM     64  F13 UNL A   1      49.858  24.578  19.414  1.00  0.00    +0.000 F 
ENDBRANCH   57   58
TORSDOF 19
ENDMDL
MODEL 6
REMARK VINA RESULT:     -10.4     17.478     22.442
ROOT
ATOM     21  C16 UNL A   1      25.884  35.945  45.527  1.00  0.00    +0.000 C 
ATOM     22  C17 UNL A   1      27.200  35.855  44.808  1.00  0.00    +0.000 C 
ATOM     23  N4  UNL A   1      28.273  36.592  44.947  1.00  0.00    +0.000 N 
ATOM     24  C18 UNL A   1      29.215  36.057  44.077  1.00  0.00    +0.000 C 
ATOM     25  C19 UNL A   1      30.467  36.499  43.812  1.00  0.00    +0.000 C 
ATOM     37  C26 UNL A   1      31.062  37.661  44.416  1.00  0.00    +0.000 C 
ATOM     38  C27 UNL A   1      32.302  38.225  44.169  1.00  0.00    +0.000 C 
ATOM     39  C28 UNL A   1      32.462  39.322  45.023  1.00  0.00    +0.000 C 
ATOM     40  C29 UNL A   1      31.305  39.468  45.770  1.00  0.00    +0.000 C 
ATOM     41  N5  UNL A   1      30.456  38.439  45.392  1.00  0.00    +0.000 N 
ATOM     42  C30 UNL A   1      30.995  40.469  46.758  1.00  0.00    +0.000 C 
ATOM     54  C37 UNL A   1      29.828  40.551  47.444  1.00  0.00    +0.000 C 
ATOM     55  N6  UNL A   1      28.707  39.737  47.358  1.00  0.00    +0.000 N 
ATOM     56  C38 UNL A   1      27.849  40.215  48.226  1.00  0.00    +0.000 C 
ATOM     57  C39 UNL A   1      26.455  39.743  48.540  1.00  0.00    +0.000 C 
ATOM     69  C46 UNL A   1      25.944  38.699  47.861  1.00  0.00    +0.000 C 
ATOM     70  C47 UNL A   1      24.611  38.136  48.052  1.00  0.00    +0.000 C 
ATOM     71  C48 UNL A   1      24.463  37.076  47.239  1.00  0.00    +0.000 C 
ATOM     72  C49 UNL A   1      25.681  36.909  46.445  1.00  0.00    +0.000 C 
ATOM     73  N7  UNL A   1      26.500  37.923  46.875  1.00  0.00    +0.000 N 
ATOM     74  C50 UNL A   1      28.342  41.374  48.983  1.00  0.00    +0.000 C 
ATOM     75  C51 UNL A   1      29.536  41.560  48.441  1.00  0.00    +0.000 C 
ATOM     76  C52 UNL A   1      28.603  34.905  43.448  1.00  0.00    +0.000 C 
ATOM     77  C53 UNL A   1      27.337  34.776  43.817  1.00  0.00    +0.000 C 
ATOM    113  H21 UNL A   1      32.990  37.894  43.475  1.00  0.00    +0.000 H 
ATOM    114  H22 UNL A   1      33.300  39.921  45.084  1.00  0.00    +0.000 H 
ATOM    115  H23 UNL A   1      29.557  38.284  45.760  1.00  0.00    +0.000 H 
ATOM    116  H24 UNL A   1      23.896  38.493  48.706  1.00  0.00    +0.000 H 
ATOM    117  H25 UNL A   1      23.625  36.477  47.184  1.00  0.00    +0.000 H 
ATOM    118  H26 UNL A   1      27.401  38.078  46.511  1.00  0.00    +0.000 H 
ATOM    119  H27 UNL A   1      27.879  41.903  49.739  1.00  0.00    +0.000 H 
ATOM    120  H28 UNL A   1      30.178  42.328  48.696  1.00  0.00    +0.000 H 
ATOM    121  H29 UNL A   1      29.090  34.268  42.799  1.00  0.00    +0.000 H 
ATOM    122  H30 UNL A   1      26.631  34.097  43.492  1.00  0.00    +0.000 H 
ENDROOT
BRANCH   21   20
ATOM     78  C54 UNL A   1      23.879  35.150  44.274  1.00  0.00    +0.000 C 
ATOM    111  H19 UNL A   1      23.758  31.916  46.318  1.00  0.00    +0.000 H 
ATOM     79  C55 UNL A   1      22.873  34.215  44.039  1.00  0.00    +0.000 C 
ATOM     17  C12 UNL A   1      22.864  33.009  44.746  1.00  0.00    +0.000 C 
ATOM     18  C13 UNL A   1      23.791  32.789  45.768  1.00  0.00    +0.000 C 
ATOM     19  C14 UNL A   1      24.760  33.755  46.047  1.00  0.00    +0.000 C 
ATOM    112  H20 UNL A   1      25.428  33.604  46.819  1.00  0.00    +0.000 H 
ATOM     20  C15 UNL A   1      24.829  34.931  45.282  1.00  0.00    +0.000 C 
ATOM    123  H31 UNL A   1      23.925  36.008  43.703  1.00  0.00    +0.000 H 
ATOM    124  H32 UNL A   1      22.135  34.413  43.345  1.00  0.00    +0.000 H 
BRANCH   17   15
ATOM     15  C11 UNL A   1      21.863  31.961  44.452  1.00  0.00    +0.000 C 
ATOM     16  O2  UNL A   1      22.147  30.780  44.633  1.00  0.00    +0.000 O 
BRANCH   15   14
ATOM    110  H18 UNL A   1      20.528  33.240  43.686  1.00  0.00    +0.000 H 
ATOM     14  N3  UNL A   1      20.625  32.303  43.969  1.00  0.00    +0.000 N 
BRANCH   14   13
ATOM    109  H17 UNL A   1      19.732  30.454  43.877  1.00  0.00    +0.000 H 
ATOM    108  H16 UNL A   1      18.990  31.695  42.863  1.00  0.00    +0.000 H 
ATOM     13  C10 UNL A   1      19.435  31.480  43.812  1.00  0.00    +0.000 C 
BRANCH   13   12
ATOM    106  H14 UNL A   1      18.660  31.139  45.755  1.00  0.00    +0.000 H 
ATOM    107  H15 UNL A   1      18.450  32.794  45.116  1.00  0.00    +0.000 H 
ATOM     12  C9  UNL A   1      18.408  31.744  44.909  1.00  0.00    +0.000 C 
BRANCH   12   11
ATOM    105  H13 UNL A   1      16.421  32.355  44.624  1.00  0.00    +0.000 H 
ATOM     11  C8  UNL A   1      16.960  31.437  44.515  1.00  0.00    +0.000 C 
ATOM    104  H12 UNL A   1      16.604  30.654  45.153  1.00  0.00    +0.000 H 
BRANCH   11   10
ATOM     10  C7  UNL A   1      16.759  30.994  43.061  1.00  0.00    +0.000 C 
ATOM    102  H10 UNL A   1      16.201  31.756  42.557  1.00  0.00    +0.000 H 
ATOM    103  H11 UNL A   1      17.738  30.846  42.656  1.00  0.00    +0.000 H 
BRANCH   10    9
ATOM      9  C6  UNL A   1      16.016  29.664  42.883  1.00  0.00    +0.000 C 
ATOM    100  H8  UNL A   1      14.982  29.875  42.707  1.00  0.00    +0.000 H 
ATOM    101  H9  UNL A   1      16.473  29.157  42.059  1.00  0.00    +0.000 H 
BRANCH    9    8
ATOM     98  H6  UNL A   1      16.735  29.206  44.837  1.00  0.00    +0.000 H 
ATOM     99  H7  UNL A   1      15.135  28.564  44.471  1.00  0.00    +0.000 H 
ATOM      8  C5  UNL A   1      16.121  28.738  44.096  1.00  0.00    +0.000 C 
BRANCH    8    7
ATOM     97  H5  UNL A   1      17.619  27.497  43.380  1.00  0.00    +0.000 H 
ATOM      7  N2  UNL A   1      16.704  27.460  43.742  1.00  0.00    +0.000 N 
BRANCH    7    5
ATOM      5  C4  UNL A   1      16.159  26.213  43.841  1.00  0.00    +0.000 C 
ATOM      6  O1  UNL A   1      16.842  25.320  44.349  1.00  0.00    +0.000 O 
BRANCH    5    4
ATOM      4  C3  UNL A   1      14.784  25.917  43.263  1.00  0.00    +0.000 C 
ATOM     95  H3  UNL A   1      14.394  25.053  43.759  1.00  0.00    +0.000 H 
ATOM     96  H4  UNL A   1      14.196  26.797  43.420  1.00  0.00    +0.000 H 
BRANCH    4    3
ATOM      2  C1  UNL A   1      14.779  24.348  41.196  1.00  0.00    +0.000 C 
ATOM      3  C2  UNL A   1      14.762  25.652  41.767  1.00  0.00    +0.000 C 
ATOM     80  C56 UNL A   1      14.760  26.785  40.930  1.00  0.00    +0.000 C 
ATOM     81  C57 UNL A   1      14.784  26.654  39.549  1.00  0.00    +0.000 C 
ATOM     82  C58 UNL A   1      14.806  25.386  38.981  1.00  0.00    +0.000 C 
ATOM     83  C59 UNL A   1      14.795  24.223  39.779  1.00  0.00    +0.000 C 
ATOM    125  H33 UNL A   1      14.741  27.727  41.350  1.00  0.00    +0.000 H 
ATOM    126  H34 UNL A   1      14.787  27.492  38.948  1.00  0.00    +0.000 H 
ATOM    127  H35 UNL A   1      14.830  25.292  37.954  1.00  0.00    +0.000 H 
BRANCH    2    1
ATOM      1  N1  UNL A   1      14.706  23.228  42.035  1.00  0.00    +0.000 N 
ATOM     93  H1  UNL A   1      15.007  23.293  42.970  1.00  0.00    +0.000 H 
ATOM     94  H2  UNL A   1      14.355  22.376  41.689  1.00  0.00    +0.000 H 
ENDBRANCH    2    1
BRANCH   83   84
ATOM     84  C60 UNL A   1      14.875  22.939  39.000  1.00  0.00    +0.000 C 
ATOM     85  O3  UNL A   1      15.850  22.710  38.283  1.00  0.00    +0.000 O 
BRANCH   84   86
ATOM    129  H37 UNL A   1      13.688  18.549  38.546  1.00  0.00    +0.000 H 
ATOM    130  H38 UNL A   1      10.811  21.126  40.221  1.00  0.00    +0.000 H 
ATOM    131  H39 UNL A   1      12.306  23.020  39.889  1.00  0.00    +0.000 H 
ATOM     86  C61 UNL A   1      13.885  21.852  39.103  1.00  0.00    +0.000 C 
ATOM     87  C62 UNL A   1      14.272  20.574  38.679  1.00  0.00    +0.000 C 
ATOM     88  C63 UNL A   1      13.405  19.494  38.848  1.00  0.00    +0.000 C 
ATOM     89  C64 UNL A   1      12.153  19.701  39.428  1.00  0.00    +0.000 C 
ATOM     90 Br1  UNL A   1      11.005  18.227  39.717  1.00  0.00    +0.000 Br
ATOM     91  C65 UNL A   1      11.747  20.982  39.809  1.00  0.00    +0.000 C 
ATOM     92  C66 UNL A   1      12.609  22.067  39.631  1.00  0.00    +0.000 C 
ATOM    128  H36 UNL A   1      15.195  20.432  38.240  1.00  0.00    +0.000 H 
ENDBRANCH   84   86
ENDBRANCH   83   84
ENDBRANCH    4    3
ENDBRANCH    5    4
ENDBRANCH    7    5
ENDBRANCH    8    7
ENDBRANCH    9    8
ENDBRANCH   10    9
ENDBRANCH   11   10
ENDBRANCH   12   11
ENDBRANCH   13   12
ENDBRANCH   14   13
ENDBRANCH   15   14
ENDBRANCH   17   15
ENDBRANCH   21   20
BRANCH   25   26
ATOM     33  C24 UNL A   1      32.066  35.395  40.538  1.00  0.00    +0.000 C 
ATOM     34  F4  UNL A   1      32.095  35.791  39.258  1.00  0.00    +0.000 F 
ATOM     35  C25 UNL A   1      31.342  36.128  41.476  1.00  0.00    +0.000 C 
ATOM     36  F5  UNL A   1      30.695  37.231  41.072  1.00  0.00    +0.000 F 
ATOM     26  C20 UNL A   1      31.279  35.721  42.817  1.00  0.00    +0.000 C 
ATOM     27  C21 UNL A   1      31.968  34.556  43.183  1.00  0.00    +0.000 C 
ATOM     28  F1  UNL A   1      31.949  34.132  44.455  1.00  0.00    +0.000 F 
ATOM     29  C22 UNL A   1      32.715  33.841  42.249  1.00  0.00    +0.000 C 
ATOM     30  F2  UNL A   1      33.404  32.757  42.633  1.00  0.00    +0.000 F 
ATOM     31  C23 UNL A   1      32.758  34.258  40.927  1.00  0.00    +0.000 C 
ATOM     32  F3  UNL A   1      33.472  33.566  40.029  1.00  0.00    +0.000 F 
ENDBRANCH   25   26
BRANCH   42   43
ATOM     43  C31 UNL A   1      32.030  41.517  47.039  1.00  0.00    +0.000 C 
ATOM     44  C32 UNL A   1      33.187  41.228  47.777  1.00  0.00    +0.000 C 
ATOM     45  F6  UNL A   1      33.366  40.005  48.299  1.00  0.00    +0.000 F 
ATOM     46  C33 UNL A   1      34.148  42.208  48.015  1.00  0.00    +0.000 C 
ATOM     47  F7  UNL A   1      35.224  41.922  48.760  1.00  0.00    +0.000 F 
ATOM     48  C34 UNL A   1      33.984  43.484  47.493  1.00  0.00    +0.000 C 
ATOM     49  F8  UNL A   1      34.913  44.423  47.718  1.00  0.00    +0.000 F 
ATOM     50  C35 UNL A   1      32.856  43.786  46.746  1.00  0.00    +0.000 C 
ATOM     51  F9  UNL A   1      32.703  45.014  46.232  1.00  0.00    +0.000 F 
ATOM     52  C36 UNL A   1      31.881  42.816  46.530  1.00  0.00    +0.000 C 
ATOM     53  F10 UNL A   1      30.794  43.141  45.814  1.00  0.00    +0.000 F 
ENDBRANCH   42   43
BRANCH   57   58
ATOM     65  C44 UNL A   1      24.842  40.664  51.855  1.00  0.00    +0.000 C 
ATOM     66  F14 UNL A   1      24.833  40.228  53.122  1.00  0.00    +0.000 F 
ATOM     67  C45 UNL A   1      25.624  40.014  50.903  1.00  0.00    +0.000 C 
ATOM     68  F15 UNL A   1      26.366  38.964  51.281  1.00  0.00    +0.000 F 
ATOM     58  C40 UNL A   1      25.631  40.435  49.565  1.00  0.00    +0.000 C 
ATOM     59  C41 UNL A   1      24.833  41.535  49.221  1.00  0.00    +0.000 C 
ATOM     60  F11 UNL A   1      24.824  41.985  47.958  1.00  0.00    +0.000 F 
ATOM     61  C42 UNL A   1      24.071  42.199  50.179  1.00  0.00    +0.000 C 
ATOM     62  F12 UNL A   1      23.349  43.272  49.831  1.00  0.00    +0.000 F 
ATOM     63  C43 UNL A   1      24.073  41.760  51.495  1.00  0.00    +0.000 C 
ATOM     64  F13 UNL A   1      23.336  42.397  52.415  1.00  0.00    +0.000 F 
ENDBRANCH   57   58
TORSDOF 19
ENDMDL
MODEL 7
REMARK VINA RESULT:     -10.4      4.855     10.877
ROOT
ATOM     21  C16 UNL A   1      39.828  29.061  29.028  1.00  0.00    +0.000 C 
ATOM     22  C17 UNL A   1      40.656  30.077  29.765  1.00  0.00    +0.000 C 
ATOM     23  N4  UNL A   1      41.926  30.041  30.078  1.00  0.00    +0.000 N 
ATOM     24  C18 UNL A   1      42.193  31.247  30.713  1.00  0.00    +0.000 C 
ATOM     25  C19 UNL A   1      43.350  31.669  31.274  1.00  0.00    +0.000 C 
ATOM     37  C26 UNL A   1      44.563  30.894  31.312  1.00  0.00    +0.000 C 
ATOM     38  C27 UNL A   1      45.771  31.209  31.910  1.00  0.00    +0.000 C 
ATOM     39  C28 UNL A   1      46.670  30.168  31.653  1.00  0.00    +0.000 C 
ATOM     40  C29 UNL A   1      46.010  29.186  30.932  1.00  0.00    +0.000 C 
ATOM     41  N5  UNL A   1      44.719  29.647  30.726  1.00  0.00    +0.000 N 
ATOM     42  C30 UNL A   1      46.518  27.922  30.464  1.00  0.00    +0.000 C 
ATOM     54  C37 UNL A   1      45.801  27.005  29.770  1.00  0.00    +0.000 C 
ATOM     55  N6  UNL A   1      44.472  27.057  29.370  1.00  0.00    +0.000 N 
ATOM     56  C38 UNL A   1      44.249  25.940  28.720  1.00  0.00    +0.000 C 
ATOM     57  C39 UNL A   1      42.975  25.449  28.087  1.00  0.00    +0.000 C 
ATOM     69  C46 UNL A   1      41.862  26.202  28.176  1.00  0.00    +0.000 C 
ATOM     70  C47 UNL A   1      40.559  25.856  27.619  1.00  0.00    +0.000 C 
ATOM     71  C48 UNL A   1      39.699  26.860  27.858  1.00  0.00    +0.000 C 
ATOM     72  C49 UNL A   1      40.386  27.907  28.617  1.00  0.00    +0.000 C 
ATOM     73  N7  UNL A   1      41.662  27.425  28.768  1.00  0.00    +0.000 N 
ATOM     74  C50 UNL A   1      45.423  25.063  28.610  1.00  0.00    +0.000 C 
ATOM     75  C51 UNL A   1      46.329  25.741  29.299  1.00  0.00    +0.000 C 
ATOM     76  C52 UNL A   1      40.964  32.013  30.699  1.00  0.00    +0.000 C 
ATOM     77  C53 UNL A   1      39.968  31.308  30.183  1.00  0.00    +0.000 C 
ATOM    113  H21 UNL A   1      45.974  32.062  32.452  1.00  0.00    +0.000 H 
ATOM    114  H22 UNL A   1      47.658  30.137  31.950  1.00  0.00    +0.000 H 
ATOM    115  H23 UNL A   1      44.017  29.161  30.236  1.00  0.00    +0.000 H 
ATOM    116  H24 UNL A   1      40.332  24.980  27.122  1.00  0.00    +0.000 H 
ATOM    117  H25 UNL A   1      38.714  26.889  27.555  1.00  0.00    +0.000 H 
ATOM    118  H26 UNL A   1      42.367  27.910  29.254  1.00  0.00    +0.000 H 
ATOM    119  H27 UNL A   1      45.517  24.158  28.124  1.00  0.00    +0.000 H 
ATOM    120  H28 UNL A   1      47.291  25.410  29.478  1.00  0.00    +0.000 H 
ATOM    121  H29 UNL A   1      40.876  32.981  31.045  1.00  0.00    +0.000 H 
ATOM    122  H30 UNL A   1      38.970  31.558  30.098  1.00  0.00    +0.000 H 
ENDROOT
BRANCH   21   20
ATOM     78  C54 UNL A   1      38.089  29.784  27.392  1.00  0.00    +0.000 C 
ATOM    111  H19 UNL A   1      35.313  29.330  29.987  1.00  0.00    +0.000 H 
ATOM     79  C55 UNL A   1      36.770  30.079  27.058  1.00  0.00    +0.000 C 
ATOM     17  C12 UNL A   1      35.750  29.857  27.988  1.00  0.00    +0.000 C 
ATOM     18  C13 UNL A   1      36.063  29.453  29.289  1.00  0.00    +0.000 C 
ATOM     19  C14 UNL A   1      37.394  29.220  29.642  1.00  0.00    +0.000 C 
ATOM    112  H20 UNL A   1      37.627  28.946  30.609  1.00  0.00    +0.000 H 
ATOM     20  C15 UNL A   1      38.415  29.356  28.688  1.00  0.00    +0.000 C 
ATOM    123  H31 UNL A   1      38.832  29.882  26.683  1.00  0.00    +0.000 H 
ATOM    124  H32 UNL A   1      36.546  30.461  26.126  1.00  0.00    +0.000 H 
BRANCH   17   15
ATOM     15  C11 UNL A   1      34.331  30.074  27.630  1.00  0.00    +0.000 C 
ATOM     16  O2  UNL A   1      33.610  29.111  27.391  1.00  0.00    +0.000 O 
BRANCH   15   14
ATOM    110  H18 UNL A   1      33.224  31.516  26.793  1.00  0.00    +0.000 H 
ATOM     14  N3  UNL A   1      33.824  31.347  27.555  1.00  0.00    +0.000 N 
BRANCH   14   13
ATOM    109  H17 UNL A   1      34.283  32.104  29.409  1.00  0.00    +0.000 H 
ATOM    108  H16 UNL A   1      33.154  33.078  28.462  1.00  0.00    +0.000 H 
ATOM     13  C10 UNL A   1      34.044  32.483  28.438  1.00  0.00    +0.000 C 
BRANCH   13   12
ATOM    106  H14 UNL A   1      35.420  33.107  26.952  1.00  0.00    +0.000 H 
ATOM    107  H15 UNL A   1      34.894  34.370  28.101  1.00  0.00    +0.000 H 
ATOM     12  C9  UNL A   1      35.207  33.354  27.972  1.00  0.00    +0.000 C 
BRANCH   12   11
ATOM    105  H13 UNL A   1      37.242  33.760  28.276  1.00  0.00    +0.000 H 
ATOM     11  C8  UNL A   1      36.493  33.189  28.784  1.00  0.00    +0.000 C 
ATOM    104  H12 UNL A   1      36.718  32.143  28.838  1.00  0.00    +0.000 H 
BRANCH   11   10
ATOM     10  C7  UNL A   1      36.437  33.738  30.215  1.00  0.00    +0.000 C 
ATOM    102  H10 UNL A   1      37.327  34.307  30.387  1.00  0.00    +0.000 H 
ATOM    103  H11 UNL A   1      35.541  34.319  30.277  1.00  0.00    +0.000 H 
BRANCH   10    9
ATOM      9  C6  UNL A   1      36.334  32.674  31.316  1.00  0.00    +0.000 C 
ATOM    100  H8  UNL A   1      35.566  31.980  31.046  1.00  0.00    +0.000 H 
ATOM    101  H9  UNL A   1      37.294  32.207  31.392  1.00  0.00    +0.000 H 
BRANCH    9    8
ATOM     98  H6  UNL A   1      36.411  34.237  32.765  1.00  0.00    +0.000 H 
ATOM     99  H7  UNL A   1      34.939  33.268  32.803  1.00  0.00    +0.000 H 
ATOM      8  C5  UNL A   1      36.003  33.250  32.693  1.00  0.00    +0.000 C 
BRANCH    8    7
ATOM     97  H5  UNL A   1      35.913  31.842  34.212  1.00  0.00    +0.000 H 
ATOM      7  N2  UNL A   1      36.554  32.436  33.758  1.00  0.00    +0.000 N 
BRANCH    7    5
ATOM      5  C4  UNL A   1      37.838  32.381  34.218  1.00  0.00    +0.000 C 
ATOM      6  O1  UNL A   1      38.618  33.269  33.869  1.00  0.00    +0.000 O 
BRANCH    5    4
ATOM      4  C3  UNL A   1      38.310  31.209  35.065  1.00  0.00    +0.000 C 
ATOM     95  H3  UNL A   1      38.943  31.592  35.838  1.00  0.00    +0.000 H 
ATOM     96  H4  UNL A   1      37.428  30.732  35.437  1.00  0.00    +0.000 H 
BRANCH    4    3
ATOM      2  C1  UNL A   1      40.439  29.805  34.583  1.00  0.00    +0.000 C 
ATOM      3  C2  UNL A   1      39.084  30.142  34.308  1.00  0.00    +0.000 C 
ATOM     80  C56 UNL A   1      38.399  29.497  33.260  1.00  0.00    +0.000 C 
ATOM     81  C57 UNL A   1      39.027  28.539  32.478  1.00  0.00    +0.000 C 
ATOM     82  C58 UNL A   1      40.351  28.206  32.735  1.00  0.00    +0.000 C 
ATOM     83  C59 UNL A   1      41.073  28.815  33.782  1.00  0.00    +0.000 C 
ATOM    125  H33 UNL A   1      37.415  29.741  33.070  1.00  0.00    +0.000 H 
ATOM    126  H34 UNL A   1      38.515  28.077  31.710  1.00  0.00    +0.000 H 
ATOM    127  H35 UNL A   1      40.818  27.497  32.147  1.00  0.00    +0.000 H 
BRANCH    2    1
ATOM      1  N1  UNL A   1      41.088  30.398  35.674  1.00  0.00    +0.000 N 
ATOM     93  H1  UNL A   1      41.954  30.851  35.546  1.00  0.00    +0.000 H 
ATOM     94  H2  UNL A   1      40.679  30.364  36.569  1.00  0.00    +0.000 H 
ENDBRANCH    2    1
BRANCH   83   84
ATOM     84  C60 UNL A   1      42.507  28.374  33.882  1.00  0.00    +0.000 C 
ATOM     85  O3  UNL A   1      43.404  29.208  34.010  1.00  0.00    +0.000 O 
BRANCH   84   86
ATOM    129  H37 UNL A   1      45.050  24.899  32.352  1.00  0.00    +0.000 H 
ATOM    130  H38 UNL A   1      42.646  24.145  35.724  1.00  0.00    +0.000 H 
ATOM    131  H39 UNL A   1      41.731  26.397  35.582  1.00  0.00    +0.000 H 
ATOM     86  C61 UNL A   1      42.931  26.963  33.935  1.00  0.00    +0.000 C 
ATOM     87  C62 UNL A   1      43.856  26.523  32.979  1.00  0.00    +0.000 C 
ATOM     88  C63 UNL A   1      44.362  25.224  33.047  1.00  0.00    +0.000 C 
ATOM     89  C64 UNL A   1      43.928  24.371  34.062  1.00  0.00    +0.000 C 
ATOM     90 Br1  UNL A   1      44.662  22.633  34.193  1.00  0.00    +0.000 Br
ATOM     91  C65 UNL A   1      42.972  24.791  34.988  1.00  0.00    +0.000 C 
ATOM     92  C66 UNL A   1      42.456  26.088  34.916  1.00  0.00    +0.000 C 
ATOM    128  H36 UNL A   1      44.162  27.158  32.225  1.00  0.00    +0.000 H 
ENDBRANCH   84   86
ENDBRANCH   83   84
ENDBRANCH    4    3
ENDBRANCH    5    4
ENDBRANCH    7    5
ENDBRANCH    8    7
ENDBRANCH    9    8
ENDBRANCH   10    9
ENDBRANCH   11   10
ENDBRANCH   12   11
ENDBRANCH   13   12
ENDBRANCH   14   13
ENDBRANCH   15   14
ENDBRANCH   17   15
ENDBRANCH   21   20
BRANCH   25   26
ATOM     33  C24 UNL A   1      43.669  35.438  31.700  1.00  0.00    +0.000 C 
ATOM     34  F4  UNL A   1      43.944  36.509  30.942  1.00  0.00    +0.000 F 
ATOM     35  C25 UNL A   1      43.625  34.172  31.123  1.00  0.00    +0.000 C 
ATOM     36  F5  UNL A   1      43.849  34.055  29.806  1.00  0.00    +0.000 F 
ATOM     26  C20 UNL A   1      43.360  33.034  31.899  1.00  0.00    +0.000 C 
ATOM     27  C21 UNL A   1      43.141  33.213  33.273  1.00  0.00    +0.000 C 
ATOM     28  F1  UNL A   1      42.872  32.158  34.057  1.00  0.00    +0.000 F 
ATOM     29  C22 UNL A   1      43.157  34.484  33.842  1.00  0.00    +0.000 C 
ATOM     30  F2  UNL A   1      42.897  34.635  35.148  1.00  0.00    +0.000 F 
ATOM     31  C23 UNL A   1      43.427  35.594  33.057  1.00  0.00    +0.000 C 
ATOM     32  F3  UNL A   1      43.448  36.816  33.607  1.00  0.00    +0.000 F 
ENDBRANCH   25   26
BRANCH   42   43
ATOM     43  C31 UNL A   1      47.942  27.580  30.785  1.00  0.00    +0.000 C 
ATOM     44  C32 UNL A   1      48.989  27.895  29.909  1.00  0.00    +0.000 C 
ATOM     45  F6  UNL A   1      48.728  28.471  28.725  1.00  0.00    +0.000 F 
ATOM     46  C33 UNL A   1      50.309  27.586  30.230  1.00  0.00    +0.000 C 
ATOM     47  F7  UNL A   1      51.290  27.858  29.359  1.00  0.00    +0.000 F 
ATOM     48  C34 UNL A   1      50.607  26.984  31.444  1.00  0.00    +0.000 C 
ATOM     49  F8  UNL A   1      51.878  26.693  31.753  1.00  0.00    +0.000 F 
ATOM     50  C35 UNL A   1      49.588  26.678  32.333  1.00  0.00    +0.000 C 
ATOM     51  F9  UNL A   1      49.875  26.107  33.511  1.00  0.00    +0.000 F 
ATOM     52  C36 UNL A   1      48.265  26.961  32.003  1.00  0.00    +0.000 C 
ATOM     53  F10 UNL A   1      47.299  26.643  32.878  1.00  0.00    +0.000 F 
ENDBRANCH   42   43
BRANCH   57   58
ATOM     65  C44 UNL A   1      42.504  21.739  27.417  1.00  0.00    +0.000 C 
ATOM     66  F14 UNL A   1      42.151  20.635  28.089  1.00  0.00    +0.000 F 
ATOM     67  C45 UNL A   1      42.538  22.969  28.071  1.00  0.00    +0.000 C 
ATOM     68  F15 UNL A   1      42.203  23.022  29.368  1.00  0.00    +0.000 F 
ATOM     58  C40 UNL A   1      42.927  24.135  27.396  1.00  0.00    +0.000 C 
ATOM     59  C41 UNL A   1      43.273  24.023  26.043  1.00  0.00    +0.000 C 
ATOM     60  F11 UNL A   1      43.633  25.115  25.352  1.00  0.00    +0.000 F 
ATOM     61  C42 UNL A   1      43.215  22.797  25.384  1.00  0.00    +0.000 C 
ATOM     62  F12 UNL A   1      43.511  22.726  24.079  1.00  0.00    +0.000 F 
ATOM     63  C43 UNL A   1      42.835  21.655  26.073  1.00  0.00    +0.000 C 
ATOM     64  F13 UNL A   1      42.783  20.476  25.439  1.00  0.00    +0.000 F 
ENDBRANCH   57   58
TORSDOF 19
ENDMDL
MODEL 8
REMARK VINA RESULT:     -10.4      3.179      8.362
ROOT
ATOM     21  C16 UNL A   1      39.931  28.813  29.361  1.00  0.00    +0.000 C 
ATOM     22  C17 UNL A   1      40.777  29.710  30.220  1.00  0.00    +0.000 C 
ATOM     23  N4  UNL A   1      42.023  29.565  30.594  1.00  0.00    +0.000 N 
ATOM     24  C18 UNL A   1      42.328  30.696  31.340  1.00  0.00    +0.000 C 
ATOM     25  C19 UNL A   1      43.476  30.994  31.993  1.00  0.00    +0.000 C 
ATOM     37  C26 UNL A   1      44.634  30.139  32.029  1.00  0.00    +0.000 C 
ATOM     38  C27 UNL A   1      45.823  30.324  32.712  1.00  0.00    +0.000 C 
ATOM     39  C28 UNL A   1      46.670  29.249  32.415  1.00  0.00    +0.000 C 
ATOM     40  C29 UNL A   1      45.991  28.374  31.583  1.00  0.00    +0.000 C 
ATOM     41  N5  UNL A   1      44.745  28.935  31.349  1.00  0.00    +0.000 N 
ATOM     42  C30 UNL A   1      46.445  27.120  31.038  1.00  0.00    +0.000 C 
ATOM     54  C37 UNL A   1      45.712  26.311  30.234  1.00  0.00    +0.000 C 
ATOM     55  N6  UNL A   1      44.414  26.483  29.772  1.00  0.00    +0.000 N 
ATOM     56  C38 UNL A   1      44.159  25.439  29.021  1.00  0.00    +0.000 C 
ATOM     57  C39 UNL A   1      42.895  25.086  28.285  1.00  0.00    +0.000 C 
ATOM     69  C46 UNL A   1      41.828  25.902  28.379  1.00  0.00    +0.000 C 
ATOM     70  C47 UNL A   1      40.539  25.689  27.730  1.00  0.00    +0.000 C 
ATOM     71  C48 UNL A   1      39.732  26.726  28.007  1.00  0.00    +0.000 C 
ATOM     72  C49 UNL A   1      40.438  27.661  28.884  1.00  0.00    +0.000 C 
ATOM     73  N7  UNL A   1      41.671  27.085  29.060  1.00  0.00    +0.000 N 
ATOM     74  C50 UNL A   1      45.281  24.497  28.900  1.00  0.00    +0.000 C 
ATOM     75  C51 UNL A   1      46.187  25.056  29.688  1.00  0.00    +0.000 C 
ATOM     76  C52 UNL A   1      41.152  31.541  31.327  1.00  0.00    +0.000 C 
ATOM     77  C53 UNL A   1      40.145  30.948  30.704  1.00  0.00    +0.000 C 
ATOM    113  H21 UNL A   1      46.048  31.116  33.332  1.00  0.00    +0.000 H 
ATOM    114  H22 UNL A   1      47.635  29.129  32.759  1.00  0.00    +0.000 H 
ATOM    115  H23 UNL A   1      44.043  28.537  30.786  1.00  0.00    +0.000 H 
ATOM    116  H24 UNL A   1      40.287  24.872  27.150  1.00  0.00    +0.000 H 
ATOM    117  H25 UNL A   1      38.768  26.845  27.657  1.00  0.00    +0.000 H 
ATOM    118  H26 UNL A   1      42.376  27.481  29.620  1.00  0.00    +0.000 H 
ATOM    119  H27 UNL A   1      45.345  23.629  28.345  1.00  0.00    +0.000 H 
ATOM    120  H28 UNL A   1      47.114  24.649  29.888  1.00  0.00    +0.000 H 
ATOM    121  H29 UNL A   1      41.106  32.483  31.747  1.00  0.00    +0.000 H 
ATOM    122  H30 UNL A   1      39.171  31.269  30.589  1.00  0.00    +0.000 H 
ENDROOT
BRANCH   21   20
ATOM     78  C54 UNL A   1      37.506  29.074  29.886  1.00  0.00    +0.000 C 
ATOM    111  H19 UNL A   1      36.821  30.617  26.452  1.00  0.00    +0.000 H 
ATOM     79  C55 UNL A   1      36.210  29.444  29.536  1.00  0.00    +0.000 C 
ATOM     17  C12 UNL A   1      35.972  30.061  28.305  1.00  0.00    +0.000 C 
ATOM     18  C13 UNL A   1      37.007  30.199  27.377  1.00  0.00    +0.000 C 
ATOM     19  C14 UNL A   1      38.295  29.768  27.705  1.00  0.00    +0.000 C 
ATOM    112  H20 UNL A   1      39.055  29.847  27.011  1.00  0.00    +0.000 H 
ATOM     20  C15 UNL A   1      38.560  29.228  28.974  1.00  0.00    +0.000 C 
ATOM    123  H31 UNL A   1      37.693  28.683  30.824  1.00  0.00    +0.000 H 
ATOM    124  H32 UNL A   1      35.428  29.263  30.184  1.00  0.00    +0.000 H 
BRANCH   17   15
ATOM     15  C11 UNL A   1      34.622  30.548  27.945  1.00  0.00    +0.000 C 
ATOM     16  O2  UNL A   1      34.183  31.568  28.468  1.00  0.00    +0.000 O 
BRANCH   15   14
ATOM    110  H18 UNL A   1      33.607  30.360  26.230  1.00  0.00    +0.000 H 
ATOM     14  N3  UNL A   1      33.857  29.858  27.039  1.00  0.00    +0.000 N 
BRANCH   14   13
ATOM    109  H17 UNL A   1      32.350  28.490  26.757  1.00  0.00    +0.000 H 
ATOM    108  H16 UNL A   1      33.432  28.142  28.108  1.00  0.00    +0.000 H 
ATOM     13  C10 UNL A   1      33.363  28.490  27.099  1.00  0.00    +0.000 C 
BRANCH   13   12
ATOM    106  H14 UNL A   1      35.155  27.948  26.104  1.00  0.00    +0.000 H 
ATOM    107  H15 UNL A   1      34.140  26.590  26.668  1.00  0.00    +0.000 H 
ATOM     12  C9  UNL A   1      34.165  27.552  26.199  1.00  0.00    +0.000 C 
BRANCH   12   11
ATOM    105  H13 UNL A   1      32.526  27.480  24.891  1.00  0.00    +0.000 H 
ATOM     11  C8  UNL A   1      33.586  27.367  24.794  1.00  0.00    +0.000 C 
ATOM    104  H12 UNL A   1      33.882  26.401  24.440  1.00  0.00    +0.000 H 
BRANCH   11   10
ATOM     10  C7  UNL A   1      34.034  28.409  23.761  1.00  0.00    +0.000 C 
ATOM    102  H10 UNL A   1      33.586  29.345  24.020  1.00  0.00    +0.000 H 
ATOM    103  H11 UNL A   1      35.102  28.424  23.797  1.00  0.00    +0.000 H 
BRANCH   10    9
ATOM      9  C6  UNL A   1      33.658  28.088  22.309  1.00  0.00    +0.000 C 
ATOM    100  H8  UNL A   1      32.996  28.850  21.954  1.00  0.00    +0.000 H 
ATOM    101  H9  UNL A   1      34.569  28.048  21.750  1.00  0.00    +0.000 H 
BRANCH    9    8
ATOM     98  H6  UNL A   1      33.439  26.199  21.343  1.00  0.00    +0.000 H 
ATOM     99  H7  UNL A   1      33.056  26.196  23.063  1.00  0.00    +0.000 H 
ATOM      8  C5  UNL A   1      32.968  26.733  22.142  1.00  0.00    +0.000 C 
BRANCH    8    7
ATOM     97  H5  UNL A   1      31.312  26.749  20.894  1.00  0.00    +0.000 H 
ATOM      7  N2  UNL A   1      31.560  26.885  21.838  1.00  0.00    +0.000 N 
BRANCH    7    5
ATOM      5  C4  UNL A   1      30.529  27.191  22.680  1.00  0.00    +0.000 C 
ATOM      6  O1  UNL A   1      30.284  28.380  22.887  1.00  0.00    +0.000 O 
BRANCH    5    4
ATOM      4  C3  UNL A   1      29.766  26.092  23.405  1.00  0.00    +0.000 C 
ATOM     95  H3  UNL A   1      28.885  26.526  23.829  1.00  0.00    +0.000 H 
ATOM     96  H4  UNL A   1      29.559  25.338  22.675  1.00  0.00    +0.000 H 
BRANCH    4    3
ATOM      2  C1  UNL A   1      31.271  24.199  24.346  1.00  0.00    +0.000 C 
ATOM      3  C2  UNL A   1      30.537  25.406  24.520  1.00  0.00    +0.000 C 
ATOM     80  C56 UNL A   1      30.472  26.011  25.791  1.00  0.00    +0.000 C 
ATOM     81  C57 UNL A   1      31.104  25.442  26.887  1.00  0.00    +0.000 C 
ATOM     82  C58 UNL A   1      31.818  24.261  26.729  1.00  0.00    +0.000 C 
ATOM     83  C59 UNL A   1      31.923  23.627  25.473  1.00  0.00    +0.000 C 
ATOM    125  H33 UNL A   1      29.944  26.889  25.909  1.00  0.00    +0.000 H 
ATOM    126  H34 UNL A   1      31.044  25.893  27.813  1.00  0.00    +0.000 H 
ATOM    127  H35 UNL A   1      32.282  23.837  27.548  1.00  0.00    +0.000 H 
BRANCH    2    1
ATOM      1  N1  UNL A   1      31.392  23.646  23.064  1.00  0.00    +0.000 N 
ATOM     93  H1  UNL A   1      31.875  24.137  22.359  1.00  0.00    +0.000 H 
ATOM     94  H2  UNL A   1      30.996  22.766  22.868  1.00  0.00    +0.000 H 
ENDBRANCH    2    1
BRANCH   83   84
ATOM     84  C60 UNL A   1      32.688  22.332  25.497  1.00  0.00    +0.000 C 
ATOM     85  O3  UNL A   1      32.088  21.258  25.436  1.00  0.00    +0.000 O 
BRANCH   84   86
ATOM    129  H37 UNL A   1      36.806  24.191  26.187  1.00  0.00    +0.000 H 
ATOM    130  H38 UNL A   1      36.720  20.118  25.126  1.00  0.00    +0.000 H 
ATOM    131  H39 UNL A   1      34.297  20.223  24.898  1.00  0.00    +0.000 H 
ATOM     86  C61 UNL A   1      34.159  22.248  25.494  1.00  0.00    +0.000 C 
ATOM     87  C62 UNL A   1      34.880  23.402  25.826  1.00  0.00    +0.000 C 
ATOM     88  C63 UNL A   1      36.271  23.346  25.933  1.00  0.00    +0.000 C 
ATOM     89  C64 UNL A   1      36.931  22.141  25.694  1.00  0.00    +0.000 C 
ATOM     90 Br1  UNL A   1      38.808  22.050  25.903  1.00  0.00    +0.000 Br
ATOM     91  C65 UNL A   1      36.219  21.000  25.317  1.00  0.00    +0.000 C 
ATOM     92  C66 UNL A   1      34.827  21.056  25.199  1.00  0.00    +0.000 C 
ATOM    128  H36 UNL A   1      34.385  24.292  25.990  1.00  0.00    +0.000 H 
ENDBRANCH   84   86
ENDBRANCH   83   84
ENDBRANCH    4    3
ENDBRANCH    5    4
ENDBRANCH    7    5
ENDBRANCH    8    7
ENDBRANCH    9    8
ENDBRANCH   10    9
ENDBRANCH   11   10
ENDBRANCH   12   11
ENDBRANCH   13   12
ENDBRANCH   14   13
ENDBRANCH   15   14
ENDBRANCH   17   15
ENDBRANCH   21   20
BRANCH   25   26
ATOM     33  C24 UNL A   1      44.107  34.665  32.779  1.00  0.00    +0.000 C 
ATOM     34  F4  UNL A   1      44.589  35.751  32.157  1.00  0.00    +0.000 F 
ATOM     35  C25 UNL A   1      44.017  33.455  32.094  1.00  0.00    +0.000 C 
ATOM     36  F5  UNL A   1      44.408  33.409  30.812  1.00  0.00    +0.000 F 
ATOM     26  C20 UNL A   1      43.536  32.301  32.729  1.00  0.00    +0.000 C 
ATOM     27  C21 UNL A   1      43.148  32.404  34.073  1.00  0.00    +0.000 C 
ATOM     28  F1  UNL A   1      42.670  31.332  34.722  1.00  0.00    +0.000 F 
ATOM     29  C22 UNL A   1      43.212  33.622  34.746  1.00  0.00    +0.000 C 
ATOM     30  F2  UNL A   1      42.791  33.707  36.016  1.00  0.00    +0.000 F 
ATOM     31  C23 UNL A   1      43.698  34.749  34.101  1.00  0.00    +0.000 C 
ATOM     32  F3  UNL A   1      43.764  35.918  34.751  1.00  0.00    +0.000 F 
ENDBRANCH   25   26
BRANCH   42   43
ATOM     43  C31 UNL A   1      47.824  26.659  31.402  1.00  0.00    +0.000 C 
ATOM     44  C32 UNL A   1      48.051  25.805  32.490  1.00  0.00    +0.000 C 
ATOM     45  F6  UNL A   1      47.029  25.420  33.270  1.00  0.00    +0.000 F 
ATOM     46  C33 UNL A   1      49.337  25.372  32.804  1.00  0.00    +0.000 C 
ATOM     47  F7  UNL A   1      49.536  24.591  33.875  1.00  0.00    +0.000 F 
ATOM     48  C34 UNL A   1      50.413  25.760  32.019  1.00  0.00    +0.000 C 
ATOM     49  F8  UNL A   1      51.649  25.337  32.320  1.00  0.00    +0.000 F 
ATOM     50  C35 UNL A   1      50.209  26.591  30.929  1.00  0.00    +0.000 C 
ATOM     51  F9  UNL A   1      51.246  26.957  30.162  1.00  0.00    +0.000 F 
ATOM     52  C36 UNL A   1      48.929  27.047  30.628  1.00  0.00    +0.000 C 
ATOM     53  F10 UNL A   1      48.764  27.860  29.574  1.00  0.00    +0.000 F 
ENDBRANCH   42   43
BRANCH   57   58
ATOM     65  C44 UNL A   1      43.064  22.636  25.386  1.00  0.00    +0.000 C 
ATOM     66  F14 UNL A   1      43.388  22.640  24.086  1.00  0.00    +0.000 F 
ATOM     67  C45 UNL A   1      43.160  23.810  26.130  1.00  0.00    +0.000 C 
ATOM     68  F15 UNL A   1      43.589  24.926  25.525  1.00  0.00    +0.000 F 
ATOM     58  C40 UNL A   1      42.804  23.837  27.486  1.00  0.00    +0.000 C 
ATOM     59  C41 UNL A   1      42.355  22.644  28.069  1.00  0.00    +0.000 C 
ATOM     60  F11 UNL A   1      42.022  22.618  29.368  1.00  0.00    +0.000 F 
ATOM     61  C42 UNL A   1      42.283  21.465  27.331  1.00  0.00    +0.000 C 
ATOM     62  F12 UNL A   1      41.890  20.330  27.923  1.00  0.00    +0.000 F 
ATOM     63  C43 UNL A   1      42.633  21.463  25.988  1.00  0.00    +0.000 C 
ATOM     64  F13 UNL A   1      42.560  20.330  25.278  1.00  0.00    +0.000 F 
ENDBRANCH   57   58
TORSDOF 19
ENDMDL
MODEL 9
REMARK VINA RESULT:     -10.4     17.369     23.417
ROOT
ATOM     21  C16 UNL A   1      26.006  36.394  45.462  1.00  0.00    +0.000 C 
ATOM     22  C17 UNL A   1      25.949  37.552  46.418  1.00  0.00    +0.000 C 
ATOM     23  N4  UNL A   1      26.889  38.400  46.749  1.00  0.00    +0.000 N 
ATOM     24  C18 UNL A   1      26.297  39.294  47.632  1.00  0.00    +0.000 C 
ATOM     25  C19 UNL A   1      26.868  40.325  48.299  1.00  0.00    +0.000 C 
ATOM     37  C26 UNL A   1      28.259  40.683  48.203  1.00  0.00    +0.000 C 
ATOM     38  C27 UNL A   1      28.945  41.673  48.885  1.00  0.00    +0.000 C 
ATOM     39  C28 UNL A   1      30.270  41.675  48.436  1.00  0.00    +0.000 C 
ATOM     40  C29 UNL A   1      30.420  40.658  47.507  1.00  0.00    +0.000 C 
ATOM     41  N5  UNL A   1      29.176  40.061  47.370  1.00  0.00    +0.000 N 
ATOM     42  C30 UNL A   1      31.607  40.260  46.795  1.00  0.00    +0.000 C 
ATOM     54  C37 UNL A   1      31.675  39.241  45.904  1.00  0.00    +0.000 C 
ATOM     55  N6  UNL A   1      30.671  38.376  45.490  1.00  0.00    +0.000 N 
ATOM     56  C38 UNL A   1      31.226  37.575  44.613  1.00  0.00    +0.000 C 
ATOM     57  C39 UNL A   1      30.616  36.426  43.857  1.00  0.00    +0.000 C 
ATOM     69  C46 UNL A   1      29.326  36.104  44.076  1.00  0.00    +0.000 C 
ATOM     70  C47 UNL A   1      28.603  35.017  43.425  1.00  0.00    +0.000 C 
ATOM     71  C48 UNL A   1      27.329  35.024  43.849  1.00  0.00    +0.000 C 
ATOM     72  C49 UNL A   1      27.156  36.096  44.830  1.00  0.00    +0.000 C 
ATOM     73  N7  UNL A   1      28.397  36.678  44.908  1.00  0.00    +0.000 N 
ATOM     74  C50 UNL A   1      32.644  37.862  44.350  1.00  0.00    +0.000 C 
ATOM     75  C51 UNL A   1      32.876  38.860  45.190  1.00  0.00    +0.000 C 
ATOM     76  C52 UNL A   1      24.905  38.914  47.749  1.00  0.00    +0.000 C 
ATOM     77  C53 UNL A   1      24.654  37.805  47.070  1.00  0.00    +0.000 C 
ATOM    113  H21 UNL A   1      28.548  42.301  49.601  1.00  0.00    +0.000 H 
ATOM    114  H22 UNL A   1      31.011  42.323  48.745  1.00  0.00    +0.000 H 
ATOM    115  H23 UNL A   1      28.974  39.307  46.771  1.00  0.00    +0.000 H 
ATOM    116  H24 UNL A   1      29.005  34.350  42.747  1.00  0.00    +0.000 H 
ATOM    117  H25 UNL A   1      26.589  34.376  43.534  1.00  0.00    +0.000 H 
ATOM    118  H26 UNL A   1      28.601  37.434  45.503  1.00  0.00    +0.000 H 
ATOM    119  H27 UNL A   1      33.288  37.406  43.685  1.00  0.00    +0.000 H 
ATOM    120  H28 UNL A   1      33.796  39.309  45.319  1.00  0.00    +0.000 H 
ATOM    121  H29 UNL A   1      24.201  39.440  48.290  1.00  0.00    +0.000 H 
ATOM    122  H30 UNL A   1      23.779  37.260  47.014  1.00  0.00    +0.000 H 
ENDROOT
BRANCH   21   20
ATOM     78  C54 UNL A   1      24.505  34.443  45.870  1.00  0.00    +0.000 C 
ATOM    111  H19 UNL A   1      22.044  35.645  43.197  1.00  0.00    +0.000 H 
ATOM     79  C55 UNL A   1      23.364  33.695  45.587  1.00  0.00    +0.000 C 
ATOM     17  C12 UNL A   1      22.438  34.165  44.653  1.00  0.00    +0.000 C 
ATOM     18  C13 UNL A   1      22.709  35.321  43.917  1.00  0.00    +0.000 C 
ATOM     19  C14 UNL A   1      23.885  36.036  44.156  1.00  0.00    +0.000 C 
ATOM    112  H20 UNL A   1      24.098  36.876  43.595  1.00  0.00    +0.000 H 
ATOM     20  C15 UNL A   1      24.778  35.618  45.155  1.00  0.00    +0.000 C 
ATOM    123  H31 UNL A   1      25.152  34.131  46.611  1.00  0.00    +0.000 H 
ATOM    124  H32 UNL A   1      23.205  32.795  46.067  1.00  0.00    +0.000 H 
BRANCH   17   15
ATOM     15  C11 UNL A   1      21.175  33.438  44.399  1.00  0.00    +0.000 C 
ATOM     16  O2  UNL A   1      21.194  32.221  44.241  1.00  0.00    +0.000 O 
BRANCH   15   14
ATOM    110  H18 UNL A   1      19.415  33.894  43.561  1.00  0.00    +0.000 H 
ATOM     14  N3  UNL A   1      19.986  34.121  44.329  1.00  0.00    +0.000 N 
BRANCH   14   13
ATOM    109  H17 UNL A   1      19.380  36.051  44.687  1.00  0.00    +0.000 H 
ATOM    108  H16 UNL A   1      20.097  35.224  46.073  1.00  0.00    +0.000 H 
ATOM     13  C10 UNL A   1      19.447  35.131  45.228  1.00  0.00    +0.000 C 
BRANCH   13   12
ATOM    106  H14 UNL A   1      17.959  33.703  45.718  1.00  0.00    +0.000 H 
ATOM    107  H15 UNL A   1      17.952  35.197  46.697  1.00  0.00    +0.000 H 
ATOM     12  C9  UNL A   1      18.048  34.770  45.720  1.00  0.00    +0.000 C 
BRANCH   12   11
ATOM    105  H13 UNL A   1      17.370  35.899  44.087  1.00  0.00    +0.000 H 
ATOM     11  C8  UNL A   1      16.907  35.347  44.879  1.00  0.00    +0.000 C 
ATOM    104  H12 UNL A   1      16.297  35.951  45.520  1.00  0.00    +0.000 H 
BRANCH   11   10
ATOM     10  C7  UNL A   1      16.003  34.309  44.204  1.00  0.00    +0.000 C 
ATOM    102  H10 UNL A   1      15.682  33.613  44.951  1.00  0.00    +0.000 H 
ATOM    103  H11 UNL A   1      15.199  34.856  43.759  1.00  0.00    +0.000 H 
BRANCH   10    9
ATOM      9  C6  UNL A   1      16.661  33.515  43.067  1.00  0.00    +0.000 C 
ATOM    100  H8  UNL A   1      17.126  34.206  42.397  1.00  0.00    +0.000 H 
ATOM    101  H9  UNL A   1      17.367  32.849  43.517  1.00  0.00    +0.000 H 
BRANCH    9    8
ATOM     98  H6  UNL A   1      14.790  33.227  42.085  1.00  0.00    +0.000 H 
ATOM     99  H7  UNL A   1      16.146  32.371  41.353  1.00  0.00    +0.000 H 
ATOM      8  C5  UNL A   1      15.676  32.657  42.271  1.00  0.00    +0.000 C 
BRANCH    8    7
ATOM     97  H5  UNL A   1      14.372  31.182  42.920  1.00  0.00    +0.000 H 
ATOM      7  N2  UNL A   1      15.316  31.452  42.990  1.00  0.00    +0.000 N 
BRANCH    7    5
ATOM      5  C4  UNL A   1      16.106  30.640  43.752  1.00  0.00    +0.000 C 
ATOM      6  O1  UNL A   1      16.103  30.807  44.973  1.00  0.00    +0.000 O 
BRANCH    5    4
ATOM      4  C3  UNL A   1      17.027  29.619  43.101  1.00  0.00    +0.000 C 
ATOM     95  H3  UNL A   1      17.107  29.860  42.062  1.00  0.00    +0.000 H 
ATOM     96  H4  UNL A   1      17.958  29.678  43.624  1.00  0.00    +0.000 H 
BRANCH    4    3
ATOM      2  C1  UNL A   1      15.610  27.581  42.344  1.00  0.00    +0.000 C 
ATOM      3  C2  UNL A   1      16.564  28.176  43.216  1.00  0.00    +0.000 C 
ATOM     80  C56 UNL A   1      17.107  27.426  44.278  1.00  0.00    +0.000 C 
ATOM     81  C57 UNL A   1      16.720  26.113  44.499  1.00  0.00    +0.000 C 
ATOM     82  C58 UNL A   1      15.785  25.524  43.656  1.00  0.00    +0.000 C 
ATOM     83  C59 UNL A   1      15.224  26.230  42.572  1.00  0.00    +0.000 C 
ATOM    125  H33 UNL A   1      17.804  27.862  44.903  1.00  0.00    +0.000 H 
ATOM    126  H34 UNL A   1      17.122  25.577  45.283  1.00  0.00    +0.000 H 
ATOM    127  H35 UNL A   1      15.494  24.549  43.827  1.00  0.00    +0.000 H 
BRANCH    2    1
ATOM      1  N1  UNL A   1      15.131  28.309  41.247  1.00  0.00    +0.000 N 
ATOM     93  H1  UNL A   1      14.866  27.840  40.422  1.00  0.00    +0.000 H 
ATOM     94  H2  UNL A   1      15.059  29.290  41.300  1.00  0.00    +0.000 H 
ENDBRANCH    2    1
BRANCH   83   84
ATOM     84  C60 UNL A   1      14.192  25.457  41.799  1.00  0.00    +0.000 C 
ATOM     85  O3  UNL A   1      13.042  25.359  42.229  1.00  0.00    +0.000 O 
BRANCH   84   86
ATOM    129  H37 UNL A   1      14.917  25.861  37.304  1.00  0.00    +0.000 H 
ATOM    130  H38 UNL A   1      15.092  21.973  38.910  1.00  0.00    +0.000 H 
ATOM    131  H39 UNL A   1      14.483  22.844  41.101  1.00  0.00    +0.000 H 
ATOM     86  C61 UNL A   1      14.434  24.863  40.472  1.00  0.00    +0.000 C 
ATOM     87  C62 UNL A   1      14.518  25.730  39.374  1.00  0.00    +0.000 C 
ATOM     88  C63 UNL A   1      14.844  25.226  38.114  1.00  0.00    +0.000 C 
ATOM     89  C64 UNL A   1      15.069  23.858  37.958  1.00  0.00    +0.000 C 
ATOM     90 Br1  UNL A   1      15.574  23.185  36.265  1.00  0.00    +0.000 Br
ATOM     91  C65 UNL A   1      14.940  22.986  39.041  1.00  0.00    +0.000 C 
ATOM     92  C66 UNL A   1      14.604  23.486  40.302  1.00  0.00    +0.000 C 
ATOM    128  H36 UNL A   1      14.339  26.738  39.497  1.00  0.00    +0.000 H 
ENDBRANCH   84   86
ENDBRANCH   83   84
ENDBRANCH    4    3
ENDBRANCH    5    4
ENDBRANCH    7    5
ENDBRANCH    8    7
ENDBRANCH    9    8
ENDBRANCH   10    9
ENDBRANCH   11   10
ENDBRANCH   12   11
ENDBRANCH   13   12
ENDBRANCH   14   13
ENDBRANCH   15   14
ENDBRANCH   17   15
ENDBRANCH   21   20
BRANCH   25   26
ATOM     33  C24 UNL A   1      24.949  41.496  51.371  1.00  0.00    +0.000 C 
ATOM     34  F4  UNL A   1      24.762  41.106  52.640  1.00  0.00    +0.000 F 
ATOM     35  C25 UNL A   1      25.791  40.765  50.537  1.00  0.00    +0.000 C 
ATOM     36  F5  UNL A   1      26.412  39.684  51.034  1.00  0.00    +0.000 F 
ATOM     26  C20 UNL A   1      25.985  41.140  49.200  1.00  0.00    +0.000 C 
ATOM     27  C21 UNL A   1      25.306  42.274  48.731  1.00  0.00    +0.000 C 
ATOM     28  F1  UNL A   1      25.467  42.682  47.463  1.00  0.00    +0.000 F 
ATOM     29  C22 UNL A   1      24.487  43.020  49.575  1.00  0.00    +0.000 C 
ATOM     30  F2  UNL A   1      23.885  44.126  49.118  1.00  0.00    +0.000 F 
ATOM     31  C23 UNL A   1      24.304  42.626  50.892  1.00  0.00    +0.000 C 
ATOM     32  F3  UNL A   1      23.511  43.341  51.702  1.00  0.00    +0.000 F 
ENDBRANCH   25   26
BRANCH   42   43
ATOM     43  C31 UNL A   1      32.873  41.015  47.072  1.00  0.00    +0.000 C 
ATOM     44  C32 UNL A   1      33.834  40.532  47.971  1.00  0.00    +0.000 C 
ATOM     45  F6  UNL A   1      33.613  39.396  48.650  1.00  0.00    +0.000 F 
ATOM     46  C33 UNL A   1      35.013  41.236  48.204  1.00  0.00    +0.000 C 
ATOM     47  F7  UNL A   1      35.899  40.779  49.100  1.00  0.00    +0.000 F 
ATOM     48  C34 UNL A   1      35.265  42.418  47.522  1.00  0.00    +0.000 C 
ATOM     49  F8  UNL A   1      36.402  43.091  47.743  1.00  0.00    +0.000 F 
ATOM     50  C35 UNL A   1      34.334  42.904  46.616  1.00  0.00    +0.000 C 
ATOM     51  F9  UNL A   1      34.582  44.039  45.947  1.00  0.00    +0.000 F 
ATOM     52  C36 UNL A   1      33.144  42.217  46.400  1.00  0.00    +0.000 C 
ATOM     53  F10 UNL A   1      32.257  42.718  45.527  1.00  0.00    +0.000 F 
ENDBRANCH   42   43
BRANCH   57   58
ATOM     65  C44 UNL A   1      32.929  33.774  42.424  1.00  0.00    +0.000 C 
ATOM     66  F14 UNL A   1      33.642  32.725  42.855  1.00  0.00    +0.000 F 
ATOM     67  C45 UNL A   1      32.163  34.511  43.325  1.00  0.00    +0.000 C 
ATOM     68  F15 UNL A   1      32.150  34.145  44.614  1.00  0.00    +0.000 F 
ATOM     58  C40 UNL A   1      31.427  35.627  42.903  1.00  0.00    +0.000 C 
ATOM     59  C41 UNL A   1      31.480  35.971  41.545  1.00  0.00    +0.000 C 
ATOM     60  F11 UNL A   1      30.777  37.019  41.092  1.00  0.00    +0.000 F 
ATOM     61  C42 UNL A   1      32.225  35.218  40.640  1.00  0.00    +0.000 C 
ATOM     62  F12 UNL A   1      32.226  35.544  39.342  1.00  0.00    +0.000 F 
ATOM     63  C43 UNL A   1      32.952  34.122  41.082  1.00  0.00    +0.000 C 
ATOM     64  F13 UNL A   1      33.672  33.401  40.212  1.00  0.00    +0.000 F 
ENDBRANCH   57   58
TORSDOF 19
ENDMDL
MODEL 10
REMARK VINA RESULT:     -10.4     17.642     23.583
ROOT
ATOM     21  C16 UNL A   1      25.902  35.264  45.556  1.00  0.00    +0.000 C 
ATOM     22  C17 UNL A   1      25.667  36.413  46.496  1.00  0.00    +0.000 C 
ATOM     23  N4  UNL A   1      26.460  37.408  46.802  1.00  0.00    +0.000 N 
ATOM     24  C18 UNL A   1      25.740  38.209  47.679  1.00  0.00    +0.000 C 
ATOM     25  C19 UNL A   1      26.142  39.330  48.324  1.00  0.00    +0.000 C 
ATOM     37  C26 UNL A   1      27.454  39.908  48.204  1.00  0.00    +0.000 C 
ATOM     38  C27 UNL A   1      27.977  41.008  48.862  1.00  0.00    +0.000 C 
ATOM     39  C28 UNL A   1      29.280  41.218  48.395  1.00  0.00    +0.000 C 
ATOM     40  C29 UNL A   1      29.583  40.224  47.480  1.00  0.00    +0.000 C 
ATOM     41  N5  UNL A   1      28.452  39.430  47.368  1.00  0.00    +0.000 N 
ATOM     42  C30 UNL A   1      30.811  40.013  46.758  1.00  0.00    +0.000 C 
ATOM     54  C37 UNL A   1      31.035  39.004  45.881  1.00  0.00    +0.000 C 
ATOM     55  N6  UNL A   1      30.182  37.980  45.493  1.00  0.00    +0.000 N 
ATOM     56  C38 UNL A   1      30.850  37.266  44.620  1.00  0.00    +0.000 C 
ATOM     57  C39 UNL A   1      30.427  36.020  43.890  1.00  0.00    +0.000 C 
ATOM     69  C46 UNL A   1      29.210  35.497  44.130  1.00  0.00    +0.000 C 
ATOM     70  C47 UNL A   1      28.667  34.295  43.505  1.00  0.00    +0.000 C 
ATOM     71  C48 UNL A   1      27.413  34.101  43.946  1.00  0.00    +0.000 C 
ATOM     72  C49 UNL A   1      27.079  35.148  44.914  1.00  0.00    +0.000 C 
ATOM     73  N7  UNL A   1      28.209  35.924  44.966  1.00  0.00    +0.000 N 
ATOM     74  C50 UNL A   1      32.199  37.775  44.334  1.00  0.00    +0.000 C 
ATOM     75  C51 UNL A   1      32.274  38.812  45.156  1.00  0.00    +0.000 C 
ATOM     76  C52 UNL A   1      24.429  37.609  47.821  1.00  0.00    +0.000 C 
ATOM     77  C53 UNL A   1      24.356  36.463  47.162  1.00  0.00    +0.000 C 
ATOM    113  H21 UNL A   1      27.492  41.575  49.574  1.00  0.00    +0.000 H 
ATOM    114  H22 UNL A   1      29.908  41.983  48.685  1.00  0.00    +0.000 H 
ATOM    115  H23 UNL A   1      28.370  38.643  46.783  1.00  0.00    +0.000 H 
ATOM    116  H24 UNL A   1      29.165  33.691  42.832  1.00  0.00    +0.000 H 
ATOM    117  H25 UNL A   1      26.786  33.337  43.651  1.00  0.00    +0.000 H 
ATOM    118  H26 UNL A   1      28.293  36.714  45.548  1.00  0.00    +0.000 H 
ATOM    119  H27 UNL A   1      32.902  37.419  43.667  1.00  0.00    +0.000 H 
ATOM    120  H28 UNL A   1      33.111  39.407  45.267  1.00  0.00    +0.000 H 
ATOM    121  H29 UNL A   1      23.655  38.022  48.364  1.00  0.00    +0.000 H 
ATOM    122  H30 UNL A   1      23.581  35.782  47.126  1.00  0.00    +0.000 H 
ENDROOT
BRANCH   21   20
ATOM     78  C54 UNL A   1      24.785  33.070  45.962  1.00  0.00    +0.000 C 
ATOM    111  H19 UNL A   1      22.022  33.894  43.446  1.00  0.00    +0.000 H 
ATOM     79  C55 UNL A   1      23.780  32.141  45.704  1.00  0.00    +0.000 C 
ATOM     17  C12 UNL A   1      22.740  32.467  44.829  1.00  0.00    +0.000 C 
ATOM     18  C13 UNL A   1      22.769  33.673  44.123  1.00  0.00    +0.000 C 
ATOM     19  C14 UNL A   1      23.812  34.576  44.335  1.00  0.00    +0.000 C 
ATOM    112  H20 UNL A   1      23.848  35.455  43.795  1.00  0.00    +0.000 H 
ATOM     20  C15 UNL A   1      24.814  34.294  45.278  1.00  0.00    +0.000 C 
ATOM    123  H31 UNL A   1      25.514  32.856  46.661  1.00  0.00    +0.000 H 
ATOM    124  H32 UNL A   1      23.803  31.215  46.157  1.00  0.00    +0.000 H 
BRANCH   17   15
ATOM     15  C11 UNL A   1      21.611  31.537  44.606  1.00  0.00    +0.000 C 
ATOM     16  O2  UNL A   1      21.584  30.460  45.195  1.00  0.00    +0.000 O 
BRANCH   15   14
ATOM    110  H18 UNL A   1      20.893  32.116  42.830  1.00  0.00    +0.000 H 
ATOM     14  N3  UNL A   1      20.602  31.870  43.737  1.00  0.00    +0.000 N 
BRANCH   14   13
ATOM    109  H17 UNL A   1      18.988  31.721  45.000  1.00  0.00    +0.000 H 
ATOM    108  H16 UNL A   1      18.699  31.166  43.349  1.00  0.00    +0.000 H 
ATOM     13  C10 UNL A   1      19.165  31.909  43.962  1.00  0.00    +0.000 C 
BRANCH   13   12
ATOM    106  H14 UNL A   1      18.984  33.994  44.295  1.00  0.00    +0.000 H 
ATOM    107  H15 UNL A   1      18.817  33.464  42.598  1.00  0.00    +0.000 H 
ATOM     12  C9  UNL A   1      18.570  33.273  43.622  1.00  0.00    +0.000 C 
BRANCH   12   11
ATOM    105  H13 UNL A   1      16.829  34.048  44.500  1.00  0.00    +0.000 H 
ATOM     11  C8  UNL A   1      17.044  33.346  43.721  1.00  0.00    +0.000 C 
ATOM    104  H12 UNL A   1      16.679  32.360  43.923  1.00  0.00    +0.000 H 
BRANCH   11   10
ATOM     10  C7  UNL A   1      16.332  33.869  42.467  1.00  0.00    +0.000 C 
ATOM    102  H10 UNL A   1      15.555  34.534  42.781  1.00  0.00    +0.000 H 
ATOM    103  H11 UNL A   1      17.085  34.343  41.873  1.00  0.00    +0.000 H 
BRANCH   10    9
ATOM      9  C6  UNL A   1      15.702  32.788  41.579  1.00  0.00    +0.000 C 
ATOM    100  H8  UNL A   1      14.676  32.675  41.859  1.00  0.00    +0.000 H 
ATOM    101  H9  UNL A   1      15.813  33.111  40.565  1.00  0.00    +0.000 H 
BRANCH    9    8
ATOM     98  H6  UNL A   1      16.491  31.004  40.716  1.00  0.00    +0.000 H 
ATOM     99  H7  UNL A   1      17.345  31.570  42.150  1.00  0.00    +0.000 H 
ATOM      8  C5  UNL A   1      16.388  31.426  41.694  1.00  0.00    +0.000 C 
BRANCH    8    7
ATOM     97  H5  UNL A   1      14.649  30.645  42.509  1.00  0.00    +0.000 H 
ATOM      7  N2  UNL A   1      15.625  30.513  42.520  1.00  0.00    +0.000 N 
BRANCH    7    5
ATOM      5  C4  UNL A   1      16.073  29.495  43.312  1.00  0.00    +0.000 C 
ATOM      6  O1  UNL A   1      16.047  29.656  44.534  1.00  0.00    +0.000 O 
BRANCH    5    4
ATOM      4  C3  UNL A   1      16.666  28.236  42.698  1.00  0.00    +0.000 C 
ATOM     95  H3  UNL A   1      17.475  28.527  42.061  1.00  0.00    +0.000 H 
ATOM     96  H4  UNL A   1      16.972  27.618  43.516  1.00  0.00    +0.000 H 
BRANCH    4    3
ATOM      2  C1  UNL A   1      14.792  26.460  42.439  1.00  0.00    +0.000 C 
ATOM      3  C2  UNL A   1      15.694  27.406  41.876  1.00  0.00    +0.000 C 
ATOM     80  C56 UNL A   1      15.742  27.585  40.480  1.00  0.00    +0.000 C 
ATOM     81  C57 UNL A   1      14.927  26.845  39.635  1.00  0.00    +0.000 C 
ATOM     82  C58 UNL A   1      14.046  25.916  40.175  1.00  0.00    +0.000 C 
ATOM     83  C59 UNL A   1      13.954  25.712  41.566  1.00  0.00    +0.000 C 
ATOM    125  H33 UNL A   1      16.394  28.277  40.079  1.00  0.00    +0.000 H 
ATOM    126  H34 UNL A   1      14.976  26.984  38.614  1.00  0.00    +0.000 H 
ATOM    127  H35 UNL A   1      13.446  25.363  39.543  1.00  0.00    +0.000 H 
BRANCH    2    1
ATOM      1  N1  UNL A   1      14.699  26.342  43.833  1.00  0.00    +0.000 N 
ATOM     93  H1  UNL A   1      15.469  26.014  44.352  1.00  0.00    +0.000 H 
ATOM     94  H2  UNL A   1      13.863  26.587  44.293  1.00  0.00    +0.000 H 
ENDBRANCH    2    1
BRANCH   83   84
ATOM     84  C60 UNL A   1      12.988  24.632  41.970  1.00  0.00    +0.000 C 
ATOM     85  O3  UNL A   1      11.987  24.912  42.631  1.00  0.00    +0.000 O 
BRANCH   84   86
ATOM    129  H37 UNL A   1      13.729  20.216  42.883  1.00  0.00    +0.000 H 
ATOM    130  H38 UNL A   1      12.639  21.175  38.932  1.00  0.00    +0.000 H 
ATOM    131  H39 UNL A   1      12.637  23.543  39.502  1.00  0.00    +0.000 H 
ATOM     86  C61 UNL A   1      13.101  23.226  41.541  1.00  0.00    +0.000 C 
ATOM     87  C62 UNL A   1      13.455  22.275  42.507  1.00  0.00    +0.000 C 
ATOM     88  C63 UNL A   1      13.479  20.921  42.173  1.00  0.00    +0.000 C 
ATOM     89  C64 UNL A   1      13.162  20.528  40.872  1.00  0.00    +0.000 C 
ATOM     90 Br1  UNL A   1      13.131  18.688  40.437  1.00  0.00    +0.000 Br
ATOM     91  C65 UNL A   1      12.855  21.477  39.896  1.00  0.00    +0.000 C 
ATOM     92  C66 UNL A   1      12.840  22.835  40.225  1.00  0.00    +0.000 C 
ATOM    128  H36 UNL A   1      13.699  22.576  43.464  1.00  0.00    +0.000 H 
ENDBRANCH   84   86
ENDBRANCH   83   84
ENDBRANCH    4    3
ENDBRANCH    5    4
ENDBRANCH    7    5
ENDBRANCH    8    7
ENDBRANCH    9    8
ENDBRANCH   10    9
ENDBRANCH   11   10
ENDBRANCH   12   11
ENDBRANCH   13   12
ENDBRANCH   14   13
ENDBRANCH   15   14
ENDBRANCH   17   15
ENDBRANCH   21   20
BRANCH   25   26
ATOM     33  C24 UNL A   1      24.105  40.236  51.410  1.00  0.00    +0.000 C 
ATOM     34  F4  UNL A   1      24.011  39.856  52.692  1.00  0.00    +0.000 F 
ATOM     35  C25 UNL A   1      25.046  39.639  50.575  1.00  0.00    +0.000 C 
ATOM     36  F5  UNL A   1      25.853  38.696  51.083  1.00  0.00    +0.000 F 
ATOM     26  C20 UNL A   1      25.148  40.005  49.224  1.00  0.00    +0.000 C 
ATOM     27  C21 UNL A   1      24.274  40.991  48.744  1.00  0.00    +0.000 C 
ATOM     28  F1  UNL A   1      24.339  41.385  47.463  1.00  0.00    +0.000 F 
ATOM     29  C22 UNL A   1      23.354  41.607  49.588  1.00  0.00    +0.000 C 
ATOM     30  F2  UNL A   1      22.562  42.581  49.118  1.00  0.00    +0.000 F 
ATOM     31  C23 UNL A   1      23.265  41.225  50.918  1.00  0.00    +0.000 C 
ATOM     32  F3  UNL A   1      22.376  41.814  51.728  1.00  0.00    +0.000 F 
ENDBRANCH   25   26
BRANCH   42   43
ATOM     43  C31 UNL A   1      31.940  40.968  47.007  1.00  0.00    +0.000 C 
ATOM     44  C32 UNL A   1      33.047  40.610  47.790  1.00  0.00    +0.000 C 
ATOM     45  F6  UNL A   1      33.093  39.407  48.383  1.00  0.00    +0.000 F 
ATOM     46  C33 UNL A   1      34.096  41.503  47.997  1.00  0.00    +0.000 C 
ATOM     47  F7  UNL A   1      35.123  41.156  48.784  1.00  0.00    +0.000 F 
ATOM     48  C34 UNL A   1      34.071  42.756  47.402  1.00  0.00    +0.000 C 
ATOM     49  F8  UNL A   1      35.084  43.611  47.598  1.00  0.00    +0.000 F 
ATOM     50  C35 UNL A   1      32.993  43.124  46.611  1.00  0.00    +0.000 C 
ATOM     51  F9  UNL A   1      32.974  44.330  46.026  1.00  0.00    +0.000 F 
ATOM     52  C36 UNL A   1      31.931  42.244  46.423  1.00  0.00    +0.000 C 
ATOM     53  F10 UNL A   1      30.897  42.633  45.662  1.00  0.00    +0.000 F 
ENDBRANCH   42   43
BRANCH   57   58
ATOM     65  C44 UNL A   1      32.263  35.085  40.697  1.00  0.00    +0.000 C 
ATOM     66  F14 UNL A   1      32.282  35.447  39.408  1.00  0.00    +0.000 F 
ATOM     67  C45 UNL A   1      31.403  35.726  41.587  1.00  0.00    +0.000 C 
ATOM     68  F15 UNL A   1      30.613  36.707  41.130  1.00  0.00    +0.000 F 
ATOM     58  C40 UNL A   1      31.347  35.349  42.936  1.00  0.00    +0.000 C 
ATOM     59  C41 UNL A   1      32.190  34.312  43.361  1.00  0.00    +0.000 C 
ATOM     60  F11 UNL A   1      32.185  33.931  44.647  1.00  0.00    +0.000 F 
ATOM     61  C42 UNL A   1      33.067  33.689  42.477  1.00  0.00    +0.000 C 
ATOM     62  F12 UNL A   1      33.891  32.730  42.918  1.00  0.00    +0.000 F 
ATOM     63  C43 UNL A   1      33.100  34.073  41.144  1.00  0.00    +0.000 C 
ATOM     64  F13 UNL A   1      33.941  33.470  40.293  1.00  0.00    +0.000 F 
ENDBRANCH   57   58
TORSDOF 19
ENDMDL
