MODEL 1
REMARK VINA RESULT:     -11.2      0.000      0.000
ROOT
ATOM     19  C15 UNL A   1      38.018  30.326  29.720  1.00  0.00    +0.000 C 
ATOM     20  C16 UNL A   1      39.012  29.350  29.160  1.00  0.00    +0.000 C 
ATOM     21  N3  UNL A   1      40.082  28.848  29.724  1.00  0.00    +0.000 N 
ATOM     22  C17 UNL A   1      40.620  27.966  28.797  1.00  0.00    +0.000 C 
ATOM     23  C18 UNL A   1      41.751  27.229  28.896  1.00  0.00    +0.000 C 
ATOM     35  C25 UNL A   1      42.645  27.257  30.024  1.00  0.00    +0.000 C 
ATOM     36  C26 UNL A   1      43.874  26.635  30.165  1.00  0.00    +0.000 C 
ATOM     37  C27 UNL A   1      44.353  26.899  31.451  1.00  0.00    +0.000 C 
ATOM     38  C28 UNL A   1      43.441  27.715  32.099  1.00  0.00    +0.000 C 
ATOM     39  N4  UNL A   1      42.403  27.936  31.208  1.00  0.00    +0.000 N 
ATOM     40  C29 UNL A   1      43.503  28.248  33.434  1.00  0.00    +0.000 C 
ATOM     52  C36 UNL A   1      42.602  29.109  33.967  1.00  0.00    +0.000 C 
ATOM     53  N5  UNL A   1      41.460  29.643  33.389  1.00  0.00    +0.000 N 
ATOM     54  C37 UNL A   1      40.913  30.401  34.306  1.00  0.00    +0.000 C 
ATOM     55  C38 UNL A   1      39.662  31.233  34.227  1.00  0.00    +0.000 C 
ATOM     67  C45 UNL A   1      38.964  31.268  33.076  1.00  0.00    +0.000 C 
ATOM     68  C46 UNL A   1      37.731  32.016  32.861  1.00  0.00    +0.000 C 
ATOM     69  C47 UNL A   1      37.265  31.748  31.631  1.00  0.00    +0.000 C 
ATOM     70  C48 UNL A   1      38.190  30.834  30.956  1.00  0.00    +0.000 C 
ATOM     71  N6  UNL A   1      39.188  30.634  31.878  1.00  0.00    +0.000 N 
ATOM     72  C49 UNL A   1      41.643  30.419  35.582  1.00  0.00    +0.000 C 
ATOM     73  C50 UNL A   1      42.682  29.643  35.310  1.00  0.00    +0.000 C 
ATOM     74  C51 UNL A   1      39.744  27.975  27.645  1.00  0.00    +0.000 C 
ATOM     75  C52 UNL A   1      38.760  28.852  27.799  1.00  0.00    +0.000 C 
ATOM    112  H21 UNL A   1      44.355  26.074  29.443  1.00  0.00    +0.000 H 
ATOM    113  H22 UNL A   1      45.236  26.544  31.852  1.00  0.00    +0.000 H 
ATOM    114  H23 UNL A   1      41.611  28.493  31.388  1.00  0.00    +0.000 H 
ATOM    115  H24 UNL A   1      37.287  32.650  33.544  1.00  0.00    +0.000 H 
ATOM    116  H25 UNL A   1      36.394  32.124  31.226  1.00  0.00    +0.000 H 
ATOM    117  H26 UNL A   1      39.988  30.089  31.697  1.00  0.00    +0.000 H 
ATOM    118  H27 UNL A   1      41.408  30.908  36.460  1.00  0.00    +0.000 H 
ATOM    119  H28 UNL A   1      43.450  29.445  35.970  1.00  0.00    +0.000 H 
ATOM    120  H29 UNL A   1      39.868  27.377  26.814  1.00  0.00    +0.000 H 
ATOM    121  H30 UNL A   1      38.014  29.116  27.137  1.00  0.00    +0.000 H 
ENDROOT
BRANCH   19   18
ATOM     76  C53 UNL A   1      35.793  29.693  28.782  1.00  0.00    +0.000 C 
ATOM     77  C54 UNL A   1      34.590  30.019  28.157  1.00  0.00    +0.000 C 
ATOM    110  H19 UNL A   1      35.179  33.268  27.561  1.00  0.00    +0.000 H 
ATOM     15  C11 UNL A   1      34.339  31.342  27.782  1.00  0.00    +0.000 C 
ATOM     16  C12 UNL A   1      35.343  32.308  27.899  1.00  0.00    +0.000 C 
ATOM     17  C13 UNL A   1      36.569  31.967  28.475  1.00  0.00    +0.000 C 
ATOM    111  H20 UNL A   1      37.320  32.673  28.541  1.00  0.00    +0.000 H 
ATOM     18  C14 UNL A   1      36.786  30.668  28.962  1.00  0.00    +0.000 C 
ATOM    122  H31 UNL A   1      35.954  28.728  29.112  1.00  0.00    +0.000 H 
ATOM    123  H32 UNL A   1      33.887  29.286  27.972  1.00  0.00    +0.000 H 
BRANCH   15   13
ATOM     13  C10 UNL A   1      33.015  31.749  27.263  1.00  0.00    +0.000 C 
ATOM     14  O2  UNL A   1      32.695  32.934  27.276  1.00  0.00    +0.000 O 
BRANCH   13   12
ATOM     12  N2  UNL A   1      32.141  30.800  26.792  1.00  0.00    +0.000 N 
ATOM    109  H18 UNL A   1      31.387  30.588  27.389  1.00  0.00    +0.000 H 
BRANCH   12   11
ATOM     11  C9  UNL A   1      32.169  30.064  25.539  1.00  0.00    +0.000 C 
ATOM    108  H17 UNL A   1      32.956  30.471  24.940  1.00  0.00    +0.000 H 
ATOM    107  H16 UNL A   1      31.218  30.165  25.059  1.00  0.00    +0.000 H 
BRANCH   11   10
ATOM    105  H14 UNL A   1      32.439  28.376  26.791  1.00  0.00    +0.000 H 
ATOM     10  C8  UNL A   1      32.460  28.579  25.741  1.00  0.00    +0.000 C 
ATOM    106  H15 UNL A   1      31.710  28.050  25.191  1.00  0.00    +0.000 H 
BRANCH   10    9
ATOM      9  C7  UNL A   1      33.808  28.104  25.193  1.00  0.00    +0.000 C 
ATOM    103  H12 UNL A   1      34.123  28.798  24.443  1.00  0.00    +0.000 H 
ATOM    104  H13 UNL A   1      34.468  28.054  26.035  1.00  0.00    +0.000 H 
BRANCH    9    8
ATOM    101  H10 UNL A   1      32.839  26.533  24.150  1.00  0.00    +0.000 H 
ATOM    102  H11 UNL A   1      34.600  26.699  23.856  1.00  0.00    +0.000 H 
ATOM      8  C6  UNL A   1      33.807  26.703  24.573  1.00  0.00    +0.000 C 
BRANCH    8    7
ATOM     99  H8  UNL A   1      34.489  25.967  26.450  1.00  0.00    +0.000 H 
ATOM    100  H9  UNL A   1      33.188  25.019  25.676  1.00  0.00    +0.000 H 
ATOM      7  C5  UNL A   1      34.108  25.549  25.541  1.00  0.00    +0.000 C 
BRANCH    7    6
ATOM     97  H6  UNL A   1      35.844  25.034  24.411  1.00  0.00    +0.000 H 
ATOM     98  H7  UNL A   1      35.601  24.069  25.861  1.00  0.00    +0.000 H 
ATOM      6  C4  UNL A   1      35.124  24.530  25.022  1.00  0.00    +0.000 C 
BRANCH    6    5
ATOM      5  N1  UNL A   1      34.475  23.502  24.237  1.00  0.00    +0.000 N 
ATOM     96  H5  UNL A   1      34.749  23.471  23.293  1.00  0.00    +0.000 H 
BRANCH    5    3
ATOM      3  C3  UNL A   1      33.547  22.568  24.592  1.00  0.00    +0.000 C 
ATOM      4  O1  UNL A   1      33.883  21.779  25.479  1.00  0.00    +0.000 O 
BRANCH    3    2
ATOM      2  C2  UNL A   1      32.183  22.509  23.875  1.00  0.00    +0.000 C 
ATOM     95  H4  UNL A   1      31.641  21.729  24.366  1.00  0.00    +0.000 H 
BRANCH    2    1
ATOM      1  C1  UNL A   1      32.305  22.144  22.391  1.00  0.00    +0.000 C 
ATOM     92  H1  UNL A   1      32.839  21.222  22.293  1.00  0.00    +0.000 H 
ATOM     93  H2  UNL A   1      32.835  22.918  21.876  1.00  0.00    +0.000 H 
ATOM     94  H3  UNL A   1      31.329  22.039  21.967  1.00  0.00    +0.000 H 
ENDBRANCH    2    1
BRANCH    2   78
ATOM    135  H44 UNL A   1      29.554  25.713  26.093  1.00  0.00    +0.000 H 
ATOM     78  C55 UNL A   1      31.407  23.822  24.010  1.00  0.00    +0.000 C 
ATOM     79  C56 UNL A   1      31.379  24.705  22.910  1.00  0.00    +0.000 C 
ATOM     80  C57 UNL A   1      30.712  25.928  22.968  1.00  0.00    +0.000 C 
ATOM     81  C58 UNL A   1      30.064  26.323  24.139  1.00  0.00    +0.000 C 
ATOM     89  C65 UNL A   1      30.055  25.446  25.231  1.00  0.00    +0.000 C 
ATOM     90  C66 UNL A   1      30.716  24.208  25.170  1.00  0.00    +0.000 C 
ATOM     91 Br1  UNL A   1      30.608  23.119  26.725  1.00  0.00    +0.000 Br
ATOM    124  H33 UNL A   1      31.864  24.438  22.040  1.00  0.00    +0.000 H 
ATOM    125  H34 UNL A   1      30.698  26.544  22.141  1.00  0.00    +0.000 H 
BRANCH   81   82
ATOM     82  C59 UNL A   1      29.414  27.683  24.229  1.00  0.00    +0.000 C 
ATOM    126  H35 UNL A   1      30.129  28.359  24.649  1.00  0.00    +0.000 H 
ATOM    127  H36 UNL A   1      28.537  27.542  24.826  1.00  0.00    +0.000 H 
BRANCH   82   83
ATOM    129  H38 UNL A   1      26.930  28.441  23.710  1.00  0.00    +0.000 H 
ATOM    130  H39 UNL A   1      26.988  28.644  21.999  1.00  0.00    +0.000 H 
ATOM    131  H40 UNL A   1      27.740  30.600  24.152  1.00  0.00    +0.000 H 
ATOM    132  H41 UNL A   1      26.814  30.908  22.738  1.00  0.00    +0.000 H 
ATOM    133  H42 UNL A   1      29.442  31.547  22.869  1.00  0.00    +0.000 H 
ATOM    134  H43 UNL A   1      28.772  31.079  21.378  1.00  0.00    +0.000 H 
ATOM     83  C60 UNL A   1      28.920  28.285  22.907  1.00  0.00    +0.000 C 
ATOM     84  C61 UNL A   1      27.501  28.864  22.911  1.00  0.00    +0.000 C 
ATOM     85  C62 UNL A   1      27.658  30.367  23.111  1.00  0.00    +0.000 C 
ATOM     86  C63 UNL A   1      28.938  30.741  22.379  1.00  0.00    +0.000 C 
ATOM     87  C64 UNL A   1      29.743  29.470  22.456  1.00  0.00    +0.000 C 
ATOM     88  O3  UNL A   1      30.931  29.400  22.161  1.00  0.00    +0.000 O 
ATOM    128  H37 UNL A   1      28.985  27.423  22.274  1.00  0.00    +0.000 H 
ENDBRANCH   82   83
ENDBRANCH   81   82
ENDBRANCH    2   78
ENDBRANCH    3    2
ENDBRANCH    5    3
ENDBRANCH    6    5
ENDBRANCH    7    6
ENDBRANCH    8    7
ENDBRANCH    9    8
ENDBRANCH   10    9
ENDBRANCH   11   10
ENDBRANCH   12   11
ENDBRANCH   13   12
ENDBRANCH   15   13
ENDBRANCH   19   18
BRANCH   23   24
ATOM     33  C24 UNL A   1      41.559  25.041  27.669  1.00  0.00    +0.000 C 
ATOM     34  F5  UNL A   1      40.650  24.634  28.567  1.00  0.00    +0.000 F 
ATOM     24  C19 UNL A   1      42.109  26.329  27.753  1.00  0.00    +0.000 C 
ATOM     25  C20 UNL A   1      43.061  26.703  26.794  1.00  0.00    +0.000 C 
ATOM     26  F1  UNL A   1      43.609  27.927  26.829  1.00  0.00    +0.000 F 
ATOM     27  C21 UNL A   1      43.443  25.822  25.785  1.00  0.00    +0.000 C 
ATOM     28  F2  UNL A   1      44.339  26.207  24.866  1.00  0.00    +0.000 F 
ATOM     29  C22 UNL A   1      42.900  24.547  25.731  1.00  0.00    +0.000 C 
ATOM     30  F3  UNL A   1      43.284  23.694  24.771  1.00  0.00    +0.000 F 
ATOM     31  C23 UNL A   1      41.959  24.155  26.672  1.00  0.00    +0.000 C 
ATOM     32  F4  UNL A   1      41.443  22.919  26.627  1.00  0.00    +0.000 F 
ENDBRANCH   23   24
BRANCH   40   41
ATOM     41  C30 UNL A   1      44.651  27.833  34.303  1.00  0.00    +0.000 C 
ATOM     42  C31 UNL A   1      44.585  26.676  35.092  1.00  0.00    +0.000 C 
ATOM     43  F6  UNL A   1      43.460  25.945  35.127  1.00  0.00    +0.000 F 
ATOM     44  C32 UNL A   1      45.665  26.285  35.879  1.00  0.00    +0.000 C 
ATOM     45  F7  UNL A   1      45.566  25.198  36.657  1.00  0.00    +0.000 F 
ATOM     46  C33 UNL A   1      46.838  27.025  35.868  1.00  0.00    +0.000 C 
ATOM     47  F8  UNL A   1      47.879  26.642  36.620  1.00  0.00    +0.000 F 
ATOM     48  C34 UNL A   1      46.929  28.165  35.083  1.00  0.00    +0.000 C 
ATOM     49  F9  UNL A   1      48.066  28.875  35.065  1.00  0.00    +0.000 F 
ATOM     50  C35 UNL A   1      45.842  28.573  34.316  1.00  0.00    +0.000 C 
ATOM     51  F10 UNL A   1      45.955  29.685  33.575  1.00  0.00    +0.000 F 
ENDBRANCH   40   41
BRANCH   55   56
ATOM     65  C44 UNL A   1      38.351  31.421  36.369  1.00  0.00    +0.000 C 
ATOM     66  F15 UNL A   1      37.934  30.157  36.218  1.00  0.00    +0.000 F 
ATOM     56  C39 UNL A   1      39.192  32.002  35.408  1.00  0.00    +0.000 C 
ATOM     57  C40 UNL A   1      39.596  33.329  35.611  1.00  0.00    +0.000 C 
ATOM     58  F11 UNL A   1      40.420  33.919  34.731  1.00  0.00    +0.000 F 
ATOM     59  C41 UNL A   1      39.197  34.038  36.742  1.00  0.00    +0.000 C 
ATOM     60  F12 UNL A   1      39.640  35.287  36.937  1.00  0.00    +0.000 F 
ATOM     61  C42 UNL A   1      38.362  33.444  37.676  1.00  0.00    +0.000 C 
ATOM     62  F13 UNL A   1      37.981  34.126  38.765  1.00  0.00    +0.000 F 
ATOM     63  C43 UNL A   1      37.931  32.140  37.485  1.00  0.00    +0.000 C 
ATOM     64  F14 UNL A   1      37.114  31.567  38.379  1.00  0.00    +0.000 F 
ENDBRANCH   55   56
TORSDOF 19
ENDMDL
MODEL 2
REMARK VINA RESULT:     -11.1      4.288      9.869
ROOT
ATOM     19  C15 UNL A   1      41.503  25.910  27.843  1.00  0.00    +0.000 C 
ATOM     20  C16 UNL A   1      40.775  27.012  28.557  1.00  0.00    +0.000 C 
ATOM     21  N3  UNL A   1      41.185  28.223  28.841  1.00  0.00    +0.000 N 
ATOM     22  C17 UNL A   1      40.115  28.848  29.466  1.00  0.00    +0.000 C 
ATOM     23  C18 UNL A   1      40.056  30.098  29.983  1.00  0.00    +0.000 C 
ATOM     35  C25 UNL A   1      41.156  31.027  29.994  1.00  0.00    +0.000 C 
ATOM     36  C26 UNL A   1      41.227  32.270  30.599  1.00  0.00    +0.000 C 
ATOM     37  C27 UNL A   1      42.470  32.834  30.297  1.00  0.00    +0.000 C 
ATOM     38  C28 UNL A   1      43.188  31.926  29.536  1.00  0.00    +0.000 C 
ATOM     39  N4  UNL A   1      42.374  30.818  29.367  1.00  0.00    +0.000 N 
ATOM     40  C29 UNL A   1      44.513  32.060  28.992  1.00  0.00    +0.000 C 
ATOM     52  C36 UNL A   1      45.178  31.088  28.322  1.00  0.00    +0.000 C 
ATOM     53  N5  UNL A   1      44.757  29.805  28.005  1.00  0.00    +0.000 N 
ATOM     54  C37 UNL A   1      45.741  29.259  27.335  1.00  0.00    +0.000 C 
ATOM     55  C38 UNL A   1      45.839  27.875  26.752  1.00  0.00    +0.000 C 
ATOM     67  C45 UNL A   1      44.817  27.015  26.919  1.00  0.00    +0.000 C 
ATOM     68  C46 UNL A   1      44.767  25.653  26.399  1.00  0.00    +0.000 C 
ATOM     69  C47 UNL A   1      43.567  25.121  26.677  1.00  0.00    +0.000 C 
ATOM     70  C48 UNL A   1      42.773  26.095  27.429  1.00  0.00    +0.000 C 
ATOM     71  N6  UNL A   1      43.611  27.176  27.558  1.00  0.00    +0.000 N 
ATOM     72  C49 UNL A   1      46.897  30.146  27.137  1.00  0.00    +0.000 C 
ATOM     73  C50 UNL A   1      46.515  31.235  27.788  1.00  0.00    +0.000 C 
ATOM     74  C51 UNL A   1      39.025  27.897  29.494  1.00  0.00    +0.000 C 
ATOM     75  C52 UNL A   1      39.397  26.728  28.988  1.00  0.00    +0.000 C 
ATOM    112  H21 UNL A   1      40.489  32.706  31.175  1.00  0.00    +0.000 H 
ATOM    113  H22 UNL A   1      42.798  33.768  30.589  1.00  0.00    +0.000 H 
ATOM    114  H23 UNL A   1      42.624  30.002  28.875  1.00  0.00    +0.000 H 
ATOM    115  H24 UNL A   1      45.533  25.175  25.898  1.00  0.00    +0.000 H 
ATOM    116  H25 UNL A   1      43.253  24.178  26.403  1.00  0.00    +0.000 H 
ATOM    117  H26 UNL A   1      43.371  27.988  28.060  1.00  0.00    +0.000 H 
ATOM    118  H27 UNL A   1      47.775  29.967  26.626  1.00  0.00    +0.000 H 
ATOM    119  H28 UNL A   1      47.097  32.080  27.900  1.00  0.00    +0.000 H 
ATOM    120  H29 UNL A   1      38.082  28.100  29.858  1.00  0.00    +0.000 H 
ATOM    121  H30 UNL A   1      38.862  25.849  28.916  1.00  0.00    +0.000 H 
ENDROOT
BRANCH   19   18
ATOM     76  C53 UNL A   1      39.670  24.684  26.673  1.00  0.00    +0.000 C 
ATOM     77  C54 UNL A   1      39.058  23.502  26.259  1.00  0.00    +0.000 C 
ATOM    110  H19 UNL A   1      41.097  21.306  27.770  1.00  0.00    +0.000 H 
ATOM     15  C11 UNL A   1      39.627  22.271  26.599  1.00  0.00    +0.000 C 
ATOM     16  C12 UNL A   1      40.720  22.217  27.469  1.00  0.00    +0.000 C 
ATOM     17  C13 UNL A   1      41.299  23.403  27.928  1.00  0.00    +0.000 C 
ATOM    111  H20 UNL A   1      42.092  23.365  28.588  1.00  0.00    +0.000 H 
ATOM     18  C14 UNL A   1      40.807  24.645  27.496  1.00  0.00    +0.000 C 
ATOM    122  H31 UNL A   1      39.285  25.594  26.373  1.00  0.00    +0.000 H 
ATOM    123  H32 UNL A   1      38.189  23.535  25.705  1.00  0.00    +0.000 H 
BRANCH   15   13
ATOM     13  C10 UNL A   1      39.094  21.007  26.045  1.00  0.00    +0.000 C 
ATOM     14  O2  UNL A   1      39.838  20.039  25.912  1.00  0.00    +0.000 O 
BRANCH   13   12
ATOM     12  N2  UNL A   1      37.778  20.927  25.659  1.00  0.00    +0.000 N 
ATOM    109  H18 UNL A   1      37.155  20.607  26.351  1.00  0.00    +0.000 H 
BRANCH   12   11
ATOM     11  C9  UNL A   1      37.173  21.248  24.377  1.00  0.00    +0.000 C 
ATOM    108  H17 UNL A   1      36.796  20.339  23.958  1.00  0.00    +0.000 H 
ATOM    107  H16 UNL A   1      37.917  21.692  23.747  1.00  0.00    +0.000 H 
BRANCH   11   10
ATOM    105  H14 UNL A   1      36.340  23.190  24.211  1.00  0.00    +0.000 H 
ATOM     10  C8  UNL A   1      36.003  22.220  24.510  1.00  0.00    +0.000 C 
ATOM    106  H15 UNL A   1      35.221  21.833  23.890  1.00  0.00    +0.000 H 
BRANCH   10    9
ATOM      9  C7  UNL A   1      35.416  22.335  25.919  1.00  0.00    +0.000 C 
ATOM    103  H12 UNL A   1      34.751  21.511  26.068  1.00  0.00    +0.000 H 
ATOM    104  H13 UNL A   1      36.251  22.339  26.587  1.00  0.00    +0.000 H 
BRANCH    9    8
ATOM    101  H10 UNL A   1      33.604  23.375  26.287  1.00  0.00    +0.000 H 
ATOM    102  H11 UNL A   1      35.063  24.031  27.097  1.00  0.00    +0.000 H 
ATOM      8  C6  UNL A   1      34.641  23.626  26.201  1.00  0.00    +0.000 C 
BRANCH    8    7
ATOM     99  H8  UNL A   1      35.814  24.866  24.931  1.00  0.00    +0.000 H 
ATOM    100  H9  UNL A   1      34.218  24.392  24.286  1.00  0.00    +0.000 H 
ATOM      7  C5  UNL A   1      34.774  24.726  25.137  1.00  0.00    +0.000 C 
BRANCH    7    6
ATOM     97  H6  UNL A   1      34.125  26.131  26.608  1.00  0.00    +0.000 H 
ATOM     98  H7  UNL A   1      34.812  26.852  25.159  1.00  0.00    +0.000 H 
ATOM      6  C4  UNL A   1      34.181  26.077  25.541  1.00  0.00    +0.000 C 
BRANCH    6    5
ATOM      5  N1  UNL A   1      32.855  26.249  24.988  1.00  0.00    +0.000 N 
ATOM     96  H5  UNL A   1      32.175  26.546  25.634  1.00  0.00    +0.000 H 
BRANCH    5    3
ATOM      3  C3  UNL A   1      32.392  26.067  23.718  1.00  0.00    +0.000 C 
ATOM      4  O1  UNL A   1      32.926  26.753  22.842  1.00  0.00    +0.000 O 
BRANCH    3    2
ATOM      2  C2  UNL A   1      31.239  25.082  23.439  1.00  0.00    +0.000 C 
ATOM     95  H4  UNL A   1      31.045  25.166  22.391  1.00  0.00    +0.000 H 
BRANCH    2    1
ATOM      1  C1  UNL A   1      29.953  25.440  24.193  1.00  0.00    +0.000 C 
ATOM     92  H1  UNL A   1      29.563  26.362  23.815  1.00  0.00    +0.000 H 
ATOM     93  H2  UNL A   1      30.169  25.547  25.236  1.00  0.00    +0.000 H 
ATOM     94  H3  UNL A   1      29.230  24.663  24.057  1.00  0.00    +0.000 H 
ENDBRANCH    2    1
BRANCH    2   78
ATOM    135  H44 UNL A   1      33.335  20.944  22.675  1.00  0.00    +0.000 H 
ATOM     78  C55 UNL A   1      31.628  23.637  23.764  1.00  0.00    +0.000 C 
ATOM     79  C56 UNL A   1      31.181  23.075  24.977  1.00  0.00    +0.000 C 
ATOM     80  C57 UNL A   1      31.515  21.773  25.350  1.00  0.00    +0.000 C 
ATOM     81  C58 UNL A   1      32.329  20.991  24.529  1.00  0.00    +0.000 C 
ATOM     89  C65 UNL A   1      32.757  21.523  23.305  1.00  0.00    +0.000 C 
ATOM     90  C66 UNL A   1      32.411  22.829  22.923  1.00  0.00    +0.000 C 
ATOM     91 Br1  UNL A   1      33.056  23.409  21.231  1.00  0.00    +0.000 Br
ATOM    124  H33 UNL A   1      30.590  23.640  25.605  1.00  0.00    +0.000 H 
ATOM    125  H34 UNL A   1      31.159  21.386  26.237  1.00  0.00    +0.000 H 
BRANCH   81   82
ATOM     82  C59 UNL A   1      32.759  19.614  24.972  1.00  0.00    +0.000 C 
ATOM    126  H35 UNL A   1      31.885  18.999  25.022  1.00  0.00    +0.000 H 
ATOM    127  H36 UNL A   1      33.253  19.756  25.910  1.00  0.00    +0.000 H 
BRANCH   82   83
ATOM    129  H38 UNL A   1      35.077  18.607  25.765  1.00  0.00    +0.000 H 
ATOM    130  H39 UNL A   1      35.858  18.324  24.255  1.00  0.00    +0.000 H 
ATOM    131  H40 UNL A   1      33.934  16.556  25.738  1.00  0.00    +0.000 H 
ATOM    132  H41 UNL A   1      35.404  16.093  24.978  1.00  0.00    +0.000 H 
ATOM    133  H42 UNL A   1      33.010  15.704  23.773  1.00  0.00    +0.000 H 
ATOM    134  H43 UNL A   1      34.377  16.033  22.819  1.00  0.00    +0.000 H 
ATOM     83  C60 UNL A   1      33.780  18.903  24.074  1.00  0.00    +0.000 C 
ATOM     84  C61 UNL A   1      34.939  18.198  24.786  1.00  0.00    +0.000 C 
ATOM     85  C62 UNL A   1      34.548  16.727  24.879  1.00  0.00    +0.000 C 
ATOM     86  C63 UNL A   1      33.771  16.435  23.603  1.00  0.00    +0.000 C 
ATOM     87  C64 UNL A   1      33.173  17.777  23.269  1.00  0.00    +0.000 C 
ATOM     88  O3  UNL A   1      32.304  17.939  22.419  1.00  0.00    +0.000 O 
ATOM    128  H37 UNL A   1      34.129  19.733  23.494  1.00  0.00    +0.000 H 
ENDBRANCH   82   83
ENDBRANCH   81   82
ENDBRANCH    2   78
ENDBRANCH    3    2
ENDBRANCH    5    3
ENDBRANCH    6    5
ENDBRANCH    7    6
ENDBRANCH    8    7
ENDBRANCH    9    8
ENDBRANCH   10    9
ENDBRANCH   11   10
ENDBRANCH   12   11
ENDBRANCH   13   12
ENDBRANCH   15   13
ENDBRANCH   19   18
BRANCH   23   24
ATOM     33  C24 UNL A   1      37.768  31.127  29.795  1.00  0.00    +0.000 C 
ATOM     34  F5  UNL A   1      37.930  31.210  28.466  1.00  0.00    +0.000 F 
ATOM     24  C19 UNL A   1      38.765  30.549  30.595  1.00  0.00    +0.000 C 
ATOM     25  C20 UNL A   1      38.549  30.493  31.979  1.00  0.00    +0.000 C 
ATOM     26  F1  UNL A   1      39.470  29.942  32.783  1.00  0.00    +0.000 F 
ATOM     27  C21 UNL A   1      37.376  30.992  32.540  1.00  0.00    +0.000 C 
ATOM     28  F2  UNL A   1      37.181  30.910  33.863  1.00  0.00    +0.000 F 
ATOM     29  C22 UNL A   1      36.411  31.576  31.733  1.00  0.00    +0.000 C 
ATOM     30  F3  UNL A   1      35.292  32.074  32.277  1.00  0.00    +0.000 F 
ATOM     31  C23 UNL A   1      36.606  31.645  30.361  1.00  0.00    +0.000 C 
ATOM     32  F4  UNL A   1      35.679  32.220  29.581  1.00  0.00    +0.000 F 
ENDBRANCH   23   24
BRANCH   40   41
ATOM     41  C30 UNL A   1      45.223  33.366  29.187  1.00  0.00    +0.000 C 
ATOM     42  C31 UNL A   1      45.058  34.425  28.283  1.00  0.00    +0.000 C 
ATOM     43  F6  UNL A   1      44.301  34.266  27.187  1.00  0.00    +0.000 F 
ATOM     44  C32 UNL A   1      45.703  35.642  28.484  1.00  0.00    +0.000 C 
ATOM     45  F7  UNL A   1      45.564  36.628  27.586  1.00  0.00    +0.000 F 
ATOM     46  C33 UNL A   1      46.498  35.833  29.604  1.00  0.00    +0.000 C 
ATOM     47  F8  UNL A   1      47.111  37.008  29.799  1.00  0.00    +0.000 F 
ATOM     48  C34 UNL A   1      46.662  34.802  30.518  1.00  0.00    +0.000 C 
ATOM     49  F9  UNL A   1      47.422  34.989  31.606  1.00  0.00    +0.000 F 
ATOM     50  C35 UNL A   1      46.041  33.576  30.307  1.00  0.00    +0.000 C 
ATOM     51  F10 UNL A   1      46.225  32.595  31.202  1.00  0.00    +0.000 F 
ENDBRANCH   40   41
BRANCH   55   56
ATOM     65  C44 UNL A   1      47.141  27.672  24.607  1.00  0.00    +0.000 C 
ATOM     66  F15 UNL A   1      46.122  28.233  23.941  1.00  0.00    +0.000 F 
ATOM     56  C39 UNL A   1      47.045  27.461  25.990  1.00  0.00    +0.000 C 
ATOM     57  C40 UNL A   1      48.137  26.867  26.637  1.00  0.00    +0.000 C 
ATOM     58  F11 UNL A   1      48.101  26.668  27.964  1.00  0.00    +0.000 F 
ATOM     59  C41 UNL A   1      49.290  26.522  25.935  1.00  0.00    +0.000 C 
ATOM     60  F12 UNL A   1      50.339  26.004  26.587  1.00  0.00    +0.000 F 
ATOM     61  C42 UNL A   1      49.360  26.737  24.566  1.00  0.00    +0.000 C 
ATOM     62  F13 UNL A   1      50.470  26.407  23.891  1.00  0.00    +0.000 F 
ATOM     63  C43 UNL A   1      48.283  27.302  23.900  1.00  0.00    +0.000 C 
ATOM     64  F14 UNL A   1      48.342  27.499  22.577  1.00  0.00    +0.000 F 
ENDBRANCH   55   56
TORSDOF 19
ENDMDL
MODEL 3
REMARK VINA RESULT:     -11.1      1.067      2.116
ROOT
ATOM     19  C15 UNL A   1      38.087  30.420  29.759  1.00  0.00    +0.000 C 
ATOM     20  C16 UNL A   1      39.063  29.434  29.185  1.00  0.00    +0.000 C 
ATOM     21  N3  UNL A   1      40.132  28.917  29.736  1.00  0.00    +0.000 N 
ATOM     22  C17 UNL A   1      40.650  28.032  28.798  1.00  0.00    +0.000 C 
ATOM     23  C18 UNL A   1      41.773  27.281  28.883  1.00  0.00    +0.000 C 
ATOM     35  C25 UNL A   1      42.678  27.291  30.002  1.00  0.00    +0.000 C 
ATOM     36  C26 UNL A   1      43.901  26.654  30.127  1.00  0.00    +0.000 C 
ATOM     37  C27 UNL A   1      44.396  26.905  31.410  1.00  0.00    +0.000 C 
ATOM     38  C28 UNL A   1      43.501  27.730  32.070  1.00  0.00    +0.000 C 
ATOM     39  N4  UNL A   1      42.457  27.968  31.191  1.00  0.00    +0.000 N 
ATOM     40  C29 UNL A   1      43.583  28.255  33.407  1.00  0.00    +0.000 C 
ATOM     52  C36 UNL A   1      42.699  29.125  33.953  1.00  0.00    +0.000 C 
ATOM     53  N5  UNL A   1      41.558  29.676  33.389  1.00  0.00    +0.000 N 
ATOM     54  C37 UNL A   1      41.030  30.436  34.316  1.00  0.00    +0.000 C 
ATOM     55  C38 UNL A   1      39.788  31.284  34.254  1.00  0.00    +0.000 C 
ATOM     67  C45 UNL A   1      39.080  31.333  33.110  1.00  0.00    +0.000 C 
ATOM     68  C46 UNL A   1      37.854  32.098  32.911  1.00  0.00    +0.000 C 
ATOM     69  C47 UNL A   1      37.372  31.841  31.685  1.00  0.00    +0.000 C 
ATOM     70  C48 UNL A   1      38.278  30.920  30.996  1.00  0.00    +0.000 C 
ATOM     71  N6  UNL A   1      39.284  30.702  31.907  1.00  0.00    +0.000 N 
ATOM     72  C49 UNL A   1      41.773  30.438  35.585  1.00  0.00    +0.000 C 
ATOM     73  C50 UNL A   1      42.799  29.651  35.298  1.00  0.00    +0.000 C 
ATOM     74  C51 UNL A   1      39.763  28.057  27.656  1.00  0.00    +0.000 C 
ATOM     75  C52 UNL A   1      38.792  28.946  27.824  1.00  0.00    +0.000 C 
ATOM    112  H21 UNL A   1      44.367  26.090  29.398  1.00  0.00    +0.000 H 
ATOM    113  H22 UNL A   1      45.279  26.537  31.800  1.00  0.00    +0.000 H 
ATOM    114  H23 UNL A   1      41.674  28.534  31.382  1.00  0.00    +0.000 H 
ATOM    115  H24 UNL A   1      37.425  32.734  33.602  1.00  0.00    +0.000 H 
ATOM    116  H25 UNL A   1      36.502  32.231  31.291  1.00  0.00    +0.000 H 
ATOM    117  H26 UNL A   1      40.075  30.148  31.715  1.00  0.00    +0.000 H 
ATOM    118  H27 UNL A   1      41.553  30.926  36.467  1.00  0.00    +0.000 H 
ATOM    119  H28 UNL A   1      43.572  29.440  35.949  1.00  0.00    +0.000 H 
ATOM    120  H29 UNL A   1      39.870  27.462  26.820  1.00  0.00    +0.000 H 
ATOM    121  H30 UNL A   1      38.042  29.223  27.171  1.00  0.00    +0.000 H 
ENDROOT
BRANCH   19   18
ATOM     76  C53 UNL A   1      35.889  29.794  28.756  1.00  0.00    +0.000 C 
ATOM     77  C54 UNL A   1      34.682  30.131  28.144  1.00  0.00    +0.000 C 
ATOM    110  H19 UNL A   1      35.182  33.430  27.790  1.00  0.00    +0.000 H 
ATOM     15  C11 UNL A   1      34.396  31.470  27.863  1.00  0.00    +0.000 C 
ATOM     16  C12 UNL A   1      35.371  32.452  28.059  1.00  0.00    +0.000 C 
ATOM     17  C13 UNL A   1      36.602  32.105  28.621  1.00  0.00    +0.000 C 
ATOM    111  H20 UNL A   1      37.332  32.825  28.746  1.00  0.00    +0.000 H 
ATOM     18  C14 UNL A   1      36.852  30.781  29.016  1.00  0.00    +0.000 C 
ATOM    122  H31 UNL A   1      36.076  28.813  29.017  1.00  0.00    +0.000 H 
ATOM    123  H32 UNL A   1      34.002  29.394  27.899  1.00  0.00    +0.000 H 
BRANCH   15   13
ATOM     13  C10 UNL A   1      33.065  31.876  27.362  1.00  0.00    +0.000 C 
ATOM     14  O2  UNL A   1      32.793  33.069  27.257  1.00  0.00    +0.000 O 
BRANCH   13   12
ATOM     12  N2  UNL A   1      32.133  30.921  27.039  1.00  0.00    +0.000 N 
ATOM    109  H18 UNL A   1      31.645  30.534  27.801  1.00  0.00    +0.000 H 
BRANCH   12   11
ATOM     11  C9  UNL A   1      31.763  30.399  25.733  1.00  0.00    +0.000 C 
ATOM    108  H17 UNL A   1      32.341  30.920  24.999  1.00  0.00    +0.000 H 
ATOM    107  H16 UNL A   1      30.714  30.551  25.587  1.00  0.00    +0.000 H 
BRANCH   11   10
ATOM    105  H14 UNL A   1      32.049  28.473  26.569  1.00  0.00    +0.000 H 
ATOM     10  C8  UNL A   1      32.067  28.910  25.593  1.00  0.00    +0.000 C 
ATOM    106  H15 UNL A   1      31.320  28.513  24.937  1.00  0.00    +0.000 H 
BRANCH   10    9
ATOM      9  C7  UNL A   1      33.418  28.583  24.951  1.00  0.00    +0.000 C 
ATOM    103  H12 UNL A   1      33.302  28.641  23.889  1.00  0.00    +0.000 H 
ATOM    104  H13 UNL A   1      34.112  29.295  25.347  1.00  0.00    +0.000 H 
BRANCH    9    8
ATOM    101  H10 UNL A   1      34.243  26.717  24.373  1.00  0.00    +0.000 H 
ATOM    102  H11 UNL A   1      34.824  27.380  25.934  1.00  0.00    +0.000 H 
ATOM      8  C6  UNL A   1      33.987  27.202  25.291  1.00  0.00    +0.000 C 
BRANCH    8    7
ATOM     99  H8  UNL A   1      32.959  26.647  27.069  1.00  0.00    +0.000 H 
ATOM    100  H9  UNL A   1      32.118  26.265  25.541  1.00  0.00    +0.000 H 
ATOM      7  C5  UNL A   1      33.047  26.271  26.071  1.00  0.00    +0.000 C 
BRANCH    7    6
ATOM     97  H6  UNL A   1      34.454  24.722  25.649  1.00  0.00    +0.000 H 
ATOM     98  H7  UNL A   1      33.606  24.543  27.179  1.00  0.00    +0.000 H 
ATOM      6  C4  UNL A   1      33.513  24.815  26.149  1.00  0.00    +0.000 C 
BRANCH    6    5
ATOM      5  N1  UNL A   1      32.554  23.929  25.524  1.00  0.00    +0.000 N 
ATOM     96  H5  UNL A   1      32.947  23.135  25.095  1.00  0.00    +0.000 H 
BRANCH    5    3
ATOM      3  C3  UNL A   1      31.196  24.013  25.431  1.00  0.00    +0.000 C 
ATOM      4  O1  UNL A   1      30.576  23.970  26.497  1.00  0.00    +0.000 O 
BRANCH    3    2
ATOM      2  C2  UNL A   1      30.511  24.115  24.053  1.00  0.00    +0.000 C 
ATOM     95  H4  UNL A   1      29.516  23.755  24.208  1.00  0.00    +0.000 H 
BRANCH    2    1
ATOM      1  C1  UNL A   1      31.178  23.236  22.990  1.00  0.00    +0.000 C 
ATOM     92  H1  UNL A   1      30.568  23.215  22.110  1.00  0.00    +0.000 H 
ATOM     93  H2  UNL A   1      31.291  22.242  23.368  1.00  0.00    +0.000 H 
ATOM     94  H3  UNL A   1      32.140  23.637  22.747  1.00  0.00    +0.000 H 
ENDBRANCH    2    1
BRANCH    2   78
ATOM    135  H44 UNL A   1      32.017  27.882  21.677  1.00  0.00    +0.000 H 
ATOM     78  C55 UNL A   1      30.449  25.560  23.549  1.00  0.00    +0.000 C 
ATOM     79  C56 UNL A   1      29.346  26.356  23.918  1.00  0.00    +0.000 C 
ATOM     80  C57 UNL A   1      29.211  27.672  23.477  1.00  0.00    +0.000 C 
ATOM     81  C58 UNL A   1      30.168  28.235  22.631  1.00  0.00    +0.000 C 
ATOM     89  C65 UNL A   1      31.287  27.468  22.279  1.00  0.00    +0.000 C 
ATOM     90  C66 UNL A   1      31.430  26.147  22.732  1.00  0.00    +0.000 C 
ATOM     91 Br1  UNL A   1      33.004  25.234  22.180  1.00  0.00    +0.000 Br
ATOM    124  H33 UNL A   1      28.620  25.956  24.531  1.00  0.00    +0.000 H 
ATOM    125  H34 UNL A   1      28.400  28.233  23.778  1.00  0.00    +0.000 H 
BRANCH   81   82
ATOM     82  C59 UNL A   1      29.979  29.630  22.087  1.00  0.00    +0.000 C 
ATOM    126  H35 UNL A   1      30.004  29.570  21.019  1.00  0.00    +0.000 H 
ATOM    127  H36 UNL A   1      30.768  30.213  22.513  1.00  0.00    +0.000 H 
BRANCH   82   83
ATOM    129  H38 UNL A   1      29.612  31.051  24.291  1.00  0.00    +0.000 H 
ATOM    130  H39 UNL A   1      27.897  31.224  24.302  1.00  0.00    +0.000 H 
ATOM    131  H40 UNL A   1      29.947  32.899  22.881  1.00  0.00    +0.000 H 
ATOM    132  H41 UNL A   1      28.593  33.449  23.784  1.00  0.00    +0.000 H 
ATOM    133  H42 UNL A   1      28.529  33.327  21.079  1.00  0.00    +0.000 H 
ATOM    134  H43 UNL A   1      27.099  33.059  21.958  1.00  0.00    +0.000 H 
ATOM     83  C60 UNL A   1      28.680  30.341  22.487  1.00  0.00    +0.000 C 
ATOM     84  C61 UNL A   1      28.766  31.295  23.683  1.00  0.00    +0.000 C 
ATOM     85  C62 UNL A   1      28.920  32.695  23.100  1.00  0.00    +0.000 C 
ATOM     86  C63 UNL A   1      28.094  32.692  21.822  1.00  0.00    +0.000 C 
ATOM     87  C64 UNL A   1      28.146  31.247  21.400  1.00  0.00    +0.000 C 
ATOM     88  O3  UNL A   1      27.773  30.846  20.303  1.00  0.00    +0.000 O 
ATOM    128  H37 UNL A   1      28.065  29.494  22.710  1.00  0.00    +0.000 H 
ENDBRANCH   82   83
ENDBRANCH   81   82
ENDBRANCH    2   78
ENDBRANCH    3    2
ENDBRANCH    5    3
ENDBRANCH    6    5
ENDBRANCH    7    6
ENDBRANCH    8    7
ENDBRANCH    9    8
ENDBRANCH   10    9
ENDBRANCH   11   10
ENDBRANCH   12   11
ENDBRANCH   13   12
ENDBRANCH   15   13
ENDBRANCH   19   18
BRANCH   23   24
ATOM     33  C24 UNL A   1      41.552  25.095  27.654  1.00  0.00    +0.000 C 
ATOM     34  F5  UNL A   1      40.657  24.690  28.567  1.00  0.00    +0.000 F 
ATOM     24  C19 UNL A   1      42.108  26.382  27.731  1.00  0.00    +0.000 C 
ATOM     25  C20 UNL A   1      43.044  26.755  26.756  1.00  0.00    +0.000 C 
ATOM     26  F1  UNL A   1      43.596  27.976  26.785  1.00  0.00    +0.000 F 
ATOM     27  C21 UNL A   1      43.406  25.875  25.739  1.00  0.00    +0.000 C 
ATOM     28  F2  UNL A   1      44.286  26.259  24.806  1.00  0.00    +0.000 F 
ATOM     29  C22 UNL A   1      42.857  24.601  25.693  1.00  0.00    +0.000 C 
ATOM     30  F3  UNL A   1      43.221  23.749  24.724  1.00  0.00    +0.000 F 
ATOM     31  C23 UNL A   1      41.932  24.211  26.649  1.00  0.00    +0.000 C 
ATOM     32  F4  UNL A   1      41.411  22.976  26.611  1.00  0.00    +0.000 F 
ENDBRANCH   23   24
BRANCH   40   41
ATOM     41  C30 UNL A   1      44.735  27.821  34.262  1.00  0.00    +0.000 C 
ATOM     42  C31 UNL A   1      45.927  28.558  34.304  1.00  0.00    +0.000 C 
ATOM     43  F6  UNL A   1      46.078  29.642  33.529  1.00  0.00    +0.000 F 
ATOM     44  C32 UNL A   1      46.984  28.161  35.119  1.00  0.00    +0.000 C 
ATOM     45  F7  UNL A   1      48.129  28.857  35.113  1.00  0.00    +0.000 F 
ATOM     46  C33 UNL A   1      46.858  27.041  35.926  1.00  0.00    +0.000 C 
ATOM     47  F8  UNL A   1      47.874  26.665  36.715  1.00  0.00    +0.000 F 
ATOM     48  C34 UNL A   1      45.682  26.305  35.910  1.00  0.00    +0.000 C 
ATOM     49  F9  UNL A   1      45.555  25.228  36.697  1.00  0.00    +0.000 F 
ATOM     50  C35 UNL A   1      44.633  26.684  35.077  1.00  0.00    +0.000 C 
ATOM     51  F10 UNL A   1      43.511  25.949  35.075  1.00  0.00    +0.000 F 
ENDBRANCH   40   41
BRANCH   55   56
ATOM     65  C44 UNL A   1      39.729  33.387  35.636  1.00  0.00    +0.000 C 
ATOM     66  F15 UNL A   1      40.541  33.985  34.752  1.00  0.00    +0.000 F 
ATOM     56  C39 UNL A   1      39.341  32.053  35.443  1.00  0.00    +0.000 C 
ATOM     57  C40 UNL A   1      38.495  31.475  36.399  1.00  0.00    +0.000 C 
ATOM     58  F11 UNL A   1      38.077  30.209  36.244  1.00  0.00    +0.000 F 
ATOM     59  C41 UNL A   1      38.034  32.209  37.490  1.00  0.00    +0.000 C 
ATOM     60  F12 UNL A   1      37.185  31.647  38.361  1.00  0.00    +0.000 F 
ATOM     61  C42 UNL A   1      38.435  33.525  37.662  1.00  0.00    +0.000 C 
ATOM     62  F13 UNL A   1      37.989  34.231  38.710  1.00  0.00    +0.000 F 
ATOM     63  C43 UNL A   1      39.290  34.112  36.742  1.00  0.00    +0.000 C 
ATOM     64  F14 UNL A   1      39.689  35.379  36.911  1.00  0.00    +0.000 F 
ENDBRANCH   55   56
TORSDOF 19
ENDMDL
MODEL 4
REMARK VINA RESULT:     -11.0      4.077      9.507
ROOT
ATOM     19  C15 UNL A   1      41.206  26.177  27.839  1.00  0.00    +0.000 C 
ATOM     20  C16 UNL A   1      40.558  27.320  28.567  1.00  0.00    +0.000 C 
ATOM     21  N3  UNL A   1      41.059  28.490  28.877  1.00  0.00    +0.000 N 
ATOM     22  C17 UNL A   1      40.033  29.185  29.504  1.00  0.00    +0.000 C 
ATOM     23  C18 UNL A   1      40.067  30.427  30.043  1.00  0.00    +0.000 C 
ATOM     35  C25 UNL A   1      41.236  31.266  30.082  1.00  0.00    +0.000 C 
ATOM     36  C26 UNL A   1      41.398  32.489  30.710  1.00  0.00    +0.000 C 
ATOM     37  C27 UNL A   1      42.684  32.959  30.430  1.00  0.00    +0.000 C 
ATOM     38  C28 UNL A   1      43.337  32.011  29.660  1.00  0.00    +0.000 C 
ATOM     39  N4  UNL A   1      42.441  30.973  29.463  1.00  0.00    +0.000 N 
ATOM     40  C29 UNL A   1      44.675  32.051  29.131  1.00  0.00    +0.000 C 
ATOM     52  C36 UNL A   1      45.268  31.041  28.449  1.00  0.00    +0.000 C 
ATOM     53  N5  UNL A   1      44.752  29.801  28.104  1.00  0.00    +0.000 N 
ATOM     54  C37 UNL A   1      45.697  29.192  27.434  1.00  0.00    +0.000 C 
ATOM     55  C38 UNL A   1      45.693  27.816  26.826  1.00  0.00    +0.000 C 
ATOM     67  C45 UNL A   1      44.605  27.035  26.968  1.00  0.00    +0.000 C 
ATOM     68  C46 UNL A   1      44.455  25.691  26.422  1.00  0.00    +0.000 C 
ATOM     69  C47 UNL A   1      43.214  25.250  26.679  1.00  0.00    +0.000 C 
ATOM     70  C48 UNL A   1      42.490  26.269  27.441  1.00  0.00    +0.000 C 
ATOM     71  N6  UNL A   1      43.409  27.279  27.598  1.00  0.00    +0.000 N 
ATOM     72  C49 UNL A   1      46.921  29.989  27.264  1.00  0.00    +0.000 C 
ATOM     73  C50 UNL A   1      46.619  31.093  27.931  1.00  0.00    +0.000 C 
ATOM     74  C51 UNL A   1      38.872  28.322  29.504  1.00  0.00    +0.000 C 
ATOM     75  C52 UNL A   1      39.158  27.137  28.980  1.00  0.00    +0.000 C 
ATOM    112  H21 UNL A   1      40.690  32.971  31.287  1.00  0.00    +0.000 H 
ATOM    113  H22 UNL A   1      43.080  33.860  30.743  1.00  0.00    +0.000 H 
ATOM    114  H23 UNL A   1      42.631  30.149  28.958  1.00  0.00    +0.000 H 
ATOM    115  H24 UNL A   1      45.186  25.163  25.920  1.00  0.00    +0.000 H 
ATOM    116  H25 UNL A   1      42.830  24.339  26.385  1.00  0.00    +0.000 H 
ATOM    117  H26 UNL A   1      43.227  28.098  28.113  1.00  0.00    +0.000 H 
ATOM    118  H27 UNL A   1      47.788  29.751  26.758  1.00  0.00    +0.000 H 
ATOM    119  H28 UNL A   1      47.263  31.888  28.064  1.00  0.00    +0.000 H 
ATOM    120  H29 UNL A   1      37.944  28.593  29.863  1.00  0.00    +0.000 H 
ATOM    121  H30 UNL A   1      38.556  26.304  28.886  1.00  0.00    +0.000 H 
ENDROOT
BRANCH   19   18
ATOM     76  C53 UNL A   1      39.241  25.130  26.711  1.00  0.00    +0.000 C 
ATOM     77  C54 UNL A   1      38.537  24.011  26.267  1.00  0.00    +0.000 C 
ATOM    110  H19 UNL A   1      40.519  21.616  27.529  1.00  0.00    +0.000 H 
ATOM     15  C11 UNL A   1      39.048  22.732  26.502  1.00  0.00    +0.000 C 
ATOM     16  C12 UNL A   1      40.182  22.564  27.303  1.00  0.00    +0.000 C 
ATOM     17  C13 UNL A   1      40.855  23.685  27.794  1.00  0.00    +0.000 C 
ATOM    111  H20 UNL A   1      41.680  23.562  28.404  1.00  0.00    +0.000 H 
ATOM     18  C14 UNL A   1      40.416  24.977  27.463  1.00  0.00    +0.000 C 
ATOM    122  H31 UNL A   1      38.895  26.076  26.486  1.00  0.00    +0.000 H 
ATOM    123  H32 UNL A   1      37.642  24.128  25.767  1.00  0.00    +0.000 H 
BRANCH   15   13
ATOM     13  C10 UNL A   1      38.410  21.536  25.910  1.00  0.00    +0.000 C 
ATOM     14  O2  UNL A   1      39.096  20.557  25.630  1.00  0.00    +0.000 O 
BRANCH   13   12
ATOM     12  N2  UNL A   1      37.061  21.534  25.653  1.00  0.00    +0.000 N 
ATOM    109  H18 UNL A   1      36.481  21.487  26.447  1.00  0.00    +0.000 H 
BRANCH   12   11
ATOM     11  C9  UNL A   1      36.366  21.591  24.377  1.00  0.00    +0.000 C 
ATOM    108  H17 UNL A   1      35.379  21.204  24.527  1.00  0.00    +0.000 H 
ATOM    107  H16 UNL A   1      36.911  21.009  23.663  1.00  0.00    +0.000 H 
BRANCH   11   10
ATOM    105  H14 UNL A   1      36.446  23.690  24.651  1.00  0.00    +0.000 H 
ATOM     10  C8  UNL A   1      36.232  23.016  23.848  1.00  0.00    +0.000 C 
ATOM    106  H15 UNL A   1      36.919  23.098  23.032  1.00  0.00    +0.000 H 
BRANCH   10    9
ATOM      9  C7  UNL A   1      34.853  23.370  23.286  1.00  0.00    +0.000 C 
ATOM    103  H12 UNL A   1      34.908  23.317  22.219  1.00  0.00    +0.000 H 
ATOM    104  H13 UNL A   1      34.170  22.668  23.716  1.00  0.00    +0.000 H 
BRANCH    9    8
ATOM    101  H10 UNL A   1      33.702  24.649  24.525  1.00  0.00    +0.000 H 
ATOM    102  H11 UNL A   1      35.194  25.364  23.833  1.00  0.00    +0.000 H 
ATOM      8  C6  UNL A   1      34.328  24.759  23.664  1.00  0.00    +0.000 C 
BRANCH    8    7
ATOM     99  H8  UNL A   1      33.990  25.303  21.636  1.00  0.00    +0.000 H 
ATOM    100  H9  UNL A   1      32.523  25.082  22.629  1.00  0.00    +0.000 H 
ATOM      7  C5  UNL A   1      33.516  25.479  22.578  1.00  0.00    +0.000 C 
BRANCH    7    6
ATOM     97  H6  UNL A   1      34.162  27.482  22.219  1.00  0.00    +0.000 H 
ATOM     98  H7  UNL A   1      32.425  27.299  22.428  1.00  0.00    +0.000 H 
ATOM      6  C4  UNL A   1      33.390  26.991  22.774  1.00  0.00    +0.000 C 
BRANCH    6    5
ATOM      5  N1  UNL A   1      33.512  27.346  24.172  1.00  0.00    +0.000 N 
ATOM     96  H5  UNL A   1      34.248  26.899  24.647  1.00  0.00    +0.000 H 
BRANCH    5    3
ATOM      3  C3  UNL A   1      32.775  28.200  24.938  1.00  0.00    +0.000 C 
ATOM      4  O1  UNL A   1      33.059  29.397  24.844  1.00  0.00    +0.000 O 
BRANCH    3    2
ATOM      2  C2  UNL A   1      31.685  27.658  25.886  1.00  0.00    +0.000 C 
ATOM     95  H4  UNL A   1      30.776  28.116  25.558  1.00  0.00    +0.000 H 
BRANCH    2    1
ATOM      1  C1  UNL A   1      31.918  28.051  27.349  1.00  0.00    +0.000 C 
ATOM     92  H1  UNL A   1      30.998  28.388  27.779  1.00  0.00    +0.000 H 
ATOM     93  H2  UNL A   1      32.642  28.839  27.396  1.00  0.00    +0.000 H 
ATOM     94  H3  UNL A   1      32.278  27.204  27.894  1.00  0.00    +0.000 H 
ENDBRANCH    2    1
BRANCH    2   78
ATOM    135  H44 UNL A   1      30.026  23.621  24.142  1.00  0.00    +0.000 H 
ATOM     78  C55 UNL A   1      31.545  26.137  25.788  1.00  0.00    +0.000 C 
ATOM     79  C56 UNL A   1      32.307  25.332  26.660  1.00  0.00    +0.000 C 
ATOM     80  C57 UNL A   1      32.248  23.940  26.613  1.00  0.00    +0.000 C 
ATOM     81  C58 UNL A   1      31.438  23.299  25.675  1.00  0.00    +0.000 C 
ATOM     89  C65 UNL A   1      30.651  24.082  24.821  1.00  0.00    +0.000 C 
ATOM     90  C66 UNL A   1      30.700  25.484  24.875  1.00  0.00    +0.000 C 
ATOM     91 Br1  UNL A   1      29.568  26.413  23.662  1.00  0.00    +0.000 Br
ATOM    124  H33 UNL A   1      32.923  25.786  27.352  1.00  0.00    +0.000 H 
ATOM    125  H34 UNL A   1      32.807  23.380  27.276  1.00  0.00    +0.000 H 
BRANCH   81   82
ATOM     82  C59 UNL A   1      31.439  21.793  25.569  1.00  0.00    +0.000 C 
ATOM    126  H35 UNL A   1      30.558  21.503  25.036  1.00  0.00    +0.000 H 
ATOM    127  H36 UNL A   1      31.483  21.435  26.576  1.00  0.00    +0.000 H 
BRANCH   82   83
ATOM    129  H38 UNL A   1      33.015  19.912  26.565  1.00  0.00    +0.000 H 
ATOM    130  H39 UNL A   1      34.334  19.952  25.456  1.00  0.00    +0.000 H 
ATOM    131  H40 UNL A   1      31.736  18.458  25.236  1.00  0.00    +0.000 H 
ATOM    132  H41 UNL A   1      33.313  17.865  24.902  1.00  0.00    +0.000 H 
ATOM    133  H42 UNL A   1      31.663  18.680  22.916  1.00  0.00    +0.000 H 
ATOM    134  H43 UNL A   1      33.341  18.886  22.740  1.00  0.00    +0.000 H 
ATOM     83  C60 UNL A   1      32.645  21.166  24.857  1.00  0.00    +0.000 C 
ATOM     84  C61 UNL A   1      33.267  19.936  25.526  1.00  0.00    +0.000 C 
ATOM     85  C62 UNL A   1      32.681  18.723  24.811  1.00  0.00    +0.000 C 
ATOM     86  C63 UNL A   1      32.512  19.152  23.361  1.00  0.00    +0.000 C 
ATOM     87  C64 UNL A   1      32.308  20.640  23.480  1.00  0.00    +0.000 C 
ATOM     88  O3  UNL A   1      31.931  21.349  22.554  1.00  0.00    +0.000 O 
ATOM    128  H37 UNL A   1      33.321  21.997  24.868  1.00  0.00    +0.000 H 
ENDBRANCH   82   83
ENDBRANCH   81   82
ENDBRANCH    2   78
ENDBRANCH    3    2
ENDBRANCH    5    3
ENDBRANCH    6    5
ENDBRANCH    7    6
ENDBRANCH    8    7
ENDBRANCH    9    8
ENDBRANCH   10    9
ENDBRANCH   11   10
ENDBRANCH   12   11
ENDBRANCH   13   12
ENDBRANCH   15   13
ENDBRANCH   19   18
BRANCH   23   24
ATOM     33  C24 UNL A   1      38.588  30.859  32.032  1.00  0.00    +0.000 C 
ATOM     34  F5  UNL A   1      39.536  30.344  32.830  1.00  0.00    +0.000 F 
ATOM     24  C19 UNL A   1      38.808  30.966  30.651  1.00  0.00    +0.000 C 
ATOM     25  C20 UNL A   1      37.784  31.506  29.860  1.00  0.00    +0.000 C 
ATOM     26  F1  UNL A   1      37.951  31.635  28.536  1.00  0.00    +0.000 F 
ATOM     27  C21 UNL A   1      36.586  31.927  30.432  1.00  0.00    +0.000 C 
ATOM     28  F2  UNL A   1      35.628  32.459  29.661  1.00  0.00    +0.000 F 
ATOM     29  C22 UNL A   1      36.382  31.795  31.798  1.00  0.00    +0.000 C 
ATOM     30  F3  UNL A   1      35.221  32.183  32.344  1.00  0.00    +0.000 F 
ATOM     31  C23 UNL A   1      37.382  31.261  32.598  1.00  0.00    +0.000 C 
ATOM     32  F4  UNL A   1      37.181  31.122  33.917  1.00  0.00    +0.000 F 
ENDBRANCH   23   24
BRANCH   40   41
ATOM     41  C30 UNL A   1      45.482  33.294  29.357  1.00  0.00    +0.000 C 
ATOM     42  C31 UNL A   1      46.332  33.417  30.466  1.00  0.00    +0.000 C 
ATOM     43  F6  UNL A   1      46.393  32.439  31.382  1.00  0.00    +0.000 F 
ATOM     44  C32 UNL A   1      47.095  34.565  30.655  1.00  0.00    +0.000 C 
ATOM     45  F7  UNL A   1      47.870  34.679  31.743  1.00  0.00    +0.000 F 
ATOM     46  C33 UNL A   1      47.047  35.595  29.728  1.00  0.00    +0.000 C 
ATOM     47  F8  UNL A   1      47.789  36.697  29.909  1.00  0.00    +0.000 F 
ATOM     48  C34 UNL A   1      46.223  35.487  28.617  1.00  0.00    +0.000 C 
ATOM     49  F9  UNL A   1      46.182  36.478  27.715  1.00  0.00    +0.000 F 
ATOM     50  C35 UNL A   1      45.438  34.352  28.438  1.00  0.00    +0.000 C 
ATOM     51  F10 UNL A   1      44.644  34.279  27.360  1.00  0.00    +0.000 F 
ENDBRANCH   40   41
BRANCH   55   56
ATOM     65  C44 UNL A   1      47.023  27.591  24.700  1.00  0.00    +0.000 C 
ATOM     66  F15 UNL A   1      46.081  28.284  24.044  1.00  0.00    +0.000 F 
ATOM     56  C39 UNL A   1      46.872  27.322  26.068  1.00  0.00    +0.000 C 
ATOM     57  C40 UNL A   1      47.883  26.590  26.706  1.00  0.00    +0.000 C 
ATOM     58  F11 UNL A   1      47.793  26.329  28.019  1.00  0.00    +0.000 F 
ATOM     59  C41 UNL A   1      49.013  26.167  26.009  1.00  0.00    +0.000 C 
ATOM     60  F12 UNL A   1      49.989  25.514  26.654  1.00  0.00    +0.000 F 
ATOM     61  C42 UNL A   1      49.139  26.442  24.655  1.00  0.00    +0.000 C 
ATOM     62  F13 UNL A   1      50.228  26.038  23.987  1.00  0.00    +0.000 F 
ATOM     63  C43 UNL A   1      48.140  27.145  23.999  1.00  0.00    +0.000 C 
ATOM     64  F14 UNL A   1      48.252  27.401  22.688  1.00  0.00    +0.000 F 
ENDBRANCH   55   56
TORSDOF 19
ENDMDL
MODEL 5
REMARK VINA RESULT:     -10.9      1.560      8.048
ROOT
ATOM     19  C15 UNL A   1      38.440  29.787  30.039  1.00  0.00    +0.000 C 
ATOM     20  C16 UNL A   1      38.688  30.321  31.421  1.00  0.00    +0.000 C 
ATOM     21  N3  UNL A   1      39.704  30.104  32.218  1.00  0.00    +0.000 N 
ATOM     22  C17 UNL A   1      39.464  30.867  33.353  1.00  0.00    +0.000 C 
ATOM     23  C18 UNL A   1      40.207  30.952  34.482  1.00  0.00    +0.000 C 
ATOM     35  C25 UNL A   1      41.417  30.209  34.718  1.00  0.00    +0.000 C 
ATOM     36  C26 UNL A   1      42.173  30.140  35.876  1.00  0.00    +0.000 C 
ATOM     37  C27 UNL A   1      43.291  29.340  35.622  1.00  0.00    +0.000 C 
ATOM     38  C28 UNL A   1      43.211  28.880  34.318  1.00  0.00    +0.000 C 
ATOM     39  N4  UNL A   1      42.051  29.411  33.779  1.00  0.00    +0.000 N 
ATOM     40  C29 UNL A   1      44.129  28.027  33.610  1.00  0.00    +0.000 C 
ATOM     52  C36 UNL A   1      43.936  27.556  32.354  1.00  0.00    +0.000 C 
ATOM     53  N5  UNL A   1      42.873  27.781  31.492  1.00  0.00    +0.000 N 
ATOM     54  C37 UNL A   1      43.157  27.131  30.392  1.00  0.00    +0.000 C 
ATOM     55  C38 UNL A   1      42.354  27.014  29.125  1.00  0.00    +0.000 C 
ATOM     67  C45 UNL A   1      41.155  27.622  29.045  1.00  0.00    +0.000 C 
ATOM     68  C46 UNL A   1      40.279  27.606  27.879  1.00  0.00    +0.000 C 
ATOM     69  C47 UNL A   1      39.215  28.388  28.121  1.00  0.00    +0.000 C 
ATOM     70  C48 UNL A   1      39.317  28.932  29.476  1.00  0.00    +0.000 C 
ATOM     71  N6  UNL A   1      40.484  28.393  29.962  1.00  0.00    +0.000 N 
ATOM     72  C49 UNL A   1      44.448  26.428  30.428  1.00  0.00    +0.000 C 
ATOM     73  C50 UNL A   1      44.865  26.691  31.658  1.00  0.00    +0.000 C 
ATOM     74  C51 UNL A   1      38.224  31.578  33.131  1.00  0.00    +0.000 C 
ATOM     75  C52 UNL A   1      37.678  31.237  31.971  1.00  0.00    +0.000 C 
ATOM    112  H21 UNL A   1      41.949  30.600  36.773  1.00  0.00    +0.000 H 
ATOM    113  H22 UNL A   1      44.048  29.129  36.291  1.00  0.00    +0.000 H 
ATOM    114  H23 UNL A   1      41.725  29.247  32.864  1.00  0.00    +0.000 H 
ATOM    115  H24 UNL A   1      40.449  27.078  27.008  1.00  0.00    +0.000 H 
ATOM    116  H25 UNL A   1      38.449  28.577  27.457  1.00  0.00    +0.000 H 
ATOM    117  H26 UNL A   1      40.806  28.543  30.880  1.00  0.00    +0.000 H 
ATOM    118  H27 UNL A   1      44.908  25.874  29.689  1.00  0.00    +0.000 H 
ATOM    119  H28 UNL A   1      45.739  26.327  32.067  1.00  0.00    +0.000 H 
ATOM    120  H29 UNL A   1      37.817  32.262  33.788  1.00  0.00    +0.000 H 
ATOM    121  H30 UNL A   1      36.779  31.536  31.560  1.00  0.00    +0.000 H 
ENDROOT
BRANCH   19   18
ATOM     76  C53 UNL A   1      36.211  29.398  28.986  1.00  0.00    +0.000 C 
ATOM     77  C54 UNL A   1      35.075  29.856  28.320  1.00  0.00    +0.000 C 
ATOM    110  H19 UNL A   1      35.997  33.049  27.857  1.00  0.00    +0.000 H 
ATOM     15  C11 UNL A   1      34.969  31.207  27.978  1.00  0.00    +0.000 C 
ATOM     16  C12 UNL A   1      36.054  32.068  28.170  1.00  0.00    +0.000 C 
ATOM     17  C13 UNL A   1      37.214  31.594  28.787  1.00  0.00    +0.000 C 
ATOM    111  H20 UNL A   1      38.024  32.222  28.909  1.00  0.00    +0.000 H 
ATOM     18  C14 UNL A   1      37.283  30.267  29.241  1.00  0.00    +0.000 C 
ATOM    122  H31 UNL A   1      36.265  28.413  29.291  1.00  0.00    +0.000 H 
ATOM    123  H32 UNL A   1      34.315  29.200  28.081  1.00  0.00    +0.000 H 
BRANCH   15   13
ATOM     13  C10 UNL A   1      33.715  31.755  27.416  1.00  0.00    +0.000 C 
ATOM     14  O2  UNL A   1      33.321  32.862  27.772  1.00  0.00    +0.000 O 
BRANCH   13   12
ATOM     12  N2  UNL A   1      32.984  31.015  26.519  1.00  0.00    +0.000 N 
ATOM    109  H18 UNL A   1      33.363  30.959  25.612  1.00  0.00    +0.000 H 
BRANCH   12   11
ATOM     11  C9  UNL A   1      31.732  30.303  26.716  1.00  0.00    +0.000 C 
ATOM    108  H17 UNL A   1      31.294  30.142  25.753  1.00  0.00    +0.000 H 
ATOM    107  H16 UNL A   1      31.096  30.892  27.344  1.00  0.00    +0.000 H 
BRANCH   11   10
ATOM    105  H14 UNL A   1      32.791  28.997  28.007  1.00  0.00    +0.000 H 
ATOM     10  C8  UNL A   1      31.934  28.937  27.369  1.00  0.00    +0.000 C 
ATOM    106  H15 UNL A   1      31.028  28.721  27.895  1.00  0.00    +0.000 H 
BRANCH   10    9
ATOM      9  C7  UNL A   1      32.150  27.779  26.392  1.00  0.00    +0.000 C 
ATOM    103  H12 UNL A   1      31.877  26.872  26.889  1.00  0.00    +0.000 H 
ATOM    104  H13 UNL A   1      31.544  27.998  25.537  1.00  0.00    +0.000 H 
BRANCH    9    8
ATOM    101  H10 UNL A   1      34.217  28.248  26.458  1.00  0.00    +0.000 H 
ATOM    102  H11 UNL A   1      33.808  26.578  25.946  1.00  0.00    +0.000 H 
ATOM      8  C6  UNL A   1      33.580  27.621  25.869  1.00  0.00    +0.000 C 
BRANCH    8    7
ATOM     99  H8  UNL A   1      34.499  28.791  24.347  1.00  0.00    +0.000 H 
ATOM    100  H9  UNL A   1      34.130  27.100  23.904  1.00  0.00    +0.000 H 
ATOM      7  C5  UNL A   1      33.791  27.990  24.393  1.00  0.00    +0.000 C 
BRANCH    7    6
ATOM     97  H6  UNL A   1      31.784  28.719  24.378  1.00  0.00    +0.000 H 
ATOM     98  H7  UNL A   1      32.768  29.255  23.022  1.00  0.00    +0.000 H 
ATOM      6  C4  UNL A   1      32.523  28.431  23.659  1.00  0.00    +0.000 C 
BRANCH    6    5
ATOM      5  N1  UNL A   1      31.995  27.359  22.841  1.00  0.00    +0.000 N 
ATOM     96  H5  UNL A   1      32.286  27.378  21.901  1.00  0.00    +0.000 H 
BRANCH    5    3
ATOM      3  C3  UNL A   1      31.162  26.328  23.160  1.00  0.00    +0.000 C 
ATOM      4  O1  UNL A   1      30.061  26.642  23.620  1.00  0.00    +0.000 O 
BRANCH    3    2
ATOM      2  C2  UNL A   1      31.621  24.867  22.978  1.00  0.00    +0.000 C 
ATOM     95  H4  UNL A   1      31.957  24.803  21.964  1.00  0.00    +0.000 H 
BRANCH    2    1
ATOM      1  C1  UNL A   1      30.484  23.857  23.169  1.00  0.00    +0.000 C 
ATOM     92  H1  UNL A   1      29.562  24.381  23.312  1.00  0.00    +0.000 H 
ATOM     93  H2  UNL A   1      30.686  23.251  24.027  1.00  0.00    +0.000 H 
ATOM     94  H3  UNL A   1      30.410  23.234  22.302  1.00  0.00    +0.000 H 
ENDBRANCH    2    1
BRANCH    2   78
ATOM    135  H44 UNL A   1      33.584  23.608  27.059  1.00  0.00    +0.000 H 
ATOM     78  C55 UNL A   1      32.778  24.508  23.914  1.00  0.00    +0.000 C 
ATOM     79  C56 UNL A   1      34.087  24.487  23.391  1.00  0.00    +0.000 C 
ATOM     80  C57 UNL A   1      35.186  24.146  24.179  1.00  0.00    +0.000 C 
ATOM     81  C58 UNL A   1      35.013  23.793  25.518  1.00  0.00    +0.000 C 
ATOM     89  C65 UNL A   1      33.723  23.839  26.062  1.00  0.00    +0.000 C 
ATOM     90  C66 UNL A   1      32.617  24.193  25.274  1.00  0.00    +0.000 C 
ATOM     91 Br1  UNL A   1      30.931  24.220  26.153  1.00  0.00    +0.000 Br
ATOM    124  H33 UNL A   1      34.236  24.731  22.400  1.00  0.00    +0.000 H 
ATOM    125  H34 UNL A   1      36.133  24.156  23.769  1.00  0.00    +0.000 H 
BRANCH   81   82
ATOM     82  C59 UNL A   1      36.192  23.344  26.347  1.00  0.00    +0.000 C 
ATOM    126  H35 UNL A   1      36.014  22.332  26.645  1.00  0.00    +0.000 H 
ATOM    127  H36 UNL A   1      36.252  24.038  27.158  1.00  0.00    +0.000 H 
BRANCH   82   83
ATOM    129  H38 UNL A   1      38.198  24.937  27.017  1.00  0.00    +0.000 H 
ATOM    130  H39 UNL A   1      39.238  24.765  25.653  1.00  0.00    +0.000 H 
ATOM    131  H40 UNL A   1      39.046  23.034  28.101  1.00  0.00    +0.000 H 
ATOM    132  H41 UNL A   1      40.474  23.608  27.338  1.00  0.00    +0.000 H 
ATOM    133  H42 UNL A   1      39.565  21.092  26.919  1.00  0.00    +0.000 H 
ATOM    134  H43 UNL A   1      40.379  21.901  25.665  1.00  0.00    +0.000 H 
ATOM     83  C60 UNL A   1      37.561  23.396  25.658  1.00  0.00    +0.000 C 
ATOM     84  C61 UNL A   1      38.645  24.222  26.358  1.00  0.00    +0.000 C 
ATOM     85  C62 UNL A   1      39.491  23.231  27.148  1.00  0.00    +0.000 C 
ATOM     86  C63 UNL A   1      39.523  21.965  26.304  1.00  0.00    +0.000 C 
ATOM     87  C64 UNL A   1      38.219  22.039  25.553  1.00  0.00    +0.000 C 
ATOM     88  O3  UNL A   1      37.755  21.106  24.907  1.00  0.00    +0.000 O 
ATOM    128  H37 UNL A   1      37.283  23.835  24.722  1.00  0.00    +0.000 H 
ENDBRANCH   82   83
ENDBRANCH   81   82
ENDBRANCH    2   78
ENDBRANCH    3    2
ENDBRANCH    5    3
ENDBRANCH    6    5
ENDBRANCH    7    6
ENDBRANCH    8    7
ENDBRANCH    9    8
ENDBRANCH   10    9
ENDBRANCH   11   10
ENDBRANCH   12   11
ENDBRANCH   13   12
ENDBRANCH   15   13
ENDBRANCH   19   18
BRANCH   23   24
ATOM     33  C24 UNL A   1      38.726  31.467  36.450  1.00  0.00    +0.000 C 
ATOM     34  F5  UNL A   1      38.225  30.224  36.379  1.00  0.00    +0.000 F 
ATOM     24  C19 UNL A   1      39.738  31.873  35.567  1.00  0.00    +0.000 C 
ATOM     25  C20 UNL A   1      40.222  33.183  35.678  1.00  0.00    +0.000 C 
ATOM     26  F1  UNL A   1      41.195  33.615  34.861  1.00  0.00    +0.000 F 
ATOM     27  C21 UNL A   1      39.716  34.054  36.641  1.00  0.00    +0.000 C 
ATOM     28  F2  UNL A   1      40.208  35.296  36.743  1.00  0.00    +0.000 F 
ATOM     29  C22 UNL A   1      38.703  33.637  37.492  1.00  0.00    +0.000 C 
ATOM     30  F3  UNL A   1      38.204  34.482  38.405  1.00  0.00    +0.000 F 
ATOM     31  C23 UNL A   1      38.207  32.345  37.397  1.00  0.00    +0.000 C 
ATOM     32  F4  UNL A   1      37.219  31.946  38.211  1.00  0.00    +0.000 F 
ENDBRANCH   23   24
BRANCH   40   41
ATOM     41  C30 UNL A   1      45.388  27.616  34.310  1.00  0.00    +0.000 C 
ATOM     42  C31 UNL A   1      45.449  26.434  35.062  1.00  0.00    +0.000 C 
ATOM     43  F6  UNL A   1      44.354  25.674  35.216  1.00  0.00    +0.000 F 
ATOM     44  C32 UNL A   1      46.630  26.048  35.691  1.00  0.00    +0.000 C 
ATOM     45  F7  UNL A   1      46.655  24.935  36.439  1.00  0.00    +0.000 F 
ATOM     46  C33 UNL A   1      47.775  26.817  35.556  1.00  0.00    +0.000 C 
ATOM     47  F8  UNL A   1      48.912  26.439  36.155  1.00  0.00    +0.000 F 
ATOM     48  C34 UNL A   1      47.740  27.983  34.804  1.00  0.00    +0.000 C 
ATOM     49  F9  UNL A   1      48.848  28.723  34.665  1.00  0.00    +0.000 F 
ATOM     50  C35 UNL A   1      46.555  28.386  34.196  1.00  0.00    +0.000 C 
ATOM     51  F10 UNL A   1      46.547  29.522  33.484  1.00  0.00    +0.000 F 
ENDBRANCH   40   41
BRANCH   55   56
ATOM     65  C44 UNL A   1      42.667  24.862  27.856  1.00  0.00    +0.000 C 
ATOM     66  F15 UNL A   1      42.001  24.205  28.817  1.00  0.00    +0.000 F 
ATOM     56  C39 UNL A   1      42.879  26.244  27.968  1.00  0.00    +0.000 C 
ATOM     57  C40 UNL A   1      43.584  26.881  26.939  1.00  0.00    +0.000 C 
ATOM     58  F11 UNL A   1      43.791  28.206  26.990  1.00  0.00    +0.000 F 
ATOM     59  C41 UNL A   1      44.036  26.171  25.828  1.00  0.00    +0.000 C 
ATOM     60  F12 UNL A   1      44.662  26.814  24.834  1.00  0.00    +0.000 F 
ATOM     61  C42 UNL A   1      43.818  24.804  25.742  1.00  0.00    +0.000 C 
ATOM     62  F13 UNL A   1      44.250  24.121  24.672  1.00  0.00    +0.000 F 
ATOM     63  C43 UNL A   1      43.143  24.147  26.759  1.00  0.00    +0.000 C 
ATOM     64  F14 UNL A   1      42.941  22.825  26.685  1.00  0.00    +0.000 F 
ENDBRANCH   55   56
TORSDOF 19
ENDMDL
MODEL 6
REMARK VINA RESULT:     -10.9      4.229      7.385
ROOT
ATOM     19  C15 UNL A   1      41.437  26.515  27.618  1.00  0.00    +0.000 C 
ATOM     20  C16 UNL A   1      42.844  26.756  27.152  1.00  0.00    +0.000 C 
ATOM     21  N3  UNL A   1      43.620  27.787  27.373  1.00  0.00    +0.000 N 
ATOM     22  C17 UNL A   1      44.829  27.489  26.758  1.00  0.00    +0.000 C 
ATOM     23  C18 UNL A   1      45.940  28.258  26.672  1.00  0.00    +0.000 C 
ATOM     35  C25 UNL A   1      46.054  29.589  27.208  1.00  0.00    +0.000 C 
ATOM     36  C26 UNL A   1      47.097  30.488  27.069  1.00  0.00    +0.000 C 
ATOM     37  C27 UNL A   1      46.790  31.633  27.808  1.00  0.00    +0.000 C 
ATOM     38  C28 UNL A   1      45.539  31.464  28.377  1.00  0.00    +0.000 C 
ATOM     39  N4  UNL A   1      45.094  30.210  27.992  1.00  0.00    +0.000 N 
ATOM     40  C29 UNL A   1      44.805  32.371  29.219  1.00  0.00    +0.000 C 
ATOM     52  C36 UNL A   1      43.546  32.161  29.672  1.00  0.00    +0.000 C 
ATOM     53  N5  UNL A   1      42.712  31.073  29.456  1.00  0.00    +0.000 N 
ATOM     54  C37 UNL A   1      41.612  31.326  30.118  1.00  0.00    +0.000 C 
ATOM     55  C38 UNL A   1      40.361  30.497  30.231  1.00  0.00    +0.000 C 
ATOM     67  C45 UNL A   1      40.282  29.327  29.569  1.00  0.00    +0.000 C 
ATOM     68  C46 UNL A   1      39.143  28.417  29.598  1.00  0.00    +0.000 C 
ATOM     69  C47 UNL A   1      39.448  27.312  28.901  1.00  0.00    +0.000 C 
ATOM     70  C48 UNL A   1      40.794  27.451  28.344  1.00  0.00    +0.000 C 
ATOM     71  N6  UNL A   1      41.198  28.696  28.763  1.00  0.00    +0.000 N 
ATOM     72  C49 UNL A   1      41.630  32.604  30.846  1.00  0.00    +0.000 C 
ATOM     73  C50 UNL A   1      42.817  33.087  30.512  1.00  0.00    +0.000 C 
ATOM     74  C51 UNL A   1      44.697  26.169  26.181  1.00  0.00    +0.000 C 
ATOM     75  C52 UNL A   1      43.471  25.692  26.353  1.00  0.00    +0.000 C 
ATOM    112  H21 UNL A   1      47.954  30.338  26.513  1.00  0.00    +0.000 H 
ATOM    113  H22 UNL A   1      47.393  32.465  27.914  1.00  0.00    +0.000 H 
ATOM    114  H23 UNL A   1      44.225  29.817  28.238  1.00  0.00    +0.000 H 
ATOM    115  H24 UNL A   1      38.246  28.595  30.078  1.00  0.00    +0.000 H 
ATOM    116  H25 UNL A   1      38.832  26.494  28.778  1.00  0.00    +0.000 H 
ATOM    117  H26 UNL A   1      42.060  29.098  28.508  1.00  0.00    +0.000 H 
ATOM    118  H27 UNL A   1      40.907  33.015  31.456  1.00  0.00    +0.000 H 
ATOM    119  H28 UNL A   1      43.176  34.007  30.812  1.00  0.00    +0.000 H 
ATOM    120  H29 UNL A   1      45.457  25.665  25.698  1.00  0.00    +0.000 H 
ATOM    121  H30 UNL A   1      43.063  24.806  26.016  1.00  0.00    +0.000 H 
ENDROOT
BRANCH   19   18
ATOM     76  C53 UNL A   1      39.678  25.144  26.498  1.00  0.00    +0.000 C 
ATOM     77  C54 UNL A   1      39.101  23.914  26.181  1.00  0.00    +0.000 C 
ATOM    110  H19 UNL A   1      41.092  21.921  28.004  1.00  0.00    +0.000 H 
ATOM     15  C11 UNL A   1      39.668  22.735  26.672  1.00  0.00    +0.000 C 
ATOM     16  C12 UNL A   1      40.718  22.790  27.592  1.00  0.00    +0.000 C 
ATOM     17  C13 UNL A   1      41.260  24.026  27.953  1.00  0.00    +0.000 C 
ATOM    111  H20 UNL A   1      42.021  24.070  28.650  1.00  0.00    +0.000 H 
ATOM     18  C14 UNL A   1      40.774  25.209  27.373  1.00  0.00    +0.000 C 
ATOM    122  H31 UNL A   1      39.296  26.011  26.088  1.00  0.00    +0.000 H 
ATOM    123  H32 UNL A   1      38.259  23.876  25.586  1.00  0.00    +0.000 H 
BRANCH   15   13
ATOM     13  C10 UNL A   1      39.178  21.411  26.227  1.00  0.00    +0.000 C 
ATOM     14  O2  UNL A   1      39.935  20.445  26.245  1.00  0.00    +0.000 O 
BRANCH   13   12
ATOM     12  N2  UNL A   1      37.889  21.274  25.775  1.00  0.00    +0.000 N 
ATOM    109  H18 UNL A   1      37.196  21.261  26.474  1.00  0.00    +0.000 H 
BRANCH   12   11
ATOM     11  C9  UNL A   1      37.400  21.144  24.412  1.00  0.00    +0.000 C 
ATOM    108  H17 UNL A   1      36.968  20.170  24.312  1.00  0.00    +0.000 H 
ATOM    107  H16 UNL A   1      38.220  21.281  23.738  1.00  0.00    +0.000 H 
BRANCH   11   10
ATOM    105  H14 UNL A   1      36.739  22.893  23.415  1.00  0.00    +0.000 H 
ATOM     10  C8  UNL A   1      36.318  22.169  24.080  1.00  0.00    +0.000 C 
ATOM    106  H15 UNL A   1      35.507  21.619  23.649  1.00  0.00    +0.000 H 
BRANCH   10    9
ATOM      9  C7  UNL A   1      35.738  22.911  25.286  1.00  0.00    +0.000 C 
ATOM    103  H12 UNL A   1      34.866  22.383  25.611  1.00  0.00    +0.000 H 
ATOM    104  H13 UNL A   1      36.519  22.940  26.018  1.00  0.00    +0.000 H 
BRANCH    9    8
ATOM    101  H10 UNL A   1      36.224  24.969  25.120  1.00  0.00    +0.000 H 
ATOM    102  H11 UNL A   1      34.904  24.387  24.055  1.00  0.00    +0.000 H 
ATOM      8  C6  UNL A   1      35.343  24.368  25.031  1.00  0.00    +0.000 C 
BRANCH    8    7
ATOM     99  H8  UNL A   1      33.427  24.302  25.953  1.00  0.00    +0.000 H 
ATOM    100  H9  UNL A   1      34.737  24.996  26.947  1.00  0.00    +0.000 H 
ATOM      7  C5  UNL A   1      34.282  24.944  25.980  1.00  0.00    +0.000 C 
BRANCH    7    6
ATOM     97  H6  UNL A   1      34.383  27.062  26.226  1.00  0.00    +0.000 H 
ATOM     98  H7  UNL A   1      33.990  26.532  24.596  1.00  0.00    +0.000 H 
ATOM      6  C4  UNL A   1      33.824  26.363  25.639  1.00  0.00    +0.000 C 
BRANCH    6    5
ATOM      5  N1  UNL A   1      32.414  26.536  25.915  1.00  0.00    +0.000 N 
ATOM     96  H5  UNL A   1      32.182  26.566  26.870  1.00  0.00    +0.000 H 
BRANCH    5    3
ATOM      3  C3  UNL A   1      31.353  26.663  25.067  1.00  0.00    +0.000 C 
ATOM      4  O1  UNL A   1      31.234  27.755  24.507  1.00  0.00    +0.000 O 
BRANCH    3    2
ATOM      2  C2  UNL A   1      30.359  25.499  24.878  1.00  0.00    +0.000 C 
ATOM     95  H4  UNL A   1      29.775  25.765  24.023  1.00  0.00    +0.000 H 
BRANCH    2    1
ATOM      1  C1  UNL A   1      29.411  25.325  26.070  1.00  0.00    +0.000 C 
ATOM     92  H1  UNL A   1      28.818  26.209  26.186  1.00  0.00    +0.000 H 
ATOM     93  H2  UNL A   1      29.983  25.161  26.960  1.00  0.00    +0.000 H 
ATOM     94  H3  UNL A   1      28.771  24.485  25.898  1.00  0.00    +0.000 H 
ENDBRANCH    2    1
BRANCH    2   78
ATOM    135  H44 UNL A   1      33.040  22.513  22.430  1.00  0.00    +0.000 H 
ATOM     78  C55 UNL A   1      31.074  24.173  24.605  1.00  0.00    +0.000 C 
ATOM     79  C56 UNL A   1      30.975  23.144  25.564  1.00  0.00    +0.000 C 
ATOM     80  C57 UNL A   1      31.619  21.918  25.393  1.00  0.00    +0.000 C 
ATOM     81  C58 UNL A   1      32.403  21.684  24.263  1.00  0.00    +0.000 C 
ATOM     89  C65 UNL A   1      32.487  22.684  23.285  1.00  0.00    +0.000 C 
ATOM     90  C66 UNL A   1      31.830  23.914  23.450  1.00  0.00    +0.000 C 
ATOM     91 Br1  UNL A   1      32.027  25.169  22.034  1.00  0.00    +0.000 Br
ATOM    124  H33 UNL A   1      30.412  23.301  26.413  1.00  0.00    +0.000 H 
ATOM    125  H34 UNL A   1      31.514  21.181  26.106  1.00  0.00    +0.000 H 
BRANCH   81   82
ATOM     82  C59 UNL A   1      33.166  20.389  24.119  1.00  0.00    +0.000 C 
ATOM    126  H35 UNL A   1      33.796  20.285  24.978  1.00  0.00    +0.000 H 
ATOM    127  H36 UNL A   1      33.696  20.471  23.193  1.00  0.00    +0.000 H 
BRANCH   82   83
ATOM    129  H38 UNL A   1      32.753  19.014  21.894  1.00  0.00    +0.000 H 
ATOM    130  H39 UNL A   1      31.458  17.981  22.370  1.00  0.00    +0.000 H 
ATOM    131  H40 UNL A   1      34.413  17.585  22.741  1.00  0.00    +0.000 H 
ATOM    132  H41 UNL A   1      33.264  16.427  22.202  1.00  0.00    +0.000 H 
ATOM    133  H42 UNL A   1      34.132  16.462  24.766  1.00  0.00    +0.000 H 
ATOM    134  H43 UNL A   1      32.541  15.964  24.434  1.00  0.00    +0.000 H 
ATOM     83  C60 UNL A   1      32.320  19.116  23.999  1.00  0.00    +0.000 C 
ATOM     84  C61 UNL A   1      32.412  18.360  22.669  1.00  0.00    +0.000 C 
ATOM     85  C62 UNL A   1      33.414  17.233  22.890  1.00  0.00    +0.000 C 
ATOM     86  C63 UNL A   1      33.213  16.791  24.332  1.00  0.00    +0.000 C 
ATOM     87  C64 UNL A   1      32.717  18.050  24.995  1.00  0.00    +0.000 C 
ATOM     88  O3  UNL A   1      32.624  18.185  26.210  1.00  0.00    +0.000 O 
ATOM    128  H37 UNL A   1      31.342  19.527  24.145  1.00  0.00    +0.000 H 
ENDBRANCH   82   83
ENDBRANCH   81   82
ENDBRANCH    2   78
ENDBRANCH    3    2
ENDBRANCH    5    3
ENDBRANCH    6    5
ENDBRANCH    7    6
ENDBRANCH    8    7
ENDBRANCH    9    8
ENDBRANCH   10    9
ENDBRANCH   11   10
ENDBRANCH   12   11
ENDBRANCH   13   12
ENDBRANCH   15   13
ENDBRANCH   19   18
BRANCH   23   24
ATOM     33  C24 UNL A   1      48.205  27.160  26.697  1.00  0.00    +0.000 C 
ATOM     34  F5  UNL A   1      48.134  27.078  28.034  1.00  0.00    +0.000 F 
ATOM     24  C19 UNL A   1      47.134  27.694  25.963  1.00  0.00    +0.000 C 
ATOM     25  C20 UNL A   1      47.261  27.764  24.569  1.00  0.00    +0.000 C 
ATOM     26  F1  UNL A   1      46.262  28.260  23.825  1.00  0.00    +0.000 F 
ATOM     27  C21 UNL A   1      48.414  27.311  23.932  1.00  0.00    +0.000 C 
ATOM     28  F2  UNL A   1      48.506  27.368  22.597  1.00  0.00    +0.000 F 
ATOM     29  C22 UNL A   1      49.467  26.803  24.678  1.00  0.00    +0.000 C 
ATOM     30  F3  UNL A   1      50.584  26.385  24.065  1.00  0.00    +0.000 F 
ATOM     31  C23 UNL A   1      49.364  26.728  26.060  1.00  0.00    +0.000 C 
ATOM     32  F4  UNL A   1      50.386  26.248  26.782  1.00  0.00    +0.000 F 
ENDBRANCH   23   24
BRANCH   40   41
ATOM     41  C30 UNL A   1      45.473  33.652  29.620  1.00  0.00    +0.000 C 
ATOM     42  C31 UNL A   1      45.317  34.821  28.862  1.00  0.00    +0.000 C 
ATOM     43  F6  UNL A   1      44.608  34.798  27.723  1.00  0.00    +0.000 F 
ATOM     44  C32 UNL A   1      45.922  36.012  29.254  1.00  0.00    +0.000 C 
ATOM     45  F7  UNL A   1      45.794  37.108  28.494  1.00  0.00    +0.000 F 
ATOM     46  C33 UNL A   1      46.666  36.063  30.423  1.00  0.00    +0.000 C 
ATOM     47  F8  UNL A   1      47.241  37.213  30.803  1.00  0.00    +0.000 F 
ATOM     48  C34 UNL A   1      46.821  34.921  31.195  1.00  0.00    +0.000 C 
ATOM     49  F9  UNL A   1      47.533  34.971  32.330  1.00  0.00    +0.000 F 
ATOM     50  C35 UNL A   1      46.240  33.722  30.792  1.00  0.00    +0.000 C 
ATOM     51  F10 UNL A   1      46.414  32.632  31.553  1.00  0.00    +0.000 F 
ENDBRANCH   40   41
BRANCH   55   56
ATOM     65  C44 UNL A   1      38.185  31.728  30.529  1.00  0.00    +0.000 C 
ATOM     66  F15 UNL A   1      38.216  32.086  29.237  1.00  0.00    +0.000 F 
ATOM     56  C39 UNL A   1      39.224  30.958  31.070  1.00  0.00    +0.000 C 
ATOM     57  C40 UNL A   1      39.145  30.615  32.427  1.00  0.00    +0.000 C 
ATOM     58  F11 UNL A   1      40.104  29.859  32.982  1.00  0.00    +0.000 F 
ATOM     59  C41 UNL A   1      38.057  31.004  33.205  1.00  0.00    +0.000 C 
ATOM     60  F12 UNL A   1      37.981  30.618  34.486  1.00  0.00    +0.000 F 
ATOM     61  C42 UNL A   1      37.042  31.769  32.649  1.00  0.00    +0.000 C 
ATOM     62  F13 UNL A   1      35.994  32.140  33.397  1.00  0.00    +0.000 F 
ATOM     63  C43 UNL A   1      37.111  32.140  31.314  1.00  0.00    +0.000 C 
ATOM     64  F14 UNL A   1      36.139  32.889  30.777  1.00  0.00    +0.000 F 
ENDBRANCH   55   56
TORSDOF 19
ENDMDL
MODEL 7
REMARK VINA RESULT:     -10.7      3.072      7.890
ROOT
ATOM     19  C15 UNL A   1      40.118  28.856  29.388  1.00  0.00    +0.000 C 
ATOM     20  C16 UNL A   1      41.012  29.786  30.157  1.00  0.00    +0.000 C 
ATOM     21  N3  UNL A   1      42.274  29.642  30.475  1.00  0.00    +0.000 N 
ATOM     22  C17 UNL A   1      42.630  30.804  31.147  1.00  0.00    +0.000 C 
ATOM     23  C18 UNL A   1      43.821  31.118  31.709  1.00  0.00    +0.000 C 
ATOM     35  C25 UNL A   1      44.967  30.248  31.730  1.00  0.00    +0.000 C 
ATOM     36  C26 UNL A   1      46.177  30.432  32.377  1.00  0.00    +0.000 C 
ATOM     37  C27 UNL A   1      47.007  29.351  32.068  1.00  0.00    +0.000 C 
ATOM     38  C28 UNL A   1      46.302  28.475  31.260  1.00  0.00    +0.000 C 
ATOM     39  N4  UNL A   1      45.048  29.032  31.069  1.00  0.00    +0.000 N 
ATOM     40  C29 UNL A   1      46.740  27.227  30.692  1.00  0.00    +0.000 C 
ATOM     52  C36 UNL A   1      45.957  26.387  29.973  1.00  0.00    +0.000 C 
ATOM     53  N5  UNL A   1      44.624  26.527  29.619  1.00  0.00    +0.000 N 
ATOM     54  C37 UNL A   1      44.327  25.468  28.908  1.00  0.00    +0.000 C 
ATOM     55  C38 UNL A   1      43.017  25.088  28.273  1.00  0.00    +0.000 C 
ATOM     67  C45 UNL A   1      41.949  25.892  28.432  1.00  0.00    +0.000 C 
ATOM     68  C46 UNL A   1      40.626  25.659  27.864  1.00  0.00    +0.000 C 
ATOM     69  C47 UNL A   1      39.836  26.706  28.149  1.00  0.00    +0.000 C 
ATOM     70  C48 UNL A   1      40.589  27.670  28.953  1.00  0.00    +0.000 C 
ATOM     71  N6  UNL A   1      41.823  27.085  29.103  1.00  0.00    +0.000 N 
ATOM     72  C49 UNL A   1      45.451  24.540  28.717  1.00  0.00    +0.000 C 
ATOM     73  C50 UNL A   1      46.410  25.130  29.415  1.00  0.00    +0.000 C 
ATOM     74  C51 UNL A   1      41.463  31.659  31.164  1.00  0.00    +0.000 C 
ATOM     75  C52 UNL A   1      40.420  31.055  30.608  1.00  0.00    +0.000 C 
ATOM    112  H21 UNL A   1      46.423  31.229  32.985  1.00  0.00    +0.000 H 
ATOM    113  H22 UNL A   1      47.982  29.226  32.387  1.00  0.00    +0.000 H 
ATOM    114  H23 UNL A   1      44.322  28.625  30.542  1.00  0.00    +0.000 H 
ATOM    115  H24 UNL A   1      40.342  24.822  27.330  1.00  0.00    +0.000 H 
ATOM    116  H25 UNL A   1      38.855  26.814  27.848  1.00  0.00    +0.000 H 
ATOM    117  H26 UNL A   1      42.547  27.481  29.639  1.00  0.00    +0.000 H 
ATOM    118  H27 UNL A   1      45.485  23.659  28.181  1.00  0.00    +0.000 H 
ATOM    119  H28 UNL A   1      47.358  24.744  29.545  1.00  0.00    +0.000 H 
ATOM    120  H29 UNL A   1      41.444  32.613  31.556  1.00  0.00    +0.000 H 
ATOM    121  H30 UNL A   1      39.447  31.388  30.516  1.00  0.00    +0.000 H 
ENDROOT
BRANCH   19   18
ATOM     76  C53 UNL A   1      38.494  29.746  27.714  1.00  0.00    +0.000 C 
ATOM     77  C54 UNL A   1      37.194  30.050  27.312  1.00  0.00    +0.000 C 
ATOM    110  H19 UNL A   1      35.577  29.271  30.147  1.00  0.00    +0.000 H 
ATOM     15  C11 UNL A   1      36.124  29.803  28.177  1.00  0.00    +0.000 C 
ATOM     16  C12 UNL A   1      36.364  29.390  29.491  1.00  0.00    +0.000 C 
ATOM     17  C13 UNL A   1      37.672  29.138  29.910  1.00  0.00    +0.000 C 
ATOM    111  H20 UNL A   1      37.853  28.855  30.887  1.00  0.00    +0.000 H 
ATOM     18  C14 UNL A   1      38.743  29.270  29.011  1.00  0.00    +0.000 C 
ATOM    122  H31 UNL A   1      39.278  29.872  27.055  1.00  0.00    +0.000 H 
ATOM    123  H32 UNL A   1      37.022  30.456  26.379  1.00  0.00    +0.000 H 
BRANCH   15   13
ATOM     13  C10 UNL A   1      34.725  29.965  27.724  1.00  0.00    +0.000 C 
ATOM     14  O2  UNL A   1      34.077  30.941  28.090  1.00  0.00    +0.000 O 
BRANCH   13   12
ATOM     12  N2  UNL A   1      34.150  29.013  26.918  1.00  0.00    +0.000 N 
ATOM    109  H18 UNL A   1      34.649  28.800  26.097  1.00  0.00    +0.000 H 
BRANCH   12   11
ATOM     11  C9  UNL A   1      32.911  28.276  27.104  1.00  0.00    +0.000 C 
ATOM    108  H17 UNL A   1      32.108  28.899  26.768  1.00  0.00    +0.000 H 
ATOM    107  H16 UNL A   1      32.809  28.030  28.140  1.00  0.00    +0.000 H 
BRANCH   11   10
ATOM    105  H14 UNL A   1      33.036  27.237  25.262  1.00  0.00    +0.000 H 
ATOM     10  C8  UNL A   1      32.871  26.986  26.288  1.00  0.00    +0.000 C 
ATOM    106  H15 UNL A   1      33.628  26.351  26.697  1.00  0.00    +0.000 H 
BRANCH   10    9
ATOM      9  C7  UNL A   1      31.559  26.203  26.381  1.00  0.00    +0.000 C 
ATOM    103  H12 UNL A   1      31.135  26.382  27.347  1.00  0.00    +0.000 H 
ATOM    104  H13 UNL A   1      30.950  26.552  25.573  1.00  0.00    +0.000 H 
BRANCH    9    8
ATOM    101  H10 UNL A   1      30.865  24.225  26.700  1.00  0.00    +0.000 H 
ATOM    102  H11 UNL A   1      31.689  24.524  25.135  1.00  0.00    +0.000 H 
ATOM      8  C6  UNL A   1      31.685  24.689  26.193  1.00  0.00    +0.000 C 
BRANCH    8    7
ATOM     99  H8  UNL A   1      33.792  24.401  26.110  1.00  0.00    +0.000 H 
ATOM    100  H9  UNL A   1      33.072  24.366  27.744  1.00  0.00    +0.000 H 
ATOM      7  C5  UNL A   1      32.983  24.061  26.722  1.00  0.00    +0.000 C 
BRANCH    7    6
ATOM     97  H6  UNL A   1      32.789  22.179  27.712  1.00  0.00    +0.000 H 
ATOM     98  H7  UNL A   1      32.251  22.184  26.038  1.00  0.00    +0.000 H 
ATOM      6  C4  UNL A   1      32.997  22.531  26.723  1.00  0.00    +0.000 C 
BRANCH    6    5
ATOM      5  N1  UNL A   1      34.283  22.021  26.300  1.00  0.00    +0.000 N 
ATOM     96  H5  UNL A   1      34.486  21.109  26.607  1.00  0.00    +0.000 H 
BRANCH    5    3
ATOM      3  C3  UNL A   1      35.262  22.598  25.545  1.00  0.00    +0.000 C 
ATOM      4  O1  UNL A   1      36.157  23.175  26.167  1.00  0.00    +0.000 O 
BRANCH    3    2
ATOM      2  C2  UNL A   1      35.196  22.545  24.005  1.00  0.00    +0.000 C 
ATOM     95  H4  UNL A   1      34.908  21.542  23.772  1.00  0.00    +0.000 H 
BRANCH    2    1
ATOM      1  C1  UNL A   1      36.549  22.821  23.341  1.00  0.00    +0.000 C 
ATOM     92  H1  UNL A   1      36.944  21.909  22.944  1.00  0.00    +0.000 H 
ATOM     93  H2  UNL A   1      37.229  23.217  24.067  1.00  0.00    +0.000 H 
ATOM     94  H3  UNL A   1      36.421  23.529  22.549  1.00  0.00    +0.000 H 
ENDBRANCH    2    1
BRANCH    2   78
ATOM    135  H44 UNL A   1      31.020  23.762  22.223  1.00  0.00    +0.000 H 
ATOM     78  C55 UNL A   1      34.150  23.512  23.442  1.00  0.00    +0.000 C 
ATOM     79  C56 UNL A   1      34.478  24.880  23.350  1.00  0.00    +0.000 C 
ATOM     80  C57 UNL A   1      33.568  25.821  22.869  1.00  0.00    +0.000 C 
ATOM     81  C58 UNL A   1      32.287  25.429  22.480  1.00  0.00    +0.000 C 
ATOM     89  C65 UNL A   1      31.955  24.070  22.535  1.00  0.00    +0.000 C 
ATOM     90  C66 UNL A   1      32.874  23.119  23.008  1.00  0.00    +0.000 C 
ATOM     91 Br1  UNL A   1      32.285  21.311  23.015  1.00  0.00    +0.000 Br
ATOM    124  H33 UNL A   1      35.415  25.193  23.646  1.00  0.00    +0.000 H 
ATOM    125  H34 UNL A   1      33.844  26.812  22.801  1.00  0.00    +0.000 H 
BRANCH   81   82
ATOM     82  C59 UNL A   1      31.275  26.460  22.039  1.00  0.00    +0.000 C 
ATOM    126  H35 UNL A   1      30.386  25.941  21.747  1.00  0.00    +0.000 H 
ATOM    127  H36 UNL A   1      31.747  27.004  21.248  1.00  0.00    +0.000 H 
BRANCH   82   83
ATOM    129  H38 UNL A   1      32.000  29.007  22.014  1.00  0.00    +0.000 H 
ATOM    130  H39 UNL A   1      31.562  29.500  23.607  1.00  0.00    +0.000 H 
ATOM    131  H40 UNL A   1      29.851  29.372  21.140  1.00  0.00    +0.000 H 
ATOM    132  H41 UNL A   1      29.928  30.644  22.292  1.00  0.00    +0.000 H 
ATOM    133  H42 UNL A   1      27.935  28.812  22.348  1.00  0.00    +0.000 H 
ATOM    134  H43 UNL A   1      28.486  29.487  23.808  1.00  0.00    +0.000 H 
ATOM     83  C60 UNL A   1      30.882  27.511  23.084  1.00  0.00    +0.000 C 
ATOM     84  C61 UNL A   1      31.219  28.967  22.745  1.00  0.00    +0.000 C 
ATOM     85  C62 UNL A   1      29.940  29.580  22.186  1.00  0.00    +0.000 C 
ATOM     86  C63 UNL A   1      28.806  28.921  22.958  1.00  0.00    +0.000 C 
ATOM     87  C64 UNL A   1      29.390  27.580  23.318  1.00  0.00    +0.000 C 
ATOM     88  O3  UNL A   1      28.730  26.653  23.774  1.00  0.00    +0.000 O 
ATOM    128  H37 UNL A   1      31.454  27.166  23.921  1.00  0.00    +0.000 H 
ENDBRANCH   82   83
ENDBRANCH   81   82
ENDBRANCH    2   78
ENDBRANCH    3    2
ENDBRANCH    5    3
ENDBRANCH    6    5
ENDBRANCH    7    6
ENDBRANCH    8    7
ENDBRANCH    9    8
ENDBRANCH   10    9
ENDBRANCH   11   10
ENDBRANCH   12   11
ENDBRANCH   13   12
ENDBRANCH   15   13
ENDBRANCH   19   18
BRANCH   23   24
ATOM     33  C24 UNL A   1      43.571  32.634  33.702  1.00  0.00    +0.000 C 
ATOM     34  F5  UNL A   1      43.148  31.588  34.426  1.00  0.00    +0.000 F 
ATOM     24  C19 UNL A   1      43.959  32.458  32.365  1.00  0.00    +0.000 C 
ATOM     25  C20 UNL A   1      44.388  33.585  31.650  1.00  0.00    +0.000 C 
ATOM     26  F1  UNL A   1      44.775  33.466  30.371  1.00  0.00    +0.000 F 
ATOM     27  C21 UNL A   1      44.431  34.840  32.252  1.00  0.00    +0.000 C 
ATOM     28  F2  UNL A   1      44.864  35.901  31.557  1.00  0.00    +0.000 F 
ATOM     29  C22 UNL A   1      44.026  34.995  33.570  1.00  0.00    +0.000 C 
ATOM     30  F3  UNL A   1      44.051  36.207  34.142  1.00  0.00    +0.000 F 
ATOM     31  C23 UNL A   1      43.595  33.893  34.295  1.00  0.00    +0.000 C 
ATOM     32  F4  UNL A   1      43.193  34.044  35.565  1.00  0.00    +0.000 F 
ENDBRANCH   23   24
BRANCH   40   41
ATOM     41  C30 UNL A   1      48.163  26.814  30.918  1.00  0.00    +0.000 C 
ATOM     42  C31 UNL A   1      49.194  27.271  30.085  1.00  0.00    +0.000 C 
ATOM     43  F6  UNL A   1      48.914  28.047  29.027  1.00  0.00    +0.000 F 
ATOM     44  C32 UNL A   1      50.516  26.901  30.317  1.00  0.00    +0.000 C 
ATOM     45  F7  UNL A   1      51.481  27.316  29.484  1.00  0.00    +0.000 F 
ATOM     46  C33 UNL A   1      50.834  26.094  31.398  1.00  0.00    +0.000 C 
ATOM     47  F8  UNL A   1      52.109  25.745  31.624  1.00  0.00    +0.000 F 
ATOM     48  C34 UNL A   1      49.830  25.642  32.243  1.00  0.00    +0.000 C 
ATOM     49  F9  UNL A   1      50.138  24.870  33.295  1.00  0.00    +0.000 F 
ATOM     50  C35 UNL A   1      48.505  25.989  32.000  1.00  0.00    +0.000 C 
ATOM     51  F10 UNL A   1      47.554  25.530  32.827  1.00  0.00    +0.000 F 
ENDBRANCH   40   41
BRANCH   55   56
ATOM     65  C44 UNL A   1      43.224  23.823  26.106  1.00  0.00    +0.000 C 
ATOM     66  F15 UNL A   1      43.623  24.947  25.494  1.00  0.00    +0.000 F 
ATOM     56  C39 UNL A   1      42.901  23.843  27.471  1.00  0.00    +0.000 C 
ATOM     57  C40 UNL A   1      42.485  22.642  28.061  1.00  0.00    +0.000 C 
ATOM     58  F11 UNL A   1      42.188  22.607  29.369  1.00  0.00    +0.000 F 
ATOM     59  C41 UNL A   1      42.421  21.462  27.323  1.00  0.00    +0.000 C 
ATOM     60  F12 UNL A   1      42.071  20.317  27.924  1.00  0.00    +0.000 F 
ATOM     61  C42 UNL A   1      42.742  21.467  25.973  1.00  0.00    +0.000 C 
ATOM     62  F13 UNL A   1      42.684  20.331  25.265  1.00  0.00    +0.000 F 
ATOM     63  C43 UNL A   1      43.134  22.649  25.363  1.00  0.00    +0.000 C 
ATOM     64  F14 UNL A   1      43.433  22.661  24.057  1.00  0.00    +0.000 F 
ENDBRANCH   55   56
TORSDOF 19
ENDMDL
MODEL 8
REMARK VINA RESULT:     -10.5      4.434      9.946
ROOT
ATOM     19  C15 UNL A   1      41.887  26.063  27.897  1.00  0.00    +0.000 C 
ATOM     20  C16 UNL A   1      41.171  27.165  28.623  1.00  0.00    +0.000 C 
ATOM     21  N3  UNL A   1      41.574  28.386  28.872  1.00  0.00    +0.000 N 
ATOM     22  C17 UNL A   1      40.520  29.005  29.531  1.00  0.00    +0.000 C 
ATOM     23  C18 UNL A   1      40.463  30.262  30.030  1.00  0.00    +0.000 C 
ATOM     35  C25 UNL A   1      41.548  31.207  29.983  1.00  0.00    +0.000 C 
ATOM     36  C26 UNL A   1      41.625  32.461  30.565  1.00  0.00    +0.000 C 
ATOM     37  C27 UNL A   1      42.846  33.038  30.204  1.00  0.00    +0.000 C 
ATOM     38  C28 UNL A   1      43.546  32.128  29.429  1.00  0.00    +0.000 C 
ATOM     39  N4  UNL A   1      42.743  31.006  29.310  1.00  0.00    +0.000 N 
ATOM     40  C29 UNL A   1      44.846  32.274  28.829  1.00  0.00    +0.000 C 
ATOM     52  C36 UNL A   1      45.498  31.301  28.148  1.00  0.00    +0.000 C 
ATOM     53  N5  UNL A   1      45.084  30.007  27.867  1.00  0.00    +0.000 N 
ATOM     54  C37 UNL A   1      46.048  29.465  27.167  1.00  0.00    +0.000 C 
ATOM     55  C38 UNL A   1      46.144  28.074  26.601  1.00  0.00    +0.000 C 
ATOM     67  C45 UNL A   1      45.142  27.201  26.823  1.00  0.00    +0.000 C 
ATOM     68  C46 UNL A   1      45.093  25.831  26.326  1.00  0.00    +0.000 C 
ATOM     69  C47 UNL A   1      43.913  25.286  26.660  1.00  0.00    +0.000 C 
ATOM     70  C48 UNL A   1      43.135  26.260  27.429  1.00  0.00    +0.000 C 
ATOM     71  N6  UNL A   1      43.961  27.355  27.507  1.00  0.00    +0.000 N 
ATOM     72  C49 UNL A   1      47.181  30.366  26.909  1.00  0.00    +0.000 C 
ATOM     73  C50 UNL A   1      46.810  31.459  27.558  1.00  0.00    +0.000 C 
ATOM     74  C51 UNL A   1      39.447  28.039  29.617  1.00  0.00    +0.000 C 
ATOM     75  C52 UNL A   1      39.816  26.868  29.114  1.00  0.00    +0.000 C 
ATOM    112  H21 UNL A   1      40.904  32.895  31.164  1.00  0.00    +0.000 H 
ATOM    113  H22 UNL A   1      43.171  33.981  30.469  1.00  0.00    +0.000 H 
ATOM    114  H23 UNL A   1      42.985  30.186  28.820  1.00  0.00    +0.000 H 
ATOM    115  H24 UNL A   1      45.845  25.356  25.802  1.00  0.00    +0.000 H 
ATOM    116  H25 UNL A   1      43.603  24.334  26.414  1.00  0.00    +0.000 H 
ATOM    117  H26 UNL A   1      43.729  28.171  28.007  1.00  0.00    +0.000 H 
ATOM    118  H27 UNL A   1      48.041  30.192  26.365  1.00  0.00    +0.000 H 
ATOM    119  H28 UNL A   1      47.383  32.314  27.634  1.00  0.00    +0.000 H 
ATOM    120  H29 UNL A   1      38.516  28.234  30.016  1.00  0.00    +0.000 H 
ATOM    121  H30 UNL A   1      39.292  25.980  29.077  1.00  0.00    +0.000 H 
ENDROOT
BRANCH   19   18
ATOM     76  C53 UNL A   1      40.151  24.762  26.661  1.00  0.00    +0.000 C 
ATOM     77  C54 UNL A   1      39.553  23.556  26.297  1.00  0.00    +0.000 C 
ATOM    110  H19 UNL A   1      41.368  21.480  28.209  1.00  0.00    +0.000 H 
ATOM     15  C11 UNL A   1      40.051  22.354  26.806  1.00  0.00    +0.000 C 
ATOM     16  C12 UNL A   1      41.048  22.365  27.787  1.00  0.00    +0.000 C 
ATOM     17  C13 UNL A   1      41.608  23.579  28.192  1.00  0.00    +0.000 C 
ATOM    111  H20 UNL A   1      42.328  23.590  28.932  1.00  0.00    +0.000 H 
ATOM     18  C14 UNL A   1      41.196  24.783  27.598  1.00  0.00    +0.000 C 
ATOM    122  H31 UNL A   1      39.823  25.646  26.240  1.00  0.00    +0.000 H 
ATOM    123  H32 UNL A   1      38.747  23.552  25.654  1.00  0.00    +0.000 H 
BRANCH   15   13
ATOM     13  C10 UNL A   1      39.545  21.052  26.319  1.00  0.00    +0.000 C 
ATOM     14  O2  UNL A   1      40.316  20.104  26.204  1.00  0.00    +0.000 O 
BRANCH   13   12
ATOM     12  N2  UNL A   1      38.222  20.916  25.975  1.00  0.00    +0.000 N 
ATOM    109  H18 UNL A   1      37.579  21.084  26.700  1.00  0.00    +0.000 H 
BRANCH   12   11
ATOM     11  C9  UNL A   1      37.636  20.559  24.693  1.00  0.00    +0.000 C 
ATOM    108  H17 UNL A   1      36.903  19.800  24.870  1.00  0.00    +0.000 H 
ATOM    107  H16 UNL A   1      38.413  20.210  24.045  1.00  0.00    +0.000 H 
BRANCH   11   10
ATOM    105  H14 UNL A   1      37.645  22.528  23.911  1.00  0.00    +0.000 H 
ATOM     10  C8  UNL A   1      36.934  21.738  24.024  1.00  0.00    +0.000 C 
ATOM    106  H15 UNL A   1      36.556  21.371  23.092  1.00  0.00    +0.000 H 
BRANCH   10    9
ATOM      9  C7  UNL A   1      35.728  22.290  24.787  1.00  0.00    +0.000 C 
ATOM    103  H12 UNL A   1      34.857  21.766  24.453  1.00  0.00    +0.000 H 
ATOM    104  H13 UNL A   1      35.944  22.144  25.825  1.00  0.00    +0.000 H 
BRANCH    9    8
ATOM    101  H10 UNL A   1      36.385  24.242  24.282  1.00  0.00    +0.000 H 
ATOM    102  H11 UNL A   1      34.669  23.872  23.913  1.00  0.00    +0.000 H 
ATOM      8  C6  UNL A   1      35.473  23.790  24.614  1.00  0.00    +0.000 C 
BRANCH    8    7
ATOM     99  H8  UNL A   1      34.674  23.808  26.586  1.00  0.00    +0.000 H 
ATOM    100  H9  UNL A   1      35.851  25.100  26.219  1.00  0.00    +0.000 H 
ATOM      7  C5  UNL A   1      35.010  24.534  25.875  1.00  0.00    +0.000 C 
BRANCH    7    6
ATOM     97  H6  UNL A   1      32.987  25.173  26.115  1.00  0.00    +0.000 H 
ATOM     98  H7  UNL A   1      34.166  26.478  26.063  1.00  0.00    +0.000 H 
ATOM      6  C4  UNL A   1      33.877  25.536  25.644  1.00  0.00    +0.000 C 
BRANCH    6    5
ATOM      5  N1  UNL A   1      33.625  25.720  24.231  1.00  0.00    +0.000 N 
ATOM     96  H5  UNL A   1      34.396  25.533  23.648  1.00  0.00    +0.000 H 
BRANCH    5    3
ATOM      3  C3  UNL A   1      32.495  26.108  23.574  1.00  0.00    +0.000 C 
ATOM      4  O1  UNL A   1      32.532  27.219  23.040  1.00  0.00    +0.000 O 
BRANCH    3    2
ATOM      2  C2  UNL A   1      31.249  25.198  23.556  1.00  0.00    +0.000 C 
ATOM     95  H4  UNL A   1      30.854  25.283  22.566  1.00  0.00    +0.000 H 
BRANCH    2    1
ATOM      1  C1  UNL A   1      30.167  25.650  24.543  1.00  0.00    +0.000 C 
ATOM     92  H1  UNL A   1      30.547  25.590  25.542  1.00  0.00    +0.000 H 
ATOM     93  H2  UNL A   1      29.311  25.015  24.449  1.00  0.00    +0.000 H 
ATOM     94  H3  UNL A   1      29.887  26.661  24.328  1.00  0.00    +0.000 H 
ENDBRANCH    2    1
BRANCH    2   78
ATOM    135  H44 UNL A   1      33.153  21.008  22.601  1.00  0.00    +0.000 H 
ATOM     78  C55 UNL A   1      31.604  23.734  23.831  1.00  0.00    +0.000 C 
ATOM     79  C56 UNL A   1      31.203  23.163  25.056  1.00  0.00    +0.000 C 
ATOM     80  C57 UNL A   1      31.510  21.843  25.386  1.00  0.00    +0.000 C 
ATOM     81  C58 UNL A   1      32.250  21.051  24.507  1.00  0.00    +0.000 C 
ATOM     89  C65 UNL A   1      32.630  21.592  23.272  1.00  0.00    +0.000 C 
ATOM     90  C66 UNL A   1      32.311  22.917  22.934  1.00  0.00    +0.000 C 
ATOM     91 Br1  UNL A   1      32.884  23.510  21.221  1.00  0.00    +0.000 Br
ATOM    124  H33 UNL A   1      30.667  23.735  25.726  1.00  0.00    +0.000 H 
ATOM    125  H34 UNL A   1      31.189  21.450  26.283  1.00  0.00    +0.000 H 
BRANCH   81   82
ATOM     82  C59 UNL A   1      32.655  19.650  24.900  1.00  0.00    +0.000 C 
ATOM    126  H35 UNL A   1      31.771  19.047  24.913  1.00  0.00    +0.000 H 
ATOM    127  H36 UNL A   1      33.135  19.747  25.850  1.00  0.00    +0.000 H 
BRANCH   82   83
ATOM    129  H38 UNL A   1      34.976  18.638  25.674  1.00  0.00    +0.000 H 
ATOM    130  H39 UNL A   1      35.759  18.388  24.159  1.00  0.00    +0.000 H 
ATOM    131  H40 UNL A   1      33.842  16.583  25.607  1.00  0.00    +0.000 H 
ATOM    132  H41 UNL A   1      35.314  16.142  24.838  1.00  0.00    +0.000 H 
ATOM    133  H42 UNL A   1      32.922  15.766  23.625  1.00  0.00    +0.000 H 
ATOM    134  H43 UNL A   1      34.289  16.119  22.678  1.00  0.00    +0.000 H 
ATOM     83  C60 UNL A   1      33.679  18.962  23.989  1.00  0.00    +0.000 C 
ATOM     84  C61 UNL A   1      34.840  18.247  24.688  1.00  0.00    +0.000 C 
ATOM     85  C62 UNL A   1      34.455  16.774  24.751  1.00  0.00    +0.000 C 
ATOM     86  C63 UNL A   1      33.681  16.503  23.470  1.00  0.00    +0.000 C 
ATOM     87  C64 UNL A   1      33.077  17.849  23.161  1.00  0.00    +0.000 C 
ATOM     88  O3  UNL A   1      32.208  18.024  22.315  1.00  0.00    +0.000 O 
ATOM    128  H37 UNL A   1      34.024  19.805  23.426  1.00  0.00    +0.000 H 
ENDBRANCH   82   83
ENDBRANCH   81   82
ENDBRANCH    2   78
ENDBRANCH    3    2
ENDBRANCH    5    3
ENDBRANCH    6    5
ENDBRANCH    7    6
ENDBRANCH    8    7
ENDBRANCH    9    8
ENDBRANCH   10    9
ENDBRANCH   11   10
ENDBRANCH   12   11
ENDBRANCH   13   12
ENDBRANCH   15   13
ENDBRANCH   19   18
BRANCH   23   24
ATOM     33  C24 UNL A   1      39.001  30.508  32.064  1.00  0.00    +0.000 C 
ATOM     34  F5  UNL A   1      39.987  29.996  32.816  1.00  0.00    +0.000 F 
ATOM     24  C19 UNL A   1      39.191  30.704  30.687  1.00  0.00    +0.000 C 
ATOM     25  C20 UNL A   1      38.127  31.236  29.944  1.00  0.00    +0.000 C 
ATOM     26  F1  UNL A   1      38.264  31.447  28.627  1.00  0.00    +0.000 F 
ATOM     27  C21 UNL A   1      36.920  31.564  30.558  1.00  0.00    +0.000 C 
ATOM     28  F2  UNL A   1      35.924  32.090  29.833  1.00  0.00    +0.000 F 
ATOM     29  C22 UNL A   1      36.748  31.345  31.917  1.00  0.00    +0.000 C 
ATOM     30  F3  UNL A   1      35.580  31.644  32.502  1.00  0.00    +0.000 F 
ATOM     31  C23 UNL A   1      37.787  30.817  32.670  1.00  0.00    +0.000 C 
ATOM     32  F4  UNL A   1      37.617  30.594  33.981  1.00  0.00    +0.000 F 
ENDBRANCH   23   24
BRANCH   40   41
ATOM     41  C30 UNL A   1      45.543  33.593  28.976  1.00  0.00    +0.000 C 
ATOM     42  C31 UNL A   1      46.442  33.828  30.026  1.00  0.00    +0.000 C 
ATOM     43  F6  UNL A   1      46.651  32.886  30.959  1.00  0.00    +0.000 F 
ATOM     44  C32 UNL A   1      47.102  35.048  30.141  1.00  0.00    +0.000 C 
ATOM     45  F7  UNL A   1      47.926  35.266  31.176  1.00  0.00    +0.000 F 
ATOM     46  C33 UNL A   1      46.900  36.041  29.195  1.00  0.00    +0.000 C 
ATOM     47  F8  UNL A   1      47.543  37.212  29.304  1.00  0.00    +0.000 F 
ATOM     48  C34 UNL A   1      46.025  35.824  28.140  1.00  0.00    +0.000 C 
ATOM     49  F9  UNL A   1      45.836  36.780  27.220  1.00  0.00    +0.000 F 
ATOM     50  C35 UNL A   1      45.343  34.615  28.037  1.00  0.00    +0.000 C 
ATOM     51  F10 UNL A   1      44.497  34.437  27.012  1.00  0.00    +0.000 F 
ENDBRANCH   40   41
BRANCH   55   56
ATOM     65  C44 UNL A   1      48.481  27.159  26.408  1.00  0.00    +0.000 C 
ATOM     66  F15 UNL A   1      48.546  27.058  27.743  1.00  0.00    +0.000 F 
ATOM     56  C39 UNL A   1      47.325  27.666  25.797  1.00  0.00    +0.000 C 
ATOM     57  C40 UNL A   1      47.310  27.754  24.399  1.00  0.00    +0.000 C 
ATOM     58  F11 UNL A   1      46.216  28.210  23.769  1.00  0.00    +0.000 F 
ATOM     59  C41 UNL A   1      48.397  27.327  23.639  1.00  0.00    +0.000 C 
ATOM     60  F12 UNL A   1      48.336  27.373  22.302  1.00  0.00    +0.000 F 
ATOM     61  C42 UNL A   1      49.532  26.832  24.266  1.00  0.00    +0.000 C 
ATOM     62  F13 UNL A   1      50.576  26.419  23.534  1.00  0.00    +0.000 F 
ATOM     63  C43 UNL A   1      49.578  26.757  25.649  1.00  0.00    +0.000 C 
ATOM     64  F14 UNL A   1      50.677  26.292  26.258  1.00  0.00    +0.000 F 
ENDBRANCH   55   56
TORSDOF 19
ENDMDL
MODEL 9
REMARK VINA RESULT:     -10.5      0.740      7.254
ROOT
ATOM     19  C15 UNL A   1      38.368  29.774  29.986  1.00  0.00    +0.000 C 
ATOM     20  C16 UNL A   1      38.638  30.290  31.370  1.00  0.00    +0.000 C 
ATOM     21  N3  UNL A   1      39.654  30.042  32.158  1.00  0.00    +0.000 N 
ATOM     22  C17 UNL A   1      39.440  30.801  33.302  1.00  0.00    +0.000 C 
ATOM     23  C18 UNL A   1      40.192  30.858  34.426  1.00  0.00    +0.000 C 
ATOM     35  C25 UNL A   1      41.386  30.085  34.647  1.00  0.00    +0.000 C 
ATOM     36  C26 UNL A   1      42.149  29.989  35.798  1.00  0.00    +0.000 C 
ATOM     37  C27 UNL A   1      43.246  29.165  35.530  1.00  0.00    +0.000 C 
ATOM     38  C28 UNL A   1      43.146  28.718  34.222  1.00  0.00    +0.000 C 
ATOM     39  N4  UNL A   1      41.995  29.282  33.696  1.00  0.00    +0.000 N 
ATOM     40  C29 UNL A   1      44.039  27.851  33.500  1.00  0.00    +0.000 C 
ATOM     52  C36 UNL A   1      43.826  27.395  32.242  1.00  0.00    +0.000 C 
ATOM     53  N5  UNL A   1      42.762  27.653  31.390  1.00  0.00    +0.000 N 
ATOM     54  C37 UNL A   1      43.024  27.005  30.282  1.00  0.00    +0.000 C 
ATOM     55  C38 UNL A   1      42.210  26.918  29.020  1.00  0.00    +0.000 C 
ATOM     67  C45 UNL A   1      41.025  27.555  28.953  1.00  0.00    +0.000 C 
ATOM     68  C46 UNL A   1      40.140  27.570  27.794  1.00  0.00    +0.000 C 
ATOM     69  C47 UNL A   1      39.097  28.374  28.050  1.00  0.00    +0.000 C 
ATOM     70  C48 UNL A   1      39.221  28.904  29.409  1.00  0.00    +0.000 C 
ATOM     71  N6  UNL A   1      40.378  28.333  29.882  1.00  0.00    +0.000 N 
ATOM     72  C49 UNL A   1      44.298  26.272  30.302  1.00  0.00    +0.000 C 
ATOM     73  C50 UNL A   1      44.730  26.516  31.531  1.00  0.00    +0.000 C 
ATOM     74  C51 UNL A   1      38.215  31.543  33.095  1.00  0.00    +0.000 C 
ATOM     75  C52 UNL A   1      37.653  31.225  31.935  1.00  0.00    +0.000 C 
ATOM    112  H21 UNL A   1      41.942  30.445  36.701  1.00  0.00    +0.000 H 
ATOM    113  H22 UNL A   1      44.002  28.931  36.192  1.00  0.00    +0.000 H 
ATOM    114  H23 UNL A   1      41.659  29.133  32.782  1.00  0.00    +0.000 H 
ATOM    115  H24 UNL A   1      40.291  27.046  26.917  1.00  0.00    +0.000 H 
ATOM    116  H25 UNL A   1      38.330  28.587  27.393  1.00  0.00    +0.000 H 
ATOM    117  H26 UNL A   1      40.710  28.468  30.799  1.00  0.00    +0.000 H 
ATOM    118  H27 UNL A   1      44.740  25.715  29.555  1.00  0.00    +0.000 H 
ATOM    119  H28 UNL A   1      45.598  26.127  31.931  1.00  0.00    +0.000 H 
ATOM    120  H29 UNL A   1      37.829  32.229  33.761  1.00  0.00    +0.000 H 
ATOM    121  H30 UNL A   1      36.759  31.548  31.534  1.00  0.00    +0.000 H 
ENDROOT
BRANCH   19   18
ATOM     76  C53 UNL A   1      36.194  29.407  28.816  1.00  0.00    +0.000 C 
ATOM     77  C54 UNL A   1      35.060  29.886  28.161  1.00  0.00    +0.000 C 
ATOM    110  H19 UNL A   1      35.853  33.146  28.068  1.00  0.00    +0.000 H 
ATOM     15  C11 UNL A   1      34.904  31.260  27.958  1.00  0.00    +0.000 C 
ATOM     16  C12 UNL A   1      35.943  32.140  28.279  1.00  0.00    +0.000 C 
ATOM     17  C13 UNL A   1      37.103  31.651  28.885  1.00  0.00    +0.000 C 
ATOM    111  H20 UNL A   1      37.880  32.296  29.101  1.00  0.00    +0.000 H 
ATOM     18  C14 UNL A   1      37.217  30.287  29.200  1.00  0.00    +0.000 C 
ATOM    122  H31 UNL A   1      36.281  28.399  29.019  1.00  0.00    +0.000 H 
ATOM    123  H32 UNL A   1      34.338  29.229  27.827  1.00  0.00    +0.000 H 
BRANCH   15   13
ATOM     13  C10 UNL A   1      33.646  31.812  27.411  1.00  0.00    +0.000 C 
ATOM     14  O2  UNL A   1      33.260  32.920  27.772  1.00  0.00    +0.000 O 
BRANCH   13   12
ATOM     12  N2  UNL A   1      32.903  31.075  26.522  1.00  0.00    +0.000 N 
ATOM    109  H18 UNL A   1      33.268  31.023  25.609  1.00  0.00    +0.000 H 
BRANCH   12   11
ATOM     11  C9  UNL A   1      31.654  30.362  26.735  1.00  0.00    +0.000 C 
ATOM    108  H17 UNL A   1      31.214  30.182  25.776  1.00  0.00    +0.000 H 
ATOM    107  H16 UNL A   1      31.017  30.959  27.353  1.00  0.00    +0.000 H 
BRANCH   11   10
ATOM    105  H14 UNL A   1      32.784  29.047  27.953  1.00  0.00    +0.000 H 
ATOM     10  C8  UNL A   1      31.863  29.009  27.411  1.00  0.00    +0.000 C 
ATOM    106  H15 UNL A   1      31.009  28.852  28.036  1.00  0.00    +0.000 H 
BRANCH   10    9
ATOM      9  C7  UNL A   1      31.921  27.812  26.458  1.00  0.00    +0.000 C 
ATOM    103  H12 UNL A   1      31.543  26.957  26.979  1.00  0.00    +0.000 H 
ATOM    104  H13 UNL A   1      31.339  28.087  25.604  1.00  0.00    +0.000 H 
BRANCH    9    8
ATOM    101  H10 UNL A   1      33.384  27.829  24.923  1.00  0.00    +0.000 H 
ATOM    102  H11 UNL A   1      34.009  27.922  26.602  1.00  0.00    +0.000 H 
ATOM      8  C6  UNL A   1      33.315  27.465  25.927  1.00  0.00    +0.000 C 
BRANCH    8    7
ATOM     99  H8  UNL A   1      34.175  25.737  26.823  1.00  0.00    +0.000 H 
ATOM    100  H9  UNL A   1      32.741  25.443  25.800  1.00  0.00    +0.000 H 
ATOM      7  C5  UNL A   1      33.666  25.970  25.912  1.00  0.00    +0.000 C 
BRANCH    7    6
ATOM     97  H6  UNL A   1      34.137  25.902  23.830  1.00  0.00    +0.000 H 
ATOM     98  H7  UNL A   1      35.535  25.938  24.896  1.00  0.00    +0.000 H 
ATOM      6  C4  UNL A   1      34.555  25.536  24.745  1.00  0.00    +0.000 C 
BRANCH    6    5
ATOM      5  N1  UNL A   1      34.655  24.094  24.675  1.00  0.00    +0.000 N 
ATOM     96  H5  UNL A   1      35.532  23.756  24.382  1.00  0.00    +0.000 H 
BRANCH    5    3
ATOM      3  C3  UNL A   1      33.734  23.126  24.949  1.00  0.00    +0.000 C 
ATOM      4  O1  UNL A   1      33.928  22.468  25.974  1.00  0.00    +0.000 O 
BRANCH    3    2
ATOM      2  C2  UNL A   1      32.556  22.873  23.987  1.00  0.00    +0.000 C 
ATOM     95  H4  UNL A   1      32.101  21.968  24.332  1.00  0.00    +0.000 H 
BRANCH    2    1
ATOM      1  C1  UNL A   1      33.005  22.659  22.537  1.00  0.00    +0.000 C 
ATOM     92  H1  UNL A   1      32.688  23.488  21.939  1.00  0.00    +0.000 H 
ATOM     93  H2  UNL A   1      32.569  21.759  22.158  1.00  0.00    +0.000 H 
ATOM     94  H3  UNL A   1      34.072  22.580  22.502  1.00  0.00    +0.000 H 
ENDBRANCH    2    1
BRANCH    2   78
ATOM    135  H44 UNL A   1      29.079  25.412  25.875  1.00  0.00    +0.000 H 
ATOM     78  C55 UNL A   1      31.524  24.003  24.034  1.00  0.00    +0.000 C 
ATOM     79  C56 UNL A   1      31.464  24.907  22.953  1.00  0.00    +0.000 C 
ATOM     80  C57 UNL A   1      30.566  25.973  22.938  1.00  0.00    +0.000 C 
ATOM     81  C58 UNL A   1      29.706  26.188  24.016  1.00  0.00    +0.000 C 
ATOM     89  C65 UNL A   1      29.730  25.282  25.084  1.00  0.00    +0.000 C 
ATOM     90  C66 UNL A   1      30.625  24.200  25.095  1.00  0.00    +0.000 C 
ATOM     91 Br1  UNL A   1      30.536  23.050  26.607  1.00  0.00    +0.000 Br
ATOM    124  H33 UNL A   1      32.101  24.775  22.153  1.00  0.00    +0.000 H 
ATOM    125  H34 UNL A   1      30.537  26.607  22.125  1.00  0.00    +0.000 H 
BRANCH   81   82
ATOM     82  C59 UNL A   1      28.794  27.390  24.036  1.00  0.00    +0.000 C 
ATOM    126  H35 UNL A   1      28.937  27.893  24.970  1.00  0.00    +0.000 H 
ATOM    127  H36 UNL A   1      27.807  27.003  23.890  1.00  0.00    +0.000 H 
BRANCH   82   83
ATOM    129  H38 UNL A   1      26.874  28.671  22.737  1.00  0.00    +0.000 H 
ATOM    130  H39 UNL A   1      27.749  29.338  21.410  1.00  0.00    +0.000 H 
ATOM    131  H40 UNL A   1      27.398  30.448  24.179  1.00  0.00    +0.000 H 
ATOM    132  H41 UNL A   1      27.268  31.295  22.691  1.00  0.00    +0.000 H 
ATOM    133  H42 UNL A   1      29.518  31.419  24.193  1.00  0.00    +0.000 H 
ATOM    134  H43 UNL A   1      29.642  31.513  22.500  1.00  0.00    +0.000 H 
ATOM     83  C60 UNL A   1      29.003  28.416  22.915  1.00  0.00    +0.000 C 
ATOM     84  C61 UNL A   1      27.764  29.201  22.470  1.00  0.00    +0.000 C 
ATOM     85  C62 UNL A   1      27.823  30.537  23.202  1.00  0.00    +0.000 C 
ATOM     86  C63 UNL A   1      29.302  30.882  23.294  1.00  0.00    +0.000 C 
ATOM     87  C64 UNL A   1      29.956  29.524  23.301  1.00  0.00    +0.000 C 
ATOM     88  O3  UNL A   1      31.138  29.343  23.569  1.00  0.00    +0.000 O 
ATOM    128  H37 UNL A   1      29.354  27.772  22.135  1.00  0.00    +0.000 H 
ENDBRANCH   82   83
ENDBRANCH   81   82
ENDBRANCH    2   78
ENDBRANCH    3    2
ENDBRANCH    5    3
ENDBRANCH    6    5
ENDBRANCH    7    6
ENDBRANCH    8    7
ENDBRANCH    9    8
ENDBRANCH   10    9
ENDBRANCH   11   10
ENDBRANCH   12   11
ENDBRANCH   13   12
ENDBRANCH   15   13
ENDBRANCH   19   18
BRANCH   23   24
ATOM     33  C24 UNL A   1      38.741  31.388  36.412  1.00  0.00    +0.000 C 
ATOM     34  F5  UNL A   1      38.214  30.157  36.337  1.00  0.00    +0.000 F 
ATOM     24  C19 UNL A   1      39.753  31.780  35.522  1.00  0.00    +0.000 C 
ATOM     25  C20 UNL A   1      40.265  33.080  35.638  1.00  0.00    +0.000 C 
ATOM     26  F1  UNL A   1      41.238  33.497  34.815  1.00  0.00    +0.000 F 
ATOM     27  C21 UNL A   1      39.786  33.953  36.612  1.00  0.00    +0.000 C 
ATOM     28  F2  UNL A   1      40.304  35.184  36.719  1.00  0.00    +0.000 F 
ATOM     29  C22 UNL A   1      38.772  33.551  37.470  1.00  0.00    +0.000 C 
ATOM     30  F3  UNL A   1      38.299  34.399  38.394  1.00  0.00    +0.000 F 
ATOM     31  C23 UNL A   1      38.249  32.270  37.370  1.00  0.00    +0.000 C 
ATOM     32  F4  UNL A   1      37.261  31.885  38.191  1.00  0.00    +0.000 F 
ENDBRANCH   23   24
BRANCH   40   41
ATOM     41  C30 UNL A   1      45.293  27.404  34.188  1.00  0.00    +0.000 C 
ATOM     42  C31 UNL A   1      46.469  28.166  34.122  1.00  0.00    +0.000 C 
ATOM     43  F6  UNL A   1      46.507  29.288  33.388  1.00  0.00    +0.000 F 
ATOM     44  C32 UNL A   1      47.623  27.755  34.784  1.00  0.00    +0.000 C 
ATOM     45  F7  UNL A   1      48.748  28.476  34.674  1.00  0.00    +0.000 F 
ATOM     46  C33 UNL A   1      47.615  26.596  35.544  1.00  0.00    +0.000 C 
ATOM     47  F8  UNL A   1      48.726  26.207  36.186  1.00  0.00    +0.000 F 
ATOM     48  C34 UNL A   1      46.458  25.836  35.634  1.00  0.00    +0.000 C 
ATOM     49  F9  UNL A   1      46.446  24.720  36.377  1.00  0.00    +0.000 F 
ATOM     50  C35 UNL A   1      45.310  26.229  34.953  1.00  0.00    +0.000 C 
ATOM     51  F10 UNL A   1      44.209  25.469  35.050  1.00  0.00    +0.000 F 
ENDBRANCH   40   41
BRANCH   55   56
ATOM     65  C44 UNL A   1      42.335  24.810  27.650  1.00  0.00    +0.000 C 
ATOM     66  F15 UNL A   1      41.533  24.196  28.532  1.00  0.00    +0.000 F 
ATOM     56  C39 UNL A   1      42.708  26.147  27.852  1.00  0.00    +0.000 C 
ATOM     57  C40 UNL A   1      43.551  26.740  26.903  1.00  0.00    +0.000 C 
ATOM     58  F11 UNL A   1      43.916  28.024  27.042  1.00  0.00    +0.000 F 
ATOM     59  C41 UNL A   1      43.982  26.034  25.782  1.00  0.00    +0.000 C 
ATOM     60  F12 UNL A   1      44.745  26.642  24.863  1.00  0.00    +0.000 F 
ATOM     61  C42 UNL A   1      43.603  24.712  25.604  1.00  0.00    +0.000 C 
ATOM     62  F13 UNL A   1      44.015  24.034  24.524  1.00  0.00    +0.000 F 
ATOM     63  C43 UNL A   1      42.788  24.096  26.542  1.00  0.00    +0.000 C 
ATOM     64  F14 UNL A   1      42.430  22.816  26.381  1.00  0.00    +0.000 F 
ENDBRANCH   55   56
TORSDOF 19
ENDMDL
MODEL 10
REMARK VINA RESULT:     -10.4      3.377      7.201
ROOT
ATOM     19  C15 UNL A   1      40.768  28.107  28.941  1.00  0.00    +0.000 C 
ATOM     20  C16 UNL A   1      42.150  28.238  29.515  1.00  0.00    +0.000 C 
ATOM     21  N3  UNL A   1      42.653  29.207  30.238  1.00  0.00    +0.000 N 
ATOM     22  C17 UNL A   1      43.950  28.815  30.545  1.00  0.00    +0.000 C 
ATOM     23  C18 UNL A   1      44.891  29.495  31.240  1.00  0.00    +0.000 C 
ATOM     35  C25 UNL A   1      44.707  30.815  31.784  1.00  0.00    +0.000 C 
ATOM     36  C26 UNL A   1      45.640  31.631  32.401  1.00  0.00    +0.000 C 
ATOM     37  C27 UNL A   1      44.994  32.799  32.816  1.00  0.00    +0.000 C 
ATOM     38  C28 UNL A   1      43.667  32.727  32.424  1.00  0.00    +0.000 C 
ATOM     39  N4  UNL A   1      43.507  31.510  31.783  1.00  0.00    +0.000 N 
ATOM     40  C29 UNL A   1      42.619  33.691  32.628  1.00  0.00    +0.000 C 
ATOM     52  C36 UNL A   1      41.359  33.580  32.141  1.00  0.00    +0.000 C 
ATOM     53  N5  UNL A   1      40.806  32.559  31.382  1.00  0.00    +0.000 N 
ATOM     54  C37 UNL A   1      39.557  32.898  31.178  1.00  0.00    +0.000 C 
ATOM     55  C38 UNL A   1      38.489  32.168  30.410  1.00  0.00    +0.000 C 
ATOM     67  C45 UNL A   1      38.792  31.006  29.801  1.00  0.00    +0.000 C 
ATOM     68  C46 UNL A   1      37.858  30.186  29.037  1.00  0.00    +0.000 C 
ATOM     69  C47 UNL A   1      38.477  29.059  28.655  1.00  0.00    +0.000 C 
ATOM     70  C48 UNL A   1      39.866  29.093  29.117  1.00  0.00    +0.000 C 
ATOM     71  N6  UNL A   1      39.972  30.304  29.756  1.00  0.00    +0.000 N 
ATOM     72  C49 UNL A   1      39.173  34.172  31.803  1.00  0.00    +0.000 C 
ATOM     73  C50 UNL A   1      40.317  34.562  32.347  1.00  0.00    +0.000 C 
ATOM     74  C51 UNL A   1      44.147  27.507  29.958  1.00  0.00    +0.000 C 
ATOM     75  C52 UNL A   1      43.080  27.126  29.268  1.00  0.00    +0.000 C 
ATOM    112  H21 UNL A   1      46.641  31.414  32.531  1.00  0.00    +0.000 H 
ATOM    113  H22 UNL A   1      45.430  33.581  33.329  1.00  0.00    +0.000 H 
ATOM    114  H23 UNL A   1      42.667  31.187  31.384  1.00  0.00    +0.000 H 
ATOM    115  H24 UNL A   1      36.879  30.434  28.825  1.00  0.00    +0.000 H 
ATOM    116  H25 UNL A   1      38.042  28.290  28.121  1.00  0.00    +0.000 H 
ATOM    117  H26 UNL A   1      40.813  30.637  30.144  1.00  0.00    +0.000 H 
ATOM    118  H27 UNL A   1      38.254  34.640  31.814  1.00  0.00    +0.000 H 
ATOM    119  H28 UNL A   1      40.447  35.453  32.852  1.00  0.00    +0.000 H 
ATOM    120  H29 UNL A   1      45.005  26.944  30.064  1.00  0.00    +0.000 H 
ATOM    121  H30 UNL A   1      42.939  26.273  28.704  1.00  0.00    +0.000 H 
ENDROOT
BRANCH   19   18
ATOM     76  C53 UNL A   1      39.562  25.922  28.951  1.00  0.00    +0.000 C 
ATOM     77  C54 UNL A   1      39.079  24.787  28.301  1.00  0.00    +0.000 C 
ATOM    110  H19 UNL A   1      40.371  25.345  25.255  1.00  0.00    +0.000 H 
ATOM     15  C11 UNL A   1      39.312  24.619  26.933  1.00  0.00    +0.000 C 
ATOM     16  C12 UNL A   1      40.147  25.507  26.249  1.00  0.00    +0.000 C 
ATOM     17  C13 UNL A   1      40.676  26.615  26.915  1.00  0.00    +0.000 C 
ATOM    111  H20 UNL A   1      41.310  27.260  26.417  1.00  0.00    +0.000 H 
ATOM     18  C14 UNL A   1      40.349  26.855  28.260  1.00  0.00    +0.000 C 
ATOM    122  H31 UNL A   1      39.339  26.076  29.947  1.00  0.00    +0.000 H 
ATOM    123  H32 UNL A   1      38.552  24.074  28.828  1.00  0.00    +0.000 H 
BRANCH   15   13
ATOM     13  C10 UNL A   1      38.682  23.510  26.183  1.00  0.00    +0.000 C 
ATOM     14  O2  UNL A   1      39.113  22.368  26.310  1.00  0.00    +0.000 O 
BRANCH   13   12
ATOM     12  N2  UNL A   1      37.636  23.766  25.332  1.00  0.00    +0.000 N 
ATOM    109  H18 UNL A   1      37.551  24.701  25.037  1.00  0.00    +0.000 H 
BRANCH   12   11
ATOM     11  C9  UNL A   1      36.635  22.853  24.802  1.00  0.00    +0.000 C 
ATOM    108  H17 UNL A   1      36.893  21.866  25.123  1.00  0.00    +0.000 H 
ATOM    107  H16 UNL A   1      36.630  22.930  23.735  1.00  0.00    +0.000 H 
BRANCH   11   10
ATOM    105  H14 UNL A   1      34.527  22.701  24.661  1.00  0.00    +0.000 H 
ATOM     10  C8  UNL A   1      35.233  23.160  25.321  1.00  0.00    +0.000 C 
ATOM    106  H15 UNL A   1      35.192  22.775  26.319  1.00  0.00    +0.000 H 
BRANCH   10    9
ATOM      9  C7  UNL A   1      34.891  24.648  25.422  1.00  0.00    +0.000 C 
ATOM    103  H12 UNL A   1      35.656  25.124  26.001  1.00  0.00    +0.000 H 
ATOM    104  H13 UNL A   1      34.830  25.006  24.415  1.00  0.00    +0.000 H 
BRANCH    9    8
ATOM    101  H10 UNL A   1      32.785  24.430  25.534  1.00  0.00    +0.000 H 
ATOM    102  H11 UNL A   1      33.631  24.682  27.096  1.00  0.00    +0.000 H 
ATOM      8  C6  UNL A   1      33.540  24.968  26.069  1.00  0.00    +0.000 C 
BRANCH    8    7
ATOM     99  H8  UNL A   1      33.820  26.973  26.723  1.00  0.00    +0.000 H 
ATOM    100  H9  UNL A   1      33.193  26.785  25.062  1.00  0.00    +0.000 H 
ATOM      7  C5  UNL A   1      33.145  26.452  26.078  1.00  0.00    +0.000 C 
BRANCH    7    6
ATOM     97  H6  UNL A   1      31.149  25.824  26.502  1.00  0.00    +0.000 H 
ATOM     98  H7  UNL A   1      31.761  27.083  27.566  1.00  0.00    +0.000 H 
ATOM      6  C4  UNL A   1      31.718  26.728  26.558  1.00  0.00    +0.000 C 
BRANCH    6    5
ATOM      5  N1  UNL A   1      31.081  27.739  25.741  1.00  0.00    +0.000 N 
ATOM     96  H5  UNL A   1      30.395  28.270  26.205  1.00  0.00    +0.000 H 
BRANCH    5    3
ATOM      3  C3  UNL A   1      31.276  28.078  24.435  1.00  0.00    +0.000 C 
ATOM      4  O1  UNL A   1      31.993  29.061  24.230  1.00  0.00    +0.000 O 
BRANCH    3    2
ATOM      2  C2  UNL A   1      30.591  27.278  23.309  1.00  0.00    +0.000 C 
ATOM     95  H4  UNL A   1      30.750  27.851  22.420  1.00  0.00    +0.000 H 
BRANCH    2    1
ATOM      1  C1  UNL A   1      29.080  27.129  23.518  1.00  0.00    +0.000 C 
ATOM     92  H1  UNL A   1      28.867  26.152  23.900  1.00  0.00    +0.000 H 
ATOM     93  H2  UNL A   1      28.575  27.263  22.584  1.00  0.00    +0.000 H 
ATOM     94  H3  UNL A   1      28.741  27.867  24.215  1.00  0.00    +0.000 H 
ENDBRANCH    2    1
BRANCH    2   78
ATOM    135  H44 UNL A   1      33.912  24.221  21.996  1.00  0.00    +0.000 H 
ATOM     78  C55 UNL A   1      31.215  25.891  23.129  1.00  0.00    +0.000 C 
ATOM     79  C56 UNL A   1      30.499  24.765  23.588  1.00  0.00    +0.000 C 
ATOM     80  C57 UNL A   1      31.015  23.475  23.479  1.00  0.00    +0.000 C 
ATOM     81  C58 UNL A   1      32.278  23.263  22.924  1.00  0.00    +0.000 C 
ATOM     89  C65 UNL A   1      32.989  24.366  22.435  1.00  0.00    +0.000 C 
ATOM     90  C66 UNL A   1      32.466  25.665  22.533  1.00  0.00    +0.000 C 
ATOM     91 Br1  UNL A   1      33.541  27.061  21.816  1.00  0.00    +0.000 Br
ATOM    124  H33 UNL A   1      29.570  24.901  24.014  1.00  0.00    +0.000 H 
ATOM    125  H34 UNL A   1      30.460  22.671  23.811  1.00  0.00    +0.000 H 
BRANCH   81   82
ATOM     82  C59 UNL A   1      32.870  21.875  22.884  1.00  0.00    +0.000 C 
ATOM    126  H35 UNL A   1      33.841  21.921  23.332  1.00  0.00    +0.000 H 
ATOM    127  H36 UNL A   1      32.875  21.596  21.851  1.00  0.00    +0.000 H 
BRANCH   82   83
ATOM    129  H38 UNL A   1      32.545  19.390  22.028  1.00  0.00    +0.000 H 
ATOM    130  H39 UNL A   1      31.280  18.838  23.062  1.00  0.00    +0.000 H 
ATOM    131  H40 UNL A   1      34.241  18.880  23.569  1.00  0.00    +0.000 H 
ATOM    132  H41 UNL A   1      33.145  17.598  23.892  1.00  0.00    +0.000 H 
ATOM    133  H42 UNL A   1      33.970  19.275  25.852  1.00  0.00    +0.000 H 
ATOM    134  H43 UNL A   1      32.403  18.618  25.924  1.00  0.00    +0.000 H 
ATOM     83  C60 UNL A   1      32.074  20.779  23.602  1.00  0.00    +0.000 C 
ATOM     84  C61 UNL A   1      32.215  19.358  23.045  1.00  0.00    +0.000 C 
ATOM     85  C62 UNL A   1      33.254  18.662  23.917  1.00  0.00    +0.000 C 
ATOM     86  C63 UNL A   1      33.046  19.220  25.317  1.00  0.00    +0.000 C 
ATOM     87  C64 UNL A   1      32.493  20.595  25.043  1.00  0.00    +0.000 C 
ATOM     88  O3  UNL A   1      32.376  21.462  25.902  1.00  0.00    +0.000 O 
ATOM    128  H37 UNL A   1      31.079  21.152  23.467  1.00  0.00    +0.000 H 
ENDBRANCH   82   83
ENDBRANCH   81   82
ENDBRANCH    2   78
ENDBRANCH    3    2
ENDBRANCH    5    3
ENDBRANCH    6    5
ENDBRANCH    7    6
ENDBRANCH    8    7
ENDBRANCH    9    8
ENDBRANCH   10    9
ENDBRANCH   11   10
ENDBRANCH   12   11
ENDBRANCH   13   12
ENDBRANCH   15   13
ENDBRANCH   19   18
BRANCH   23   24
ATOM     33  C24 UNL A   1      46.471  28.115  32.630  1.00  0.00    +0.000 C 
ATOM     34  F5  UNL A   1      45.497  27.938  33.535  1.00  0.00    +0.000 F 
ATOM     24  C19 UNL A   1      46.221  28.839  31.454  1.00  0.00    +0.000 C 
ATOM     25  C20 UNL A   1      47.275  29.001  30.543  1.00  0.00    +0.000 C 
ATOM     26  F1  UNL A   1      47.082  29.680  29.403  1.00  0.00    +0.000 F 
ATOM     27  C21 UNL A   1      48.530  28.454  30.798  1.00  0.00    +0.000 C 
ATOM     28  F2  UNL A   1      49.517  28.603  29.904  1.00  0.00    +0.000 F 
ATOM     29  C22 UNL A   1      48.760  27.757  31.975  1.00  0.00    +0.000 C 
ATOM     30  F3  UNL A   1      49.974  27.248  32.226  1.00  0.00    +0.000 F 
ATOM     31  C23 UNL A   1      47.733  27.588  32.891  1.00  0.00    +0.000 C 
ATOM     32  F4  UNL A   1      47.958  26.924  34.034  1.00  0.00    +0.000 F 
ENDBRANCH   23   24
BRANCH   40   41
ATOM     41  C30 UNL A   1      42.938  34.918  33.428  1.00  0.00    +0.000 C 
ATOM     42  C31 UNL A   1      43.353  36.104  32.806  1.00  0.00    +0.000 C 
ATOM     43  F6  UNL A   1      43.528  36.144  31.476  1.00  0.00    +0.000 F 
ATOM     44  C32 UNL A   1      43.625  37.246  33.554  1.00  0.00    +0.000 C 
ATOM     45  F7  UNL A   1      44.060  38.357  32.943  1.00  0.00    +0.000 F 
ATOM     46  C33 UNL A   1      43.460  37.231  34.931  1.00  0.00    +0.000 C 
ATOM     47  F8  UNL A   1      43.715  38.334  35.649  1.00  0.00    +0.000 F 
ATOM     48  C34 UNL A   1      43.036  36.072  35.565  1.00  0.00    +0.000 C 
ATOM     49  F9  UNL A   1      42.867  36.060  36.894  1.00  0.00    +0.000 F 
ATOM     50  C35 UNL A   1      42.789  34.921  34.823  1.00  0.00    +0.000 C 
ATOM     51  F10 UNL A   1      42.390  33.813  35.463  1.00  0.00    +0.000 F 
ENDBRANCH   40   41
BRANCH   55   56
ATOM     65  C44 UNL A   1      36.166  32.465  31.332  1.00  0.00    +0.000 C 
ATOM     66  F15 UNL A   1      36.489  31.695  32.380  1.00  0.00    +0.000 F 
ATOM     56  C39 UNL A   1      37.112  32.717  30.327  1.00  0.00    +0.000 C 
ATOM     57  C40 UNL A   1      36.721  33.526  29.251  1.00  0.00    +0.000 C 
ATOM     58  F11 UNL A   1      37.599  33.814  28.278  1.00  0.00    +0.000 F 
ATOM     59  C41 UNL A   1      35.445  34.082  29.194  1.00  0.00    +0.000 C 
ATOM     60  F12 UNL A   1      35.115  34.893  28.180  1.00  0.00    +0.000 F 
ATOM     61  C42 UNL A   1      34.525  33.815  30.198  1.00  0.00    +0.000 C 
ATOM     62  F13 UNL A   1      33.299  34.353  30.144  1.00  0.00    +0.000 F 
ATOM     63  C43 UNL A   1      34.881  33.000  31.261  1.00  0.00    +0.000 C 
ATOM     64  F14 UNL A   1      33.992  32.730  32.225  1.00  0.00    +0.000 F 
ENDBRANCH   55   56
TORSDOF 19
ENDMDL
