MODEL 1
REMARK VINA RESULT:      -9.4      0.000      0.000
ROOT
ATOM    129  H26 UNL A   1      15.955  18.142   7.554  1.00  0.00    +0.000 H 
ATOM    130  H27 UNL A   1      12.241  19.344  10.725  1.00  0.00    +0.000 H 
ATOM    131  H28 UNL A   1      11.720  21.308   9.168  1.00  0.00    +0.000 H 
ATOM    132  H29 UNL A   1      19.557  18.898   3.362  1.00  0.00    +0.000 H 
ATOM    133  H30 UNL A   1      19.813  16.689   4.630  1.00  0.00    +0.000 H 
ATOM     19  C15 UNL A   1      18.068  16.445   6.867  1.00  0.00    +0.000 C 
ATOM     20  C16 UNL A   1      18.097  17.543   5.842  1.00  0.00    +0.000 C 
ATOM     21  N3  UNL A   1      17.342  18.608   5.747  1.00  0.00    +0.000 N 
ATOM     22  C17 UNL A   1      17.819  19.312   4.650  1.00  0.00    +0.000 C 
ATOM     23  C18 UNL A   1      17.339  20.455   4.105  1.00  0.00    +0.000 C 
ATOM     35  C25 UNL A   1      16.186  21.166   4.595  1.00  0.00    +0.000 C 
ATOM     36  C26 UNL A   1      15.581  22.295   4.072  1.00  0.00    +0.000 C 
ATOM     37  C27 UNL A   1      14.514  22.645   4.907  1.00  0.00    +0.000 C 
ATOM     38  C28 UNL A   1      14.430  21.711   5.927  1.00  0.00    +0.000 C 
ATOM     39  N4  UNL A   1      15.463  20.811   5.725  1.00  0.00    +0.000 N 
ATOM     40  C29 UNL A   1      13.480  21.644   7.007  1.00  0.00    +0.000 C 
ATOM     52  C36 UNL A   1      13.455  20.684   7.963  1.00  0.00    +0.000 C 
ATOM     53  N5  UNL A   1      14.292  19.590   8.121  1.00  0.00    +0.000 N 
ATOM     54  C37 UNL A   1      13.872  18.967   9.195  1.00  0.00    +0.000 C 
ATOM     55  C38 UNL A   1      14.393  17.704   9.825  1.00  0.00    +0.000 C 
ATOM     67  C45 UNL A   1      15.423  17.056   9.249  1.00  0.00    +0.000 C 
ATOM     68  C46 UNL A   1      16.028  15.821   9.738  1.00  0.00    +0.000 C 
ATOM     69  C47 UNL A   1      17.051  15.486   8.936  1.00  0.00    +0.000 C 
ATOM     70  C48 UNL A   1      17.154  16.469   7.856  1.00  0.00    +0.000 C 
ATOM     71  N6  UNL A   1      16.144  17.360   8.120  1.00  0.00    +0.000 N 
ATOM     72  C49 UNL A   1      12.730  19.614   9.857  1.00  0.00    +0.000 C 
ATOM     73  C50 UNL A   1      12.493  20.635   9.045  1.00  0.00    +0.000 C 
ATOM     74  C51 UNL A   1      18.958  18.579   4.140  1.00  0.00    +0.000 C 
ATOM     75  C52 UNL A   1      19.131  17.444   4.800  1.00  0.00    +0.000 C 
ATOM    124  H21 UNL A   1      15.866  22.791   3.215  1.00  0.00    +0.000 H 
ATOM    125  H22 UNL A   1      13.894  23.462   4.784  1.00  0.00    +0.000 H 
ATOM    126  H23 UNL A   1      15.657  20.035   6.298  1.00  0.00    +0.000 H 
ATOM    127  H24 UNL A   1      15.718  15.290  10.568  1.00  0.00    +0.000 H 
ATOM    128  H25 UNL A   1      17.667  14.668   9.062  1.00  0.00    +0.000 H 
ENDROOT
BRANCH   19   18
ATOM    134  H31 UNL A   1      20.342  16.287   8.272  1.00  0.00    +0.000 H 
ATOM    135  H32 UNL A   1      22.066  14.585   8.178  1.00  0.00    +0.000 H 
ATOM     76  C53 UNL A   1      20.226  15.470   7.652  1.00  0.00    +0.000 C 
ATOM     77  C54 UNL A   1      21.198  14.473   7.631  1.00  0.00    +0.000 C 
ATOM     15  C11 UNL A   1      20.996  13.320   6.866  1.00  0.00    +0.000 C 
ATOM     16  C12 UNL A   1      19.882  13.219   6.029  1.00  0.00    +0.000 C 
ATOM     17  C13 UNL A   1      18.939  14.249   6.003  1.00  0.00    +0.000 C 
ATOM     18  C14 UNL A   1      19.088  15.368   6.837  1.00  0.00    +0.000 C 
ATOM    122  H19 UNL A   1      19.757  12.386   5.432  1.00  0.00    +0.000 H 
ATOM    123  H20 UNL A   1      18.128  14.187   5.367  1.00  0.00    +0.000 H 
BRANCH   15   13
ATOM     13  C10 UNL A   1      21.954  12.194   6.918  1.00  0.00    +0.000 C 
ATOM     14  O2  UNL A   1      22.141  11.602   7.976  1.00  0.00    +0.000 O 
BRANCH   13   12
ATOM    121  H18 UNL A   1      22.565  10.883   5.531  1.00  0.00    +0.000 H 
ATOM     12  N2  UNL A   1      22.643  11.829   5.788  1.00  0.00    +0.000 N 
BRANCH   12   11
ATOM     11  C9  UNL A   1      23.473  12.648   4.919  1.00  0.00    +0.000 C 
ATOM    119  H16 UNL A   1      23.758  13.532   5.449  1.00  0.00    +0.000 H 
ATOM    120  H17 UNL A   1      24.328  12.065   4.641  1.00  0.00    +0.000 H 
BRANCH   11   10
ATOM     10  C8  UNL A   1      22.750  13.053   3.639  1.00  0.00    +0.000 C 
ATOM    117  H14 UNL A   1      23.379  12.805   2.810  1.00  0.00    +0.000 H 
ATOM    118  H15 UNL A   1      21.820  12.524   3.639  1.00  0.00    +0.000 H 
BRANCH   10    9
ATOM      9  C7  UNL A   1      22.400  14.539   3.543  1.00  0.00    +0.000 C 
ATOM    115  H12 UNL A   1      22.798  14.914   2.623  1.00  0.00    +0.000 H 
ATOM    116  H13 UNL A   1      21.333  14.597   3.602  1.00  0.00    +0.000 H 
BRANCH    9    8
ATOM    113  H10 UNL A   1      22.481  15.081   5.591  1.00  0.00    +0.000 H 
ATOM    114  H11 UNL A   1      24.001  15.287   4.665  1.00  0.00    +0.000 H 
ATOM      8  C6  UNL A   1      22.938  15.408   4.682  1.00  0.00    +0.000 C 
BRANCH    8    7
ATOM    111  H8  UNL A   1      21.668  17.052   4.227  1.00  0.00    +0.000 H 
ATOM      7  C5  UNL A   1      22.682  16.915   4.540  1.00  0.00    +0.000 C 
ATOM    112  H9  UNL A   1      22.892  17.346   5.496  1.00  0.00    +0.000 H 
BRANCH    7    6
ATOM    110  H7  UNL A   1      23.448  18.691   3.649  1.00  0.00    +0.000 H 
ATOM    109  H6  UNL A   1      23.338  17.322   2.547  1.00  0.00    +0.000 H 
ATOM      6  C4  UNL A   1      23.592  17.636   3.537  1.00  0.00    +0.000 C 
BRANCH    6    5
ATOM    108  H5  UNL A   1      25.190  16.630   4.436  1.00  0.00    +0.000 H 
ATOM      5  N1  UNL A   1      24.989  17.338   3.783  1.00  0.00    +0.000 N 
BRANCH    5    3
ATOM      3  C3  UNL A   1      26.053  17.958   3.183  1.00  0.00    +0.000 C 
ATOM      4  O1  UNL A   1      26.172  17.784   1.970  1.00  0.00    +0.000 O 
BRANCH    3    2
ATOM      2  C2  UNL A   1      26.993  18.823   4.040  1.00  0.00    +0.000 C 
ATOM    107  H4  UNL A   1      26.691  19.830   3.843  1.00  0.00    +0.000 H 
BRANCH    2    1
ATOM      1  C1  UNL A   1      28.443  18.544   3.622  1.00  0.00    +0.000 C 
ATOM    106  H3  UNL A   1      29.065  19.357   3.929  1.00  0.00    +0.000 H 
ATOM    105  H2  UNL A   1      28.780  17.641   4.086  1.00  0.00    +0.000 H 
ATOM    104  H1  UNL A   1      28.493  18.438   2.558  1.00  0.00    +0.000 H 
ENDBRANCH    2    1
BRANCH    2   78
ATOM    101  C75 UNL A   1      27.558  17.801   7.712  1.00  0.00    +0.000 C 
ATOM    102  F16 UNL A   1      28.314  16.916   8.382  1.00  0.00    +0.000 F 
ATOM    103  C76 UNL A   1      27.587  17.757   6.320  1.00  0.00    +0.000 C 
ATOM    136  H33 UNL A   1      25.419  20.217   5.721  1.00  0.00    +0.000 H 
ATOM    137  H34 UNL A   1      25.396  20.299   8.136  1.00  0.00    +0.000 H 
ATOM     78  C55 UNL A   1      26.865  18.681   5.559  1.00  0.00    +0.000 C 
ATOM     79  C56 UNL A   1      26.030  19.578   6.255  1.00  0.00    +0.000 C 
ATOM     80  C57 UNL A   1      26.011  19.623   7.656  1.00  0.00    +0.000 C 
ATOM     81  C58 UNL A   1      26.817  18.761   8.409  1.00  0.00    +0.000 C 
ATOM    154  H51 UNL A   1      28.148  17.033   5.844  1.00  0.00    +0.000 H 
BRANCH   81   82
ATOM    100  C74 UNL A   1      25.882  19.384  10.620  1.00  0.00    +0.000 C 
ATOM    138  H35 UNL A   1      28.990  18.301   9.990  1.00  0.00    +0.000 H 
ATOM    139  H36 UNL A   1      29.168  18.589  12.391  1.00  0.00    +0.000 H 
ATOM    140  H37 UNL A   1      27.255  19.364  13.672  1.00  0.00    +0.000 H 
ATOM     82  C59 UNL A   1      26.978  18.933   9.860  1.00  0.00    +0.000 C 
ATOM     83  C60 UNL A   1      28.176  18.639  10.526  1.00  0.00    +0.000 C 
ATOM     84  C61 UNL A   1      28.278  18.800  11.913  1.00  0.00    +0.000 C 
ATOM     85  C62 UNL A   1      27.180  19.245  12.650  1.00  0.00    +0.000 C 
ATOM     86  C63 UNL A   1      25.981  19.527  12.000  1.00  0.00    +0.000 C 
ATOM    153  H50 UNL A   1      24.994  19.612  10.147  1.00  0.00    +0.000 H 
BRANCH   86   87
ATOM     87  O3  UNL A   1      24.933  20.016  12.815  1.00  0.00    +0.000 O 
BRANCH   87   88
ATOM     89  O4  UNL A   1      22.690  19.577  13.315  1.00  0.00    +0.000 O 
ATOM     88  C64 UNL A   1      23.864  19.249  13.283  1.00  0.00    +0.000 C 
BRANCH   88   90
ATOM     90  N7  UNL A   1      24.247  18.007  13.721  1.00  0.00    +0.000 N 
ATOM    141  H38 UNL A   1      25.200  17.862  13.923  1.00  0.00    +0.000 H 
BRANCH   90   91
ATOM     91  C65 UNL A   1      23.340  16.898  13.904  1.00  0.00    +0.000 C 
ATOM    142  H39 UNL A   1      22.355  17.291  14.041  1.00  0.00    +0.000 H 
ATOM    143  H40 UNL A   1      23.695  16.351  14.753  1.00  0.00    +0.000 H 
BRANCH   91   92
ATOM    145  H42 UNL A   1      24.318  15.586  12.634  1.00  0.00    +0.000 H 
ATOM     92  C66 UNL A   1      23.303  15.912  12.735  1.00  0.00    +0.000 C 
ATOM    144  H41 UNL A   1      22.589  15.154  12.983  1.00  0.00    +0.000 H 
BRANCH   92   93
ATOM    146  H43 UNL A   1      23.122  17.498  11.360  1.00  0.00    +0.000 H 
ATOM    147  H44 UNL A   1      21.925  16.119  11.220  1.00  0.00    +0.000 H 
ATOM     93  C67 UNL A   1      22.937  16.445  11.343  1.00  0.00    +0.000 C 
BRANCH   93   94
ATOM     97  C71 UNL A   1      24.819  14.701   7.856  1.00  0.00    +0.000 C 
ATOM     98  C72 UNL A   1      24.535  13.936   8.982  1.00  0.00    +0.000 C 
ATOM     99  C73 UNL A   1      23.937  14.531  10.094  1.00  0.00    +0.000 C 
ATOM    148  H45 UNL A   1      23.707  17.664   8.955  1.00  0.00    +0.000 H 
ATOM    149  H46 UNL A   1      24.719  16.627   7.016  1.00  0.00    +0.000 H 
ATOM    150  H47 UNL A   1      25.256  14.264   7.029  1.00  0.00    +0.000 H 
ATOM    151  H48 UNL A   1      24.767  12.931   8.996  1.00  0.00    +0.000 H 
ATOM    152  H49 UNL A   1      23.721  13.954  10.921  1.00  0.00    +0.000 H 
ATOM     94  C68 UNL A   1      23.623  15.903  10.110  1.00  0.00    +0.000 C 
ATOM     95  C69 UNL A   1      23.923  16.655   8.971  1.00  0.00    +0.000 C 
ATOM     96  C70 UNL A   1      24.512  16.058   7.851  1.00  0.00    +0.000 C 
ENDBRANCH   93   94
ENDBRANCH   92   93
ENDBRANCH   91   92
ENDBRANCH   90   91
ENDBRANCH   88   90
ENDBRANCH   87   88
ENDBRANCH   86   87
ENDBRANCH   81   82
ENDBRANCH    2   78
ENDBRANCH    3    2
ENDBRANCH    5    3
ENDBRANCH    6    5
ENDBRANCH    7    6
ENDBRANCH    8    7
ENDBRANCH    9    8
ENDBRANCH   10    9
ENDBRANCH   11   10
ENDBRANCH   12   11
ENDBRANCH   13   12
ENDBRANCH   15   13
ENDBRANCH   19   18
BRANCH   23   24
ATOM     33  C24 UNL A   1      17.631  20.689   1.613  1.00  0.00    +0.000 C 
ATOM     34  F5  UNL A   1      16.560  19.903   1.425  1.00  0.00    +0.000 F 
ATOM     24  C19 UNL A   1      18.057  21.007   2.911  1.00  0.00    +0.000 C 
ATOM     25  C20 UNL A   1      19.186  21.829   3.048  1.00  0.00    +0.000 C 
ATOM     26  F1  UNL A   1      19.626  22.173   4.267  1.00  0.00    +0.000 F 
ATOM     27  C21 UNL A   1      19.845  22.335   1.930  1.00  0.00    +0.000 C 
ATOM     28  F2  UNL A   1      20.893  23.156   2.086  1.00  0.00    +0.000 F 
ATOM     29  C22 UNL A   1      19.410  22.000   0.656  1.00  0.00    +0.000 C 
ATOM     30  F3  UNL A   1      20.048  22.485  -0.419  1.00  0.00    +0.000 F 
ATOM     31  C23 UNL A   1      18.309  21.173   0.497  1.00  0.00    +0.000 C 
ATOM     32  F4  UNL A   1      17.894  20.842  -0.734  1.00  0.00    +0.000 F 
ENDBRANCH   23   24
BRANCH   40   41
ATOM     41  C30 UNL A   1      12.421  22.705   7.073  1.00  0.00    +0.000 C 
ATOM     42  C31 UNL A   1      12.631  23.908   7.761  1.00  0.00    +0.000 C 
ATOM     43  F6  UNL A   1      13.778  24.114   8.425  1.00  0.00    +0.000 F 
ATOM     44  C32 UNL A   1      11.645  24.891   7.797  1.00  0.00    +0.000 C 
ATOM     45  F7  UNL A   1      11.850  26.017   8.495  1.00  0.00    +0.000 F 
ATOM     46  C33 UNL A   1      10.448  24.702   7.124  1.00  0.00    +0.000 C 
ATOM     47  F8  UNL A   1       9.503  25.652   7.156  1.00  0.00    +0.000 F 
ATOM     48  C34 UNL A   1      10.226  23.525   6.424  1.00  0.00    +0.000 C 
ATOM     49  F9  UNL A   1       9.072  23.346   5.765  1.00  0.00    +0.000 F 
ATOM     50  C35 UNL A   1      11.198  22.530   6.407  1.00  0.00    +0.000 C 
ATOM     51  F10 UNL A   1      10.952  21.398   5.731  1.00  0.00    +0.000 F 
ENDBRANCH   40   41
BRANCH   55   56
ATOM     65  C44 UNL A   1      12.676  16.275  10.986  1.00  0.00    +0.000 C 
ATOM     66  F15 UNL A   1      12.175  15.915   9.795  1.00  0.00    +0.000 F 
ATOM     56  C39 UNL A   1      13.767  17.152  11.053  1.00  0.00    +0.000 C 
ATOM     57  C40 UNL A   1      14.249  17.501  12.322  1.00  0.00    +0.000 C 
ATOM     58  F11 UNL A   1      15.305  18.321  12.434  1.00  0.00    +0.000 F 
ATOM     59  C41 UNL A   1      13.673  16.980  13.478  1.00  0.00    +0.000 C 
ATOM     60  F12 UNL A   1      14.179  17.299  14.678  1.00  0.00    +0.000 F 
ATOM     61  C42 UNL A   1      12.588  16.121  13.389  1.00  0.00    +0.000 C 
ATOM     62  F13 UNL A   1      12.032  15.624  14.501  1.00  0.00    +0.000 F 
ATOM     63  C43 UNL A   1      12.085  15.774  12.144  1.00  0.00    +0.000 C 
ATOM     64  F14 UNL A   1      11.029  14.954  12.054  1.00  0.00    +0.000 F 
ENDBRANCH   55   56
TORSDOF 25
ENDMDL
MODEL 2
REMARK VINA RESULT:      -9.0     38.476     45.526
ROOT
ATOM    129  H26 UNL A   1      50.998  47.866  16.028  1.00  0.00    +0.000 H 
ATOM    130  H27 UNL A   1      53.254  48.086  11.539  1.00  0.00    +0.000 H 
ATOM    131  H28 UNL A   1      54.209  50.346  12.273  1.00  0.00    +0.000 H 
ATOM    132  H29 UNL A   1      49.123  49.786  20.919  1.00  0.00    +0.000 H 
ATOM    133  H30 UNL A   1      48.531  47.348  20.409  1.00  0.00    +0.000 H 
ATOM     19  C15 UNL A   1      49.359  46.485  17.824  1.00  0.00    +0.000 C 
ATOM     20  C16 UNL A   1      49.651  47.801  18.489  1.00  0.00    +0.000 C 
ATOM     21  N3  UNL A   1      50.337  48.822  18.042  1.00  0.00    +0.000 N 
ATOM     22  C17 UNL A   1      50.256  49.793  19.030  1.00  0.00    +0.000 C 
ATOM     23  C18 UNL A   1      50.846  51.011  19.068  1.00  0.00    +0.000 C 
ATOM     35  C25 UNL A   1      51.709  51.528  18.037  1.00  0.00    +0.000 C 
ATOM     36  C26 UNL A   1      52.408  52.721  18.013  1.00  0.00    +0.000 C 
ATOM     37  C27 UNL A   1      53.083  52.809  16.791  1.00  0.00    +0.000 C 
ATOM     38  C28 UNL A   1      52.837  51.651  16.071  1.00  0.00    +0.000 C 
ATOM     39  N4  UNL A   1      51.990  50.875  16.845  1.00  0.00    +0.000 N 
ATOM     40  C29 UNL A   1      53.335  51.279  14.771  1.00  0.00    +0.000 C 
ATOM     52  C36 UNL A   1      53.058  50.115  14.136  1.00  0.00    +0.000 C 
ATOM     53  N5  UNL A   1      52.273  49.054  14.564  1.00  0.00    +0.000 N 
ATOM     54  C37 UNL A   1      52.305  48.169  13.597  1.00  0.00    +0.000 C 
ATOM     55  C38 UNL A   1      51.652  46.815  13.527  1.00  0.00    +0.000 C 
ATOM     67  C45 UNL A   1      50.932  46.375  14.576  1.00  0.00    +0.000 C 
ATOM     68  C46 UNL A   1      50.251  45.087  14.656  1.00  0.00    +0.000 C 
ATOM     69  C47 UNL A   1      49.603  45.005  15.829  1.00  0.00    +0.000 C 
ATOM     70  C48 UNL A   1      49.852  46.225  16.598  1.00  0.00    +0.000 C 
ATOM     71  N6  UNL A   1      50.655  46.979  15.778  1.00  0.00    +0.000 N 
ATOM     72  C49 UNL A   1      53.099  48.582  12.431  1.00  0.00    +0.000 C 
ATOM     73  C50 UNL A   1      53.565  49.758  12.827  1.00  0.00    +0.000 C 
ATOM     74  C51 UNL A   1      49.415  49.259  20.080  1.00  0.00    +0.000 C 
ATOM     75  C52 UNL A   1      49.068  48.006  19.825  1.00  0.00    +0.000 C 
ATOM    124  H21 UNL A   1      52.428  53.425  18.767  1.00  0.00    +0.000 H 
ATOM    125  H22 UNL A   1      53.666  53.601  16.479  1.00  0.00    +0.000 H 
ATOM    126  H23 UNL A   1      51.639  49.992  16.589  1.00  0.00    +0.000 H 
ATOM    127  H24 UNL A   1      50.265  44.356  13.926  1.00  0.00    +0.000 H 
ATOM    128  H25 UNL A   1      49.023  44.210  16.137  1.00  0.00    +0.000 H 
ENDROOT
BRANCH   19   18
ATOM    134  H31 UNL A   1      50.040  44.533  19.526  1.00  0.00    +0.000 H 
ATOM    135  H32 UNL A   1      48.624  42.852  20.548  1.00  0.00    +0.000 H 
ATOM     76  C53 UNL A   1      49.023  44.539  19.348  1.00  0.00    +0.000 C 
ATOM     77  C54 UNL A   1      48.206  43.598  19.969  1.00  0.00    +0.000 C 
ATOM     15  C11 UNL A   1      46.819  43.664  19.806  1.00  0.00    +0.000 C 
ATOM     16  C12 UNL A   1      46.260  44.594  18.927  1.00  0.00    +0.000 C 
ATOM     17  C13 UNL A   1      47.086  45.497  18.254  1.00  0.00    +0.000 C 
ATOM     18  C14 UNL A   1      48.471  45.496  18.483  1.00  0.00    +0.000 C 
ATOM    122  H19 UNL A   1      45.239  44.613  18.774  1.00  0.00    +0.000 H 
ATOM    123  H20 UNL A   1      46.676  46.168  17.586  1.00  0.00    +0.000 H 
BRANCH   15   13
ATOM     13  C10 UNL A   1      45.920  42.753  20.548  1.00  0.00    +0.000 C 
ATOM     14  O2  UNL A   1      46.313  41.634  20.865  1.00  0.00    +0.000 O 
BRANCH   13   12
ATOM    121  H18 UNL A   1      44.369  44.020  20.483  1.00  0.00    +0.000 H 
ATOM     12  N2  UNL A   1      44.645  43.154  20.860  1.00  0.00    +0.000 N 
BRANCH   12   11
ATOM     11  C9  UNL A   1      43.647  42.478  21.672  1.00  0.00    +0.000 C 
ATOM    119  H16 UNL A   1      43.970  41.474  21.850  1.00  0.00    +0.000 H 
ATOM    120  H17 UNL A   1      43.546  43.025  22.588  1.00  0.00    +0.000 H 
BRANCH   11   10
ATOM     10  C8  UNL A   1      42.279  42.442  21.000  1.00  0.00    +0.000 C 
ATOM    117  H14 UNL A   1      42.258  41.605  20.334  1.00  0.00    +0.000 H 
ATOM    118  H15 UNL A   1      41.558  42.375  21.787  1.00  0.00    +0.000 H 
BRANCH   10    9
ATOM      9  C7  UNL A   1      41.925  43.696  20.198  1.00  0.00    +0.000 C 
ATOM    115  H12 UNL A   1      41.028  44.111  20.611  1.00  0.00    +0.000 H 
ATOM    116  H13 UNL A   1      42.770  44.347  20.276  1.00  0.00    +0.000 H 
BRANCH    9    8
ATOM    113  H10 UNL A   1      41.237  42.511  18.581  1.00  0.00    +0.000 H 
ATOM    114  H11 UNL A   1      41.088  44.285  18.372  1.00  0.00    +0.000 H 
ATOM      8  C6  UNL A   1      41.697  43.469  18.702  1.00  0.00    +0.000 C 
BRANCH    8    7
ATOM    111  H8  UNL A   1      43.808  43.570  18.475  1.00  0.00    +0.000 H 
ATOM      7  C5  UNL A   1      42.959  43.503  17.829  1.00  0.00    +0.000 C 
ATOM    112  H9  UNL A   1      42.942  42.607  17.243  1.00  0.00    +0.000 H 
BRANCH    7    6
ATOM    110  H7  UNL A   1      42.477  44.389  15.954  1.00  0.00    +0.000 H 
ATOM    109  H6  UNL A   1      44.049  44.861  16.591  1.00  0.00    +0.000 H 
ATOM      6  C4  UNL A   1      43.025  44.665  16.831  1.00  0.00    +0.000 C 
BRANCH    6    5
ATOM    108  H5  UNL A   1      41.453  45.958  17.311  1.00  0.00    +0.000 H 
ATOM      5  N1  UNL A   1      42.430  45.867  17.380  1.00  0.00    +0.000 N 
BRANCH    5    3
ATOM      3  C3  UNL A   1      43.113  46.888  17.986  1.00  0.00    +0.000 C 
ATOM      4  O1  UNL A   1      43.820  46.577  18.945  1.00  0.00    +0.000 O 
BRANCH    3    2
ATOM      2  C2  UNL A   1      42.969  48.316  17.431  1.00  0.00    +0.000 C 
ATOM    107  H4  UNL A   1      42.503  48.869  18.220  1.00  0.00    +0.000 H 
BRANCH    2    1
ATOM      1  C1  UNL A   1      42.120  48.269  16.154  1.00  0.00    +0.000 C 
ATOM    106  H3  UNL A   1      41.665  49.223  15.993  1.00  0.00    +0.000 H 
ATOM    105  H2  UNL A   1      42.743  48.024  15.320  1.00  0.00    +0.000 H 
ATOM    104  H1  UNL A   1      41.358  47.523  16.260  1.00  0.00    +0.000 H 
ENDBRANCH    2    1
BRANCH    2   78
ATOM    101  C75 UNL A   1      46.528  49.251  16.285  1.00  0.00    +0.000 C 
ATOM    102  F16 UNL A   1      47.607  48.611  15.805  1.00  0.00    +0.000 F 
ATOM    103  C76 UNL A   1      45.442  48.478  16.690  1.00  0.00    +0.000 C 
ATOM    136  H33 UNL A   1      43.451  50.950  17.708  1.00  0.00    +0.000 H 
ATOM    137  H34 UNL A   1      45.332  52.281  16.980  1.00  0.00    +0.000 H 
ATOM     78  C55 UNL A   1      44.267  49.079  17.151  1.00  0.00    +0.000 C 
ATOM     79  C56 UNL A   1      44.271  50.482  17.291  1.00  0.00    +0.000 C 
ATOM     80  C57 UNL A   1      45.363  51.255  16.874  1.00  0.00    +0.000 C 
ATOM     81  C58 UNL A   1      46.496  50.650  16.317  1.00  0.00    +0.000 C 
ATOM    154  H51 UNL A   1      45.506  47.449  16.650  1.00  0.00    +0.000 H 
BRANCH   81   82
ATOM    100  C74 UNL A   1      47.700  51.389  14.279  1.00  0.00    +0.000 C 
ATOM    138  H35 UNL A   1      48.324  52.338  17.431  1.00  0.00    +0.000 H 
ATOM    139  H36 UNL A   1      50.032  53.634  16.300  1.00  0.00    +0.000 H 
ATOM    140  H37 UNL A   1      50.249  53.520  13.883  1.00  0.00    +0.000 H 
ATOM     82  C59 UNL A   1      47.555  51.444  15.678  1.00  0.00    +0.000 C 
ATOM     83  C60 UNL A   1      48.416  52.277  16.406  1.00  0.00    +0.000 C 
ATOM     84  C61 UNL A   1      49.399  53.030  15.753  1.00  0.00    +0.000 C 
ATOM     85  C62 UNL A   1      49.525  52.967  14.364  1.00  0.00    +0.000 C 
ATOM     86  C63 UNL A   1      48.665  52.151  13.631  1.00  0.00    +0.000 C 
ATOM    153  H50 UNL A   1      47.081  50.775  13.727  1.00  0.00    +0.000 H 
BRANCH   86   87
ATOM     87  O3  UNL A   1      48.891  52.110  12.235  1.00  0.00    +0.000 O 
BRANCH   87   88
ATOM     89  O4  UNL A   1      49.753  54.068  11.288  1.00  0.00    +0.000 O 
ATOM     88  C64 UNL A   1      48.879  53.223  11.393  1.00  0.00    +0.000 C 
BRANCH   88   90
ATOM     90  N7  UNL A   1      47.745  53.303  10.626  1.00  0.00    +0.000 N 
ATOM    141  H38 UNL A   1      47.653  54.072  10.017  1.00  0.00    +0.000 H 
BRANCH   90   91
ATOM     91  C65 UNL A   1      46.679  52.330  10.653  1.00  0.00    +0.000 C 
ATOM    142  H39 UNL A   1      47.085  51.399  10.985  1.00  0.00    +0.000 H 
ATOM    143  H40 UNL A   1      46.282  52.284   9.661  1.00  0.00    +0.000 H 
BRANCH   91   92
ATOM    145  H42 UNL A   1      44.640  52.498  10.982  1.00  0.00    +0.000 H 
ATOM     92  C66 UNL A   1      45.512  52.698  11.571  1.00  0.00    +0.000 C 
ATOM    144  H41 UNL A   1      45.617  52.118  12.465  1.00  0.00    +0.000 H 
BRANCH   92   93
ATOM    146  H43 UNL A   1      44.308  54.386  11.947  1.00  0.00    +0.000 H 
ATOM    147  H44 UNL A   1      46.006  54.681  11.325  1.00  0.00    +0.000 H 
ATOM     93  C67 UNL A   1      45.353  54.164  11.997  1.00  0.00    +0.000 C 
BRANCH   93   94
ATOM     97  C71 UNL A   1      46.788  55.658  15.799  1.00  0.00    +0.000 C 
ATOM     98  C72 UNL A   1      47.375  56.050  14.601  1.00  0.00    +0.000 C 
ATOM     99  C73 UNL A   1      46.896  55.541  13.392  1.00  0.00    +0.000 C 
ATOM    148  H45 UNL A   1      44.477  53.563  14.577  1.00  0.00    +0.000 H 
ATOM    149  H46 UNL A   1      45.291  54.465  16.671  1.00  0.00    +0.000 H 
ATOM    150  H47 UNL A   1      47.135  56.036  16.694  1.00  0.00    +0.000 H 
ATOM    151  H48 UNL A   1      48.165  56.713  14.605  1.00  0.00    +0.000 H 
ATOM    152  H49 UNL A   1      47.331  55.845  12.508  1.00  0.00    +0.000 H 
ATOM     94  C68 UNL A   1      45.830  54.623  13.356  1.00  0.00    +0.000 C 
ATOM     95  C69 UNL A   1      45.258  54.238  14.572  1.00  0.00    +0.000 C 
ATOM     96  C70 UNL A   1      45.730  54.755  15.783  1.00  0.00    +0.000 C 
ENDBRANCH   93   94
ENDBRANCH   92   93
ENDBRANCH   91   92
ENDBRANCH   90   91
ENDBRANCH   88   90
ENDBRANCH   87   88
ENDBRANCH   86   87
ENDBRANCH   81   82
ENDBRANCH    2   78
ENDBRANCH    3    2
ENDBRANCH    5    3
ENDBRANCH    6    5
ENDBRANCH    7    6
ENDBRANCH    8    7
ENDBRANCH    9    8
ENDBRANCH   10    9
ENDBRANCH   11   10
ENDBRANCH   12   11
ENDBRANCH   13   12
ENDBRANCH   15   13
ENDBRANCH   19   18
BRANCH   23   24
ATOM     33  C24 UNL A   1      51.502  51.918  21.327  1.00  0.00    +0.000 C 
ATOM     34  F5  UNL A   1      52.641  51.211  21.267  1.00  0.00    +0.000 F 
ATOM     24  C19 UNL A   1      50.582  51.871  20.268  1.00  0.00    +0.000 C 
ATOM     25  C20 UNL A   1      49.406  52.626  20.387  1.00  0.00    +0.000 C 
ATOM     26  F1  UNL A   1      48.501  52.624  19.396  1.00  0.00    +0.000 F 
ATOM     27  C21 UNL A   1      49.173  53.419  21.507  1.00  0.00    +0.000 C 
ATOM     28  F2  UNL A   1      48.064  54.169  21.576  1.00  0.00    +0.000 F 
ATOM     29  C22 UNL A   1      50.093  53.445  22.544  1.00  0.00    +0.000 C 
ATOM     30  F3  UNL A   1      49.865  54.206  23.624  1.00  0.00    +0.000 F 
ATOM     31  C23 UNL A   1      51.253  52.691  22.459  1.00  0.00    +0.000 C 
ATOM     32  F4  UNL A   1      52.138  52.708  23.464  1.00  0.00    +0.000 F 
ENDBRANCH   23   24
BRANCH   40   41
ATOM     41  C30 UNL A   1      54.247  52.242  14.071  1.00  0.00    +0.000 C 
ATOM     42  C31 UNL A   1      55.631  52.234  14.292  1.00  0.00    +0.000 C 
ATOM     43  F6  UNL A   1      56.166  51.389  15.185  1.00  0.00    +0.000 F 
ATOM     44  C32 UNL A   1      56.466  53.122  13.620  1.00  0.00    +0.000 C 
ATOM     45  F7  UNL A   1      57.782  53.126  13.877  1.00  0.00    +0.000 F 
ATOM     46  C33 UNL A   1      55.940  54.011  12.696  1.00  0.00    +0.000 C 
ATOM     47  F8  UNL A   1      56.746  54.861  12.046  1.00  0.00    +0.000 F 
ATOM     48  C34 UNL A   1      54.574  54.025  12.450  1.00  0.00    +0.000 C 
ATOM     49  F9  UNL A   1      54.065  54.878  11.550  1.00  0.00    +0.000 F 
ATOM     50  C35 UNL A   1      53.733  53.157  13.139  1.00  0.00    +0.000 C 
ATOM     51  F10 UNL A   1      52.415  53.200  12.889  1.00  0.00    +0.000 F 
ENDBRANCH   40   41
BRANCH   55   56
ATOM     65  C44 UNL A   1      51.079  46.175  11.160  1.00  0.00    +0.000 C 
ATOM     66  F15 UNL A   1      50.199  47.186  11.103  1.00  0.00    +0.000 F 
ATOM     56  C39 UNL A   1      51.818  45.952  12.330  1.00  0.00    +0.000 C 
ATOM     57  C40 UNL A   1      52.721  44.880  12.340  1.00  0.00    +0.000 C 
ATOM     58  F11 UNL A   1      53.464  44.642  13.430  1.00  0.00    +0.000 F 
ATOM     59  C41 UNL A   1      52.889  44.072  11.218  1.00  0.00    +0.000 C 
ATOM     60  F12 UNL A   1      53.787  43.077  11.241  1.00  0.00    +0.000 F 
ATOM     61  C42 UNL A   1      52.140  44.304  10.074  1.00  0.00    +0.000 C 
ATOM     62  F13 UNL A   1      52.299  43.524   8.998  1.00  0.00    +0.000 F 
ATOM     63  C43 UNL A   1      51.231  45.351  10.047  1.00  0.00    +0.000 C 
ATOM     64  F14 UNL A   1      50.496  45.571   8.948  1.00  0.00    +0.000 F 
ENDBRANCH   55   56
TORSDOF 25
ENDMDL
MODEL 3
REMARK VINA RESULT:      -9.0     41.096     47.010
ROOT
ATOM    129  H26 UNL A   1      23.645  38.081  46.978  1.00  0.00    +0.000 H 
ATOM    130  H27 UNL A   1      20.857  33.900  46.814  1.00  0.00    +0.000 H 
ATOM    131  H28 UNL A   1      18.922  35.307  47.726  1.00  0.00    +0.000 H 
ATOM    132  H29 UNL A   1      24.953  43.313  48.403  1.00  0.00    +0.000 H 
ATOM    133  H30 UNL A   1      26.754  42.065  47.078  1.00  0.00    +0.000 H 
ATOM     19  C15 UNL A   1      26.100  39.346  46.540  1.00  0.00    +0.000 C 
ATOM     20  C16 UNL A   1      25.228  40.390  47.179  1.00  0.00    +0.000 C 
ATOM     21  N3  UNL A   1      23.999  40.288  47.619  1.00  0.00    +0.000 N 
ATOM     22  C17 UNL A   1      23.686  41.529  48.156  1.00  0.00    +0.000 C 
ATOM     23  C18 UNL A   1      22.514  41.948  48.686  1.00  0.00    +0.000 C 
ATOM     35  C25 UNL A   1      21.329  41.136  48.781  1.00  0.00    +0.000 C 
ATOM     36  C26 UNL A   1      20.073  41.490  49.240  1.00  0.00    +0.000 C 
ATOM     37  C27 UNL A   1      19.249  40.360  49.178  1.00  0.00    +0.000 C 
ATOM     38  C28 UNL A   1      19.981  39.313  48.642  1.00  0.00    +0.000 C 
ATOM     39  N4  UNL A   1      21.256  39.802  48.405  1.00  0.00    +0.000 N 
ATOM     40  C29 UNL A   1      19.553  37.966  48.366  1.00  0.00    +0.000 C 
ATOM     52  C36 UNL A   1      20.330  36.998  47.824  1.00  0.00    +0.000 C 
ATOM     53  N5  UNL A   1      21.656  37.068  47.420  1.00  0.00    +0.000 N 
ATOM     54  C37 UNL A   1      21.959  35.875  46.973  1.00  0.00    +0.000 C 
ATOM     55  C38 UNL A   1      23.255  35.381  46.388  1.00  0.00    +0.000 C 
ATOM     67  C45 UNL A   1      24.287  36.236  46.257  1.00  0.00    +0.000 C 
ATOM     68  C46 UNL A   1      25.596  35.906  45.703  1.00  0.00    +0.000 C 
ATOM     69  C47 UNL A   1      26.385  36.991  45.764  1.00  0.00    +0.000 C 
ATOM     70  C48 UNL A   1      25.624  38.103  46.334  1.00  0.00    +0.000 C 
ATOM     71  N6  UNL A   1      24.388  37.564  46.591  1.00  0.00    +0.000 N 
ATOM     72  C49 UNL A   1      20.863  34.900  47.065  1.00  0.00    +0.000 C 
ATOM     73  C50 UNL A   1      19.882  35.646  47.556  1.00  0.00    +0.000 C 
ATOM     74  C51 UNL A   1      24.869  42.354  48.030  1.00  0.00    +0.000 C 
ATOM     75  C52 UNL A   1      25.828  41.719  47.374  1.00  0.00    +0.000 C 
ATOM    124  H21 UNL A   1      19.791  42.426  49.571  1.00  0.00    +0.000 H 
ATOM    125  H22 UNL A   1      18.263  40.315  49.480  1.00  0.00    +0.000 H 
ATOM    126  H23 UNL A   1      22.001  39.281  48.028  1.00  0.00    +0.000 H 
ATOM    127  H24 UNL A   1      25.871  34.985  45.325  1.00  0.00    +0.000 H 
ATOM    128  H25 UNL A   1      27.369  37.032  45.459  1.00  0.00    +0.000 H 
ENDROOT
BRANCH   19   18
ATOM    134  H31 UNL A   1      28.297  38.854  47.990  1.00  0.00    +0.000 H 
ATOM    135  H32 UNL A   1      30.599  39.429  47.496  1.00  0.00    +0.000 H 
ATOM     76  C53 UNL A   1      28.531  39.321  47.101  1.00  0.00    +0.000 C 
ATOM     77  C54 UNL A   1      29.859  39.613  46.800  1.00  0.00    +0.000 C 
ATOM     15  C11 UNL A   1      30.188  40.158  45.555  1.00  0.00    +0.000 C 
ATOM     16  C12 UNL A   1      29.179  40.523  44.660  1.00  0.00    +0.000 C 
ATOM     17  C13 UNL A   1      27.842  40.289  44.989  1.00  0.00    +0.000 C 
ATOM     18  C14 UNL A   1      27.510  39.658  46.199  1.00  0.00    +0.000 C 
ATOM    122  H19 UNL A   1      29.421  40.965  43.760  1.00  0.00    +0.000 H 
ATOM    123  H20 UNL A   1      27.095  40.580  44.340  1.00  0.00    +0.000 H 
BRANCH   15   13
ATOM     13  C10 UNL A   1      31.599  40.367  45.164  1.00  0.00    +0.000 C 
ATOM     14  O2  UNL A   1      32.227  39.453  44.639  1.00  0.00    +0.000 O 
BRANCH   13   12
ATOM    121  H18 UNL A   1      32.022  42.281  44.748  1.00  0.00    +0.000 H 
ATOM     12  N2  UNL A   1      32.205  41.574  45.407  1.00  0.00    +0.000 N 
BRANCH   12   11
ATOM     11  C9  UNL A   1      33.081  41.953  46.504  1.00  0.00    +0.000 C 
ATOM    119  H16 UNL A   1      33.906  41.273  46.536  1.00  0.00    +0.000 H 
ATOM    120  H17 UNL A   1      33.408  42.957  46.329  1.00  0.00    +0.000 H 
BRANCH   11   10
ATOM     10  C8  UNL A   1      32.369  41.925  47.852  1.00  0.00    +0.000 C 
ATOM    117  H14 UNL A   1      31.693  41.096  47.854  1.00  0.00    +0.000 H 
ATOM    118  H15 UNL A   1      33.134  41.850  48.595  1.00  0.00    +0.000 H 
BRANCH   10    9
ATOM      9  C7  UNL A   1      31.571  43.189  48.182  1.00  0.00    +0.000 C 
ATOM    115  H12 UNL A   1      31.016  43.005  49.079  1.00  0.00    +0.000 H 
ATOM    116  H13 UNL A   1      32.288  43.976  48.279  1.00  0.00    +0.000 H 
BRANCH    9    8
ATOM    113  H10 UNL A   1      30.645  44.703  47.024  1.00  0.00    +0.000 H 
ATOM    114  H11 UNL A   1      30.881  43.126  46.206  1.00  0.00    +0.000 H 
ATOM      8  C6  UNL A   1      30.588  43.638  47.099  1.00  0.00    +0.000 C 
BRANCH    8    7
ATOM    111  H8  UNL A   1      28.596  43.352  46.413  1.00  0.00    +0.000 H 
ATOM      7  C5  UNL A   1      29.120  43.258  47.341  1.00  0.00    +0.000 C 
ATOM    112  H9  UNL A   1      29.128  42.259  47.724  1.00  0.00    +0.000 H 
BRANCH    7    6
ATOM    110  H7  UNL A   1      27.346  44.098  48.166  1.00  0.00    +0.000 H 
ATOM    109  H6  UNL A   1      28.775  45.111  48.350  1.00  0.00    +0.000 H 
ATOM      6  C4  UNL A   1      28.394  44.112  48.388  1.00  0.00    +0.000 C 
BRANCH    6    5
ATOM    108  H5  UNL A   1      29.504  43.558  50.071  1.00  0.00    +0.000 H 
ATOM      5  N1  UNL A   1      28.584  43.584  49.724  1.00  0.00    +0.000 N 
BRANCH    5    3
ATOM      3  C3  UNL A   1      27.591  43.119  50.545  1.00  0.00    +0.000 C 
ATOM      4  O1  UNL A   1      26.608  43.848  50.679  1.00  0.00    +0.000 O 
BRANCH    3    2
ATOM      2  C2  UNL A   1      27.758  41.743  51.213  1.00  0.00    +0.000 C 
ATOM    107  H4  UNL A   1      27.620  41.929  52.257  1.00  0.00    +0.000 H 
BRANCH    2    1
ATOM      1  C1  UNL A   1      29.155  41.198  50.885  1.00  0.00    +0.000 C 
ATOM    106  H3  UNL A   1      29.584  41.772  50.091  1.00  0.00    +0.000 H 
ATOM    105  H2  UNL A   1      29.777  41.268  51.752  1.00  0.00    +0.000 H 
ATOM    104  H1  UNL A   1      29.076  40.174  50.583  1.00  0.00    +0.000 H 
ENDBRANCH    2    1
BRANCH    2   78
ATOM    101  C75 UNL A   1      26.023  38.506  50.047  1.00  0.00    +0.000 C 
ATOM    102  F16 UNL A   1      26.368  37.385  49.392  1.00  0.00    +0.000 F 
ATOM    103  C76 UNL A   1      26.981  39.511  50.163  1.00  0.00    +0.000 C 
ATOM    136  H33 UNL A   1      25.137  41.734  51.827  1.00  0.00    +0.000 H 
ATOM    137  H34 UNL A   1      23.493  39.974  51.640  1.00  0.00    +0.000 H 
ATOM     78  C55 UNL A   1      26.707  40.682  50.876  1.00  0.00    +0.000 C 
ATOM     79  C56 UNL A   1      25.397  40.846  51.371  1.00  0.00    +0.000 C 
ATOM     80  C57 UNL A   1      24.440  39.828  51.257  1.00  0.00    +0.000 C 
ATOM     81  C58 UNL A   1      24.756  38.616  50.632  1.00  0.00    +0.000 C 
ATOM    154  H51 UNL A   1      27.903  39.390  49.717  1.00  0.00    +0.000 H 
BRANCH   81   82
ATOM    100  C74 UNL A   1      22.633  37.583  51.390  1.00  0.00    +0.000 C 
ATOM    138  H35 UNL A   1      25.015  36.135  49.530  1.00  0.00    +0.000 H 
ATOM    139  H36 UNL A   1      23.454  34.284  49.657  1.00  0.00    +0.000 H 
ATOM    140  H37 UNL A   1      21.363  34.531  50.868  1.00  0.00    +0.000 H 
ATOM     82  C59 UNL A   1      23.849  37.461  50.691  1.00  0.00    +0.000 C 
ATOM     83  C60 UNL A   1      24.133  36.245  50.055  1.00  0.00    +0.000 C 
ATOM     84  C61 UNL A   1      23.230  35.178  50.122  1.00  0.00    +0.000 C 
ATOM     85  C62 UNL A   1      22.028  35.318  50.817  1.00  0.00    +0.000 C 
ATOM     86  C63 UNL A   1      21.730  36.527  51.442  1.00  0.00    +0.000 C 
ATOM    153  H50 UNL A   1      22.410  38.468  51.872  1.00  0.00    +0.000 H 
BRANCH   86   87
ATOM     87  O3  UNL A   1      20.513  36.570  52.162  1.00  0.00    +0.000 O 
BRANCH   87   88
ATOM     89  O4  UNL A   1      19.771  37.837  53.984  1.00  0.00    +0.000 O 
ATOM     88  C64 UNL A   1      20.399  36.903  53.513  1.00  0.00    +0.000 C 
BRANCH   88   90
ATOM     90  N7  UNL A   1      21.075  36.040  54.337  1.00  0.00    +0.000 N 
ATOM    141  H38 UNL A   1      20.934  35.074  54.210  1.00  0.00    +0.000 H 
BRANCH   90   91
ATOM     91  C65 UNL A   1      21.983  36.460  55.378  1.00  0.00    +0.000 C 
ATOM    142  H39 UNL A   1      22.255  35.599  55.951  1.00  0.00    +0.000 H 
ATOM    143  H40 UNL A   1      21.466  37.199  55.954  1.00  0.00    +0.000 H 
BRANCH   91   92
ATOM    145  H42 UNL A   1      22.930  37.792  54.107  1.00  0.00    +0.000 H 
ATOM     92  C66 UNL A   1      23.265  37.121  54.870  1.00  0.00    +0.000 C 
ATOM    144  H41 UNL A   1      23.745  37.573  55.715  1.00  0.00    +0.000 H 
BRANCH   92   93
ATOM    146  H43 UNL A   1      23.864  35.901  53.260  1.00  0.00    +0.000 H 
ATOM    147  H44 UNL A   1      24.547  35.511  54.914  1.00  0.00    +0.000 H 
ATOM     93  C67 UNL A   1      24.311  36.243  54.170  1.00  0.00    +0.000 C 
BRANCH   93   94
ATOM     97  C71 UNL A   1      28.182  37.743  52.943  1.00  0.00    +0.000 C 
ATOM     98  C72 UNL A   1      27.729  36.494  52.533  1.00  0.00    +0.000 C 
ATOM     99  C73 UNL A   1      26.479  36.035  52.955  1.00  0.00    +0.000 C 
ATOM    148  H45 UNL A   1      25.567  38.643  54.835  1.00  0.00    +0.000 H 
ATOM    149  H46 UNL A   1      27.722  39.451  54.081  1.00  0.00    +0.000 H 
ATOM    150  H47 UNL A   1      29.102  38.089  52.628  1.00  0.00    +0.000 H 
ATOM    151  H48 UNL A   1      28.314  35.907  51.919  1.00  0.00    +0.000 H 
ATOM    152  H49 UNL A   1      26.147  35.111  52.638  1.00  0.00    +0.000 H 
ATOM     94  C68 UNL A   1      25.664  36.807  53.804  1.00  0.00    +0.000 C 
ATOM     95  C69 UNL A   1      26.142  38.056  54.209  1.00  0.00    +0.000 C 
ATOM     96  C70 UNL A   1      27.389  38.523  53.778  1.00  0.00    +0.000 C 
ENDBRANCH   93   94
ENDBRANCH   92   93
ENDBRANCH   91   92
ENDBRANCH   90   91
ENDBRANCH   88   90
ENDBRANCH   87   88
ENDBRANCH   86   87
ENDBRANCH   81   82
ENDBRANCH    2   78
ENDBRANCH    3    2
ENDBRANCH    5    3
ENDBRANCH    6    5
ENDBRANCH    7    6
ENDBRANCH    8    7
ENDBRANCH    9    8
ENDBRANCH   10    9
ENDBRANCH   11   10
ENDBRANCH   12   11
ENDBRANCH   13   12
ENDBRANCH   15   13
ENDBRANCH   19   18
BRANCH   23   24
ATOM     33  C24 UNL A   1      22.267  44.430  48.322  1.00  0.00    +0.000 C 
ATOM     34  F5  UNL A   1      22.120  44.210  47.006  1.00  0.00    +0.000 F 
ATOM     24  C19 UNL A   1      22.452  43.355  49.203  1.00  0.00    +0.000 C 
ATOM     25  C20 UNL A   1      22.605  43.644  50.567  1.00  0.00    +0.000 C 
ATOM     26  F1  UNL A   1      22.771  42.649  51.452  1.00  0.00    +0.000 F 
ATOM     27  C21 UNL A   1      22.546  44.954  51.034  1.00  0.00    +0.000 C 
ATOM     28  F2  UNL A   1      22.647  45.201  52.347  1.00  0.00    +0.000 F 
ATOM     29  C22 UNL A   1      22.370  46.002  50.143  1.00  0.00    +0.000 C 
ATOM     30  F3  UNL A   1      22.318  47.264  50.593  1.00  0.00    +0.000 F 
ATOM     31  C23 UNL A   1      22.237  45.742  48.788  1.00  0.00    +0.000 C 
ATOM     32  F4  UNL A   1      22.076  46.755  47.925  1.00  0.00    +0.000 F 
ENDBRANCH   23   24
BRANCH   40   41
ATOM     41  C30 UNL A   1      18.131  37.607  48.684  1.00  0.00    +0.000 C 
ATOM     42  C31 UNL A   1      17.648  37.620  50.000  1.00  0.00    +0.000 C 
ATOM     43  F6  UNL A   1      18.473  37.908  51.018  1.00  0.00    +0.000 F 
ATOM     44  C32 UNL A   1      16.322  37.302  50.276  1.00  0.00    +0.000 C 
ATOM     45  F7  UNL A   1      15.891  37.281  51.545  1.00  0.00    +0.000 F 
ATOM     46  C33 UNL A   1      15.449  36.995  49.244  1.00  0.00    +0.000 C 
ATOM     47  F8  UNL A   1      14.171  36.695  49.512  1.00  0.00    +0.000 F 
ATOM     48  C34 UNL A   1      15.902  36.992  47.933  1.00  0.00    +0.000 C 
ATOM     49  F9  UNL A   1      15.056  36.705  46.933  1.00  0.00    +0.000 F 
ATOM     50  C35 UNL A   1      17.234  37.284  47.655  1.00  0.00    +0.000 C 
ATOM     51  F10 UNL A   1      17.647  37.262  46.378  1.00  0.00    +0.000 F 
ENDBRANCH   40   41
BRANCH   55   56
ATOM     65  C44 UNL A   1      22.818  33.537  44.730  1.00  0.00    +0.000 C 
ATOM     66  F15 UNL A   1      22.119  34.392  43.968  1.00  0.00    +0.000 F 
ATOM     56  C39 UNL A   1      23.396  33.976  45.929  1.00  0.00    +0.000 C 
ATOM     57  C40 UNL A   1      24.112  33.042  46.691  1.00  0.00    +0.000 C 
ATOM     58  F11 UNL A   1      24.700  33.422  47.835  1.00  0.00    +0.000 F 
ATOM     59  C41 UNL A   1      24.257  31.725  46.263  1.00  0.00    +0.000 C 
ATOM     60  F12 UNL A   1      24.979  30.862  46.991  1.00  0.00    +0.000 F 
ATOM     61  C42 UNL A   1      23.668  31.309  45.078  1.00  0.00    +0.000 C 
ATOM     62  F13 UNL A   1      23.804  30.042  44.669  1.00  0.00    +0.000 F 
ATOM     63  C43 UNL A   1      22.943  32.213  44.315  1.00  0.00    +0.000 C 
ATOM     64  F14 UNL A   1      22.363  31.813  43.175  1.00  0.00    +0.000 F 
ENDBRANCH   55   56
TORSDOF 25
ENDMDL
MODEL 4
REMARK VINA RESULT:      -9.0     10.290     17.129
ROOT
ATOM    129  H26 UNL A   1       7.780  29.661   0.195  1.00  0.00    +0.000 H 
ATOM    130  H27 UNL A   1       3.849  32.025  -1.865  1.00  0.00    +0.000 H 
ATOM    131  H28 UNL A   1       5.521  33.172  -3.428  1.00  0.00    +0.000 H 
ATOM    132  H29 UNL A   1      13.158  28.662   1.291  1.00  0.00    +0.000 H 
ATOM    133  H30 UNL A   1      11.498  27.171   2.545  1.00  0.00    +0.000 H 
ATOM     19  C15 UNL A   1       8.771  27.851   2.082  1.00  0.00    +0.000 C 
ATOM     20  C16 UNL A   1       9.987  28.431   1.417  1.00  0.00    +0.000 C 
ATOM     21  N3  UNL A   1      10.066  29.357   0.494  1.00  0.00    +0.000 N 
ATOM     22  C17 UNL A   1      11.422  29.552   0.270  1.00  0.00    +0.000 C 
ATOM     23  C18 UNL A   1      12.019  30.366  -0.632  1.00  0.00    +0.000 C 
ATOM     35  C25 UNL A   1      11.312  31.205  -1.564  1.00  0.00    +0.000 C 
ATOM     36  C26 UNL A   1      11.826  32.014  -2.561  1.00  0.00    +0.000 C 
ATOM     37  C27 UNL A   1      10.759  32.667  -3.189  1.00  0.00    +0.000 C 
ATOM     38  C28 UNL A   1       9.578  32.233  -2.609  1.00  0.00    +0.000 C 
ATOM     39  N4  UNL A   1       9.931  31.339  -1.611  1.00  0.00    +0.000 N 
ATOM     40  C29 UNL A   1       8.226  32.607  -2.937  1.00  0.00    +0.000 C 
ATOM     52  C36 UNL A   1       7.116  32.124  -2.329  1.00  0.00    +0.000 C 
ATOM     53  N5  UNL A   1       7.018  31.199  -1.300  1.00  0.00    +0.000 N 
ATOM     54  C37 UNL A   1       5.738  31.069  -1.053  1.00  0.00    +0.000 C 
ATOM     55  C38 UNL A   1       5.049  30.180  -0.053  1.00  0.00    +0.000 C 
ATOM     67  C45 UNL A   1       5.787  29.362   0.721  1.00  0.00    +0.000 C 
ATOM     68  C46 UNL A   1       5.262  28.442   1.725  1.00  0.00    +0.000 C 
ATOM     69  C47 UNL A   1       6.287  27.817   2.326  1.00  0.00    +0.000 C 
ATOM     70  C48 UNL A   1       7.542  28.270   1.725  1.00  0.00    +0.000 C 
ATOM     71  N6  UNL A   1       7.148  29.183   0.778  1.00  0.00    +0.000 N 
ATOM     72  C49 UNL A   1       4.875  31.919  -1.885  1.00  0.00    +0.000 C 
ATOM     73  C50 UNL A   1       5.763  32.515  -2.670  1.00  0.00    +0.000 C 
ATOM     74  C51 UNL A   1      12.131  28.684   1.186  1.00  0.00    +0.000 C 
ATOM     75  C52 UNL A   1      11.292  27.923   1.871  1.00  0.00    +0.000 C 
ATOM    124  H21 UNL A   1      12.824  32.117  -2.801  1.00  0.00    +0.000 H 
ATOM    125  H22 UNL A   1      10.839  33.355  -3.954  1.00  0.00    +0.000 H 
ATOM    126  H23 UNL A   1       9.298  30.868  -1.023  1.00  0.00    +0.000 H 
ATOM    127  H24 UNL A   1       4.262  28.296   1.939  1.00  0.00    +0.000 H 
ATOM    128  H25 UNL A   1       6.203  27.129   3.090  1.00  0.00    +0.000 H 
ENDROOT
BRANCH   19   18
ATOM    134  H31 UNL A   1       9.074  28.333   4.699  1.00  0.00    +0.000 H 
ATOM    135  H32 UNL A   1       9.405  26.748   6.502  1.00  0.00    +0.000 H 
ATOM     76  C53 UNL A   1       9.073  27.320   4.501  1.00  0.00    +0.000 C 
ATOM     77  C54 UNL A   1       9.222  26.410   5.545  1.00  0.00    +0.000 C 
ATOM     15  C11 UNL A   1       9.124  25.038   5.292  1.00  0.00    +0.000 C 
ATOM     16  C12 UNL A   1       9.000  24.573   3.980  1.00  0.00    +0.000 C 
ATOM     17  C13 UNL A   1       8.915  25.486   2.926  1.00  0.00    +0.000 C 
ATOM     18  C14 UNL A   1       8.920  26.866   3.181  1.00  0.00    +0.000 C 
ATOM    122  H19 UNL A   1       8.971  23.559   3.791  1.00  0.00    +0.000 H 
ATOM    123  H20 UNL A   1       8.847  25.143   1.955  1.00  0.00    +0.000 H 
BRANCH   15   13
ATOM     13  C10 UNL A   1       9.159  24.056   6.397  1.00  0.00    +0.000 C 
ATOM     14  O2  UNL A   1       8.333  24.128   7.302  1.00  0.00    +0.000 O 
BRANCH   13   12
ATOM    121  H18 UNL A   1       9.846  22.199   6.081  1.00  0.00    +0.000 H 
ATOM     12  N2  UNL A   1      10.126  23.081   6.416  1.00  0.00    +0.000 N 
BRANCH   12   11
ATOM     11  C9  UNL A   1      11.506  23.171   6.864  1.00  0.00    +0.000 C 
ATOM    119  H16 UNL A   1      11.721  24.189   7.113  1.00  0.00    +0.000 H 
ATOM    120  H17 UNL A   1      11.615  22.529   7.714  1.00  0.00    +0.000 H 
BRANCH   11   10
ATOM     10  C8  UNL A   1      12.493  22.705   5.800  1.00  0.00    +0.000 C 
ATOM    117  H14 UNL A   1      13.482  22.815   6.193  1.00  0.00    +0.000 H 
ATOM    118  H15 UNL A   1      12.237  21.692   5.575  1.00  0.00    +0.000 H 
BRANCH   10    9
ATOM      9  C7  UNL A   1      12.419  23.471   4.477  1.00  0.00    +0.000 C 
ATOM    115  H12 UNL A   1      11.433  23.345   4.077  1.00  0.00    +0.000 H 
ATOM    116  H13 UNL A   1      12.658  24.487   4.708  1.00  0.00    +0.000 H 
BRANCH    9    8
ATOM    113  H10 UNL A   1      13.142  23.480   2.485  1.00  0.00    +0.000 H 
ATOM    114  H11 UNL A   1      14.384  23.335   3.769  1.00  0.00    +0.000 H 
ATOM      8  C6  UNL A   1      13.423  23.027   3.412  1.00  0.00    +0.000 C 
BRANCH    8    7
ATOM    111  H8  UNL A   1      12.846  21.031   3.862  1.00  0.00    +0.000 H 
ATOM      7  C5  UNL A   1      13.521  21.512   3.187  1.00  0.00    +0.000 C 
ATOM    112  H9  UNL A   1      13.281  21.345   2.157  1.00  0.00    +0.000 H 
BRANCH    7    6
ATOM    110  H7  UNL A   1      14.808  19.868   3.606  1.00  0.00    +0.000 H 
ATOM    109  H6  UNL A   1      15.388  21.412   4.223  1.00  0.00    +0.000 H 
ATOM      6  C4  UNL A   1      14.917  20.913   3.402  1.00  0.00    +0.000 C 
BRANCH    6    5
ATOM    108  H5  UNL A   1      16.640  21.450   2.345  1.00  0.00    +0.000 H 
ATOM      5  N1  UNL A   1      15.744  21.063   2.221  1.00  0.00    +0.000 N 
BRANCH    5    3
ATOM      3  C3  UNL A   1      15.383  20.712   0.947  1.00  0.00    +0.000 C 
ATOM      4  O1  UNL A   1      15.040  19.542   0.781  1.00  0.00    +0.000 O 
BRANCH    3    2
ATOM      2  C2  UNL A   1      15.414  21.781  -0.159  1.00  0.00    +0.000 C 
ATOM    107  H4  UNL A   1      15.319  21.231  -1.072  1.00  0.00    +0.000 H 
BRANCH    2    1
ATOM      1  C1  UNL A   1      16.737  22.554  -0.065  1.00  0.00    +0.000 C 
ATOM    106  H3  UNL A   1      17.150  22.673  -1.044  1.00  0.00    +0.000 H 
ATOM    105  H2  UNL A   1      16.557  23.516   0.366  1.00  0.00    +0.000 H 
ATOM    104  H1  UNL A   1      17.425  22.010   0.549  1.00  0.00    +0.000 H 
ENDBRANCH    2    1
BRANCH    2   78
ATOM    101  C75 UNL A   1      13.315  25.006  -0.358  1.00  0.00    +0.000 C 
ATOM    102  F16 UNL A   1      13.542  26.330  -0.348  1.00  0.00    +0.000 F 
ATOM    103  C76 UNL A   1      14.401  24.160  -0.143  1.00  0.00    +0.000 C 
ATOM    136  H33 UNL A   1      12.779  21.253  -0.310  1.00  0.00    +0.000 H 
ATOM    137  H34 UNL A   1      10.908  22.730  -0.705  1.00  0.00    +0.000 H 
ATOM     78  C55 UNL A   1      14.247  22.771  -0.192  1.00  0.00    +0.000 C 
ATOM     79  C56 UNL A   1      12.939  22.272  -0.355  1.00  0.00    +0.000 C 
ATOM     80  C57 UNL A   1      11.852  23.128  -0.578  1.00  0.00    +0.000 C 
ATOM     81  C58 UNL A   1      12.033  24.515  -0.631  1.00  0.00    +0.000 C 
ATOM    154  H51 UNL A   1      15.330  24.563   0.054  1.00  0.00    +0.000 H 
BRANCH   81   82
ATOM    100  C74 UNL A   1      11.260  26.436  -1.996  1.00  0.00    +0.000 C 
ATOM    138  H35 UNL A   1       9.388  24.533   0.030  1.00  0.00    +0.000 H 
ATOM    139  H36 UNL A   1       7.668  26.043  -0.769  1.00  0.00    +0.000 H 
ATOM    140  H37 UNL A   1       8.223  27.792  -2.360  1.00  0.00    +0.000 H 
ATOM     82  C59 UNL A   1      10.959  25.414  -1.075  1.00  0.00    +0.000 C 
ATOM     83  C60 UNL A   1       9.634  25.279  -0.639  1.00  0.00    +0.000 C 
ATOM     84  C61 UNL A   1       8.639  26.147  -1.104  1.00  0.00    +0.000 C 
ATOM     85  C62 UNL A   1       8.956  27.152  -2.019  1.00  0.00    +0.000 C 
ATOM     86  C63 UNL A   1      10.267  27.286  -2.469  1.00  0.00    +0.000 C 
ATOM    153  H50 UNL A   1      12.232  26.555  -2.322  1.00  0.00    +0.000 H 
BRANCH   86   87
ATOM     87  O3  UNL A   1      10.511  28.358  -3.360  1.00  0.00    +0.000 O 
BRANCH   87   88
ATOM     89  O4  UNL A   1      10.023  28.145  -5.638  1.00  0.00    +0.000 O 
ATOM     88  C64 UNL A   1      10.816  28.214  -4.714  1.00  0.00    +0.000 C 
BRANCH   88   90
ATOM     90  N7  UNL A   1      12.166  28.167  -4.956  1.00  0.00    +0.000 N 
ATOM    141  H38 UNL A   1      12.731  28.870  -4.561  1.00  0.00    +0.000 H 
BRANCH   90   91
ATOM     91  C65 UNL A   1      12.810  27.151  -5.755  1.00  0.00    +0.000 C 
ATOM    142  H39 UNL A   1      13.839  27.418  -5.869  1.00  0.00    +0.000 H 
ATOM    143  H40 UNL A   1      12.281  27.115  -6.686  1.00  0.00    +0.000 H 
BRANCH   91   92
ATOM    145  H42 UNL A   1      11.802  25.718  -4.650  1.00  0.00    +0.000 H 
ATOM     92  C66 UNL A   1      12.743  25.744  -5.161  1.00  0.00    +0.000 C 
ATOM    144  H41 UNL A   1      12.855  25.052  -5.971  1.00  0.00    +0.000 H 
BRANCH   92   93
ATOM    146  H43 UNL A   1      13.322  25.582  -3.141  1.00  0.00    +0.000 H 
ATOM    147  H44 UNL A   1      14.637  25.912  -4.373  1.00  0.00    +0.000 H 
ATOM     93  C67 UNL A   1      13.768  25.356  -4.087  1.00  0.00    +0.000 C 
BRANCH   93   94
ATOM     97  C71 UNL A   1      15.414  21.369  -3.718  1.00  0.00    +0.000 C 
ATOM     98  C72 UNL A   1      16.235  22.492  -3.717  1.00  0.00    +0.000 C 
ATOM     99  C73 UNL A   1      15.673  23.764  -3.848  1.00  0.00    +0.000 C 
ATOM    148  H45 UNL A   1      12.457  22.894  -4.112  1.00  0.00    +0.000 H 
ATOM    149  H46 UNL A   1      13.428  20.691  -3.856  1.00  0.00    +0.000 H 
ATOM    150  H47 UNL A   1      15.824  20.428  -3.615  1.00  0.00    +0.000 H 
ATOM    151  H48 UNL A   1      17.256  22.386  -3.620  1.00  0.00    +0.000 H 
ATOM    152  H49 UNL A   1      16.288  24.591  -3.836  1.00  0.00    +0.000 H 
ATOM     94  C68 UNL A   1      14.284  23.939  -3.996  1.00  0.00    +0.000 C 
ATOM     95  C69 UNL A   1      13.479  22.797  -4.001  1.00  0.00    +0.000 C 
ATOM     96  C70 UNL A   1      14.039  21.522  -3.858  1.00  0.00    +0.000 C 
ENDBRANCH   93   94
ENDBRANCH   92   93
ENDBRANCH   91   92
ENDBRANCH   90   91
ENDBRANCH   88   90
ENDBRANCH   87   88
ENDBRANCH   86   87
ENDBRANCH   81   82
ENDBRANCH    2   78
ENDBRANCH    3    2
ENDBRANCH    5    3
ENDBRANCH    6    5
ENDBRANCH    7    6
ENDBRANCH    8    7
ENDBRANCH    9    8
ENDBRANCH   10    9
ENDBRANCH   11   10
ENDBRANCH   12   11
ENDBRANCH   13   12
ENDBRANCH   15   13
ENDBRANCH   19   18
BRANCH   23   24
ATOM     33  C24 UNL A   1      14.233  31.300   0.130  1.00  0.00    +0.000 C 
ATOM     34  F5  UNL A   1      13.582  32.154   0.936  1.00  0.00    +0.000 F 
ATOM     24  C19 UNL A   1      13.519  30.386  -0.658  1.00  0.00    +0.000 C 
ATOM     25  C20 UNL A   1      14.251  29.520  -1.485  1.00  0.00    +0.000 C 
ATOM     26  F1  UNL A   1      13.615  28.619  -2.248  1.00  0.00    +0.000 F 
ATOM     27  C21 UNL A   1      15.643  29.550  -1.500  1.00  0.00    +0.000 C 
ATOM     28  F2  UNL A   1      16.321  28.681  -2.262  1.00  0.00    +0.000 F 
ATOM     29  C22 UNL A   1      16.328  30.467  -0.717  1.00  0.00    +0.000 C 
ATOM     30  F3  UNL A   1      17.668  30.497  -0.737  1.00  0.00    +0.000 F 
ATOM     31  C23 UNL A   1      15.625  31.347   0.092  1.00  0.00    +0.000 C 
ATOM     32  F4  UNL A   1      16.285  32.240   0.841  1.00  0.00    +0.000 F 
ENDBRANCH   23   24
BRANCH   40   41
ATOM     41  C30 UNL A   1       8.025  33.591  -4.051  1.00  0.00    +0.000 C 
ATOM     42  C31 UNL A   1       8.101  34.974  -3.830  1.00  0.00    +0.000 C 
ATOM     43  F6  UNL A   1       8.306  35.449  -2.592  1.00  0.00    +0.000 F 
ATOM     44  C32 UNL A   1       7.930  35.874  -4.877  1.00  0.00    +0.000 C 
ATOM     45  F7  UNL A   1       7.965  37.193  -4.637  1.00  0.00    +0.000 F 
ATOM     46  C33 UNL A   1       7.710  35.412  -6.166  1.00  0.00    +0.000 C 
ATOM     47  F8  UNL A   1       7.552  36.280  -7.173  1.00  0.00    +0.000 F 
ATOM     48  C34 UNL A   1       7.647  34.047  -6.409  1.00  0.00    +0.000 C 
ATOM     49  F9  UNL A   1       7.444  33.598  -7.656  1.00  0.00    +0.000 F 
ATOM     50  C35 UNL A   1       7.791  33.144  -5.360  1.00  0.00    +0.000 C 
ATOM     51  F10 UNL A   1       7.715  31.831  -5.623  1.00  0.00    +0.000 F 
ENDBRANCH   40   41
BRANCH   55   56
ATOM     65  C44 UNL A   1       2.794  29.146  -0.483  1.00  0.00    +0.000 C 
ATOM     66  F15 UNL A   1       3.385  28.136  -1.137  1.00  0.00    +0.000 F 
ATOM     56  C39 UNL A   1       3.569  30.175   0.069  1.00  0.00    +0.000 C 
ATOM     57  C40 UNL A   1       2.902  31.211   0.738  1.00  0.00    +0.000 C 
ATOM     58  F11 UNL A   1       3.605  32.206   1.299  1.00  0.00    +0.000 F 
ATOM     59  C41 UNL A   1       1.516  31.209   0.864  1.00  0.00    +0.000 C 
ATOM     60  F12 UNL A   1       0.905  32.191   1.542  1.00  0.00    +0.000 F 
ATOM     61  C42 UNL A   1       0.767  30.186   0.302  1.00  0.00    +0.000 C 
ATOM     62  F13 UNL A   1      -0.567  30.187   0.420  1.00  0.00    +0.000 F 
ATOM     63  C43 UNL A   1       1.404  29.158  -0.377  1.00  0.00    +0.000 C 
ATOM     64  F14 UNL A   1       0.684  28.174  -0.932  1.00  0.00    +0.000 F 
ENDBRANCH   55   56
TORSDOF 25
ENDMDL
MODEL 5
REMARK VINA RESULT:      -8.8      7.892     14.818
ROOT
ATOM    129  H26 UNL A   1      16.464  20.459   6.516  1.00  0.00    +0.000 H 
ATOM    130  H27 UNL A   1      11.950  21.109   8.635  1.00  0.00    +0.000 H 
ATOM    131  H28 UNL A   1      12.405  18.965   9.958  1.00  0.00    +0.000 H 
ATOM    132  H29 UNL A   1      21.123  17.726   5.122  1.00  0.00    +0.000 H 
ATOM    133  H30 UNL A   1      20.907  20.079   4.136  1.00  0.00    +0.000 H 
ATOM     19  C15 UNL A   1      18.429  21.348   4.735  1.00  0.00    +0.000 C 
ATOM     20  C16 UNL A   1      18.933  20.030   5.252  1.00  0.00    +0.000 C 
ATOM     21  N3  UNL A   1      18.362  19.190   6.078  1.00  0.00    +0.000 N 
ATOM     22  C17 UNL A   1      19.232  18.113   6.182  1.00  0.00    +0.000 C 
ATOM     23  C18 UNL A   1      19.121  17.010   6.959  1.00  0.00    +0.000 C 
ATOM     35  C25 UNL A   1      18.026  16.757   7.859  1.00  0.00    +0.000 C 
ATOM     36  C26 UNL A   1      17.855  15.702   8.738  1.00  0.00    +0.000 C 
ATOM     37  C27 UNL A   1      16.623  15.862   9.380  1.00  0.00    +0.000 C 
ATOM     38  C28 UNL A   1      16.044  17.038   8.931  1.00  0.00    +0.000 C 
ATOM     39  N4  UNL A   1      16.914  17.576   7.997  1.00  0.00    +0.000 N 
ATOM     40  C29 UNL A   1      14.790  17.629   9.322  1.00  0.00    +0.000 C 
ATOM     52  C36 UNL A   1      14.297  18.797   8.845  1.00  0.00    +0.000 C 
ATOM     53  N5  UNL A   1      14.855  19.663   7.915  1.00  0.00    +0.000 N 
ATOM     54  C37 UNL A   1      13.997  20.644   7.777  1.00  0.00    +0.000 C 
ATOM     55  C38 UNL A   1      14.092  21.875   6.916  1.00  0.00    +0.000 C 
ATOM     67  C45 UNL A   1      15.195  22.073   6.169  1.00  0.00    +0.000 C 
ATOM     68  C46 UNL A   1      15.431  23.217   5.295  1.00  0.00    +0.000 C 
ATOM     69  C47 UNL A   1      16.615  23.062   4.680  1.00  0.00    +0.000 C 
ATOM     70  C48 UNL A   1      17.234  21.819   5.142  1.00  0.00    +0.000 C 
ATOM     71  N6  UNL A   1      16.322  21.302   6.028  1.00  0.00    +0.000 N 
ATOM     72  C49 UNL A   1      12.781  20.498   8.589  1.00  0.00    +0.000 C 
ATOM     73  C50 UNL A   1      13.032  19.375   9.248  1.00  0.00    +0.000 C 
ATOM     74  C51 UNL A   1      20.348  18.384   5.300  1.00  0.00    +0.000 C 
ATOM     75  C52 UNL A   1      20.244  19.585   4.752  1.00  0.00    +0.000 C 
ATOM    124  H21 UNL A   1      18.523  14.931   8.893  1.00  0.00    +0.000 H 
ATOM    125  H22 UNL A   1      16.213  15.213  10.070  1.00  0.00    +0.000 H 
ATOM    126  H23 UNL A   1      16.766  18.414   7.502  1.00  0.00    +0.000 H 
ATOM    127  H24 UNL A   1      14.791  24.018   5.170  1.00  0.00    +0.000 H 
ATOM    128  H25 UNL A   1      17.021  23.714   3.991  1.00  0.00    +0.000 H 
ENDROOT
BRANCH   19   18
ATOM    134  H31 UNL A   1      20.317  23.199   5.152  1.00  0.00    +0.000 H 
ATOM    135  H32 UNL A   1      21.545  24.505   3.520  1.00  0.00    +0.000 H 
ATOM     76  C53 UNL A   1      20.161  23.042   4.144  1.00  0.00    +0.000 C 
ATOM     77  C54 UNL A   1      20.897  23.764   3.208  1.00  0.00    +0.000 C 
ATOM     15  C11 UNL A   1      20.757  23.485   1.845  1.00  0.00    +0.000 C 
ATOM     16  C12 UNL A   1      19.793  22.570   1.412  1.00  0.00    +0.000 C 
ATOM     17  C13 UNL A   1      19.010  21.893   2.349  1.00  0.00    +0.000 C 
ATOM     18  C14 UNL A   1      19.209  22.101   3.723  1.00  0.00    +0.000 C 
ATOM    122  H19 UNL A   1      19.660  22.396   0.404  1.00  0.00    +0.000 H 
ATOM    123  H20 UNL A   1      18.281  21.235   2.030  1.00  0.00    +0.000 H 
BRANCH   15   13
ATOM     13  C10 UNL A   1      21.611  24.151   0.838  1.00  0.00    +0.000 C 
ATOM     14  O2  UNL A   1      21.478  23.877  -0.350  1.00  0.00    +0.000 O 
BRANCH   13   12
ATOM    121  H18 UNL A   1      23.473  24.696   1.340  1.00  0.00    +0.000 H 
ATOM     12  N2  UNL A   1      22.563  25.055   1.239  1.00  0.00    +0.000 N 
BRANCH   12   11
ATOM     11  C9  UNL A   1      22.412  26.471   1.536  1.00  0.00    +0.000 C 
ATOM    119  H16 UNL A   1      21.717  26.581   2.341  1.00  0.00    +0.000 H 
ATOM    120  H17 UNL A   1      23.377  26.854   1.796  1.00  0.00    +0.000 H 
BRANCH   11   10
ATOM     10  C8  UNL A   1      21.905  27.264   0.337  1.00  0.00    +0.000 C 
ATOM    117  H14 UNL A   1      21.069  26.741  -0.079  1.00  0.00    +0.000 H 
ATOM    118  H15 UNL A   1      21.655  28.237   0.703  1.00  0.00    +0.000 H 
BRANCH   10    9
ATOM      9  C7  UNL A   1      22.935  27.475  -0.775  1.00  0.00    +0.000 C 
ATOM    115  H12 UNL A   1      23.237  26.513  -1.133  1.00  0.00    +0.000 H 
ATOM    116  H13 UNL A   1      22.452  28.073  -1.518  1.00  0.00    +0.000 H 
BRANCH    9    8
ATOM    113  H10 UNL A   1      24.196  28.315   0.707  1.00  0.00    +0.000 H 
ATOM    114  H11 UNL A   1      25.017  27.689  -0.757  1.00  0.00    +0.000 H 
ATOM      8  C6  UNL A   1      24.192  28.243  -0.359  1.00  0.00    +0.000 C 
BRANCH    8    7
ATOM    111  H8  UNL A   1      24.450  30.339  -0.113  1.00  0.00    +0.000 H 
ATOM      7  C5  UNL A   1      24.319  29.661  -0.931  1.00  0.00    +0.000 C 
ATOM    112  H9  UNL A   1      25.153  29.640  -1.602  1.00  0.00    +0.000 H 
BRANCH    7    6
ATOM    110  H7  UNL A   1      22.602  29.277  -2.130  1.00  0.00    +0.000 H 
ATOM    109  H6  UNL A   1      23.468  30.748  -2.562  1.00  0.00    +0.000 H 
ATOM      6  C4  UNL A   1      23.118  30.138  -1.757  1.00  0.00    +0.000 C 
BRANCH    6    5
ATOM    108  H5  UNL A   1      22.545  31.310  -0.123  1.00  0.00    +0.000 H 
ATOM      5  N1  UNL A   1      22.193  30.907  -0.949  1.00  0.00    +0.000 N 
BRANCH    5    3
ATOM      3  C3  UNL A   1      20.872  31.121  -1.238  1.00  0.00    +0.000 C 
ATOM      4  O1  UNL A   1      20.607  32.162  -1.839  1.00  0.00    +0.000 O 
BRANCH    3    2
ATOM      2  C2  UNL A   1      19.835  30.064  -0.818  1.00  0.00    +0.000 C 
ATOM    107  H4  UNL A   1      20.298  29.534  -0.012  1.00  0.00    +0.000 H 
BRANCH    2    1
ATOM      1  C1  UNL A   1      19.527  29.165  -2.023  1.00  0.00    +0.000 C 
ATOM    106  H3  UNL A   1      19.881  29.633  -2.917  1.00  0.00    +0.000 H 
ATOM    105  H2  UNL A   1      20.014  28.221  -1.897  1.00  0.00    +0.000 H 
ATOM    104  H1  UNL A   1      18.469  29.014  -2.094  1.00  0.00    +0.000 H 
ENDBRANCH    2    1
BRANCH    2   78
ATOM    101  C75 UNL A   1      17.234  32.105   1.161  1.00  0.00    +0.000 C 
ATOM    102  F16 UNL A   1      17.244  33.058   2.107  1.00  0.00    +0.000 F 
ATOM    103  C76 UNL A   1      18.455  31.545   0.791  1.00  0.00    +0.000 C 
ATOM    136  H33 UNL A   1      17.316  29.364  -1.458  1.00  0.00    +0.000 H 
ATOM    137  H34 UNL A   1      15.207  30.360  -0.825  1.00  0.00    +0.000 H 
ATOM     78  C55 UNL A   1      18.524  30.584  -0.223  1.00  0.00    +0.000 C 
ATOM     79  C56 UNL A   1      17.306  30.133  -0.769  1.00  0.00    +0.000 C 
ATOM     80  C57 UNL A   1      16.081  30.705  -0.398  1.00  0.00    +0.000 C 
ATOM     81  C58 UNL A   1      16.032  31.740   0.544  1.00  0.00    +0.000 C 
ATOM    154  H51 UNL A   1      19.318  31.842   1.271  1.00  0.00    +0.000 H 
BRANCH   81   82
ATOM    100  C74 UNL A   1      13.968  32.822  -0.303  1.00  0.00    +0.000 C 
ATOM    138  H35 UNL A   1      14.983  32.661   2.886  1.00  0.00    +0.000 H 
ATOM    139  H36 UNL A   1      12.919  33.891   3.207  1.00  0.00    +0.000 H 
ATOM    140  H37 UNL A   1      11.509  34.427   1.303  1.00  0.00    +0.000 H 
ATOM     82  C59 UNL A   1      14.797  32.498   0.788  1.00  0.00    +0.000 C 
ATOM     83  C60 UNL A   1      14.395  32.893   2.071  1.00  0.00    +0.000 C 
ATOM     84  C61 UNL A   1      13.200  33.598   2.258  1.00  0.00    +0.000 C 
ATOM     85  C62 UNL A   1      12.389  33.907   1.165  1.00  0.00    +0.000 C 
ATOM     86  C63 UNL A   1      12.773  33.508  -0.113  1.00  0.00    +0.000 C 
ATOM    153  H50 UNL A   1      14.251  32.547  -1.256  1.00  0.00    +0.000 H 
BRANCH   86   87
ATOM     87  O3  UNL A   1      11.917  33.901  -1.169  1.00  0.00    +0.000 O 
BRANCH   87   88
ATOM     89  O4  UNL A   1      11.409  32.642  -3.075  1.00  0.00    +0.000 O 
ATOM     88  C64 UNL A   1      11.156  33.025  -1.945  1.00  0.00    +0.000 C 
BRANCH   88   90
ATOM     90  N7  UNL A   1      10.030  32.579  -1.300  1.00  0.00    +0.000 N 
ATOM    141  H38 UNL A   1      10.135  32.199  -0.397  1.00  0.00    +0.000 H 
BRANCH   90   91
ATOM     91  C65 UNL A   1       8.701  32.632  -1.861  1.00  0.00    +0.000 C 
ATOM    142  H39 UNL A   1       8.004  32.370  -1.094  1.00  0.00    +0.000 H 
ATOM    143  H40 UNL A   1       8.691  31.951  -2.687  1.00  0.00    +0.000 H 
BRANCH   91   92
ATOM    145  H42 UNL A   1       7.340  34.187  -2.000  1.00  0.00    +0.000 H 
ATOM     92  C66 UNL A   1       8.306  33.999  -2.421  1.00  0.00    +0.000 C 
ATOM    144  H41 UNL A   1       9.078  34.689  -2.146  1.00  0.00    +0.000 H 
BRANCH   92   93
ATOM    146  H43 UNL A   1       7.893  33.151  -4.305  1.00  0.00    +0.000 H 
ATOM    147  H44 UNL A   1       8.991  34.616  -4.261  1.00  0.00    +0.000 H 
ATOM     93  C67 UNL A   1       8.093  34.134  -3.934  1.00  0.00    +0.000 C 
BRANCH   93   94
ATOM     97  C71 UNL A   1       5.130  36.832  -5.572  1.00  0.00    +0.000 C 
ATOM     98  C72 UNL A   1       6.396  37.282  -5.214  1.00  0.00    +0.000 C 
ATOM     99  C73 UNL A   1       7.325  36.388  -4.678  1.00  0.00    +0.000 C 
ATOM    148  H45 UNL A   1       5.462  33.614  -4.701  1.00  0.00    +0.000 H 
ATOM    149  H46 UNL A   1       3.858  35.158  -5.654  1.00  0.00    +0.000 H 
ATOM    150  H47 UNL A   1       4.442  37.488  -5.974  1.00  0.00    +0.000 H 
ATOM    151  H48 UNL A   1       6.648  38.274  -5.342  1.00  0.00    +0.000 H 
ATOM    152  H49 UNL A   1       8.266  36.728  -4.425  1.00  0.00    +0.000 H 
ATOM     94  C68 UNL A   1       7.006  35.032  -4.478  1.00  0.00    +0.000 C 
ATOM     95  C69 UNL A   1       5.726  34.603  -4.839  1.00  0.00    +0.000 C 
ATOM     96  C70 UNL A   1       4.797  35.495  -5.387  1.00  0.00    +0.000 C 
ENDBRANCH   93   94
ENDBRANCH   92   93
ENDBRANCH   91   92
ENDBRANCH   90   91
ENDBRANCH   88   90
ENDBRANCH   87   88
ENDBRANCH   86   87
ENDBRANCH   81   82
ENDBRANCH    2   78
ENDBRANCH    3    2
ENDBRANCH    5    3
ENDBRANCH    6    5
ENDBRANCH    7    6
ENDBRANCH    8    7
ENDBRANCH    9    8
ENDBRANCH   10    9
ENDBRANCH   11   10
ENDBRANCH   12   11
ENDBRANCH   13   12
ENDBRANCH   15   13
ENDBRANCH   19   18
BRANCH   23   24
ATOM     33  C24 UNL A   1      21.327  16.063   7.726  1.00  0.00    +0.000 C 
ATOM     34  F5  UNL A   1      21.410  17.035   8.648  1.00  0.00    +0.000 F 
ATOM     24  C19 UNL A   1      20.217  15.990   6.872  1.00  0.00    +0.000 C 
ATOM     25  C20 UNL A   1      20.185  14.955   5.924  1.00  0.00    +0.000 C 
ATOM     26  F1  UNL A   1      19.139  14.835   5.093  1.00  0.00    +0.000 F 
ATOM     27  C21 UNL A   1      21.210  14.015   5.854  1.00  0.00    +0.000 C 
ATOM     28  F2  UNL A   1      21.134  13.009   4.972  1.00  0.00    +0.000 F 
ATOM     29  C22 UNL A   1      22.301  14.112   6.704  1.00  0.00    +0.000 C 
ATOM     30  F3  UNL A   1      23.289  13.208   6.632  1.00  0.00    +0.000 F 
ATOM     31  C23 UNL A   1      22.365  15.137   7.635  1.00  0.00    +0.000 C 
ATOM     32  F4  UNL A   1      23.423  15.237   8.450  1.00  0.00    +0.000 F 
ENDBRANCH   23   24
BRANCH   40   41
ATOM     41  C30 UNL A   1      13.971  16.910  10.353  1.00  0.00    +0.000 C 
ATOM     42  C31 UNL A   1      13.045  15.920   9.993  1.00  0.00    +0.000 C 
ATOM     43  F6  UNL A   1      12.835  15.631   8.700  1.00  0.00    +0.000 F 
ATOM     44  C32 UNL A   1      12.306  15.248  10.962  1.00  0.00    +0.000 C 
ATOM     45  F7  UNL A   1      11.397  14.335  10.595  1.00  0.00    +0.000 F 
ATOM     46  C33 UNL A   1      12.498  15.531  12.306  1.00  0.00    +0.000 C 
ATOM     47  F8  UNL A   1      11.790  14.879  13.238  1.00  0.00    +0.000 F 
ATOM     48  C34 UNL A   1      13.421  16.495  12.684  1.00  0.00    +0.000 C 
ATOM     49  F9  UNL A   1      13.615  16.763  13.984  1.00  0.00    +0.000 F 
ATOM     50  C35 UNL A   1      14.143  17.187  11.717  1.00  0.00    +0.000 C 
ATOM     51  F10 UNL A   1      15.020  18.123  12.112  1.00  0.00    +0.000 F 
ENDBRANCH   40   41
BRANCH   55   56
ATOM     65  C44 UNL A   1      11.970  22.832   5.958  1.00  0.00    +0.000 C 
ATOM     66  F15 UNL A   1      11.953  21.861   5.033  1.00  0.00    +0.000 F 
ATOM     56  C39 UNL A   1      13.001  22.882   6.906  1.00  0.00    +0.000 C 
ATOM     57  C40 UNL A   1      12.976  23.920   7.847  1.00  0.00    +0.000 C 
ATOM     58  F11 UNL A   1      13.931  23.995   8.786  1.00  0.00    +0.000 F 
ATOM     59  C41 UNL A   1      11.951  24.863   7.849  1.00  0.00    +0.000 C 
ATOM     60  F12 UNL A   1      11.929  25.823   8.785  1.00  0.00    +0.000 F 
ATOM     61  C42 UNL A   1      10.946  24.801   6.896  1.00  0.00    +0.000 C 
ATOM     62  F13 UNL A   1       9.963  25.711   6.897  1.00  0.00    +0.000 F 
ATOM     63  C43 UNL A   1      10.959  23.791   5.946  1.00  0.00    +0.000 C 
ATOM     64  F14 UNL A   1       9.996  23.734   5.016  1.00  0.00    +0.000 F 
ENDBRANCH   55   56
TORSDOF 25
ENDMDL
MODEL 6
REMARK VINA RESULT:      -8.8     40.634     46.473
ROOT
ATOM    129  H26 UNL A   1      22.681  39.339  48.045  1.00  0.00    +0.000 H 
ATOM    130  H27 UNL A   1      19.006  42.078  50.112  1.00  0.00    +0.000 H 
ATOM    131  H28 UNL A   1      17.576  39.954  50.074  1.00  0.00    +0.000 H 
ATOM    132  H29 UNL A   1      24.972  34.954  45.466  1.00  0.00    +0.000 H 
ATOM    133  H30 UNL A   1      26.563  36.911  45.904  1.00  0.00    +0.000 H 
ATOM     19  C15 UNL A   1      25.292  39.184  47.057  1.00  0.00    +0.000 C 
ATOM     20  C16 UNL A   1      24.689  37.835  46.787  1.00  0.00    +0.000 C 
ATOM     21  N3  UNL A   1      23.473  37.408  47.019  1.00  0.00    +0.000 N 
ATOM     22  C17 UNL A   1      23.432  36.107  46.539  1.00  0.00    +0.000 C 
ATOM     23  C18 UNL A   1      22.412  35.218  46.594  1.00  0.00    +0.000 C 
ATOM     35  C25 UNL A   1      21.133  35.487  47.200  1.00  0.00    +0.000 C 
ATOM     36  C26 UNL A   1      20.059  34.631  47.366  1.00  0.00    +0.000 C 
ATOM     37  C27 UNL A   1      19.021  35.344  47.974  1.00  0.00    +0.000 C 
ATOM     38  C28 UNL A   1      19.462  36.634  48.223  1.00  0.00    +0.000 C 
ATOM     39  N4  UNL A   1      20.758  36.708  47.741  1.00  0.00    +0.000 N 
ATOM     40  C29 UNL A   1      18.756  37.719  48.853  1.00  0.00    +0.000 C 
ATOM     52  C36 UNL A   1      19.265  38.955  49.075  1.00  0.00    +0.000 C 
ATOM     53  N5  UNL A   1      20.526  39.446  48.769  1.00  0.00    +0.000 N 
ATOM     54  C37 UNL A   1      20.534  40.693  49.170  1.00  0.00    +0.000 C 
ATOM     55  C38 UNL A   1      21.649  41.702  49.112  1.00  0.00    +0.000 C 
ATOM     67  C45 UNL A   1      22.843  41.337  48.606  1.00  0.00    +0.000 C 
ATOM     68  C46 UNL A   1      24.014  42.200  48.493  1.00  0.00    +0.000 C 
ATOM     69  C47 UNL A   1      25.009  41.514  47.909  1.00  0.00    +0.000 C 
ATOM     70  C48 UNL A   1      24.553  40.150  47.636  1.00  0.00    +0.000 C 
ATOM     71  N6  UNL A   1      23.257  40.135  48.088  1.00  0.00    +0.000 N 
ATOM     72  C49 UNL A   1      19.264  41.145  49.756  1.00  0.00    +0.000 C 
ATOM     73  C50 UNL A   1      18.537  40.036  49.708  1.00  0.00    +0.000 C 
ATOM     74  C51 UNL A   1      24.729  35.828  45.960  1.00  0.00    +0.000 C 
ATOM     75  C52 UNL A   1      25.563  36.840  46.146  1.00  0.00    +0.000 C 
ATOM    124  H21 UNL A   1      20.029  33.637  47.090  1.00  0.00    +0.000 H 
ATOM    125  H22 UNL A   1      18.084  34.973  48.199  1.00  0.00    +0.000 H 
ATOM    126  H23 UNL A   1      21.330  37.509  47.776  1.00  0.00    +0.000 H 
ATOM    127  H24 UNL A   1      24.068  43.181  48.811  1.00  0.00    +0.000 H 
ATOM    128  H25 UNL A   1      25.944  41.888  47.688  1.00  0.00    +0.000 H 
ENDROOT
BRANCH   19   18
ATOM    134  H31 UNL A   1      27.576  38.637  48.343  1.00  0.00    +0.000 H 
ATOM    135  H32 UNL A   1      29.847  39.188  47.700  1.00  0.00    +0.000 H 
ATOM     76  C53 UNL A   1      27.755  39.116  47.447  1.00  0.00    +0.000 C 
ATOM     77  C54 UNL A   1      29.064  39.395  47.061  1.00  0.00    +0.000 C 
ATOM     15  C11 UNL A   1      29.314  39.956  45.805  1.00  0.00    +0.000 C 
ATOM     16  C12 UNL A   1      28.252  40.350  44.988  1.00  0.00    +0.000 C 
ATOM     17  C13 UNL A   1      26.937  40.129  45.404  1.00  0.00    +0.000 C 
ATOM     18  C14 UNL A   1      26.679  39.482  46.623  1.00  0.00    +0.000 C 
ATOM    122  H19 UNL A   1      28.438  40.805  44.080  1.00  0.00    +0.000 H 
ATOM    123  H20 UNL A   1      26.151  40.441  44.813  1.00  0.00    +0.000 H 
BRANCH   15   13
ATOM     13  C10 UNL A   1      30.698  40.152  45.320  1.00  0.00    +0.000 C 
ATOM     14  O2  UNL A   1      31.237  41.247  45.444  1.00  0.00    +0.000 O 
BRANCH   13   12
ATOM    121  H18 UNL A   1      31.970  38.603  45.297  1.00  0.00    +0.000 H 
ATOM     12  N2  UNL A   1      31.364  39.115  44.715  1.00  0.00    +0.000 N 
BRANCH   12   11
ATOM     11  C9  UNL A   1      31.300  38.669  43.333  1.00  0.00    +0.000 C 
ATOM    119  H16 UNL A   1      30.893  39.458  42.736  1.00  0.00    +0.000 H 
ATOM    120  H17 UNL A   1      32.294  38.417  43.024  1.00  0.00    +0.000 H 
BRANCH   11   10
ATOM     10  C8  UNL A   1      30.432  37.427  43.164  1.00  0.00    +0.000 C 
ATOM    117  H14 UNL A   1      29.513  37.723  42.704  1.00  0.00    +0.000 H 
ATOM    118  H15 UNL A   1      31.000  36.741  42.572  1.00  0.00    +0.000 H 
BRANCH   10    9
ATOM      9  C7  UNL A   1      30.098  36.696  44.466  1.00  0.00    +0.000 C 
ATOM    115  H12 UNL A   1      30.825  35.923  44.608  1.00  0.00    +0.000 H 
ATOM    116  H13 UNL A   1      30.111  37.438  45.235  1.00  0.00    +0.000 H 
BRANCH    9    8
ATOM    113  H10 UNL A   1      28.401  36.012  45.537  1.00  0.00    +0.000 H 
ATOM    114  H11 UNL A   1      28.082  36.668  43.900  1.00  0.00    +0.000 H 
ATOM      8  C6  UNL A   1      28.709  36.055  44.514  1.00  0.00    +0.000 C 
BRANCH    8    7
ATOM    111  H8  UNL A   1      28.199  34.710  42.948  1.00  0.00    +0.000 H 
ATOM      7  C5  UNL A   1      28.615  34.638  43.931  1.00  0.00    +0.000 C 
ATOM    112  H9  UNL A   1      29.609  34.242  43.943  1.00  0.00    +0.000 H 
BRANCH    7    6
ATOM    110  H7  UNL A   1      27.714  32.730  44.212  1.00  0.00    +0.000 H 
ATOM    109  H6  UNL A   1      26.776  34.072  44.861  1.00  0.00    +0.000 H 
ATOM      6  C4  UNL A   1      27.756  33.660  44.741  1.00  0.00    +0.000 C 
BRANCH    6    5
ATOM    108  H5  UNL A   1      29.272  33.138  46.084  1.00  0.00    +0.000 H 
ATOM      5  N1  UNL A   1      28.328  33.413  46.050  1.00  0.00    +0.000 N 
BRANCH    5    3
ATOM      3  C3  UNL A   1      27.666  33.532  47.243  1.00  0.00    +0.000 C 
ATOM      4  O1  UNL A   1      27.062  32.532  47.633  1.00  0.00    +0.000 O 
BRANCH    3    2
ATOM      2  C2  UNL A   1      27.734  34.867  48.005  1.00  0.00    +0.000 C 
ATOM    107  H4  UNL A   1      27.213  35.563  47.381  1.00  0.00    +0.000 H 
BRANCH    2    1
ATOM      1  C1  UNL A   1      29.207  35.243  48.216  1.00  0.00    +0.000 C 
ATOM    106  H3  UNL A   1      29.478  35.065  49.235  1.00  0.00    +0.000 H 
ATOM    105  H2  UNL A   1      29.822  34.648  47.574  1.00  0.00    +0.000 H 
ATOM    104  H1  UNL A   1      29.347  36.279  47.985  1.00  0.00    +0.000 H 
ENDBRANCH    2    1
BRANCH    2   78
ATOM    101  C75 UNL A   1      26.921  35.013  51.769  1.00  0.00    +0.000 C 
ATOM    102  F16 UNL A   1      27.589  34.877  52.926  1.00  0.00    +0.000 F 
ATOM    103  C76 UNL A   1      27.613  34.762  50.586  1.00  0.00    +0.000 C 
ATOM    136  H33 UNL A   1      25.116  35.311  48.447  1.00  0.00    +0.000 H 
ATOM    137  H34 UNL A   1      23.933  35.767  50.505  1.00  0.00    +0.000 H 
ATOM     78  C55 UNL A   1      26.995  34.933  49.344  1.00  0.00    +0.000 C 
ATOM     79  C56 UNL A   1      25.624  35.260  49.345  1.00  0.00    +0.000 C 
ATOM     80  C57 UNL A   1      24.934  35.519  50.538  1.00  0.00    +0.000 C 
ATOM     81  C58 UNL A   1      25.590  35.445  51.772  1.00  0.00    +0.000 C 
ATOM    154  H51 UNL A   1      28.594  34.445  50.627  1.00  0.00    +0.000 H 
BRANCH   81   82
ATOM    100  C74 UNL A   1      23.666  35.454  53.336  1.00  0.00    +0.000 C 
ATOM    138  H35 UNL A   1      26.536  37.147  53.681  1.00  0.00    +0.000 H 
ATOM    139  H36 UNL A   1      25.426  37.864  55.713  1.00  0.00    +0.000 H 
ATOM    140  H37 UNL A   1      23.206  37.037  56.248  1.00  0.00    +0.000 H 
ATOM     82  C59 UNL A   1      24.953  35.919  53.010  1.00  0.00    +0.000 C 
ATOM     83  C60 UNL A   1      25.589  36.799  53.896  1.00  0.00    +0.000 C 
ATOM     84  C61 UNL A   1      24.952  37.209  55.073  1.00  0.00    +0.000 C 
ATOM     85  C62 UNL A   1      23.676  36.735  55.382  1.00  0.00    +0.000 C 
ATOM     86  C63 UNL A   1      23.041  35.849  54.514  1.00  0.00    +0.000 C 
ATOM    153  H50 UNL A   1      23.179  34.811  52.692  1.00  0.00    +0.000 H 
BRANCH   86   87
ATOM     87  O3  UNL A   1      21.733  35.453  54.880  1.00  0.00    +0.000 O 
BRANCH   87   88
ATOM     89  O4  UNL A   1      20.320  36.618  56.336  1.00  0.00    +0.000 O 
ATOM     88  C64 UNL A   1      20.700  36.330  55.213  1.00  0.00    +0.000 C 
BRANCH   88   90
ATOM     90  N7  UNL A   1      20.106  36.900  54.116  1.00  0.00    +0.000 N 
ATOM    141  H38 UNL A   1      19.736  36.301  53.427  1.00  0.00    +0.000 H 
BRANCH   90   91
ATOM     91  C65 UNL A   1      19.988  38.324  53.907  1.00  0.00    +0.000 C 
ATOM    142  H39 UNL A   1      19.472  38.743  54.744  1.00  0.00    +0.000 H 
ATOM    143  H40 UNL A   1      19.463  38.455  52.984  1.00  0.00    +0.000 H 
BRANCH   91   92
ATOM    145  H42 UNL A   1      21.096  40.072  53.985  1.00  0.00    +0.000 H 
ATOM     92  C66 UNL A   1      21.325  39.052  53.754  1.00  0.00    +0.000 C 
ATOM    144  H41 UNL A   1      22.024  38.570  54.406  1.00  0.00    +0.000 H 
BRANCH   92   93
ATOM    146  H43 UNL A   1      21.447  39.873  51.818  1.00  0.00    +0.000 H 
ATOM    147  H44 UNL A   1      21.883  38.105  52.014  1.00  0.00    +0.000 H 
ATOM     93  C67 UNL A   1      21.967  39.113  52.362  1.00  0.00    +0.000 C 
BRANCH   93   94
ATOM     97  C71 UNL A   1      26.173  39.916  51.720  1.00  0.00    +0.000 C 
ATOM     98  C72 UNL A   1      25.453  39.100  50.854  1.00  0.00    +0.000 C 
ATOM     99  C73 UNL A   1      24.100  38.853  51.095  1.00  0.00    +0.000 C 
ATOM    148  H45 UNL A   1      23.732  40.629  53.902  1.00  0.00    +0.000 H 
ATOM    149  H46 UNL A   1      26.071  41.080  53.469  1.00  0.00    +0.000 H 
ATOM    150  H47 UNL A   1      27.172  40.107  51.543  1.00  0.00    +0.000 H 
ATOM    151  H48 UNL A   1      25.918  38.678  50.036  1.00  0.00    +0.000 H 
ATOM    152  H49 UNL A   1      23.571  38.255  50.442  1.00  0.00    +0.000 H 
ATOM     94  C68 UNL A   1      23.443  39.403  52.212  1.00  0.00    +0.000 C 
ATOM     95  C69 UNL A   1      24.187  40.214  53.073  1.00  0.00    +0.000 C 
ATOM     96  C70 UNL A   1      25.540  40.473  52.826  1.00  0.00    +0.000 C 
ENDBRANCH   93   94
ENDBRANCH   92   93
ENDBRANCH   91   92
ENDBRANCH   90   91
ENDBRANCH   88   90
ENDBRANCH   87   88
ENDBRANCH   86   87
ENDBRANCH   81   82
ENDBRANCH    2   78
ENDBRANCH    3    2
ENDBRANCH    5    3
ENDBRANCH    6    5
ENDBRANCH    7    6
ENDBRANCH    8    7
ENDBRANCH    9    8
ENDBRANCH   10    9
ENDBRANCH   11   10
ENDBRANCH   12   11
ENDBRANCH   13   12
ENDBRANCH   15   13
ENDBRANCH   19   18
BRANCH   23   24
ATOM     33  C24 UNL A   1      22.062  33.534  44.752  1.00  0.00    +0.000 C 
ATOM     34  F5  UNL A   1      21.319  34.433  44.088  1.00  0.00    +0.000 F 
ATOM     24  C19 UNL A   1      22.638  33.866  45.987  1.00  0.00    +0.000 C 
ATOM     25  C20 UNL A   1      23.402  32.886  46.639  1.00  0.00    +0.000 C 
ATOM     26  F1  UNL A   1      23.984  33.158  47.816  1.00  0.00    +0.000 F 
ATOM     27  C21 UNL A   1      23.604  31.634  46.064  1.00  0.00    +0.000 C 
ATOM     28  F2  UNL A   1      24.376  30.731  46.683  1.00  0.00    +0.000 F 
ATOM     29  C22 UNL A   1      23.018  31.326  44.845  1.00  0.00    +0.000 C 
ATOM     30  F3  UNL A   1      23.210  30.119  44.295  1.00  0.00    +0.000 F 
ATOM     31  C23 UNL A   1      22.242  32.271  44.192  1.00  0.00    +0.000 C 
ATOM     32  F4  UNL A   1      21.669  31.972  43.019  1.00  0.00    +0.000 F 
ENDBRANCH   23   24
BRANCH   40   41
ATOM     41  C30 UNL A   1      17.353  37.462  49.319  1.00  0.00    +0.000 C 
ATOM     42  C31 UNL A   1      17.025  37.447  50.682  1.00  0.00    +0.000 C 
ATOM     43  F6  UNL A   1      17.981  37.613  51.608  1.00  0.00    +0.000 F 
ATOM     44  C32 UNL A   1      15.715  37.226  51.099  1.00  0.00    +0.000 C 
ATOM     45  F7  UNL A   1      15.430  37.174  52.407  1.00  0.00    +0.000 F 
ATOM     46  C33 UNL A   1      14.707  37.045  50.164  1.00  0.00    +0.000 C 
ATOM     47  F8  UNL A   1      13.447  36.837  50.566  1.00  0.00    +0.000 F 
ATOM     48  C34 UNL A   1      15.008  37.072  48.809  1.00  0.00    +0.000 C 
ATOM     49  F9  UNL A   1      14.033  36.907  47.904  1.00  0.00    +0.000 F 
ATOM     50  C35 UNL A   1      16.320  37.267  48.390  1.00  0.00    +0.000 C 
ATOM     51  F10 UNL A   1      16.583  37.277  47.074  1.00  0.00    +0.000 F 
ENDBRANCH   40   41
BRANCH   55   56
ATOM     65  C44 UNL A   1      21.005  44.116  48.802  1.00  0.00    +0.000 C 
ATOM     66  F15 UNL A   1      20.736  43.876  47.510  1.00  0.00    +0.000 F 
ATOM     56  C39 UNL A   1      21.456  43.080  49.631  1.00  0.00    +0.000 C 
ATOM     57  C40 UNL A   1      21.727  43.385  50.972  1.00  0.00    +0.000 C 
ATOM     58  F11 UNL A   1      22.141  42.420  51.806  1.00  0.00    +0.000 F 
ATOM     59  C41 UNL A   1      21.539  44.672  51.468  1.00  0.00    +0.000 C 
ATOM     60  F12 UNL A   1      21.769  44.928  52.764  1.00  0.00    +0.000 F 
ATOM     61  C42 UNL A   1      21.102  45.685  50.629  1.00  0.00    +0.000 C 
ATOM     62  F13 UNL A   1      20.926  46.924  51.106  1.00  0.00    +0.000 F 
ATOM     63  C43 UNL A   1      20.840  45.410  49.295  1.00  0.00    +0.000 C 
ATOM     64  F14 UNL A   1      20.429  46.388  48.477  1.00  0.00    +0.000 F 
ENDBRANCH   55   56
TORSDOF 25
ENDMDL
MODEL 7
REMARK VINA RESULT:      -8.7     40.266     46.148
ROOT
ATOM    129  H26 UNL A   1      26.729  35.914  49.216  1.00  0.00    +0.000 H 
ATOM    130  H27 UNL A   1      21.892  34.980  50.223  1.00  0.00    +0.000 H 
ATOM    131  H28 UNL A   1      21.712  34.038  47.849  1.00  0.00    +0.000 H 
ATOM    132  H29 UNL A   1      31.273  36.539  46.041  1.00  0.00    +0.000 H 
ATOM    133  H30 UNL A   1      31.604  37.058  48.526  1.00  0.00    +0.000 H 
ATOM     19  C15 UNL A   1      29.208  36.896  50.058  1.00  0.00    +0.000 C 
ATOM     20  C16 UNL A   1      29.398  36.537  48.611  1.00  0.00    +0.000 C 
ATOM     21  N3  UNL A   1      28.526  36.077  47.750  1.00  0.00    +0.000 N 
ATOM     22  C17 UNL A   1      29.208  35.963  46.547  1.00  0.00    +0.000 C 
ATOM     23  C18 UNL A   1      28.760  35.480  45.364  1.00  0.00    +0.000 C 
ATOM     35  C25 UNL A   1      27.431  34.970  45.147  1.00  0.00    +0.000 C 
ATOM     36  C26 UNL A   1      26.902  34.397  44.004  1.00  0.00    +0.000 C 
ATOM     37  C27 UNL A   1      25.560  34.086  44.251  1.00  0.00    +0.000 C 
ATOM     38  C28 UNL A   1      25.266  34.428  45.561  1.00  0.00    +0.000 C 
ATOM     39  N4  UNL A   1      26.421  34.972  46.098  1.00  0.00    +0.000 N 
ATOM     40  C29 UNL A   1      24.023  34.273  46.272  1.00  0.00    +0.000 C 
ATOM     52  C36 UNL A   1      23.817  34.621  47.565  1.00  0.00    +0.000 C 
ATOM     53  N5  UNL A   1      24.709  35.178  48.471  1.00  0.00    +0.000 N 
ATOM     54  C37 UNL A   1      24.037  35.340  49.584  1.00  0.00    +0.000 C 
ATOM     55  C38 UNL A   1      24.508  35.882  50.907  1.00  0.00    +0.000 C 
ATOM     67  C45 UNL A   1      25.795  36.256  51.046  1.00  0.00    +0.000 C 
ATOM     68  C46 UNL A   1      26.395  36.789  52.264  1.00  0.00    +0.000 C 
ATOM     69  C47 UNL A   1      27.682  37.087  52.024  1.00  0.00    +0.000 C 
ATOM     70  C48 UNL A   1      28.005  36.735  50.641  1.00  0.00    +0.000 C 
ATOM     71  N6  UNL A   1      26.825  36.244  50.139  1.00  0.00    +0.000 N 
ATOM     72  C49 UNL A   1      22.630  34.925  49.504  1.00  0.00    +0.000 C 
ATOM     73  C50 UNL A   1      22.558  34.461  48.264  1.00  0.00    +0.000 C 
ATOM     74  C51 UNL A   1      30.554  36.446  46.776  1.00  0.00    +0.000 C 
ATOM     75  C52 UNL A   1      30.742  36.751  48.051  1.00  0.00    +0.000 C 
ATOM    124  H21 UNL A   1      27.409  34.227  43.122  1.00  0.00    +0.000 H 
ATOM    125  H22 UNL A   1      24.902  33.672  43.573  1.00  0.00    +0.000 H 
ATOM    126  H23 UNL A   1      26.513  35.310  47.018  1.00  0.00    +0.000 H 
ATOM    127  H24 UNL A   1      25.908  36.917  53.166  1.00  0.00    +0.000 H 
ATOM    128  H25 UNL A   1      28.337  37.500  52.706  1.00  0.00    +0.000 H 
ENDROOT
BRANCH   19   18
ATOM    134  H31 UNL A   1      31.080  35.635  51.499  1.00  0.00    +0.000 H 
ATOM    135  H32 UNL A   1      32.859  36.590  52.840  1.00  0.00    +0.000 H 
ATOM     76  C53 UNL A   1      31.207  36.658  51.532  1.00  0.00    +0.000 C 
ATOM     77  C54 UNL A   1      32.255  37.202  52.269  1.00  0.00    +0.000 C 
ATOM     15  C11 UNL A   1      32.487  38.581  52.237  1.00  0.00    +0.000 C 
ATOM     16  C12 UNL A   1      31.600  39.426  51.567  1.00  0.00    +0.000 C 
ATOM     17  C13 UNL A   1      30.511  38.885  50.880  1.00  0.00    +0.000 C 
ATOM     18  C14 UNL A   1      30.324  37.495  50.831  1.00  0.00    +0.000 C 
ATOM    122  H19 UNL A   1      31.748  40.448  51.580  1.00  0.00    +0.000 H 
ATOM    123  H20 UNL A   1      29.841  39.510  50.404  1.00  0.00    +0.000 H 
BRANCH   15   13
ATOM     13  C10 UNL A   1      33.663  39.172  52.913  1.00  0.00    +0.000 C 
ATOM     14  O2  UNL A   1      33.555  40.247  53.493  1.00  0.00    +0.000 O 
BRANCH   13   12
ATOM    121  H18 UNL A   1      35.105  38.005  53.673  1.00  0.00    +0.000 H 
ATOM     12  N2  UNL A   1      34.874  38.525  52.871  1.00  0.00    +0.000 N 
BRANCH   12   11
ATOM     11  C9  UNL A   1      35.862  38.503  51.805  1.00  0.00    +0.000 C 
ATOM    119  H16 UNL A   1      35.765  39.399  51.228  1.00  0.00    +0.000 H 
ATOM    120  H17 UNL A   1      36.829  38.432  52.258  1.00  0.00    +0.000 H 
BRANCH   11   10
ATOM     10  C8  UNL A   1      35.692  37.303  50.880  1.00  0.00    +0.000 C 
ATOM    117  H14 UNL A   1      36.577  36.706  50.945  1.00  0.00    +0.000 H 
ATOM    118  H15 UNL A   1      34.811  36.793  51.208  1.00  0.00    +0.000 H 
BRANCH   10    9
ATOM      9  C7  UNL A   1      35.462  37.654  49.409  1.00  0.00    +0.000 C 
ATOM    115  H12 UNL A   1      36.131  38.449  49.150  1.00  0.00    +0.000 H 
ATOM    116  H13 UNL A   1      35.636  36.755  48.858  1.00  0.00    +0.000 H 
BRANCH    9    8
ATOM    113  H10 UNL A   1      33.713  37.529  48.218  1.00  0.00    +0.000 H 
ATOM    114  H11 UNL A   1      33.458  37.937  49.944  1.00  0.00    +0.000 H 
ATOM      8  C6  UNL A   1      34.040  38.100  49.061  1.00  0.00    +0.000 C 
BRANCH    8    7
ATOM    111  H8  UNL A   1      32.849  39.766  48.492  1.00  0.00    +0.000 H 
ATOM      7  C5  UNL A   1      33.879  39.587  48.717  1.00  0.00    +0.000 C 
ATOM    112  H9  UNL A   1      34.228  40.132  49.569  1.00  0.00    +0.000 H 
BRANCH    7    6
ATOM    110  H7  UNL A   1      34.678  39.325  46.760  1.00  0.00    +0.000 H 
ATOM    109  H6  UNL A   1      35.724  40.229  47.851  1.00  0.00    +0.000 H 
ATOM      6  C4  UNL A   1      34.717  40.071  47.527  1.00  0.00    +0.000 C 
BRANCH    6    5
ATOM    108  H5  UNL A   1      34.554  42.149  47.352  1.00  0.00    +0.000 H 
ATOM      5  N1  UNL A   1      34.196  41.310  46.984  1.00  0.00    +0.000 N 
BRANCH    5    3
ATOM      3  C3  UNL A   1      33.248  41.411  46.001  1.00  0.00    +0.000 C 
ATOM      4  O1  UNL A   1      33.142  42.511  45.457  1.00  0.00    +0.000 O 
BRANCH    3    2
ATOM      2  C2  UNL A   1      32.414  40.170  45.638  1.00  0.00    +0.000 C 
ATOM    107  H4  UNL A   1      32.743  39.413  46.318  1.00  0.00    +0.000 H 
BRANCH    2    1
ATOM      1  C1  UNL A   1      32.677  39.808  44.170  1.00  0.00    +0.000 C 
ATOM    106  H3  UNL A   1      32.390  40.626  43.543  1.00  0.00    +0.000 H 
ATOM    105  H2  UNL A   1      33.718  39.601  44.034  1.00  0.00    +0.000 H 
ATOM    104  H1  UNL A   1      32.104  38.941  43.909  1.00  0.00    +0.000 H 
ENDBRANCH    2    1
BRANCH    2   78
ATOM    101  C75 UNL A   1      28.603  40.413  45.120  1.00  0.00    +0.000 C 
ATOM    102  F16 UNL A   1      27.761  40.626  44.096  1.00  0.00    +0.000 F 
ATOM    103  C76 UNL A   1      29.969  40.521  44.870  1.00  0.00    +0.000 C 
ATOM    136  H33 UNL A   1      31.069  39.886  47.952  1.00  0.00    +0.000 H 
ATOM    137  H34 UNL A   1      28.697  39.678  48.368  1.00  0.00    +0.000 H 
ATOM     78  C55 UNL A   1      30.905  40.262  45.877  1.00  0.00    +0.000 C 
ATOM     79  C56 UNL A   1      30.406  39.998  47.168  1.00  0.00    +0.000 C 
ATOM     80  C57 UNL A   1      29.031  39.883  47.412  1.00  0.00    +0.000 C 
ATOM     81  C58 UNL A   1      28.105  40.042  46.374  1.00  0.00    +0.000 C 
ATOM    154  H51 UNL A   1      30.295  40.796  43.931  1.00  0.00    +0.000 H 
BRANCH   81   82
ATOM    100  C74 UNL A   1      25.828  40.679  47.120  1.00  0.00    +0.000 C 
ATOM    138  H35 UNL A   1      26.744  37.766  45.741  1.00  0.00    +0.000 H 
ATOM    139  H36 UNL A   1      24.383  37.312  46.054  1.00  0.00    +0.000 H 
ATOM    140  H37 UNL A   1      22.934  39.001  47.027  1.00  0.00    +0.000 H 
ATOM     82  C59 UNL A   1      26.684  39.715  46.556  1.00  0.00    +0.000 C 
ATOM     83  C60 UNL A   1      26.137  38.485  46.163  1.00  0.00    +0.000 C 
ATOM     84  C61 UNL A   1      24.773  38.224  46.339  1.00  0.00    +0.000 C 
ATOM     85  C62 UNL A   1      23.938  39.194  46.897  1.00  0.00    +0.000 C 
ATOM     86  C63 UNL A   1      24.470  40.424  47.278  1.00  0.00    +0.000 C 
ATOM    153  H50 UNL A   1      26.213  41.587  47.422  1.00  0.00    +0.000 H 
BRANCH   86   87
ATOM     87  O3  UNL A   1      23.565  41.332  47.876  1.00  0.00    +0.000 O 
BRANCH   87   88
ATOM     89  O4  UNL A   1      24.032  43.574  47.396  1.00  0.00    +0.000 O 
ATOM     88  C64 UNL A   1      23.858  42.661  48.186  1.00  0.00    +0.000 C 
BRANCH   88   90
ATOM     90  N7  UNL A   1      23.929  42.893  49.537  1.00  0.00    +0.000 N 
ATOM    141  H38 UNL A   1      23.466  43.685  49.894  1.00  0.00    +0.000 H 
BRANCH   90   91
ATOM     91  C65 UNL A   1      24.638  42.047  50.468  1.00  0.00    +0.000 C 
ATOM    142  H39 UNL A   1      24.211  41.067  50.421  1.00  0.00    +0.000 H 
ATOM    143  H40 UNL A   1      24.537  42.501  51.431  1.00  0.00    +0.000 H 
BRANCH   91   92
ATOM    145  H42 UNL A   1      26.531  41.474  51.083  1.00  0.00    +0.000 H 
ATOM     92  C66 UNL A   1      26.138  41.929  50.197  1.00  0.00    +0.000 C 
ATOM    144  H41 UNL A   1      26.254  41.368  49.292  1.00  0.00    +0.000 H 
BRANCH   92   93
ATOM    146  H43 UNL A   1      27.436  43.393  50.979  1.00  0.00    +0.000 H 
ATOM    147  H44 UNL A   1      26.222  43.928  49.715  1.00  0.00    +0.000 H 
ATOM     93  C67 UNL A   1      26.954  43.218  50.039  1.00  0.00    +0.000 C 
BRANCH   93   94
ATOM     97  C71 UNL A   1      29.888  43.644  46.884  1.00  0.00    +0.000 C 
ATOM     98  C72 UNL A   1      28.527  43.739  46.621  1.00  0.00    +0.000 C 
ATOM     99  C73 UNL A   1      27.605  43.587  47.660  1.00  0.00    +0.000 C 
ATOM    148  H45 UNL A   1      29.734  43.029  50.174  1.00  0.00    +0.000 H 
ATOM    149  H46 UNL A   1      31.333  43.320  48.379  1.00  0.00    +0.000 H 
ATOM    150  H47 UNL A   1      30.573  43.762  46.121  1.00  0.00    +0.000 H 
ATOM    151  H48 UNL A   1      28.197  43.921  45.661  1.00  0.00    +0.000 H 
ATOM    152  H49 UNL A   1      26.597  43.669  47.457  1.00  0.00    +0.000 H 
ATOM     94  C68 UNL A   1      28.025  43.324  48.977  1.00  0.00    +0.000 C 
ATOM     95  C69 UNL A   1      29.397  43.225  49.218  1.00  0.00    +0.000 C 
ATOM     96  C70 UNL A   1      30.322  43.389  48.181  1.00  0.00    +0.000 C 
ENDBRANCH   93   94
ENDBRANCH   92   93
ENDBRANCH   91   92
ENDBRANCH   90   91
ENDBRANCH   88   90
ENDBRANCH   87   88
ENDBRANCH   86   87
ENDBRANCH   81   82
ENDBRANCH    2   78
ENDBRANCH    3    2
ENDBRANCH    5    3
ENDBRANCH    6    5
ENDBRANCH    7    6
ENDBRANCH    8    7
ENDBRANCH    9    8
ENDBRANCH   10    9
ENDBRANCH   11   10
ENDBRANCH   12   11
ENDBRANCH   13   12
ENDBRANCH   15   13
ENDBRANCH   19   18
BRANCH   23   24
ATOM     33  C24 UNL A   1      30.448  34.318  43.895  1.00  0.00    +0.000 C 
ATOM     34  F5  UNL A   1      30.278  33.194  44.609  1.00  0.00    +0.000 F 
ATOM     24  C19 UNL A   1      29.719  35.474  44.211  1.00  0.00    +0.000 C 
ATOM     25  C20 UNL A   1      29.940  36.622  43.434  1.00  0.00    +0.000 C 
ATOM     26  F1  UNL A   1      29.259  37.749  43.688  1.00  0.00    +0.000 F 
ATOM     27  C21 UNL A   1      30.834  36.604  42.367  1.00  0.00    +0.000 C 
ATOM     28  F2  UNL A   1      30.994  37.698  41.610  1.00  0.00    +0.000 F 
ATOM     29  C22 UNL A   1      31.549  35.451  42.078  1.00  0.00    +0.000 C 
ATOM     30  F3  UNL A   1      32.412  35.436  41.052  1.00  0.00    +0.000 F 
ATOM     31  C23 UNL A   1      31.362  34.311  42.845  1.00  0.00    +0.000 C 
ATOM     32  F4  UNL A   1      32.059  33.199  42.572  1.00  0.00    +0.000 F 
ENDBRANCH   23   24
BRANCH   40   41
ATOM     41  C30 UNL A   1      22.868  33.661  45.535  1.00  0.00    +0.000 C 
ATOM     42  C31 UNL A   1      22.717  32.271  45.435  1.00  0.00    +0.000 C 
ATOM     43  F6  UNL A   1      23.641  31.452  45.958  1.00  0.00    +0.000 F 
ATOM     44  C32 UNL A   1      21.630  31.718  44.763  1.00  0.00    +0.000 C 
ATOM     45  F7  UNL A   1      21.526  30.387  44.643  1.00  0.00    +0.000 F 
ATOM     46  C33 UNL A   1      20.662  32.540  44.207  1.00  0.00    +0.000 C 
ATOM     47  F8  UNL A   1      19.614  32.006  43.566  1.00  0.00    +0.000 F 
ATOM     48  C34 UNL A   1      20.785  33.918  44.309  1.00  0.00    +0.000 C 
ATOM     49  F9  UNL A   1      19.845  34.715  43.780  1.00  0.00    +0.000 F 
ATOM     50  C35 UNL A   1      21.883  34.475  44.957  1.00  0.00    +0.000 C 
ATOM     51  F10 UNL A   1      21.981  35.811  45.030  1.00  0.00    +0.000 F 
ENDBRANCH   40   41
BRANCH   55   56
ATOM     65  C44 UNL A   1      23.495  34.959  53.018  1.00  0.00    +0.000 C 
ATOM     66  F15 UNL A   1      24.260  33.863  52.904  1.00  0.00    +0.000 F 
ATOM     56  C39 UNL A   1      23.581  35.980  52.062  1.00  0.00    +0.000 C 
ATOM     57  C40 UNL A   1      22.757  37.102  52.226  1.00  0.00    +0.000 C 
ATOM     58  F11 UNL A   1      22.821  38.112  51.346  1.00  0.00    +0.000 F 
ATOM     59  C41 UNL A   1      21.891  37.205  53.311  1.00  0.00    +0.000 C 
ATOM     60  F12 UNL A   1      21.142  38.306  53.465  1.00  0.00    +0.000 F 
ATOM     61  C42 UNL A   1      21.814  36.180  54.241  1.00  0.00    +0.000 C 
ATOM     62  F13 UNL A   1      20.979  36.278  55.283  1.00  0.00    +0.000 F 
ATOM     63  C43 UNL A   1      22.611  35.054  54.092  1.00  0.00    +0.000 C 
ATOM     64  F14 UNL A   1      22.531  34.054  54.981  1.00  0.00    +0.000 F 
ENDBRANCH   55   56
TORSDOF 25
ENDMDL
MODEL 8
REMARK VINA RESULT:      -8.7     38.882     44.958
ROOT
ATOM    129  H26 UNL A   1      22.008  39.695  49.175  1.00  0.00    +0.000 H 
ATOM    130  H27 UNL A   1      24.105  44.209  49.889  1.00  0.00    +0.000 H 
ATOM    131  H28 UNL A   1      21.865  44.952  50.880  1.00  0.00    +0.000 H 
ATOM    132  H29 UNL A   1      17.874  35.967  48.811  1.00  0.00    +0.000 H 
ATOM    133  H30 UNL A   1      20.202  35.067  48.246  1.00  0.00    +0.000 H 
ATOM     19  C15 UNL A   1      22.238  37.058  48.274  1.00  0.00    +0.000 C 
ATOM     20  C16 UNL A   1      20.798  37.212  48.675  1.00  0.00    +0.000 C 
ATOM     21  N3  UNL A   1      20.170  38.271  49.120  1.00  0.00    +0.000 N 
ATOM     22  C17 UNL A   1      18.849  37.883  49.291  1.00  0.00    +0.000 C 
ATOM     23  C18 UNL A   1      17.814  38.602  49.785  1.00  0.00    +0.000 C 
ATOM     35  C25 UNL A   1      17.917  39.963  50.245  1.00  0.00    +0.000 C 
ATOM     36  C26 UNL A   1      16.942  40.756  50.824  1.00  0.00    +0.000 C 
ATOM     37  C27 UNL A   1      17.495  42.016  51.075  1.00  0.00    +0.000 C 
ATOM     38  C28 UNL A   1      18.826  41.996  50.689  1.00  0.00    +0.000 C 
ATOM     39  N4  UNL A   1      19.071  40.731  50.180  1.00  0.00    +0.000 N 
ATOM     40  C29 UNL A   1      19.803  43.050  50.776  1.00  0.00    +0.000 C 
ATOM     52  C36 UNL A   1      21.097  42.947  50.389  1.00  0.00    +0.000 C 
ATOM     53  N5  UNL A   1      21.760  41.855  49.847  1.00  0.00    +0.000 N 
ATOM     54  C37 UNL A   1      22.990  42.252  49.631  1.00  0.00    +0.000 C 
ATOM     55  C38 UNL A   1      24.154  41.476  49.077  1.00  0.00    +0.000 C 
ATOM     67  C45 UNL A   1      23.988  40.180  48.752  1.00  0.00    +0.000 C 
ATOM     68  C46 UNL A   1      25.022  39.302  48.214  1.00  0.00    +0.000 C 
ATOM     69  C47 UNL A   1      24.489  38.094  47.973  1.00  0.00    +0.000 C 
ATOM     70  C48 UNL A   1      23.082  38.103  48.372  1.00  0.00    +0.000 C 
ATOM     71  N6  UNL A   1      22.873  39.382  48.828  1.00  0.00    +0.000 N 
ATOM     72  C49 UNL A   1      23.241  43.655  49.990  1.00  0.00    +0.000 C 
ATOM     73  C50 UNL A   1      22.065  44.021  50.482  1.00  0.00    +0.000 C 
ATOM     74  C51 UNL A   1      18.754  36.505  48.858  1.00  0.00    +0.000 C 
ATOM     75  C52 UNL A   1      19.943  36.024  48.529  1.00  0.00    +0.000 C 
ATOM    124  H21 UNL A   1      15.975  40.467  51.035  1.00  0.00    +0.000 H 
ATOM    125  H22 UNL A   1      16.996  42.825  51.478  1.00  0.00    +0.000 H 
ATOM    126  H23 UNL A   1      19.935  40.422  49.823  1.00  0.00    +0.000 H 
ATOM    127  H24 UNL A   1      26.005  39.569  48.044  1.00  0.00    +0.000 H 
ATOM    128  H25 UNL A   1      24.993  37.288  47.571  1.00  0.00    +0.000 H 
ENDROOT
BRANCH   19   18
ATOM    134  H31 UNL A   1      23.354  34.993  49.563  1.00  0.00    +0.000 H 
ATOM    135  H32 UNL A   1      24.229  32.928  48.644  1.00  0.00    +0.000 H 
ATOM     76  C53 UNL A   1      23.285  34.810  48.549  1.00  0.00    +0.000 C 
ATOM     77  C54 UNL A   1      23.751  33.606  48.030  1.00  0.00    +0.000 C 
ATOM     15  C11 UNL A   1      23.571  33.316  46.674  1.00  0.00    +0.000 C 
ATOM     16  C12 UNL A   1      23.036  34.280  45.815  1.00  0.00    +0.000 C 
ATOM     17  C13 UNL A   1      22.628  35.514  46.327  1.00  0.00    +0.000 C 
ATOM     18  C14 UNL A   1      22.721  35.777  47.702  1.00  0.00    +0.000 C 
ATOM    122  H19 UNL A   1      22.944  34.081  44.807  1.00  0.00    +0.000 H 
ATOM    123  H20 UNL A   1      22.255  36.236  45.690  1.00  0.00    +0.000 H 
BRANCH   15   13
ATOM     13  C10 UNL A   1      23.947  31.997  46.120  1.00  0.00    +0.000 C 
ATOM     14  O2  UNL A   1      24.899  31.387  46.594  1.00  0.00    +0.000 O 
BRANCH   13   12
ATOM    121  H18 UNL A   1      23.078  32.088  44.315  1.00  0.00    +0.000 H 
ATOM     12  N2  UNL A   1      23.242  31.472  45.065  1.00  0.00    +0.000 N 
BRANCH   12   11
ATOM     11  C9  UNL A   1      22.703  30.131  44.902  1.00  0.00    +0.000 C 
ATOM    119  H16 UNL A   1      22.472  29.977  43.869  1.00  0.00    +0.000 H 
ATOM    120  H17 UNL A   1      23.443  29.438  45.246  1.00  0.00    +0.000 H 
BRANCH   11   10
ATOM     10  C8  UNL A   1      21.440  29.909  45.727  1.00  0.00    +0.000 C 
ATOM    117  H14 UNL A   1      21.637  29.132  46.435  1.00  0.00    +0.000 H 
ATOM    118  H15 UNL A   1      21.209  30.849  46.183  1.00  0.00    +0.000 H 
BRANCH   10    9
ATOM      9  C7  UNL A   1      20.206  29.512  44.916  1.00  0.00    +0.000 C 
ATOM    115  H12 UNL A   1      20.540  29.062  44.003  1.00  0.00    +0.000 H 
ATOM    116  H13 UNL A   1      19.643  28.847  45.536  1.00  0.00    +0.000 H 
BRANCH    9    8
ATOM    113  H10 UNL A   1      18.359  30.241  44.175  1.00  0.00    +0.000 H 
ATOM    114  H11 UNL A   1      19.129  31.222  45.462  1.00  0.00    +0.000 H 
ATOM      8  C6  UNL A   1      19.263  30.663  44.559  1.00  0.00    +0.000 C 
BRANCH    8    7
ATOM    111  H8  UNL A   1      20.696  31.252  43.103  1.00  0.00    +0.000 H 
ATOM      7  C5  UNL A   1      19.799  31.659  43.521  1.00  0.00    +0.000 C 
ATOM    112  H9  UNL A   1      19.018  31.792  42.802  1.00  0.00    +0.000 H 
BRANCH    7    6
ATOM    110  H7  UNL A   1      20.132  33.744  43.248  1.00  0.00    +0.000 H 
ATOM    109  H6  UNL A   1      21.071  33.030  44.555  1.00  0.00    +0.000 H 
ATOM      6  C4  UNL A   1      20.119  33.055  44.068  1.00  0.00    +0.000 C 
BRANCH    6    5
ATOM    108  H5  UNL A   1      18.892  32.882  45.753  1.00  0.00    +0.000 H 
ATOM      5  N1  UNL A   1      19.114  33.495  45.015  1.00  0.00    +0.000 N 
BRANCH    5    3
ATOM      3  C3  UNL A   1      18.448  34.691  44.972  1.00  0.00    +0.000 C 
ATOM      4  O1  UNL A   1      19.077  35.679  45.347  1.00  0.00    +0.000 O 
BRANCH    3    2
ATOM      2  C2  UNL A   1      17.000  34.720  44.452  1.00  0.00    +0.000 C 
ATOM    107  H4  UNL A   1      16.998  35.475  43.694  1.00  0.00    +0.000 H 
BRANCH    2    1
ATOM      1  C1  UNL A   1      16.060  35.046  45.619  1.00  0.00    +0.000 C 
ATOM    106  H3  UNL A   1      15.047  35.028  45.277  1.00  0.00    +0.000 H 
ATOM    105  H2  UNL A   1      16.188  34.320  46.394  1.00  0.00    +0.000 H 
ATOM    104  H1  UNL A   1      16.290  36.019  46.001  1.00  0.00    +0.000 H 
ENDBRANCH    2    1
BRANCH    2   78
ATOM    101  C75 UNL A   1      16.362  31.986  41.811  1.00  0.00    +0.000 C 
ATOM    102  F16 UNL A   1      16.602  31.808  40.502  1.00  0.00    +0.000 F 
ATOM    103  C76 UNL A   1      16.678  33.225  42.366  1.00  0.00    +0.000 C 
ATOM    136  H33 UNL A   1      15.671  32.619  45.485  1.00  0.00    +0.000 H 
ATOM    137  H34 UNL A   1      15.149  30.468  44.517  1.00  0.00    +0.000 H 
ATOM     78  C55 UNL A   1      16.502  33.463  43.733  1.00  0.00    +0.000 C 
ATOM     79  C56 UNL A   1      15.893  32.444  44.493  1.00  0.00    +0.000 C 
ATOM     80  C57 UNL A   1      15.584  31.198  43.931  1.00  0.00    +0.000 C 
ATOM     81  C58 UNL A   1      15.860  30.933  42.584  1.00  0.00    +0.000 C 
ATOM    154  H51 UNL A   1      17.046  33.975  41.761  1.00  0.00    +0.000 H 
BRANCH   81   82
ATOM    100  C74 UNL A   1      15.495  28.501  42.902  1.00  0.00    +0.000 C 
ATOM    138  H35 UNL A   1      16.036  30.084  39.999  1.00  0.00    +0.000 H 
ATOM    139  H36 UNL A   1      15.816  27.820  39.160  1.00  0.00    +0.000 H 
ATOM    140  H37 UNL A   1      15.375  25.989  40.694  1.00  0.00    +0.000 H 
ATOM     82  C59 UNL A   1      15.748  29.576  42.029  1.00  0.00    +0.000 C 
ATOM     83  C60 UNL A   1      15.858  29.311  40.658  1.00  0.00    +0.000 C 
ATOM     84  C61 UNL A   1      15.725  28.005  40.172  1.00  0.00    +0.000 C 
ATOM     85  C62 UNL A   1      15.471  26.951  41.051  1.00  0.00    +0.000 C 
ATOM     86  C63 UNL A   1      15.347  27.207  42.415  1.00  0.00    +0.000 C 
ATOM    153  H50 UNL A   1      15.419  28.675  43.916  1.00  0.00    +0.000 H 
BRANCH   86   87
ATOM     87  O3  UNL A   1      15.135  26.077  43.241  1.00  0.00    +0.000 O 
BRANCH   87   88
ATOM     89  O4  UNL A   1      12.844  25.966  43.702  1.00  0.00    +0.000 O 
ATOM     88  C64 UNL A   1      13.907  25.439  43.416  1.00  0.00    +0.000 C 
BRANCH   88   90
ATOM     90  N7  UNL A   1      13.974  24.083  43.217  1.00  0.00    +0.000 N 
ATOM    141  H38 UNL A   1      13.598  23.495  43.911  1.00  0.00    +0.000 H 
BRANCH   90   91
ATOM     91  C65 UNL A   1      14.560  23.465  42.051  1.00  0.00    +0.000 C 
ATOM    142  H39 UNL A   1      15.429  22.925  42.361  1.00  0.00    +0.000 H 
ATOM    143  H40 UNL A   1      14.781  24.255  41.365  1.00  0.00    +0.000 H 
BRANCH   91   92
ATOM    145  H42 UNL A   1      12.651  22.770  41.645  1.00  0.00    +0.000 H 
ATOM     92  C66 UNL A   1      13.632  22.496  41.316  1.00  0.00    +0.000 C 
ATOM    144  H41 UNL A   1      13.824  22.608  40.268  1.00  0.00    +0.000 H 
BRANCH   92   93
ATOM    146  H43 UNL A   1      13.582  20.903  42.694  1.00  0.00    +0.000 H 
ATOM    147  H44 UNL A   1      14.697  20.736  41.250  1.00  0.00    +0.000 H 
ATOM     93  C67 UNL A   1      13.736  21.000  41.639  1.00  0.00    +0.000 C 
BRANCH   93   94
ATOM     97  C71 UNL A   1      10.927  18.255  39.818  1.00  0.00    +0.000 C 
ATOM     98  C72 UNL A   1      10.632  18.902  41.012  1.00  0.00    +0.000 C 
ATOM     99  C73 UNL A   1      11.564  19.774  41.579  1.00  0.00    +0.000 C 
ATOM    148  H45 UNL A   1      14.001  19.487  39.310  1.00  0.00    +0.000 H 
ATOM    149  H46 UNL A   1      12.374  17.997  38.313  1.00  0.00    +0.000 H 
ATOM    150  H47 UNL A   1      10.239  17.614  39.392  1.00  0.00    +0.000 H 
ATOM    151  H48 UNL A   1       9.727  18.739  41.480  1.00  0.00    +0.000 H 
ATOM    152  H49 UNL A   1      11.333  20.258  42.460  1.00  0.00    +0.000 H 
ATOM     94  C68 UNL A   1      12.813  20.006  40.972  1.00  0.00    +0.000 C 
ATOM     95  C69 UNL A   1      13.091  19.339  39.776  1.00  0.00    +0.000 C 
ATOM     96  C70 UNL A   1      12.154  18.474  39.201  1.00  0.00    +0.000 C 
ENDBRANCH   93   94
ENDBRANCH   92   93
ENDBRANCH   91   92
ENDBRANCH   90   91
ENDBRANCH   88   90
ENDBRANCH   87   88
ENDBRANCH   86   87
ENDBRANCH   81   82
ENDBRANCH    2   78
ENDBRANCH    3    2
ENDBRANCH    5    3
ENDBRANCH    6    5
ENDBRANCH    7    6
ENDBRANCH    8    7
ENDBRANCH    9    8
ENDBRANCH   10    9
ENDBRANCH   11   10
ENDBRANCH   12   11
ENDBRANCH   13   12
ENDBRANCH   15   13
ENDBRANCH   19   18
BRANCH   23   24
ATOM     33  C24 UNL A   1      15.791  37.578  48.684  1.00  0.00    +0.000 C 
ATOM     34  F5  UNL A   1      16.338  37.819  47.482  1.00  0.00    +0.000 F 
ATOM     24  C19 UNL A   1      16.475  37.930  49.856  1.00  0.00    +0.000 C 
ATOM     25  C20 UNL A   1      15.854  37.658  51.085  1.00  0.00    +0.000 C 
ATOM     26  F1  UNL A   1      16.473  37.964  52.235  1.00  0.00    +0.000 F 
ATOM     27  C21 UNL A   1      14.611  37.034  51.138  1.00  0.00    +0.000 C 
ATOM     28  F2  UNL A   1      14.059  36.742  52.323  1.00  0.00    +0.000 F 
ATOM     29  C22 UNL A   1      13.950  36.702  49.965  1.00  0.00    +0.000 C 
ATOM     30  F3  UNL A   1      12.750  36.104  50.017  1.00  0.00    +0.000 F 
ATOM     31  C23 UNL A   1      14.534  36.979  48.739  1.00  0.00    +0.000 C 
ATOM     32  F4  UNL A   1      13.892  36.667  47.605  1.00  0.00    +0.000 F 
ENDBRANCH   23   24
BRANCH   40   41
ATOM     41  C30 UNL A   1      19.364  44.362  51.359  1.00  0.00    +0.000 C 
ATOM     42  C31 UNL A   1      18.850  45.387  50.553  1.00  0.00    +0.000 C 
ATOM     43  F6  UNL A   1      18.788  45.232  49.222  1.00  0.00    +0.000 F 
ATOM     44  C32 UNL A   1      18.430  46.591  51.111  1.00  0.00    +0.000 C 
ATOM     45  F7  UNL A   1      17.980  47.573  50.317  1.00  0.00    +0.000 F 
ATOM     46  C33 UNL A   1      18.488  46.782  52.483  1.00  0.00    +0.000 C 
ATOM     47  F8  UNL A   1      18.078  47.939  53.018  1.00  0.00    +0.000 F 
ATOM     48  C34 UNL A   1      18.979  45.774  53.300  1.00  0.00    +0.000 C 
ATOM     49  F9  UNL A   1      19.026  45.953  54.628  1.00  0.00    +0.000 F 
ATOM     50  C35 UNL A   1      19.424  44.579  52.744  1.00  0.00    +0.000 C 
ATOM     51  F10 UNL A   1      19.903  43.626  53.558  1.00  0.00    +0.000 F 
ENDBRANCH   40   41
BRANCH   55   56
ATOM     65  C44 UNL A   1      26.371  42.243  49.991  1.00  0.00    +0.000 C 
ATOM     66  F15 UNL A   1      26.027  41.784  51.203  1.00  0.00    +0.000 F 
ATOM     56  C39 UNL A   1      25.484  42.115  48.913  1.00  0.00    +0.000 C 
ATOM     57  C40 UNL A   1      25.890  42.616  47.668  1.00  0.00    +0.000 C 
ATOM     58  F11 UNL A   1      25.083  42.497  46.604  1.00  0.00    +0.000 F 
ATOM     59  C41 UNL A   1      27.140  43.207  47.505  1.00  0.00    +0.000 C 
ATOM     60  F12 UNL A   1      27.520  43.643  46.295  1.00  0.00    +0.000 F 
ATOM     61  C42 UNL A   1      27.998  43.333  48.587  1.00  0.00    +0.000 C 
ATOM     62  F13 UNL A   1      29.198  43.906  48.430  1.00  0.00    +0.000 F 
ATOM     63  C43 UNL A   1      27.612  42.857  49.831  1.00  0.00    +0.000 C 
ATOM     64  F14 UNL A   1      28.433  42.987  50.882  1.00  0.00    +0.000 F 
ENDBRANCH   55   56
TORSDOF 25
ENDMDL
MODEL 9
REMARK VINA RESULT:      -8.7     13.723     20.675
ROOT
ATOM    129  H26 UNL A   1       7.870  29.697   0.241  1.00  0.00    +0.000 H 
ATOM    130  H27 UNL A   1      11.532  27.000   2.386  1.00  0.00    +0.000 H 
ATOM    131  H28 UNL A   1      13.185  28.385   1.007  1.00  0.00    +0.000 H 
ATOM    132  H29 UNL A   1       5.572  33.193  -3.449  1.00  0.00    +0.000 H 
ATOM    133  H30 UNL A   1       3.940  32.159  -1.770  1.00  0.00    +0.000 H 
ATOM     19  C15 UNL A   1       5.142  30.248  -0.033  1.00  0.00    +0.000 C 
ATOM     20  C16 UNL A   1       5.824  31.127  -1.043  1.00  0.00    +0.000 C 
ATOM     21  N3  UNL A   1       7.096  31.213  -1.343  1.00  0.00    +0.000 N 
ATOM     22  C17 UNL A   1       7.179  32.140  -2.373  1.00  0.00    +0.000 C 
ATOM     23  C18 UNL A   1       8.284  32.618  -2.992  1.00  0.00    +0.000 C 
ATOM     35  C25 UNL A   1       9.631  32.228  -2.665  1.00  0.00    +0.000 C 
ATOM     36  C26 UNL A   1      10.820  32.704  -3.188  1.00  0.00    +0.000 C 
ATOM     37  C27 UNL A   1      11.873  32.004  -2.590  1.00  0.00    +0.000 C 
ATOM     38  C28 UNL A   1      11.342  31.120  -1.665  1.00  0.00    +0.000 C 
ATOM     39  N4  UNL A   1       9.965  31.265  -1.723  1.00  0.00    +0.000 N 
ATOM     40  C29 UNL A   1      12.036  30.208  -0.792  1.00  0.00    +0.000 C 
ATOM     52  C36 UNL A   1      11.442  29.381   0.101  1.00  0.00    +0.000 C 
ATOM     53  N5  UNL A   1      10.091  29.224   0.380  1.00  0.00    +0.000 N 
ATOM     54  C37 UNL A   1      10.020  28.302   1.308  1.00  0.00    +0.000 C 
ATOM     55  C38 UNL A   1       8.807  27.748   2.005  1.00  0.00    +0.000 C 
ATOM     67  C45 UNL A   1       7.590  28.234   1.696  1.00  0.00    +0.000 C 
ATOM     68  C46 UNL A   1       6.329  27.803   2.291  1.00  0.00    +0.000 C 
ATOM     69  C47 UNL A   1       5.320  28.476   1.715  1.00  0.00    +0.000 C 
ATOM     70  C48 UNL A   1       5.868  29.410   0.732  1.00  0.00    +0.000 C 
ATOM     71  N6  UNL A   1       7.223  29.201   0.792  1.00  0.00    +0.000 N 
ATOM     72  C49 UNL A   1      11.322  27.749   1.708  1.00  0.00    +0.000 C 
ATOM     73  C50 UNL A   1      12.157  28.467   0.968  1.00  0.00    +0.000 C 
ATOM     74  C51 UNL A   1       5.826  32.554  -2.679  1.00  0.00    +0.000 C 
ATOM     75  C52 UNL A   1       4.957  32.007  -1.842  1.00  0.00    +0.000 C 
ATOM    124  H21 UNL A   1      10.913  33.448  -3.896  1.00  0.00    +0.000 H 
ATOM    125  H22 UNL A   1      12.876  32.125  -2.802  1.00  0.00    +0.000 H 
ATOM    126  H23 UNL A   1       9.319  30.761  -1.177  1.00  0.00    +0.000 H 
ATOM    127  H24 UNL A   1       6.230  27.093   3.035  1.00  0.00    +0.000 H 
ATOM    128  H25 UNL A   1       4.319  28.352   1.932  1.00  0.00    +0.000 H 
ENDROOT
BRANCH   19   18
ATOM    134  H31 UNL A   1       3.598  31.861   1.444  1.00  0.00    +0.000 H 
ATOM    135  H32 UNL A   1       1.189  31.827   1.710  1.00  0.00    +0.000 H 
ATOM     76  C53 UNL A   1       3.031  31.179   0.917  1.00  0.00    +0.000 C 
ATOM     77  C54 UNL A   1       1.644  31.188   1.039  1.00  0.00    +0.000 C 
ATOM     15  C11 UNL A   1       0.870  30.330   0.253  1.00  0.00    +0.000 C 
ATOM     16  C12 UNL A   1       1.487  29.380  -0.565  1.00  0.00    +0.000 C 
ATOM     17  C13 UNL A   1       2.880  29.328  -0.639  1.00  0.00    +0.000 C 
ATOM     18  C14 UNL A   1       3.663  30.248   0.077  1.00  0.00    +0.000 C 
ATOM    122  H19 UNL A   1       0.914  28.717  -1.112  1.00  0.00    +0.000 H 
ATOM    123  H20 UNL A   1       3.338  28.611  -1.224  1.00  0.00    +0.000 H 
BRANCH   15   13
ATOM     13  C10 UNL A   1      -0.607  30.401   0.275  1.00  0.00    +0.000 C 
ATOM     14  O2  UNL A   1      -1.251  29.523   0.840  1.00  0.00    +0.000 O 
BRANCH   13   12
ATOM    121  H18 UNL A   1      -1.635  31.225  -1.237  1.00  0.00    +0.000 H 
ATOM     12  N2  UNL A   1      -1.252  31.437  -0.355  1.00  0.00    +0.000 N 
BRANCH   12   11
ATOM     11  C9  UNL A   1      -1.447  32.804   0.099  1.00  0.00    +0.000 C 
ATOM    119  H16 UNL A   1      -2.421  33.130  -0.201  1.00  0.00    +0.000 H 
ATOM    120  H17 UNL A   1      -1.342  32.812   1.165  1.00  0.00    +0.000 H 
BRANCH   11   10
ATOM     10  C8  UNL A   1      -0.410  33.761  -0.477  1.00  0.00    +0.000 C 
ATOM    117  H14 UNL A   1      -0.780  34.758  -0.367  1.00  0.00    +0.000 H 
ATOM    118  H15 UNL A   1       0.496  33.583   0.063  1.00  0.00    +0.000 H 
BRANCH   10    9
ATOM      9  C7  UNL A   1      -0.080  33.536  -1.954  1.00  0.00    +0.000 C 
ATOM    115  H12 UNL A   1      -0.740  32.782  -2.330  1.00  0.00    +0.000 H 
ATOM    116  H13 UNL A   1      -0.201  34.485  -2.433  1.00  0.00    +0.000 H 
BRANCH    9    8
ATOM    113  H10 UNL A   1       1.889  33.935  -2.629  1.00  0.00    +0.000 H 
ATOM    114  H11 UNL A   1       1.743  32.733  -1.309  1.00  0.00    +0.000 H 
ATOM      8  C6  UNL A   1       1.357  33.094  -2.240  1.00  0.00    +0.000 C 
BRANCH    8    7
ATOM    111  H8  UNL A   1       2.133  31.193  -2.792  1.00  0.00    +0.000 H 
ATOM      7  C5  UNL A   1       1.506  31.937  -3.237  1.00  0.00    +0.000 C 
ATOM    112  H9  UNL A   1       0.515  31.588  -3.442  1.00  0.00    +0.000 H 
BRANCH    7    6
ATOM    110  H7  UNL A   1       2.402  33.352  -4.551  1.00  0.00    +0.000 H 
ATOM    109  H6  UNL A   1       1.383  32.164  -5.358  1.00  0.00    +0.000 H 
ATOM      6  C4  UNL A   1       2.112  32.322  -4.592  1.00  0.00    +0.000 C 
BRANCH    6    5
ATOM    108  H5  UNL A   1       4.083  31.675  -4.326  1.00  0.00    +0.000 H 
ATOM      5  N1  UNL A   1       3.289  31.530  -4.888  1.00  0.00    +0.000 N 
BRANCH    5    3
ATOM      3  C3  UNL A   1       3.389  30.595  -5.885  1.00  0.00    +0.000 C 
ATOM      4  O1  UNL A   1       3.233  31.005  -7.035  1.00  0.00    +0.000 O 
BRANCH    3    2
ATOM      2  C2  UNL A   1       3.699  29.135  -5.510  1.00  0.00    +0.000 C 
ATOM    107  H4  UNL A   1       3.345  28.560  -6.340  1.00  0.00    +0.000 H 
BRANCH    2    1
ATOM      1  C1  UNL A   1       2.978  28.795  -4.199  1.00  0.00    +0.000 C 
ATOM    106  H3  UNL A   1       3.207  27.789  -3.917  1.00  0.00    +0.000 H 
ATOM    105  H2  UNL A   1       3.302  29.464  -3.430  1.00  0.00    +0.000 H 
ATOM    104  H1  UNL A   1       1.921  28.896  -4.337  1.00  0.00    +0.000 H 
ENDBRANCH    2    1
BRANCH    2   78
ATOM    101  C75 UNL A   1       7.275  27.932  -6.296  1.00  0.00    +0.000 C 
ATOM    102  F16 UNL A   1       7.908  27.326  -7.314  1.00  0.00    +0.000 F 
ATOM    103  C76 UNL A   1       5.893  28.088  -6.391  1.00  0.00    +0.000 C 
ATOM    136  H33 UNL A   1       5.379  29.576  -3.454  1.00  0.00    +0.000 H 
ATOM    137  H34 UNL A   1       7.778  29.322  -3.311  1.00  0.00    +0.000 H 
ATOM     78  C55 UNL A   1       5.177  28.755  -5.392  1.00  0.00    +0.000 C 
ATOM     79  C56 UNL A   1       5.891  29.158  -4.246  1.00  0.00    +0.000 C 
ATOM     80  C57 UNL A   1       7.282  29.005  -4.159  1.00  0.00    +0.000 C 
ATOM     81  C58 UNL A   1       8.005  28.430  -5.210  1.00  0.00    +0.000 C 
ATOM    154  H51 UNL A   1       5.393  27.706  -7.209  1.00  0.00    +0.000 H 
BRANCH   81   82
ATOM    100  C74 UNL A   1      10.180  27.240  -5.152  1.00  0.00    +0.000 C 
ATOM    138  H35 UNL A   1       9.709  30.545  -5.442  1.00  0.00    +0.000 H 
ATOM    139  H36 UNL A   1      12.132  30.500  -5.501  1.00  0.00    +0.000 H 
ATOM    140  H37 UNL A   1      13.318  28.385  -5.357  1.00  0.00    +0.000 H 
ATOM     82  C59 UNL A   1       9.474  28.455  -5.237  1.00  0.00    +0.000 C 
ATOM     83  C60 UNL A   1      10.205  29.643  -5.371  1.00  0.00    +0.000 C 
ATOM     84  C61 UNL A   1      11.604  29.618  -5.410  1.00  0.00    +0.000 C 
ATOM     85  C62 UNL A   1      12.287  28.404  -5.328  1.00  0.00    +0.000 C 
ATOM     86  C63 UNL A   1      11.569  27.216  -5.209  1.00  0.00    +0.000 C 
ATOM    153  H50 UNL A   1       9.659  26.356  -5.045  1.00  0.00    +0.000 H 
BRANCH   86   87
ATOM     87  O3  UNL A   1      12.339  26.035  -5.086  1.00  0.00    +0.000 O 
BRANCH   87   88
ATOM     89  O4  UNL A   1      14.255  25.766  -3.770  1.00  0.00    +0.000 O 
ATOM     88  C64 UNL A   1      13.051  25.665  -3.944  1.00  0.00    +0.000 C 
BRANCH   88   90
ATOM     90  N7  UNL A   1      12.250  25.157  -2.953  1.00  0.00    +0.000 N 
ATOM    141  H38 UNL A   1      11.950  24.223  -3.035  1.00  0.00    +0.000 H 
BRANCH   90   91
ATOM     91  C65 UNL A   1      11.819  25.907  -1.797  1.00  0.00    +0.000 C 
ATOM    142  H39 UNL A   1      12.351  26.835  -1.783  1.00  0.00    +0.000 H 
ATOM    143  H40 UNL A   1      12.023  25.295  -0.943  1.00  0.00    +0.000 H 
BRANCH   91   92
ATOM    145  H42 UNL A   1      10.084  26.257  -0.722  1.00  0.00    +0.000 H 
ATOM     92  C66 UNL A   1      10.321  26.214  -1.765  1.00  0.00    +0.000 C 
ATOM    144  H41 UNL A   1      10.171  27.118  -2.318  1.00  0.00    +0.000 H 
BRANCH   92   93
ATOM    146  H43 UNL A   1       9.428  24.306  -1.702  1.00  0.00    +0.000 H 
ATOM    147  H44 UNL A   1       9.667  25.073  -3.348  1.00  0.00    +0.000 H 
ATOM     93  C67 UNL A   1       9.351  25.168  -2.331  1.00  0.00    +0.000 C 
BRANCH   93   94
ATOM     97  C71 UNL A   1       5.161  26.231  -2.574  1.00  0.00    +0.000 C 
ATOM     98  C72 UNL A   1       5.928  26.571  -1.465  1.00  0.00    +0.000 C 
ATOM     99  C73 UNL A   1       7.275  26.204  -1.413  1.00  0.00    +0.000 C 
ATOM    148  H45 UNL A   1       7.500  24.610  -4.342  1.00  0.00    +0.000 H 
ATOM    149  H46 UNL A   1       5.172  25.270  -4.445  1.00  0.00    +0.000 H 
ATOM    150  H47 UNL A   1       4.167  26.506  -2.619  1.00  0.00    +0.000 H 
ATOM    151  H48 UNL A   1       5.505  27.091  -0.682  1.00  0.00    +0.000 H 
ATOM    152  H49 UNL A   1       7.840  26.469  -0.592  1.00  0.00    +0.000 H 
ATOM     94  C68 UNL A   1       7.877  25.480  -2.460  1.00  0.00    +0.000 C 
ATOM     95  C69 UNL A   1       7.086  25.144  -3.561  1.00  0.00    +0.000 C 
ATOM     96  C70 UNL A   1       5.740  25.520  -3.620  1.00  0.00    +0.000 C 
ENDBRANCH   93   94
ENDBRANCH   92   93
ENDBRANCH   91   92
ENDBRANCH   90   91
ENDBRANCH   88   90
ENDBRANCH   87   88
ENDBRANCH   86   87
ENDBRANCH   81   82
ENDBRANCH    2   78
ENDBRANCH    3    2
ENDBRANCH    5    3
ENDBRANCH    6    5
ENDBRANCH    7    6
ENDBRANCH    8    7
ENDBRANCH    9    8
ENDBRANCH   10    9
ENDBRANCH   11   10
ENDBRANCH   12   11
ENDBRANCH   13   12
ENDBRANCH   15   13
ENDBRANCH   19   18
BRANCH   23   24
ATOM     33  C24 UNL A   1       8.110  34.996  -3.809  1.00  0.00    +0.000 C 
ATOM     34  F5  UNL A   1       8.338  35.429  -2.559  1.00  0.00    +0.000 F 
ATOM     24  C19 UNL A   1       8.083  33.622  -4.088  1.00  0.00    +0.000 C 
ATOM     25  C20 UNL A   1       7.835  33.226  -5.411  1.00  0.00    +0.000 C 
ATOM     26  F1  UNL A   1       7.812  31.924  -5.732  1.00  0.00    +0.000 F 
ATOM     27  C21 UNL A   1       7.649  34.168  -6.419  1.00  0.00    +0.000 C 
ATOM     28  F2  UNL A   1       7.461  33.767  -7.683  1.00  0.00    +0.000 F 
ATOM     29  C22 UNL A   1       7.673  35.522  -6.118  1.00  0.00    +0.000 C 
ATOM     30  F3  UNL A   1       7.490  36.429  -7.088  1.00  0.00    +0.000 F 
ATOM     31  C23 UNL A   1       7.896  35.936  -4.814  1.00  0.00    +0.000 C 
ATOM     32  F4  UNL A   1       7.910  37.244  -4.520  1.00  0.00    +0.000 F 
ENDBRANCH   23   24
BRANCH   40   41
ATOM     41  C30 UNL A   1      13.535  30.181  -0.860  1.00  0.00    +0.000 C 
ATOM     42  C31 UNL A   1      14.213  29.342  -1.755  1.00  0.00    +0.000 C 
ATOM     43  F6  UNL A   1      13.527  28.499  -2.541  1.00  0.00    +0.000 F 
ATOM     44  C32 UNL A   1      15.604  29.343  -1.819  1.00  0.00    +0.000 C 
ATOM     45  F7  UNL A   1      16.234  28.503  -2.652  1.00  0.00    +0.000 F 
ATOM     46  C33 UNL A   1      16.338  30.199  -1.013  1.00  0.00    +0.000 C 
ATOM     47  F8  UNL A   1      17.676  30.202  -1.080  1.00  0.00    +0.000 F 
ATOM     48  C34 UNL A   1      15.686  31.049  -0.132  1.00  0.00    +0.000 C 
ATOM     49  F9  UNL A   1      16.395  31.885   0.640  1.00  0.00    +0.000 F 
ATOM     50  C35 UNL A   1      14.297  31.033  -0.047  1.00  0.00    +0.000 C 
ATOM     51  F10 UNL A   1      13.694  31.858   0.822  1.00  0.00    +0.000 F 
ENDBRANCH   40   41
BRANCH   55   56
ATOM     65  C44 UNL A   1       9.117  27.025   4.396  1.00  0.00    +0.000 C 
ATOM     66  F15 UNL A   1       9.167  28.311   4.776  1.00  0.00    +0.000 F 
ATOM     56  C39 UNL A   1       8.941  26.697   3.045  1.00  0.00    +0.000 C 
ATOM     57  C40 UNL A   1       8.901  25.339   2.701  1.00  0.00    +0.000 C 
ATOM     58  F11 UNL A   1       8.713  24.979   1.423  1.00  0.00    +0.000 F 
ATOM     59  C41 UNL A   1       9.016  24.348   3.672  1.00  0.00    +0.000 C 
ATOM     60  F12 UNL A   1       8.936  23.057   3.322  1.00  0.00    +0.000 F 
ATOM     61  C42 UNL A   1       9.200  24.694   5.002  1.00  0.00    +0.000 C 
ATOM     62  F13 UNL A   1       9.315  23.741   5.935  1.00  0.00    +0.000 F 
ATOM     63  C43 UNL A   1       9.257  26.032   5.364  1.00  0.00    +0.000 C 
ATOM     64  F14 UNL A   1       9.446  26.372   6.647  1.00  0.00    +0.000 F 
ENDBRANCH   55   56
TORSDOF 25
ENDMDL
MODEL 10
REMARK VINA RESULT:      -8.7     34.825     40.387
ROOT
ATOM    129  H26 UNL A   1      26.736 -12.756  31.857  1.00  0.00    +0.000 H 
ATOM    130  H27 UNL A   1      22.963 -10.156  29.785  1.00  0.00    +0.000 H 
ATOM    131  H28 UNL A   1      22.082  -9.787  32.160  1.00  0.00    +0.000 H 
ATOM    132  H29 UNL A   1      29.473 -15.486  35.878  1.00  0.00    +0.000 H 
ATOM    133  H30 UNL A   1      30.620 -15.487  33.589  1.00  0.00    +0.000 H 
ATOM     19  C15 UNL A   1      29.088 -14.235  31.541  1.00  0.00    +0.000 C 
ATOM     20  C16 UNL A   1      28.776 -14.301  33.009  1.00  0.00    +0.000 C 
ATOM     21  N3  UNL A   1      27.754 -13.808  33.663  1.00  0.00    +0.000 N 
ATOM     22  C17 UNL A   1      27.929 -14.195  34.985  1.00  0.00    +0.000 C 
ATOM     23  C18 UNL A   1      27.170 -13.887  36.062  1.00  0.00    +0.000 C 
ATOM     35  C25 UNL A   1      25.996 -13.055  36.018  1.00  0.00    +0.000 C 
ATOM     36  C26 UNL A   1      25.198 -12.630  37.065  1.00  0.00    +0.000 C 
ATOM     37  C27 UNL A   1      24.151 -11.868  36.535  1.00  0.00    +0.000 C 
ATOM     38  C28 UNL A   1      24.319 -11.786  35.163  1.00  0.00    +0.000 C 
ATOM     39  N4  UNL A   1      25.453 -12.521  34.858  1.00  0.00    +0.000 N 
ATOM     40  C29 UNL A   1      23.506 -11.090  34.198  1.00  0.00    +0.000 C 
ATOM     52  C36 UNL A   1      23.747 -11.045  32.866  1.00  0.00    +0.000 C 
ATOM     53  N5  UNL A   1      24.783 -11.624  32.147  1.00  0.00    +0.000 N 
ATOM     54  C37 UNL A   1      24.574 -11.304  30.893  1.00  0.00    +0.000 C 
ATOM     55  C38 UNL A   1      25.395 -11.641  29.678  1.00  0.00    +0.000 C 
ATOM     67  C45 UNL A   1      26.529 -12.353  29.824  1.00  0.00    +0.000 C 
ATOM     68  C46 UNL A   1      27.428 -12.746  28.745  1.00  0.00    +0.000 C 
ATOM     69  C47 UNL A   1      28.432 -13.477  29.255  1.00  0.00    +0.000 C 
ATOM     70  C48 UNL A   1      28.263 -13.576  30.705  1.00  0.00    +0.000 C 
ATOM     71  N6  UNL A   1      27.109 -12.874  30.954  1.00  0.00    +0.000 N 
ATOM     72  C49 UNL A   1      23.362 -10.503  30.671  1.00  0.00    +0.000 C 
ATOM     73  C50 UNL A   1      22.916 -10.343  31.909  1.00  0.00    +0.000 C 
ATOM     74  C51 UNL A   1      29.128 -15.005  35.033  1.00  0.00    +0.000 C 
ATOM     75  C52 UNL A   1      29.725 -15.047  33.851  1.00  0.00    +0.000 C 
ATOM    124  H21 UNL A   1      25.350 -12.837  38.064  1.00  0.00    +0.000 H 
ATOM    125  H22 UNL A   1      23.382 -11.440  37.076  1.00  0.00    +0.000 H 
ATOM    126  H23 UNL A   1      25.820 -12.646  33.953  1.00  0.00    +0.000 H 
ATOM    127  H24 UNL A   1      27.310 -12.502  27.748  1.00  0.00    +0.000 H 
ATOM    128  H25 UNL A   1      29.199 -13.902  28.711  1.00  0.00    +0.000 H 
ENDROOT
BRANCH   19   18
ATOM    134  H31 UNL A   1      29.175 -16.687  30.469  1.00  0.00    +0.000 H 
ATOM    135  H32 UNL A   1      31.097 -17.915  29.649  1.00  0.00    +0.000 H 
ATOM     76  C53 UNL A   1      30.108 -16.247  30.475  1.00  0.00    +0.000 C 
ATOM     77  C54 UNL A   1      31.204 -16.938  29.965  1.00  0.00    +0.000 C 
ATOM     15  C11 UNL A   1      32.449 -16.308  29.884  1.00  0.00    +0.000 C 
ATOM     16  C12 UNL A   1      32.625 -15.031  30.423  1.00  0.00    +0.000 C 
ATOM     17  C13 UNL A   1      31.539 -14.362  30.992  1.00  0.00    +0.000 C 
ATOM     18  C14 UNL A   1      30.266 -14.953  30.995  1.00  0.00    +0.000 C 
ATOM    122  H19 UNL A   1      33.555 -14.584  30.401  1.00  0.00    +0.000 H 
ATOM    123  H20 UNL A   1      31.674 -13.429  31.413  1.00  0.00    +0.000 H 
BRANCH   15   13
ATOM     13  C10 UNL A   1      33.601 -16.975  29.238  1.00  0.00    +0.000 C 
ATOM     14  O2  UNL A   1      34.645 -17.128  29.864  1.00  0.00    +0.000 O 
BRANCH   13   12
ATOM    121  H18 UNL A   1      33.776 -18.332  27.774  1.00  0.00    +0.000 H 
ATOM     12  N2  UNL A   1      33.503 -17.400  27.937  1.00  0.00    +0.000 N 
BRANCH   12   11
ATOM     11  C9  UNL A   1      33.054 -16.666  26.765  1.00  0.00    +0.000 C 
ATOM    119  H16 UNL A   1      33.337 -17.210  25.889  1.00  0.00    +0.000 H 
ATOM    120  H17 UNL A   1      31.991 -16.560  26.834  1.00  0.00    +0.000 H 
BRANCH   11   10
ATOM     10  C8  UNL A   1      33.657 -15.267  26.691  1.00  0.00    +0.000 C 
ATOM    117  H14 UNL A   1      34.479 -15.223  27.374  1.00  0.00    +0.000 H 
ATOM    118  H15 UNL A   1      33.944 -15.117  25.672  1.00  0.00    +0.000 H 
BRANCH   10    9
ATOM      9  C7  UNL A   1      32.690 -14.133  27.036  1.00  0.00    +0.000 C 
ATOM    115  H12 UNL A   1      32.052 -13.974  26.191  1.00  0.00    +0.000 H 
ATOM    116  H13 UNL A   1      32.164 -14.447  27.913  1.00  0.00    +0.000 H 
BRANCH    9    8
ATOM    113  H10 UNL A   1      32.618 -12.029  27.279  1.00  0.00    +0.000 H 
ATOM    114  H11 UNL A   1      33.715 -12.908  28.390  1.00  0.00    +0.000 H 
ATOM      8  C6  UNL A   1      33.351 -12.799  27.389  1.00  0.00    +0.000 C 
BRANCH    8    7
ATOM    111  H8  UNL A   1      35.445 -12.790  27.024  1.00  0.00    +0.000 H 
ATOM      7  C5  UNL A   1      34.569 -12.419  26.536  1.00  0.00    +0.000 C 
ATOM    112  H9  UNL A   1      34.406 -12.852  25.571  1.00  0.00    +0.000 H 
BRANCH    7    6
ATOM    110  H7  UNL A   1      34.358 -10.671  25.338  1.00  0.00    +0.000 H 
ATOM    109  H6  UNL A   1      35.795 -10.678  26.357  1.00  0.00    +0.000 H 
ATOM      6  C4  UNL A   1      34.753 -10.914  26.303  1.00  0.00    +0.000 C 
BRANCH    6    5
ATOM    108  H5  UNL A   1      33.832 -10.576  28.150  1.00  0.00    +0.000 H 
ATOM      5  N1  UNL A   1      34.040 -10.135  27.295  1.00  0.00    +0.000 N 
BRANCH    5    3
ATOM      3  C3  UNL A   1      33.631  -8.837  27.145  1.00  0.00    +0.000 C 
ATOM      4  O1  UNL A   1      34.377  -8.102  26.497  1.00  0.00    +0.000 O 
BRANCH    3    2
ATOM      2  C2  UNL A   1      32.292  -8.399  27.764  1.00  0.00    +0.000 C 
ATOM    107  H4  UNL A   1      32.250  -7.342  27.602  1.00  0.00    +0.000 H 
BRANCH    2    1
ATOM      1  C1  UNL A   1      32.287  -8.774  29.252  1.00  0.00    +0.000 C 
ATOM    106  H3  UNL A   1      33.293  -8.903  29.591  1.00  0.00    +0.000 H 
ATOM    105  H2  UNL A   1      31.817  -7.995  29.814  1.00  0.00    +0.000 H 
ATOM    104  H1  UNL A   1      31.745  -9.688  29.387  1.00  0.00    +0.000 H 
ENDBRANCH    2    1
BRANCH    2   78
ATOM    101  C75 UNL A   1      29.305  -8.904  25.382  1.00  0.00    +0.000 C 
ATOM    102  F16 UNL A   1      28.737  -8.240  24.362  1.00  0.00    +0.000 F 
ATOM    103  C76 UNL A   1      30.349  -8.279  26.061  1.00  0.00    +0.000 C 
ATOM    136  H33 UNL A   1      30.943 -10.662  28.315  1.00  0.00    +0.000 H 
ATOM    137  H34 UNL A   1      29.147 -11.745  27.114  1.00  0.00    +0.000 H 
ATOM     78  C55 UNL A   1      31.020  -8.933  27.100  1.00  0.00    +0.000 C 
ATOM     79  C56 UNL A   1      30.525 -10.191  27.497  1.00  0.00    +0.000 C 
ATOM     80  C57 UNL A   1      29.479 -10.817  26.805  1.00  0.00    +0.000 C 
ATOM     81  C58 UNL A   1      28.882 -10.199  25.700  1.00  0.00    +0.000 C 
ATOM    154  H51 UNL A   1      30.631  -7.323  25.795  1.00  0.00    +0.000 H 
BRANCH   81   82
ATOM    100  C74 UNL A   1      27.562 -12.232  25.177  1.00  0.00    +0.000 C 
ATOM    138  H35 UNL A   1      27.639  -9.383  23.416  1.00  0.00    +0.000 H 
ATOM    139  H36 UNL A   1      26.074 -10.632  22.048  1.00  0.00    +0.000 H 
ATOM    140  H37 UNL A   1      25.439 -12.891  22.676  1.00  0.00    +0.000 H 
ATOM     82  C59 UNL A   1      27.941 -10.921  24.832  1.00  0.00    +0.000 C 
ATOM     83  C60 UNL A   1      27.381 -10.345  23.684  1.00  0.00    +0.000 C 
ATOM     84  C61 UNL A   1      26.474 -11.064  22.897  1.00  0.00    +0.000 C 
ATOM     85  C62 UNL A   1      26.107 -12.361  23.256  1.00  0.00    +0.000 C 
ATOM     86  C63 UNL A   1      26.648 -12.938  24.403  1.00  0.00    +0.000 C 
ATOM    153  H50 UNL A   1      27.970 -12.676  26.015  1.00  0.00    +0.000 H 
BRANCH   86   87
ATOM     87  O3  UNL A   1      26.258 -14.272  24.669  1.00  0.00    +0.000 O 
BRANCH   87   88
ATOM     89  O4  UNL A   1      25.465 -14.916  26.774  1.00  0.00    +0.000 O 
ATOM     88  C64 UNL A   1      26.335 -14.889  25.919  1.00  0.00    +0.000 C 
BRANCH   88   90
ATOM     90  N7  UNL A   1      27.533 -15.522  26.131  1.00  0.00    +0.000 N 
ATOM    141  H38 UNL A   1      27.823 -15.661  27.062  1.00  0.00    +0.000 H 
BRANCH   90   91
ATOM     91  C65 UNL A   1      28.395 -15.999  25.076  1.00  0.00    +0.000 C 
ATOM    142  H39 UNL A   1      27.828 -16.031  24.170  1.00  0.00    +0.000 H 
ATOM    143  H40 UNL A   1      28.748 -16.962  25.382  1.00  0.00    +0.000 H 
BRANCH   91   92
ATOM    145  H42 UNL A   1      29.463 -14.259  25.422  1.00  0.00    +0.000 H 
ATOM     92  C66 UNL A   1      29.634 -15.137  24.834  1.00  0.00    +0.000 C 
ATOM    144  H41 UNL A   1      30.487 -15.725  25.106  1.00  0.00    +0.000 H 
BRANCH   92   93
ATOM    146  H43 UNL A   1      28.958 -14.683  22.891  1.00  0.00    +0.000 H 
ATOM    147  H44 UNL A   1      30.706 -15.196  23.078  1.00  0.00    +0.000 H 
ATOM     93  C67 UNL A   1      29.885 -14.601  23.418  1.00  0.00    +0.000 C 
BRANCH   93   94
ATOM     97  C71 UNL A   1      31.478 -10.605  22.926  1.00  0.00    +0.000 C 
ATOM     98  C72 UNL A   1      31.848 -11.402  24.003  1.00  0.00    +0.000 C 
ATOM     99  C73 UNL A   1      31.308 -12.683  24.139  1.00  0.00    +0.000 C 
ATOM    148  H45 UNL A   1      29.333 -12.710  21.443  1.00  0.00    +0.000 H 
ATOM    149  H46 UNL A   1      30.290 -10.499  21.193  1.00  0.00    +0.000 H 
ATOM    150  H47 UNL A   1      31.879  -9.660  22.819  1.00  0.00    +0.000 H 
ATOM    151  H48 UNL A   1      32.519 -11.048  24.702  1.00  0.00    +0.000 H 
ATOM    152  H49 UNL A   1      31.596 -13.271  24.936  1.00  0.00    +0.000 H 
ATOM     94  C68 UNL A   1      30.379 -13.188  23.210  1.00  0.00    +0.000 C 
ATOM     95  C69 UNL A   1      30.015 -12.367  22.139  1.00  0.00    +0.000 C 
ATOM     96  C70 UNL A   1      30.564 -11.088  21.995  1.00  0.00    +0.000 C 
ENDBRANCH   93   94
ENDBRANCH   92   93
ENDBRANCH   91   92
ENDBRANCH   90   91
ENDBRANCH   88   90
ENDBRANCH   87   88
ENDBRANCH   86   87
ENDBRANCH   81   82
ENDBRANCH    2   78
ENDBRANCH    3    2
ENDBRANCH    5    3
ENDBRANCH    6    5
ENDBRANCH    7    6
ENDBRANCH    8    7
ENDBRANCH    9    8
ENDBRANCH   10    9
ENDBRANCH   11   10
ENDBRANCH   12   11
ENDBRANCH   13   12
ENDBRANCH   15   13
ENDBRANCH   19   18
BRANCH   23   24
ATOM     33  C24 UNL A   1      28.626 -13.851  38.120  1.00  0.00    +0.000 C 
ATOM     34  F5  UNL A   1      29.239 -12.752  37.653  1.00  0.00    +0.000 F 
ATOM     24  C19 UNL A   1      27.590 -14.450  37.388  1.00  0.00    +0.000 C 
ATOM     25  C20 UNL A   1      26.989 -15.599  37.922  1.00  0.00    +0.000 C 
ATOM     26  F1  UNL A   1      25.986 -16.201  37.266  1.00  0.00    +0.000 F 
ATOM     27  C21 UNL A   1      27.389 -16.112  39.153  1.00  0.00    +0.000 C 
ATOM     28  F2  UNL A   1      26.767 -17.183  39.665  1.00  0.00    +0.000 F 
ATOM     29  C22 UNL A   1      28.420 -15.507  39.856  1.00  0.00    +0.000 C 
ATOM     30  F3  UNL A   1      28.807 -16.004  41.039  1.00  0.00    +0.000 F 
ATOM     31  C23 UNL A   1      29.044 -14.383  39.338  1.00  0.00    +0.000 C 
ATOM     32  F4  UNL A   1      30.046 -13.803  40.012  1.00  0.00    +0.000 F 
ENDBRANCH   23   24
BRANCH   40   41
ATOM     41  C30 UNL A   1      22.310 -10.340  34.704  1.00  0.00    +0.000 C 
ATOM     42  C31 UNL A   1      21.030 -10.911  34.698  1.00  0.00    +0.000 C 
ATOM     43  F6  UNL A   1      20.840 -12.135  34.184  1.00  0.00    +0.000 F 
ATOM     44  C32 UNL A   1      19.932 -10.209  35.189  1.00  0.00    +0.000 C 
ATOM     45  F7  UNL A   1      18.710 -10.757  35.135  1.00  0.00    +0.000 F 
ATOM     46  C33 UNL A   1      20.098  -8.939  35.720  1.00  0.00    +0.000 C 
ATOM     47  F8  UNL A   1      19.042  -8.267  36.197  1.00  0.00    +0.000 F 
ATOM     48  C34 UNL A   1      21.359  -8.362  35.751  1.00  0.00    +0.000 C 
ATOM     49  F9  UNL A   1      21.523  -7.138  36.273  1.00  0.00    +0.000 F 
ATOM     50  C35 UNL A   1      22.454  -9.050  35.237  1.00  0.00    +0.000 C 
ATOM     51  F10 UNL A   1      23.660  -8.462  35.270  1.00  0.00    +0.000 F 
ENDBRANCH   40   41
BRANCH   55   56
ATOM     65  C44 UNL A   1      25.563 -10.039  27.743  1.00  0.00    +0.000 C 
ATOM     66  F15 UNL A   1      26.508  -9.350  28.399  1.00  0.00    +0.000 F 
ATOM     56  C39 UNL A   1      24.985 -11.173  28.330  1.00  0.00    +0.000 C 
ATOM     57  C40 UNL A   1      23.998 -11.855  27.604  1.00  0.00    +0.000 C 
ATOM     58  F11 UNL A   1      23.432 -12.957  28.118  1.00  0.00    +0.000 F 
ATOM     59  C41 UNL A   1      23.615 -11.428  26.336  1.00  0.00    +0.000 C 
ATOM     60  F12 UNL A   1      22.696 -12.120  25.647  1.00  0.00    +0.000 F 
ATOM     61  C42 UNL A   1      24.192 -10.298  25.777  1.00  0.00    +0.000 C 
ATOM     62  F13 UNL A   1      23.820  -9.885  24.559  1.00  0.00    +0.000 F 
ATOM     63  C43 UNL A   1      25.161  -9.599  26.483  1.00  0.00    +0.000 C 
ATOM     64  F14 UNL A   1      25.713  -8.499  25.953  1.00  0.00    +0.000 F 
ENDBRANCH   55   56
TORSDOF 25
ENDMDL
