MODEL 1
REMARK VINA RESULT:      -9.3      0.000      0.000
ROOT
ATOM    135  H36 UNL A   1      46.584  28.384  30.361  1.00  0.00    +0.000 H 
ATOM    136  H37 UNL A   1      45.137  28.619  32.583  1.00  0.00    +0.000 H 
ATOM    137  H38 UNL A   1      44.516  31.839  30.221  1.00  0.00    +0.000 H 
ATOM    138  H39 UNL A   1      37.010  28.555  30.563  1.00  0.00    +0.000 H 
ATOM    139  H40 UNL A   1      38.434  26.544  29.911  1.00  0.00    +0.000 H 
ATOM    140  H41 UNL A   1      40.959  29.837  30.005  1.00  0.00    +0.000 H 
ATOM    141  H42 UNL A   1      40.178  32.863  29.247  1.00  0.00    +0.000 H 
ATOM    142  H43 UNL A   1      42.643  32.318  29.785  1.00  0.00    +0.000 H 
ATOM    143  H44 UNL A   1      44.018  28.692  25.734  1.00  0.00    +0.000 H 
ATOM    144  H45 UNL A   1      41.641  27.764  26.095  1.00  0.00    +0.000 H 
ATOM     39  C34 UNL A   1      41.046  27.302  28.867  1.00  0.00    +0.000 C 
ATOM     40  C35 UNL A   1      42.238  27.968  28.277  1.00  0.00    +0.000 C 
ATOM     41  N3  UNL A   1      43.293  28.398  28.887  1.00  0.00    +0.000 N 
ATOM     42  C36 UNL A   1      44.091  28.989  27.910  1.00  0.00    +0.000 C 
ATOM     43  C37 UNL A   1      44.996  29.955  28.230  1.00  0.00    +0.000 C 
ATOM     55  C44 UNL A   1      45.268  29.954  29.646  1.00  0.00    +0.000 C 
ATOM     56  C45 UNL A   1      45.803  29.036  30.530  1.00  0.00    +0.000 C 
ATOM     57  C46 UNL A   1      45.040  29.186  31.725  1.00  0.00    +0.000 C 
ATOM     58  C47 UNL A   1      44.139  30.232  31.531  1.00  0.00    +0.000 C 
ATOM     59  N4  UNL A   1      44.619  30.881  30.423  1.00  0.00    +0.000 N 
ATOM     60  C48 UNL A   1      42.914  30.596  32.196  1.00  0.00    +0.000 C 
ATOM     72  C55 UNL A   1      41.939  31.383  31.657  1.00  0.00    +0.000 C 
ATOM     73  N5  UNL A   1      40.648  31.345  32.159  1.00  0.00    +0.000 N 
ATOM     74  C56 UNL A   1      39.896  31.659  31.143  1.00  0.00    +0.000 C 
ATOM     75  C57 UNL A   1      38.609  30.987  30.857  1.00  0.00    +0.000 C 
ATOM     87  C64 UNL A   1      38.890  29.719  30.468  1.00  0.00    +0.000 C 
ATOM     88  C65 UNL A   1      38.023  28.570  30.362  1.00  0.00    +0.000 C 
ATOM     89  C66 UNL A   1      38.765  27.521  29.955  1.00  0.00    +0.000 C 
ATOM     90  C67 UNL A   1      40.112  27.973  29.580  1.00  0.00    +0.000 C 
ATOM     91  N6  UNL A   1      40.150  29.277  30.013  1.00  0.00    +0.000 N 
ATOM     92  C68 UNL A   1      40.565  32.335  30.043  1.00  0.00    +0.000 C 
ATOM     93  C69 UNL A   1      41.833  32.069  30.371  1.00  0.00    +0.000 C 
ATOM     94  C70 UNL A   1      43.542  28.583  26.643  1.00  0.00    +0.000 C 
ATOM     95  C71 UNL A   1      42.331  28.048  26.809  1.00  0.00    +0.000 C 
ENDROOT
BRANCH   39   38
ATOM     97  C73 UNL A   1      39.417  24.467  27.166  1.00  0.00    +0.000 C 
ATOM     35  C30 UNL A   1      40.337  23.443  27.358  1.00  0.00    +0.000 C 
ATOM     36  C31 UNL A   1      41.461  23.630  28.171  1.00  0.00    +0.000 C 
ATOM    133  H34 UNL A   1      42.114  22.852  28.352  1.00  0.00    +0.000 H 
ATOM     37  C32 UNL A   1      41.680  24.887  28.730  1.00  0.00    +0.000 C 
ATOM     38  C33 UNL A   1      40.813  25.940  28.403  1.00  0.00    +0.000 C 
ATOM    134  H35 UNL A   1      42.469  25.041  29.377  1.00  0.00    +0.000 H 
ATOM    145  H46 UNL A   1      39.174  26.541  27.220  1.00  0.00    +0.000 H 
ATOM    146  H47 UNL A   1      38.502  24.267  26.734  1.00  0.00    +0.000 H 
ATOM     96  C72 UNL A   1      39.732  25.739  27.554  1.00  0.00    +0.000 C 
BRANCH   35   33
ATOM     33  C29 UNL A   1      40.106  22.173  26.641  1.00  0.00    +0.000 C 
ATOM     34  O2  UNL A   1      39.181  22.055  25.870  1.00  0.00    +0.000 O 
BRANCH   33   32
ATOM    132  H33 UNL A   1      40.896  20.665  27.746  1.00  0.00    +0.000 H 
ATOM     32  N2  UNL A   1      40.986  21.125  26.881  1.00  0.00    +0.000 N 
BRANCH   32   31
ATOM    130  H31 UNL A   1      42.368  19.680  26.338  1.00  0.00    +0.000 H 
ATOM    131  H32 UNL A   1      41.613  20.558  25.003  1.00  0.00    +0.000 H 
ATOM     31  C28 UNL A   1      42.032  20.632  25.985  1.00  0.00    +0.000 C 
BRANCH   31   30
ATOM    129  H30 UNL A   1      44.084  20.972  25.728  1.00  0.00    +0.000 H 
ATOM     30  C27 UNL A   1      43.220  21.575  25.913  1.00  0.00    +0.000 C 
ATOM    128  H29 UNL A   1      43.281  22.110  26.837  1.00  0.00    +0.000 H 
BRANCH   30   29
ATOM     29  C26 UNL A   1      43.138  22.597  24.768  1.00  0.00    +0.000 C 
ATOM    126  H27 UNL A   1      43.163  22.054  23.845  1.00  0.00    +0.000 H 
ATOM    127  H28 UNL A   1      42.234  23.142  24.942  1.00  0.00    +0.000 H 
BRANCH   29   28
ATOM    124  H25 UNL A   1      45.151  23.215  25.064  1.00  0.00    +0.000 H 
ATOM     28  C25 UNL A   1      44.245  23.661  24.709  1.00  0.00    +0.000 C 
ATOM    125  H26 UNL A   1      44.291  23.980  23.688  1.00  0.00    +0.000 H 
BRANCH   28   27
ATOM    122  H23 UNL A   1      43.872  25.746  24.855  1.00  0.00    +0.000 H 
ATOM     27  C24 UNL A   1      43.989  24.925  25.532  1.00  0.00    +0.000 C 
ATOM    123  H24 UNL A   1      43.113  24.735  26.115  1.00  0.00    +0.000 H 
BRANCH   27   26
ATOM    121  H22 UNL A   1      44.779  26.130  27.076  1.00  0.00    +0.000 H 
ATOM     26  C23 UNL A   1      45.100  25.276  26.519  1.00  0.00    +0.000 C 
ATOM    120  H21 UNL A   1      45.995  25.477  25.969  1.00  0.00    +0.000 H 
BRANCH   26   25
ATOM     25  N1  UNL A   1      45.364  24.214  27.460  1.00  0.00    +0.000 N 
ATOM    119  H20 UNL A   1      45.788  23.409  27.085  1.00  0.00    +0.000 H 
BRANCH   25   23
ATOM     23  C22 UNL A   1      45.103  24.174  28.800  1.00  0.00    +0.000 C 
ATOM     24  O1  UNL A   1      44.819  23.079  29.292  1.00  0.00    +0.000 O 
BRANCH   23   22
ATOM    118  H19 UNL A   1      44.264  25.372  30.309  1.00  0.00    +0.000 H 
ATOM    117  H18 UNL A   1      45.013  26.285  28.978  1.00  0.00    +0.000 H 
ATOM     22  C21 UNL A   1      45.093  25.447  29.638  1.00  0.00    +0.000 C 
BRANCH   22   21
ATOM      2  C2  UNL A   1      49.543  26.387  28.832  1.00  0.00    +0.000 C 
ATOM     99  C74 UNL A   1      47.997  26.466  28.658  1.00  0.00    +0.000 C 
ATOM      4  C4  UNL A   1      49.763  26.631  30.363  1.00  0.00    +0.000 C 
ATOM      5  C5  UNL A   1      48.474  26.176  30.937  1.00  0.00    +0.000 C 
ATOM     98  N7  UNL A   1      47.506  26.084  29.976  1.00  0.00    +0.000 N 
ATOM      6  C6  UNL A   1      47.916  25.799  32.127  1.00  0.00    +0.000 C 
ATOM    106  H7  UNL A   1      49.937  27.666  30.570  1.00  0.00    +0.000 H 
ATOM    107  H8  UNL A   1      50.615  26.123  30.762  1.00  0.00    +0.000 H 
ATOM     13  C13 UNL A   1      46.542  25.464  31.849  1.00  0.00    +0.000 C 
ATOM    147  H48 UNL A   1      47.658  25.783  27.907  1.00  0.00    +0.000 H 
ATOM    148  H49 UNL A   1      47.656  27.428  28.340  1.00  0.00    +0.000 H 
ATOM     21  C20 UNL A   1      46.322  25.627  30.480  1.00  0.00    +0.000 C 
BRANCH    2    1
ATOM      1  C1  UNL A   1      50.252  27.432  27.973  1.00  0.00    +0.000 C 
ATOM    100  H1  UNL A   1      50.490  28.285  28.572  1.00  0.00    +0.000 H 
ATOM    101  H2  UNL A   1      49.612  27.728  27.169  1.00  0.00    +0.000 H 
ATOM    102  H3  UNL A   1      51.153  27.014  27.574  1.00  0.00    +0.000 H 
ENDBRANCH    2    1
BRANCH    2    3
ATOM    105  H6  UNL A   1      50.018  24.870  27.385  1.00  0.00    +0.000 H 
ATOM      3  C3  UNL A   1      50.072  24.991  28.446  1.00  0.00    +0.000 C 
ATOM    103  H4  UNL A   1      49.475  24.240  28.922  1.00  0.00    +0.000 H 
ATOM    104  H5  UNL A   1      51.088  24.895  28.766  1.00  0.00    +0.000 H 
ENDBRANCH    2    3
BRANCH    6    7
ATOM      7  C7  UNL A   1      48.567  25.788  33.419  1.00  0.00    +0.000 C 
ATOM      8  C8  UNL A   1      48.584  26.942  34.205  1.00  0.00    +0.000 C 
ATOM      9  C9  UNL A   1      48.942  26.855  35.549  1.00  0.00    +0.000 C 
ATOM     10  C10 UNL A   1      49.297  25.622  36.103  1.00  0.00    +0.000 C 
ATOM     11  C11 UNL A   1      49.342  24.481  35.305  1.00  0.00    +0.000 C 
ATOM     12  C12 UNL A   1      48.976  24.563  33.965  1.00  0.00    +0.000 C 
ATOM    108  H9  UNL A   1      48.334  27.855  33.792  1.00  0.00    +0.000 H 
ATOM    109  H10 UNL A   1      48.945  27.703  36.137  1.00  0.00    +0.000 H 
ATOM    111  H12 UNL A   1      49.645  23.579  35.707  1.00  0.00    +0.000 H 
ATOM    112  H13 UNL A   1      49.006  23.721  33.371  1.00  0.00    +0.000 H 
ATOM    110  H11 UNL A   1      49.525  25.556  37.108  1.00  0.00    +0.000 H 
ENDBRANCH    6    7
BRANCH   13   14
ATOM     14  C14 UNL A   1      45.549  25.060  32.838  1.00  0.00    +0.000 C 
ATOM     15  C15 UNL A   1      44.956  23.791  32.742  1.00  0.00    +0.000 C 
ATOM     16  C16 UNL A   1      43.887  23.443  33.571  1.00  0.00    +0.000 C 
ATOM    113  H14 UNL A   1      45.314  23.110  32.054  1.00  0.00    +0.000 H 
ATOM     17  C17 UNL A   1      43.415  24.358  34.510  1.00  0.00    +0.000 C 
ATOM     19  C18 UNL A   1      43.998  25.619  34.619  1.00  0.00    +0.000 C 
ATOM     20  C19 UNL A   1      45.051  25.973  33.772  1.00  0.00    +0.000 C 
ATOM    116  H17 UNL A   1      45.466  26.916  33.838  1.00  0.00    +0.000 H 
ATOM    114  H15 UNL A   1      43.449  22.512  33.489  1.00  0.00    +0.000 H 
ATOM    115  H16 UNL A   1      43.652  26.288  35.324  1.00  0.00    +0.000 H 
ATOM     18 Cl1  UNL A   1      42.084  23.941  35.517  1.00  0.00    +0.000 Cl
ENDBRANCH   13   14
ENDBRANCH   22   21
ENDBRANCH   23   22
ENDBRANCH   25   23
ENDBRANCH   26   25
ENDBRANCH   27   26
ENDBRANCH   28   27
ENDBRANCH   29   28
ENDBRANCH   30   29
ENDBRANCH   31   30
ENDBRANCH   32   31
ENDBRANCH   33   32
ENDBRANCH   35   33
ENDBRANCH   39   38
BRANCH   43   44
ATOM     44  C38 UNL A   1      45.359  31.128  27.346  1.00  0.00    +0.000 C 
ATOM     45  C39 UNL A   1      46.716  31.354  27.033  1.00  0.00    +0.000 C 
ATOM     46  F1  UNL A   1      47.642  30.419  27.288  1.00  0.00    +0.000 F 
ATOM     47  C40 UNL A   1      47.168  32.580  26.534  1.00  0.00    +0.000 C 
ATOM     48  F2  UNL A   1      48.481  32.790  26.374  1.00  0.00    +0.000 F 
ATOM     49  C41 UNL A   1      46.276  33.602  26.272  1.00  0.00    +0.000 C 
ATOM     50  F3  UNL A   1      46.712  34.798  25.853  1.00  0.00    +0.000 F 
ATOM     51  C42 UNL A   1      44.932  33.396  26.493  1.00  0.00    +0.000 C 
ATOM     52  F4  UNL A   1      44.052  34.380  26.258  1.00  0.00    +0.000 F 
ATOM     53  C43 UNL A   1      44.485  32.194  27.040  1.00  0.00    +0.000 C 
ATOM     54  F5  UNL A   1      43.185  32.167  27.353  1.00  0.00    +0.000 F 
ENDBRANCH   43   44
BRANCH   60   61
ATOM     65  F7  UNL A   1      42.430  30.335  37.107  1.00  0.00    +0.000 F 
ATOM     66  C52 UNL A   1      41.737  28.506  35.788  1.00  0.00    +0.000 C 
ATOM     67  F8  UNL A   1      41.316  27.857  36.883  1.00  0.00    +0.000 F 
ATOM     68  C53 UNL A   1      41.588  27.928  34.537  1.00  0.00    +0.000 C 
ATOM     69  F9  UNL A   1      41.002  26.729  34.419  1.00  0.00    +0.000 F 
ATOM     70  C54 UNL A   1      42.018  28.599  33.395  1.00  0.00    +0.000 C 
ATOM     71  F10 UNL A   1      41.841  28.020  32.198  1.00  0.00    +0.000 F 
ATOM     61  C49 UNL A   1      42.584  29.876  33.476  1.00  0.00    +0.000 C 
ATOM     62  C50 UNL A   1      42.694  30.454  34.753  1.00  0.00    +0.000 C 
ATOM     63  F6  UNL A   1      43.139  31.708  34.904  1.00  0.00    +0.000 F 
ATOM     64  C51 UNL A   1      42.298  29.766  35.900  1.00  0.00    +0.000 C 
ENDBRANCH   60   61
BRANCH   75   76
ATOM     76  C58 UNL A   1      37.396  31.767  30.552  1.00  0.00    +0.000 C 
ATOM     77  C59 UNL A   1      36.815  32.624  31.499  1.00  0.00    +0.000 C 
ATOM     78  F11 UNL A   1      37.189  32.555  32.785  1.00  0.00    +0.000 F 
ATOM     79  C60 UNL A   1      35.913  33.623  31.121  1.00  0.00    +0.000 C 
ATOM     80  F12 UNL A   1      35.411  34.461  32.039  1.00  0.00    +0.000 F 
ATOM     81  C61 UNL A   1      35.608  33.815  29.784  1.00  0.00    +0.000 C 
ATOM     82  F13 UNL A   1      34.814  34.826  29.403  1.00  0.00    +0.000 F 
ATOM     83  C62 UNL A   1      36.187  32.995  28.834  1.00  0.00    +0.000 C 
ATOM     84  F14 UNL A   1      36.042  33.282  27.540  1.00  0.00    +0.000 F 
ATOM     85  C63 UNL A   1      37.032  31.959  29.210  1.00  0.00    +0.000 C 
ATOM     86  F15 UNL A   1      37.600  31.231  28.236  1.00  0.00    +0.000 F 
ENDBRANCH   75   76
TORSDOF 20
ENDMDL
MODEL 2
REMARK VINA RESULT:      -9.2      1.601      3.015
ROOT
ATOM    135  H36 UNL A   1      46.686  28.341  30.284  1.00  0.00    +0.000 H 
ATOM    136  H37 UNL A   1      45.269  28.577  32.525  1.00  0.00    +0.000 H 
ATOM    137  H38 UNL A   1      44.603  31.788  30.162  1.00  0.00    +0.000 H 
ATOM    138  H39 UNL A   1      37.115  28.475  30.617  1.00  0.00    +0.000 H 
ATOM    139  H40 UNL A   1      38.538  26.468  29.952  1.00  0.00    +0.000 H 
ATOM    140  H41 UNL A   1      41.051  29.771  30.000  1.00  0.00    +0.000 H 
ATOM    141  H42 UNL A   1      40.248  32.791  29.244  1.00  0.00    +0.000 H 
ATOM    142  H43 UNL A   1      42.722  32.258  29.750  1.00  0.00    +0.000 H 
ATOM    143  H44 UNL A   1      44.056  28.625  25.692  1.00  0.00    +0.000 H 
ATOM    144  H45 UNL A   1      41.687  27.689  26.088  1.00  0.00    +0.000 H 
ATOM     39  C34 UNL A   1      41.132  27.233  28.870  1.00  0.00    +0.000 C 
ATOM     40  C35 UNL A   1      42.314  27.902  28.261  1.00  0.00    +0.000 C 
ATOM     41  N3  UNL A   1      43.375  28.337  28.856  1.00  0.00    +0.000 N 
ATOM     42  C36 UNL A   1      44.157  28.928  27.865  1.00  0.00    +0.000 C 
ATOM     43  C37 UNL A   1      45.062  29.899  28.171  1.00  0.00    +0.000 C 
ATOM     55  C44 UNL A   1      45.354  29.904  29.582  1.00  0.00    +0.000 C 
ATOM     56  C45 UNL A   1      45.905  28.990  30.461  1.00  0.00    +0.000 C 
ATOM     57  C46 UNL A   1      45.158  29.141  31.667  1.00  0.00    +0.000 C 
ATOM     58  C47 UNL A   1      44.250  30.182  31.482  1.00  0.00    +0.000 C 
ATOM     59  N4  UNL A   1      44.712  30.831  30.365  1.00  0.00    +0.000 N 
ATOM     60  C48 UNL A   1      43.033  30.545  32.163  1.00  0.00    +0.000 C 
ATOM     72  C55 UNL A   1      42.048  31.326  31.635  1.00  0.00    +0.000 C 
ATOM     73  N5  UNL A   1      40.764  31.284  32.154  1.00  0.00    +0.000 N 
ATOM     74  C56 UNL A   1      39.997  31.592  31.148  1.00  0.00    +0.000 C 
ATOM     75  C57 UNL A   1      38.709  30.914  30.881  1.00  0.00    +0.000 C 
ATOM     87  C64 UNL A   1      38.989  29.646  30.493  1.00  0.00    +0.000 C 
ATOM     88  C65 UNL A   1      38.125  28.494  30.402  1.00  0.00    +0.000 C 
ATOM     89  C66 UNL A   1      38.866  27.446  29.987  1.00  0.00    +0.000 C 
ATOM     90  C67 UNL A   1      40.206  27.903  29.593  1.00  0.00    +0.000 C 
ATOM     91  N6  UNL A   1      40.244  29.208  30.021  1.00  0.00    +0.000 N 
ATOM     92  C68 UNL A   1      40.648  32.267  30.037  1.00  0.00    +0.000 C 
ATOM     93  C69 UNL A   1      41.921  32.007  30.348  1.00  0.00    +0.000 C 
ATOM     94  C70 UNL A   1      43.592  28.517  26.607  1.00  0.00    +0.000 C 
ATOM     95  C71 UNL A   1      42.386  27.978  26.791  1.00  0.00    +0.000 C 
ENDROOT
BRANCH   39   38
ATOM     97  C73 UNL A   1      39.500  24.389  27.186  1.00  0.00    +0.000 C 
ATOM     35  C30 UNL A   1      40.421  23.367  27.381  1.00  0.00    +0.000 C 
ATOM     36  C31 UNL A   1      41.546  23.558  28.190  1.00  0.00    +0.000 C 
ATOM    133  H34 UNL A   1      42.200  22.781  28.373  1.00  0.00    +0.000 H 
ATOM     37  C32 UNL A   1      41.766  24.817  28.743  1.00  0.00    +0.000 C 
ATOM     38  C33 UNL A   1      40.899  25.869  28.413  1.00  0.00    +0.000 C 
ATOM    134  H35 UNL A   1      42.557  24.975  29.387  1.00  0.00    +0.000 H 
ATOM    145  H46 UNL A   1      39.257  26.463  27.231  1.00  0.00    +0.000 H 
ATOM    146  H47 UNL A   1      38.584  24.188  26.757  1.00  0.00    +0.000 H 
ATOM     96  C72 UNL A   1      39.815  25.664  27.567  1.00  0.00    +0.000 C 
BRANCH   35   33
ATOM     33  C29 UNL A   1      40.188  22.093  26.671  1.00  0.00    +0.000 C 
ATOM     34  O2  UNL A   1      39.237  21.957  25.936  1.00  0.00    +0.000 O 
BRANCH   33   32
ATOM    132  H33 UNL A   1      41.036  20.586  27.733  1.00  0.00    +0.000 H 
ATOM     32  N2  UNL A   1      41.098  21.063  26.875  1.00  0.00    +0.000 N 
BRANCH   32   31
ATOM    130  H31 UNL A   1      42.503  19.663  26.279  1.00  0.00    +0.000 H 
ATOM    131  H32 UNL A   1      41.701  20.545  24.975  1.00  0.00    +0.000 H 
ATOM     31  C28 UNL A   1      42.137  20.611  25.949  1.00  0.00    +0.000 C 
BRANCH   31   30
ATOM    129  H30 UNL A   1      44.170  21.012  25.629  1.00  0.00    +0.000 H 
ATOM     30  C27 UNL A   1      43.300  21.585  25.871  1.00  0.00    +0.000 C 
ATOM    128  H29 UNL A   1      43.385  22.084  26.814  1.00  0.00    +0.000 H 
BRANCH   30   29
ATOM     29  C26 UNL A   1      43.150  22.651  24.774  1.00  0.00    +0.000 C 
ATOM    126  H27 UNL A   1      43.098  22.142  23.833  1.00  0.00    +0.000 H 
ATOM    127  H28 UNL A   1      42.270  23.201  25.034  1.00  0.00    +0.000 H 
BRANCH   29   28
ATOM    124  H25 UNL A   1      45.201  23.207  24.840  1.00  0.00    +0.000 H 
ATOM     28  C25 UNL A   1      44.267  23.701  24.672  1.00  0.00    +0.000 C 
ATOM    125  H26 UNL A   1      44.176  24.132  23.696  1.00  0.00    +0.000 H 
BRANCH   28   27
ATOM    122  H23 UNL A   1      44.045  25.770  25.093  1.00  0.00    +0.000 H 
ATOM     27  C24 UNL A   1      44.167  24.868  25.656  1.00  0.00    +0.000 C 
ATOM    123  H24 UNL A   1      43.336  24.656  26.294  1.00  0.00    +0.000 H 
BRANCH   27   26
ATOM    121  H22 UNL A   1      45.274  25.968  27.079  1.00  0.00    +0.000 H 
ATOM     26  C23 UNL A   1      45.381  25.036  26.566  1.00  0.00    +0.000 C 
ATOM    120  H21 UNL A   1      46.266  25.015  25.965  1.00  0.00    +0.000 H 
BRANCH   26   25
ATOM     25  N1  UNL A   1      45.477  23.997  27.564  1.00  0.00    +0.000 N 
ATOM    119  H20 UNL A   1      45.816  23.130  27.244  1.00  0.00    +0.000 H 
BRANCH   25   23
ATOM     23  C22 UNL A   1      45.159  24.054  28.891  1.00  0.00    +0.000 C 
ATOM     24  O1  UNL A   1      44.828  23.001  29.443  1.00  0.00    +0.000 O 
BRANCH   23   22
ATOM    118  H19 UNL A   1      44.291  25.366  30.284  1.00  0.00    +0.000 H 
ATOM    117  H18 UNL A   1      45.104  26.173  28.923  1.00  0.00    +0.000 H 
ATOM     22  C21 UNL A   1      45.145  25.381  29.641  1.00  0.00    +0.000 C 
BRANCH   22   21
ATOM      2  C2  UNL A   1      45.921  25.651  34.186  1.00  0.00    +0.000 C 
ATOM     99  C74 UNL A   1      45.286  25.140  32.859  1.00  0.00    +0.000 C 
ATOM      4  C4  UNL A   1      47.462  25.571  33.922  1.00  0.00    +0.000 C 
ATOM      5  C5  UNL A   1      47.529  25.688  32.445  1.00  0.00    +0.000 C 
ATOM     98  N7  UNL A   1      46.311  25.452  31.871  1.00  0.00    +0.000 N 
ATOM      6  C6  UNL A   1      48.415  25.969  31.442  1.00  0.00    +0.000 C 
ATOM    106  H7  UNL A   1      47.865  24.638  34.256  1.00  0.00    +0.000 H 
ATOM    107  H8  UNL A   1      48.027  26.316  34.440  1.00  0.00    +0.000 H 
ATOM     13  C13 UNL A   1      47.674  25.897  30.208  1.00  0.00    +0.000 C 
ATOM    147  H48 UNL A   1      44.373  25.656  32.644  1.00  0.00    +0.000 H 
ATOM    148  H49 UNL A   1      45.024  24.103  32.886  1.00  0.00    +0.000 H 
ATOM     21  C20 UNL A   1      46.346  25.597  30.513  1.00  0.00    +0.000 C 
BRANCH    2    1
ATOM      1  C1  UNL A   1      45.492  24.790  35.373  1.00  0.00    +0.000 C 
ATOM    100  H1  UNL A   1      44.624  24.224  35.109  1.00  0.00    +0.000 H 
ATOM    101  H2  UNL A   1      45.269  25.419  36.208  1.00  0.00    +0.000 H 
ATOM    102  H3  UNL A   1      46.287  24.121  35.634  1.00  0.00    +0.000 H 
ENDBRANCH    2    1
BRANCH    2    3
ATOM    105  H6  UNL A   1      45.403  27.255  35.520  1.00  0.00    +0.000 H 
ATOM      3  C3  UNL A   1      45.516  27.111  34.466  1.00  0.00    +0.000 C 
ATOM    103  H4  UNL A   1      44.588  27.324  33.975  1.00  0.00    +0.000 H 
ATOM    104  H5  UNL A   1      46.274  27.768  34.095  1.00  0.00    +0.000 H 
ENDBRANCH    2    3
BRANCH    6    7
ATOM      7  C7  UNL A   1      49.828  26.238  31.591  1.00  0.00    +0.000 C 
ATOM      8  C8  UNL A   1      50.271  27.537  31.851  1.00  0.00    +0.000 C 
ATOM      9  C9  UNL A   1      51.580  27.744  32.282  1.00  0.00    +0.000 C 
ATOM     10  C10 UNL A   1      52.449  26.662  32.438  1.00  0.00    +0.000 C 
ATOM     11  C11 UNL A   1      52.029  25.372  32.117  1.00  0.00    +0.000 C 
ATOM     12  C12 UNL A   1      50.720  25.161  31.696  1.00  0.00    +0.000 C 
ATOM    108  H9  UNL A   1      49.633  28.338  31.724  1.00  0.00    +0.000 H 
ATOM    109  H10 UNL A   1      51.909  28.702  32.487  1.00  0.00    +0.000 H 
ATOM    111  H12 UNL A   1      52.685  24.579  32.193  1.00  0.00    +0.000 H 
ATOM    112  H13 UNL A   1      50.404  24.208  31.459  1.00  0.00    +0.000 H 
ATOM    110  H11 UNL A   1      53.406  26.816  32.793  1.00  0.00    +0.000 H 
ENDBRANCH    6    7
BRANCH   13   14
ATOM     14  C14 UNL A   1      48.231  26.073  28.871  1.00  0.00    +0.000 C 
ATOM     15  C15 UNL A   1      47.950  27.247  28.156  1.00  0.00    +0.000 C 
ATOM     16  C16 UNL A   1      48.328  27.371  26.817  1.00  0.00    +0.000 C 
ATOM    113  H14 UNL A   1      47.460  28.026  28.624  1.00  0.00    +0.000 H 
ATOM     17  C17 UNL A   1      49.002  26.324  26.191  1.00  0.00    +0.000 C 
ATOM     19  C18 UNL A   1      49.292  25.154  26.892  1.00  0.00    +0.000 C 
ATOM     20  C19 UNL A   1      48.891  25.025  28.224  1.00  0.00    +0.000 C 
ATOM    116  H17 UNL A   1      49.085  24.148  28.734  1.00  0.00    +0.000 H 
ATOM    114  H15 UNL A   1      48.110  28.233  26.293  1.00  0.00    +0.000 H 
ATOM    115  H16 UNL A   1      49.802  24.387  26.427  1.00  0.00    +0.000 H 
ATOM     18 Cl1  UNL A   1      49.450  26.462  24.536  1.00  0.00    +0.000 Cl
ENDBRANCH   13   14
ENDBRANCH   22   21
ENDBRANCH   23   22
ENDBRANCH   25   23
ENDBRANCH   26   25
ENDBRANCH   27   26
ENDBRANCH   28   27
ENDBRANCH   29   28
ENDBRANCH   30   29
ENDBRANCH   31   30
ENDBRANCH   32   31
ENDBRANCH   33   32
ENDBRANCH   35   33
ENDBRANCH   39   38
BRANCH   43   44
ATOM     44  C38 UNL A   1      45.409  31.071  27.278  1.00  0.00    +0.000 C 
ATOM     45  C39 UNL A   1      46.766  31.403  27.080  1.00  0.00    +0.000 C 
ATOM     46  F1  UNL A   1      47.738  30.558  27.453  1.00  0.00    +0.000 F 
ATOM     47  C40 UNL A   1      47.160  32.646  26.577  1.00  0.00    +0.000 C 
ATOM     48  F2  UNL A   1      48.461  32.962  26.528  1.00  0.00    +0.000 F 
ATOM     49  C41 UNL A   1      46.216  33.580  26.196  1.00  0.00    +0.000 C 
ATOM     50  F3  UNL A   1      46.590  34.795  25.772  1.00  0.00    +0.000 F 
ATOM     51  C42 UNL A   1      44.879  33.267  26.302  1.00  0.00    +0.000 C 
ATOM     52  F4  UNL A   1      43.947  34.165  25.951  1.00  0.00    +0.000 F 
ATOM     53  C43 UNL A   1      44.483  32.049  26.854  1.00  0.00    +0.000 C 
ATOM     54  F5  UNL A   1      43.166  31.921  27.048  1.00  0.00    +0.000 F 
ENDBRANCH   43   44
BRANCH   60   61
ATOM     65  F7  UNL A   1      42.481  30.334  37.069  1.00  0.00    +0.000 F 
ATOM     66  C52 UNL A   1      41.918  28.446  35.770  1.00  0.00    +0.000 C 
ATOM     67  F8  UNL A   1      41.516  27.792  36.869  1.00  0.00    +0.000 F 
ATOM     68  C53 UNL A   1      41.824  27.841  34.526  1.00  0.00    +0.000 C 
ATOM     69  F9  UNL A   1      41.310  26.608  34.420  1.00  0.00    +0.000 F 
ATOM     70  C54 UNL A   1      42.234  28.518  33.381  1.00  0.00    +0.000 C 
ATOM     71  F10 UNL A   1      42.111  27.910  32.191  1.00  0.00    +0.000 F 
ATOM     61  C49 UNL A   1      42.724  29.827  33.449  1.00  0.00    +0.000 C 
ATOM     62  C50 UNL A   1      42.778  30.431  34.718  1.00  0.00    +0.000 C 
ATOM     63  F6  UNL A   1      43.147  31.710  34.855  1.00  0.00    +0.000 F 
ATOM     64  C51 UNL A   1      42.403  29.739  35.869  1.00  0.00    +0.000 C 
ENDBRANCH   60   61
BRANCH   75   76
ATOM     76  C58 UNL A   1      37.489  31.689  30.591  1.00  0.00    +0.000 C 
ATOM     77  C59 UNL A   1      36.905  32.530  31.550  1.00  0.00    +0.000 C 
ATOM     78  F11 UNL A   1      37.285  32.448  32.834  1.00  0.00    +0.000 F 
ATOM     79  C60 UNL A   1      35.994  33.527  31.188  1.00  0.00    +0.000 C 
ATOM     80  F12 UNL A   1      35.490  34.349  32.118  1.00  0.00    +0.000 F 
ATOM     81  C61 UNL A   1      35.681  33.732  29.855  1.00  0.00    +0.000 C 
ATOM     82  F13 UNL A   1      34.879  34.741  29.489  1.00  0.00    +0.000 F 
ATOM     83  C62 UNL A   1      36.262  32.928  28.893  1.00  0.00    +0.000 C 
ATOM     84  F14 UNL A   1      36.110  33.229  27.603  1.00  0.00    +0.000 F 
ATOM     85  C63 UNL A   1      37.117  31.893  29.253  1.00  0.00    +0.000 C 
ATOM     86  F15 UNL A   1      37.687  31.181  28.268  1.00  0.00    +0.000 F 
ENDBRANCH   75   76
TORSDOF 20
ENDMDL
MODEL 3
REMARK VINA RESULT:      -9.1     40.227     45.476
ROOT
ATOM    135  H36 UNL A   1      31.203  24.856  -5.393  1.00  0.00    +0.000 H 
ATOM    136  H37 UNL A   1      32.157  24.047  -7.744  1.00  0.00    +0.000 H 
ATOM    137  H38 UNL A   1      29.777  21.172  -6.192  1.00  0.00    +0.000 H 
ATOM    138  H39 UNL A   1      25.783  23.093 -13.091  1.00  0.00    +0.000 H 
ATOM    139  H40 UNL A   1      26.146  25.386 -12.038  1.00  0.00    +0.000 H 
ATOM    140  H41 UNL A   1      27.591  22.576  -9.348  1.00  0.00    +0.000 H 
ATOM    141  H42 UNL A   1      26.427  19.616  -8.870  1.00  0.00    +0.000 H 
ATOM    142  H43 UNL A   1      28.317  20.467  -7.331  1.00  0.00    +0.000 H 
ATOM    143  H44 UNL A   1      25.941  24.851  -4.764  1.00  0.00    +0.000 H 
ATOM    144  H45 UNL A   1      24.878  25.310  -7.067  1.00  0.00    +0.000 H 
ATOM     39  C34 UNL A   1      26.797  25.235  -9.203  1.00  0.00    +0.000 C 
ATOM     40  C35 UNL A   1      26.991  24.872  -7.773  1.00  0.00    +0.000 C 
ATOM     41  N3  UNL A   1      28.088  24.532  -7.182  1.00  0.00    +0.000 N 
ATOM     42  C36 UNL A   1      27.740  24.237  -5.865  1.00  0.00    +0.000 C 
ATOM     43  C37 UNL A   1      28.498  23.394  -5.110  1.00  0.00    +0.000 C 
ATOM     55  C44 UNL A   1      29.807  23.221  -5.690  1.00  0.00    +0.000 C 
ATOM     56  C45 UNL A   1      30.864  24.067  -5.965  1.00  0.00    +0.000 C 
ATOM     57  C46 UNL A   1      31.386  23.611  -7.212  1.00  0.00    +0.000 C 
ATOM     58  C47 UNL A   1      30.672  22.475  -7.587  1.00  0.00    +0.000 C 
ATOM     59  N4  UNL A   1      30.031  22.091  -6.437  1.00  0.00    +0.000 N 
ATOM     60  C48 UNL A   1      30.486  21.817  -8.856  1.00  0.00    +0.000 C 
ATOM     72  C55 UNL A   1      29.456  20.974  -9.153  1.00  0.00    +0.000 C 
ATOM     73  N5  UNL A   1      29.113  20.723 -10.472  1.00  0.00    +0.000 N 
ATOM     74  C56 UNL A   1      27.840  20.451 -10.429  1.00  0.00    +0.000 C 
ATOM     75  C57 UNL A   1      26.879  20.939 -11.442  1.00  0.00    +0.000 C 
ATOM     87  C64 UNL A   1      26.766  22.281 -11.282  1.00  0.00    +0.000 C 
ATOM     88  C65 UNL A   1      26.210  23.275 -12.169  1.00  0.00    +0.000 C 
ATOM     89  C66 UNL A   1      26.344  24.482 -11.582  1.00  0.00    +0.000 C 
ATOM     90  C67 UNL A   1      26.811  24.319 -10.198  1.00  0.00    +0.000 C 
ATOM     91  N6  UNL A   1      27.144  22.988 -10.121  1.00  0.00    +0.000 N 
ATOM     92  C68 UNL A   1      27.316  20.071  -9.127  1.00  0.00    +0.000 C 
ATOM     93  C69 UNL A   1      28.329  20.487  -8.361  1.00  0.00    +0.000 C 
ATOM     94  C70 UNL A   1      26.404  24.738  -5.679  1.00  0.00    +0.000 C 
ATOM     95  C71 UNL A   1      25.850  25.037  -6.855  1.00  0.00    +0.000 C 
ENDROOT
BRANCH   39   38
ATOM     97  C73 UNL A   1      25.591  28.639  -8.463  1.00  0.00    +0.000 C 
ATOM     35  C30 UNL A   1      25.559  29.219  -9.725  1.00  0.00    +0.000 C 
ATOM     36  C31 UNL A   1      25.808  28.457 -10.872  1.00  0.00    +0.000 C 
ATOM    133  H34 UNL A   1      25.733  28.879 -11.811  1.00  0.00    +0.000 H 
ATOM     37  C32 UNL A   1      26.161  27.118 -10.722  1.00  0.00    +0.000 C 
ATOM     38  C33 UNL A   1      26.326  26.596  -9.430  1.00  0.00    +0.000 C 
ATOM    134  H35 UNL A   1      26.298  26.517 -11.550  1.00  0.00    +0.000 H 
ATOM    145  H46 UNL A   1      26.362  27.036  -7.369  1.00  0.00    +0.000 H 
ATOM    146  H47 UNL A   1      25.218  29.150  -7.648  1.00  0.00    +0.000 H 
ATOM     96  C72 UNL A   1      26.119  27.388  -8.307  1.00  0.00    +0.000 C 
BRANCH   35   33
ATOM     33  C29 UNL A   1      25.295  30.670  -9.805  1.00  0.00    +0.000 C 
ATOM     34  O2  UNL A   1      24.806  31.263  -8.871  1.00  0.00    +0.000 O 
BRANCH   33   32
ATOM    132  H33 UNL A   1      26.586  31.467 -11.152  1.00  0.00    +0.000 H 
ATOM     32  N2  UNL A   1      25.627  31.324 -10.984  1.00  0.00    +0.000 N 
BRANCH   32   31
ATOM    130  H31 UNL A   1      23.707  31.767 -11.622  1.00  0.00    +0.000 H 
ATOM    131  H32 UNL A   1      24.980  32.830 -12.232  1.00  0.00    +0.000 H 
ATOM     31  C28 UNL A   1      24.703  31.822 -12.004  1.00  0.00    +0.000 C 
BRANCH   31   30
ATOM    129  H30 UNL A   1      25.696  30.469 -13.260  1.00  0.00    +0.000 H 
ATOM     30  C27 UNL A   1      24.779  31.018 -13.290  1.00  0.00    +0.000 C 
ATOM    128  H29 UNL A   1      24.732  31.698 -14.115  1.00  0.00    +0.000 H 
BRANCH   30   29
ATOM     29  C26 UNL A   1      23.650  29.987 -13.450  1.00  0.00    +0.000 C 
ATOM    126  H27 UNL A   1      24.062  29.127 -13.937  1.00  0.00    +0.000 H 
ATOM    127  H28 UNL A   1      23.289  29.809 -12.459  1.00  0.00    +0.000 H 
BRANCH   29   28
ATOM    124  H25 UNL A   1      21.628  29.736 -14.057  1.00  0.00    +0.000 H 
ATOM     28  C25 UNL A   1      22.418  30.430 -14.255  1.00  0.00    +0.000 C 
ATOM    125  H26 UNL A   1      22.205  31.430 -13.938  1.00  0.00    +0.000 H 
BRANCH   28   27
ATOM    122  H23 UNL A   1      23.199  31.369 -15.991  1.00  0.00    +0.000 H 
ATOM     27  C24 UNL A   1      22.611  30.502 -15.770  1.00  0.00    +0.000 C 
ATOM    123  H24 UNL A   1      23.088  29.589 -16.059  1.00  0.00    +0.000 H 
BRANCH   27   26
ATOM    121  H22 UNL A   1      21.518  31.159 -17.454  1.00  0.00    +0.000 H 
ATOM     26  C23 UNL A   1      21.315  30.588 -16.572  1.00  0.00    +0.000 C 
ATOM    120  H21 UNL A   1      20.567  31.052 -15.965  1.00  0.00    +0.000 H 
BRANCH   26   25
ATOM     25  N1  UNL A   1      20.833  29.294 -16.992  1.00  0.00    +0.000 N 
ATOM    119  H20 UNL A   1      21.066  29.032 -17.912  1.00  0.00    +0.000 H 
BRANCH   25   23
ATOM     23  C22 UNL A   1      20.099  28.384 -16.286  1.00  0.00    +0.000 C 
ATOM     24  O1  UNL A   1      19.068  28.786 -15.741  1.00  0.00    +0.000 O 
BRANCH   23   22
ATOM    118  H19 UNL A   1      21.124  26.696 -17.003  1.00  0.00    +0.000 H 
ATOM    117  H18 UNL A   1      19.720  26.321 -15.976  1.00  0.00    +0.000 H 
ATOM     22  C21 UNL A   1      20.576  26.947 -16.120  1.00  0.00    +0.000 C 
BRANCH   22   21
ATOM      2  C2  UNL A   1      25.130  26.385 -15.589  1.00  0.00    +0.000 C 
ATOM     99  C74 UNL A   1      23.805  26.951 -16.182  1.00  0.00    +0.000 C 
ATOM      4  C4  UNL A   1      24.970  26.591 -14.045  1.00  0.00    +0.000 C 
ATOM      5  C5  UNL A   1      23.495  26.591 -13.885  1.00  0.00    +0.000 C 
ATOM     98  N7  UNL A   1      22.864  26.786 -15.081  1.00  0.00    +0.000 N 
ATOM      6  C6  UNL A   1      22.532  26.449 -12.925  1.00  0.00    +0.000 C 
ATOM    106  H7  UNL A   1      25.395  27.521 -13.732  1.00  0.00    +0.000 H 
ATOM    107  H8  UNL A   1      25.467  25.849 -13.457  1.00  0.00    +0.000 H 
ATOM     13  C13 UNL A   1      21.263  26.564 -13.596  1.00  0.00    +0.000 C 
ATOM    147  H48 UNL A   1      23.497  26.391 -17.041  1.00  0.00    +0.000 H 
ATOM    148  H49 UNL A   1      23.891  27.962 -16.521  1.00  0.00    +0.000 H 
ATOM     21  C20 UNL A   1      21.505  26.748 -14.958  1.00  0.00    +0.000 C 
BRANCH    2    1
ATOM      1  C1  UNL A   1      26.347  27.121 -16.147  1.00  0.00    +0.000 C 
ATOM    100  H1  UNL A   1      26.035  28.047 -16.584  1.00  0.00    +0.000 H 
ATOM    101  H2  UNL A   1      26.820  26.517 -16.891  1.00  0.00    +0.000 H 
ATOM    102  H3  UNL A   1      27.039  27.318 -15.355  1.00  0.00    +0.000 H 
ENDBRANCH    2    1
BRANCH    2    3
ATOM    105  H6  UNL A   1      24.947  24.692 -16.901  1.00  0.00    +0.000 H 
ATOM      3  C3  UNL A   1      25.277  24.883 -15.901  1.00  0.00    +0.000 C 
ATOM    103  H4  UNL A   1      24.683  24.316 -15.214  1.00  0.00    +0.000 H 
ATOM    104  H5  UNL A   1      26.304  24.598 -15.803  1.00  0.00    +0.000 H 
ENDBRANCH    2    3
BRANCH    6    7
ATOM      7  C7  UNL A   1      22.750  26.268 -11.506  1.00  0.00    +0.000 C 
ATOM      8  C8  UNL A   1      22.446  27.298 -10.613  1.00  0.00    +0.000 C 
ATOM      9  C9  UNL A   1      22.374  27.027  -9.248  1.00  0.00    +0.000 C 
ATOM     10  C10 UNL A   1      22.621  25.736  -8.773  1.00  0.00    +0.000 C 
ATOM     11  C11 UNL A   1      22.987  24.722  -9.656  1.00  0.00    +0.000 C 
ATOM     12  C12 UNL A   1      23.050  24.987 -11.021  1.00  0.00    +0.000 C 
ATOM    108  H9  UNL A   1      22.276  28.254 -10.963  1.00  0.00    +0.000 H 
ATOM    109  H10 UNL A   1      22.138  27.782  -8.585  1.00  0.00    +0.000 H 
ATOM    111  H12 UNL A   1      23.210  23.779  -9.298  1.00  0.00    +0.000 H 
ATOM    112  H13 UNL A   1      23.319  24.239 -11.678  1.00  0.00    +0.000 H 
ATOM    110  H11 UNL A   1      22.530  25.531  -7.766  1.00  0.00    +0.000 H 
ENDBRANCH    6    7
BRANCH   13   14
ATOM     14  C14 UNL A   1      19.954  26.529 -12.952  1.00  0.00    +0.000 C 
ATOM     15  C15 UNL A   1      19.413  27.712 -12.426  1.00  0.00    +0.000 C 
ATOM     16  C16 UNL A   1      18.246  27.680 -11.659  1.00  0.00    +0.000 C 
ATOM    113  H14 UNL A   1      19.882  28.614 -12.608  1.00  0.00    +0.000 H 
ATOM     17  C17 UNL A   1      17.607  26.464 -11.427  1.00  0.00    +0.000 C 
ATOM     19  C18 UNL A   1      18.131  25.282 -11.947  1.00  0.00    +0.000 C 
ATOM     20  C19 UNL A   1      19.312  25.315 -12.693  1.00  0.00    +0.000 C 
ATOM    116  H17 UNL A   1      19.712  24.436 -13.057  1.00  0.00    +0.000 H 
ATOM    114  H15 UNL A   1      17.858  28.552 -11.267  1.00  0.00    +0.000 H 
ATOM    115  H16 UNL A   1      17.647  24.386 -11.782  1.00  0.00    +0.000 H 
ATOM     18 Cl1  UNL A   1      16.182  26.416 -10.464  1.00  0.00    +0.000 Cl
ENDBRANCH   13   14
ENDBRANCH   22   21
ENDBRANCH   23   22
ENDBRANCH   25   23
ENDBRANCH   26   25
ENDBRANCH   27   26
ENDBRANCH   28   27
ENDBRANCH   29   28
ENDBRANCH   30   29
ENDBRANCH   31   30
ENDBRANCH   32   31
ENDBRANCH   33   32
ENDBRANCH   35   33
ENDBRANCH   39   38
BRANCH   43   44
ATOM     44  C38 UNL A   1      27.956  22.447  -4.062  1.00  0.00    +0.000 C 
ATOM     45  C39 UNL A   1      28.715  22.207  -2.897  1.00  0.00    +0.000 C 
ATOM     46  F1  UNL A   1      29.764  22.985  -2.591  1.00  0.00    +0.000 F 
ATOM     47  C40 UNL A   1      28.472  21.109  -2.065  1.00  0.00    +0.000 C 
ATOM     48  F2  UNL A   1      29.300  20.852  -1.044  1.00  0.00    +0.000 F 
ATOM     49  C41 UNL A   1      27.426  20.247  -2.330  1.00  0.00    +0.000 C 
ATOM     50  F3  UNL A   1      27.228  19.161  -1.572  1.00  0.00    +0.000 F 
ATOM     51  C42 UNL A   1      26.613  20.489  -3.416  1.00  0.00    +0.000 C 
ATOM     52  F4  UNL A   1      25.601  19.656  -3.698  1.00  0.00    +0.000 F 
ATOM     53  C43 UNL A   1      26.885  21.551  -4.277  1.00  0.00    +0.000 C 
ATOM     54  F5  UNL A   1      26.125  21.595  -5.376  1.00  0.00    +0.000 F 
ENDBRANCH   43   44
BRANCH   60   61
ATOM     65  F7  UNL A   1      31.779  24.974 -12.431  1.00  0.00    +0.000 F 
ATOM     66  C52 UNL A   1      33.171  23.123 -11.978  1.00  0.00    +0.000 C 
ATOM     67  F8  UNL A   1      34.046  23.535 -12.905  1.00  0.00    +0.000 F 
ATOM     68  C53 UNL A   1      33.425  21.976 -11.241  1.00  0.00    +0.000 C 
ATOM     69  F9  UNL A   1      34.559  21.290 -11.443  1.00  0.00    +0.000 F 
ATOM     70  C54 UNL A   1      32.523  21.546 -10.272  1.00  0.00    +0.000 C 
ATOM     71  F10 UNL A   1      32.810  20.443  -9.565  1.00  0.00    +0.000 F 
ATOM     61  C49 UNL A   1      31.356  22.267  -9.998  1.00  0.00    +0.000 C 
ATOM     62  C50 UNL A   1      31.137  23.445 -10.735  1.00  0.00    +0.000 C 
ATOM     63  F6  UNL A   1      30.093  24.239 -10.467  1.00  0.00    +0.000 F 
ATOM     64  C51 UNL A   1      32.022  23.855 -11.732  1.00  0.00    +0.000 C 
ENDBRANCH   60   61
BRANCH   75   76
ATOM     76  C58 UNL A   1      25.900  20.028 -12.062  1.00  0.00    +0.000 C 
ATOM     77  C59 UNL A   1      26.305  18.896 -12.787  1.00  0.00    +0.000 C 
ATOM     78  F11 UNL A   1      27.586  18.761 -13.158  1.00  0.00    +0.000 F 
ATOM     79  C60 UNL A   1      25.419  17.849 -13.056  1.00  0.00    +0.000 C 
ATOM     80  F12 UNL A   1      25.844  16.757 -13.706  1.00  0.00    +0.000 F 
ATOM     81  C61 UNL A   1      24.123  17.890 -12.570  1.00  0.00    +0.000 C 
ATOM     82  F13 UNL A   1      23.293  16.853 -12.747  1.00  0.00    +0.000 F 
ATOM     83  C62 UNL A   1      23.712  18.987 -11.836  1.00  0.00    +0.000 C 
ATOM     84  F14 UNL A   1      22.533  18.959 -11.214  1.00  0.00    +0.000 F 
ATOM     85  C63 UNL A   1      24.568  20.061 -11.621  1.00  0.00    +0.000 C 
ATOM     86  F15 UNL A   1      24.124  21.071 -10.859  1.00  0.00    +0.000 F 
ENDBRANCH   75   76
TORSDOF 20
ENDMDL
MODEL 4
REMARK VINA RESULT:      -9.1     40.035     45.734
ROOT
ATOM    135  H36 UNL A   1       6.585  29.720  -4.710  1.00  0.00    +0.000 H 
ATOM    136  H37 UNL A   1       8.949  28.504  -4.848  1.00  0.00    +0.000 H 
ATOM    137  H38 UNL A   1       9.495  32.506  -4.714  1.00  0.00    +0.000 H 
ATOM    138  H39 UNL A   1      13.239  30.087   2.169  1.00  0.00    +0.000 H 
ATOM    139  H40 UNL A   1      10.974  28.934   2.369  1.00  0.00    +0.000 H 
ATOM    140  H41 UNL A   1      10.845  31.269  -1.060  1.00  0.00    +0.000 H 
ATOM    141  H42 UNL A   1      12.333  34.084  -1.509  1.00  0.00    +0.000 H 
ATOM    142  H43 UNL A   1      10.728  33.226  -3.340  1.00  0.00    +0.000 H 
ATOM    143  H44 UNL A   1       5.793  33.069  -0.680  1.00  0.00    +0.000 H 
ATOM    144  H45 UNL A   1       7.176  32.223   1.323  1.00  0.00    +0.000 H 
ATOM     39  C34 UNL A   1       8.961  30.089   0.608  1.00  0.00    +0.000 C 
ATOM     40  C35 UNL A   1       8.124  30.932  -0.287  1.00  0.00    +0.000 C 
ATOM     41  N3  UNL A   1       7.963  30.818  -1.564  1.00  0.00    +0.000 N 
ATOM     42  C36 UNL A   1       7.134  31.872  -1.943  1.00  0.00    +0.000 C 
ATOM     43  C37 UNL A   1       7.155  32.360  -3.215  1.00  0.00    +0.000 C 
ATOM     55  C44 UNL A   1       7.786  31.425  -4.113  1.00  0.00    +0.000 C 
ATOM     56  C45 UNL A   1       7.510  30.133  -4.519  1.00  0.00    +0.000 C 
ATOM     57  C46 UNL A   1       8.782  29.496  -4.615  1.00  0.00    +0.000 C 
ATOM     58  C47 UNL A   1       9.761  30.449  -4.339  1.00  0.00    +0.000 C 
ATOM     59  N4  UNL A   1       9.100  31.646  -4.446  1.00  0.00    +0.000 N 
ATOM     60  C48 UNL A   1      11.139  30.339  -3.932  1.00  0.00    +0.000 C 
ATOM     72  C55 UNL A   1      11.850  31.324  -3.311  1.00  0.00    +0.000 C 
ATOM     73  N5  UNL A   1      12.992  31.018  -2.589  1.00  0.00    +0.000 N 
ATOM     74  C56 UNL A   1      13.059  31.947  -1.679  1.00  0.00    +0.000 C 
ATOM     75  C57 UNL A   1      13.452  31.674  -0.279  1.00  0.00    +0.000 C 
ATOM     87  C64 UNL A   1      12.453  30.957   0.291  1.00  0.00    +0.000 C 
ATOM     88  C65 UNL A   1      12.447  30.190   1.514  1.00  0.00    +0.000 C 
ATOM     89  C66 UNL A   1      11.227  29.633   1.653  1.00  0.00    +0.000 C 
ATOM     90  C67 UNL A   1      10.312  30.167   0.635  1.00  0.00    +0.000 C 
ATOM     91  N6  UNL A   1      11.137  30.871  -0.208  1.00  0.00    +0.000 N 
ATOM     92  C68 UNL A   1      12.287  33.150  -1.943  1.00  0.00    +0.000 C 
ATOM     93  C69 UNL A   1      11.497  32.686  -2.916  1.00  0.00    +0.000 C 
ATOM     94  C70 UNL A   1       6.588  32.413  -0.727  1.00  0.00    +0.000 C 
ATOM     95  C71 UNL A   1       7.253  31.946   0.331  1.00  0.00    +0.000 C 
ENDROOT
BRANCH   39   38
ATOM     97  C73 UNL A   1       6.458  27.856   2.136  1.00  0.00    +0.000 C 
ATOM     35  C30 UNL A   1       6.840  27.858   3.472  1.00  0.00    +0.000 C 
ATOM     36  C31 UNL A   1       7.857  28.706   3.927  1.00  0.00    +0.000 C 
ATOM    133  H34 UNL A   1       8.102  28.742   4.928  1.00  0.00    +0.000 H 
ATOM     37  C32 UNL A   1       8.531  29.498   3.000  1.00  0.00    +0.000 C 
ATOM     38  C33 UNL A   1       8.222  29.369   1.638  1.00  0.00    +0.000 C 
ATOM    134  H35 UNL A   1       9.248  30.172   3.312  1.00  0.00    +0.000 H 
ATOM    145  H46 UNL A   1       7.105  28.303   0.202  1.00  0.00    +0.000 H 
ATOM    146  H47 UNL A   1       5.588  27.382   1.846  1.00  0.00    +0.000 H 
ATOM     96  C72 UNL A   1       7.241  28.484   1.208  1.00  0.00    +0.000 C 
BRANCH   35   33
ATOM     33  C29 UNL A   1       6.164  26.909   4.379  1.00  0.00    +0.000 C 
ATOM     34  O2  UNL A   1       5.117  27.197   4.910  1.00  0.00    +0.000 O 
BRANCH   33   32
ATOM    132  H33 UNL A   1       6.369  24.903   4.142  1.00  0.00    +0.000 H 
ATOM     32  N2  UNL A   1       6.771  25.678   4.596  1.00  0.00    +0.000 N 
BRANCH   32   31
ATOM    130  H31 UNL A   1       8.228  26.315   5.924  1.00  0.00    +0.000 H 
ATOM    131  H32 UNL A   1       7.685  24.645   6.126  1.00  0.00    +0.000 H 
ATOM     31  C28 UNL A   1       7.946  25.411   5.427  1.00  0.00    +0.000 C 
BRANCH   31   30
ATOM    129  H30 UNL A   1       8.761  24.715   3.625  1.00  0.00    +0.000 H 
ATOM     30  C27 UNL A   1       9.126  24.913   4.611  1.00  0.00    +0.000 C 
ATOM    128  H29 UNL A   1       9.519  24.039   5.088  1.00  0.00    +0.000 H 
BRANCH   30   29
ATOM     29  C26 UNL A   1      10.263  25.937   4.466  1.00  0.00    +0.000 C 
ATOM    126  H27 UNL A   1       9.979  26.815   5.008  1.00  0.00    +0.000 H 
ATOM    127  H28 UNL A   1      11.136  25.443   4.839  1.00  0.00    +0.000 H 
BRANCH   29   28
ATOM    124  H25 UNL A   1      10.613  27.441   3.004  1.00  0.00    +0.000 H 
ATOM     28  C25 UNL A   1      10.625  26.371   3.037  1.00  0.00    +0.000 C 
ATOM    125  H26 UNL A   1      11.586  25.943   2.836  1.00  0.00    +0.000 H 
BRANCH   28   27
ATOM    122  H23 UNL A   1       9.702  24.786   1.968  1.00  0.00    +0.000 H 
ATOM     27  C24 UNL A   1       9.697  25.855   1.936  1.00  0.00    +0.000 C 
ATOM    123  H24 UNL A   1       8.733  26.276   2.130  1.00  0.00    +0.000 H 
BRANCH   27   26
ATOM    121  H22 UNL A   1      10.862  25.639   0.187  1.00  0.00    +0.000 H 
ATOM     26  C23 UNL A   1      10.084  26.290   0.525  1.00  0.00    +0.000 C 
ATOM    120  H21 UNL A   1      10.409  27.309   0.557  1.00  0.00    +0.000 H 
BRANCH   26   25
ATOM     25  N1  UNL A   1       8.990  26.183  -0.410  1.00  0.00    +0.000 N 
ATOM    119  H20 UNL A   1       8.180  26.694  -0.178  1.00  0.00    +0.000 H 
BRANCH   25   23
ATOM     23  C22 UNL A   1       8.924  25.469  -1.573  1.00  0.00    +0.000 C 
ATOM     24  O1  UNL A   1       8.811  26.105  -2.625  1.00  0.00    +0.000 O 
BRANCH   23   22
ATOM    118  H19 UNL A   1       8.182  23.633  -2.274  1.00  0.00    +0.000 H 
ATOM    117  H18 UNL A   1       8.692  23.617  -0.569  1.00  0.00    +0.000 H 
ATOM     22  C21 UNL A   1       8.916  23.946  -1.562  1.00  0.00    +0.000 C 
BRANCH   22   21
ATOM      2  C2  UNL A   1      10.738  22.435  -5.528  1.00  0.00    +0.000 C 
ATOM     99  C74 UNL A   1       9.918  23.355  -4.575  1.00  0.00    +0.000 C 
ATOM      4  C4  UNL A   1      12.139  22.331  -4.839  1.00  0.00    +0.000 C 
ATOM      5  C5  UNL A   1      11.802  22.574  -3.415  1.00  0.00    +0.000 C 
ATOM     98  N7  UNL A   1      10.563  23.138  -3.286  1.00  0.00    +0.000 N 
ATOM      6  C6  UNL A   1      12.319  22.413  -2.160  1.00  0.00    +0.000 C 
ATOM    106  H7  UNL A   1      12.812  23.074  -5.211  1.00  0.00    +0.000 H 
ATOM    107  H8  UNL A   1      12.636  21.399  -5.011  1.00  0.00    +0.000 H 
ATOM     13  C13 UNL A   1      11.325  22.907  -1.240  1.00  0.00    +0.000 C 
ATOM    147  H48 UNL A   1       8.889  23.061  -4.546  1.00  0.00    +0.000 H 
ATOM    148  H49 UNL A   1       9.910  24.380  -4.879  1.00  0.00    +0.000 H 
ATOM     21  C20 UNL A   1      10.219  23.331  -1.979  1.00  0.00    +0.000 C 
BRANCH    2    1
ATOM      1  C1  UNL A   1      10.828  23.032  -6.932  1.00  0.00    +0.000 C 
ATOM    100  H1  UNL A   1      11.215  24.027  -6.873  1.00  0.00    +0.000 H 
ATOM    101  H2  UNL A   1       9.855  23.053  -7.374  1.00  0.00    +0.000 H 
ATOM    102  H3  UNL A   1      11.479  22.432  -7.534  1.00  0.00    +0.000 H 
ENDBRANCH    2    1
BRANCH    2    3
ATOM    105  H6  UNL A   1       9.094  21.125  -5.979  1.00  0.00    +0.000 H 
ATOM      3  C3  UNL A   1      10.101  21.035  -5.628  1.00  0.00    +0.000 C 
ATOM    103  H4  UNL A   1      10.102  20.574  -4.662  1.00  0.00    +0.000 H 
ATOM    104  H5  UNL A   1      10.665  20.435  -6.311  1.00  0.00    +0.000 H 
ENDBRANCH    2    3
BRANCH    6    7
ATOM      7  C7  UNL A   1      13.627  21.893  -1.826  1.00  0.00    +0.000 C 
ATOM      8  C8  UNL A   1      13.784  20.542  -1.510  1.00  0.00    +0.000 C 
ATOM      9  C9  UNL A   1      15.062  19.986  -1.480  1.00  0.00    +0.000 C 
ATOM     10  C10 UNL A   1      16.180  20.778  -1.749  1.00  0.00    +0.000 C 
ATOM     11  C11 UNL A   1      16.030  22.141  -2.002  1.00  0.00    +0.000 C 
ATOM     12  C12 UNL A   1      14.755  22.697  -2.042  1.00  0.00    +0.000 C 
ATOM    108  H9  UNL A   1      12.958  19.959  -1.298  1.00  0.00    +0.000 H 
ATOM    109  H10 UNL A   1      15.182  18.984  -1.258  1.00  0.00    +0.000 H 
ATOM    111  H12 UNL A   1      16.861  22.733  -2.159  1.00  0.00    +0.000 H 
ATOM    112  H13 UNL A   1      14.640  23.704  -2.230  1.00  0.00    +0.000 H 
ATOM    110  H11 UNL A   1      17.121  20.354  -1.763  1.00  0.00    +0.000 H 
ENDBRANCH    6    7
BRANCH   13   14
ATOM     14  C14 UNL A   1      11.471  22.981   0.209  1.00  0.00    +0.000 C 
ATOM     15  C15 UNL A   1      12.546  23.698   0.758  1.00  0.00    +0.000 C 
ATOM     16  C16 UNL A   1      12.807  23.648   2.129  1.00  0.00    +0.000 C 
ATOM    113  H14 UNL A   1      13.148  24.267   0.142  1.00  0.00    +0.000 H 
ATOM     17  C17 UNL A   1      11.984  22.891   2.961  1.00  0.00    +0.000 C 
ATOM     19  C18 UNL A   1      10.910  22.179   2.430  1.00  0.00    +0.000 C 
ATOM     20  C19 UNL A   1      10.667  22.211   1.054  1.00  0.00    +0.000 C 
ATOM    116  H17 UNL A   1       9.886  21.664   0.659  1.00  0.00    +0.000 H 
ATOM    114  H15 UNL A   1      13.605  24.169   2.525  1.00  0.00    +0.000 H 
ATOM    115  H16 UNL A   1      10.297  21.629   3.052  1.00  0.00    +0.000 H 
ATOM     18 Cl1  UNL A   1      12.315  22.808   4.647  1.00  0.00    +0.000 Cl
ENDBRANCH   13   14
ENDBRANCH   22   21
ENDBRANCH   23   22
ENDBRANCH   25   23
ENDBRANCH   26   25
ENDBRANCH   27   26
ENDBRANCH   28   27
ENDBRANCH   29   28
ENDBRANCH   30   29
ENDBRANCH   31   30
ENDBRANCH   32   31
ENDBRANCH   33   32
ENDBRANCH   35   33
ENDBRANCH   39   38
BRANCH   43   44
ATOM     44  C38 UNL A   1       6.943  33.811  -3.589  1.00  0.00    +0.000 C 
ATOM     45  C39 UNL A   1       5.887  34.144  -4.464  1.00  0.00    +0.000 C 
ATOM     46  F1  UNL A   1       4.932  33.249  -4.758  1.00  0.00    +0.000 F 
ATOM     47  C40 UNL A   1       5.834  35.373  -5.129  1.00  0.00    +0.000 C 
ATOM     48  F2  UNL A   1       4.883  35.593  -6.046  1.00  0.00    +0.000 F 
ATOM     49  C41 UNL A   1       6.797  36.337  -4.899  1.00  0.00    +0.000 C 
ATOM     50  F3  UNL A   1       6.785  37.490  -5.580  1.00  0.00    +0.000 F 
ATOM     51  C42 UNL A   1       7.803  36.080  -3.994  1.00  0.00    +0.000 C 
ATOM     52  F4  UNL A   1       8.756  36.996  -3.768  1.00  0.00    +0.000 F 
ATOM     53  C43 UNL A   1       7.889  34.836  -3.371  1.00  0.00    +0.000 C 
ATOM     54  F5  UNL A   1       8.990  34.649  -2.635  1.00  0.00    +0.000 F 
ENDBRANCH   43   44
BRANCH   60   61
ATOM     65  F7  UNL A   1      12.220  25.908  -2.031  1.00  0.00    +0.000 F 
ATOM     66  C52 UNL A   1      12.787  26.361  -4.276  1.00  0.00    +0.000 C 
ATOM     67  F8  UNL A   1      13.257  25.115  -4.425  1.00  0.00    +0.000 F 
ATOM     68  C53 UNL A   1      12.806  27.244  -5.345  1.00  0.00    +0.000 C 
ATOM     69  F9  UNL A   1      13.276  26.844  -6.535  1.00  0.00    +0.000 F 
ATOM     70  C54 UNL A   1      12.313  28.538  -5.199  1.00  0.00    +0.000 C 
ATOM     71  F10 UNL A   1      12.330  29.360  -6.259  1.00  0.00    +0.000 F 
ATOM     61  C49 UNL A   1      11.766  28.972  -3.987  1.00  0.00    +0.000 C 
ATOM     62  C50 UNL A   1      11.727  28.047  -2.928  1.00  0.00    +0.000 C 
ATOM     63  F6  UNL A   1      11.136  28.356  -1.767  1.00  0.00    +0.000 F 
ATOM     64  C51 UNL A   1      12.255  26.763  -3.064  1.00  0.00    +0.000 C 
ENDBRANCH   60   61
BRANCH   75   76
ATOM     76  C58 UNL A   1      14.455  32.511   0.405  1.00  0.00    +0.000 C 
ATOM     77  C59 UNL A   1      14.080  33.532   1.291  1.00  0.00    +0.000 C 
ATOM     78  F11 UNL A   1      12.806  33.947   1.336  1.00  0.00    +0.000 F 
ATOM     79  C60 UNL A   1      14.989  34.072   2.207  1.00  0.00    +0.000 C 
ATOM     80  F12 UNL A   1      14.592  35.011   3.076  1.00  0.00    +0.000 F 
ATOM     81  C61 UNL A   1      16.277  33.573   2.285  1.00  0.00    +0.000 C 
ATOM     82  F13 UNL A   1      17.129  34.021   3.217  1.00  0.00    +0.000 F 
ATOM     83  C62 UNL A   1      16.659  32.552   1.435  1.00  0.00    +0.000 C 
ATOM     84  F14 UNL A   1      17.832  31.944   1.620  1.00  0.00    +0.000 F 
ATOM     85  C63 UNL A   1      15.781  32.057   0.479  1.00  0.00    +0.000 C 
ATOM     86  F15 UNL A   1      16.197  31.032  -0.282  1.00  0.00    +0.000 F 
ENDBRANCH   75   76
TORSDOF 20
ENDMDL
MODEL 5
REMARK VINA RESULT:      -9.0     32.615     37.520
ROOT
ATOM    135  H36 UNL A   1      23.392  28.060   1.191  1.00  0.00    +0.000 H 
ATOM    136  H37 UNL A   1      23.213  25.554   2.075  1.00  0.00    +0.000 H 
ATOM    137  H38 UNL A   1      19.507  27.009   1.383  1.00  0.00    +0.000 H 
ATOM    138  H39 UNL A   1      19.866  20.778  -3.935  1.00  0.00    +0.000 H 
ATOM    139  H40 UNL A   1      22.024  22.032  -4.449  1.00  0.00    +0.000 H 
ATOM    140  H41 UNL A   1      19.985  24.251  -1.595  1.00  0.00    +0.000 H 
ATOM    141  H42 UNL A   1      16.793  24.516  -1.307  1.00  0.00    +0.000 H 
ATOM    142  H43 UNL A   1      18.298  25.948   0.226  1.00  0.00    +0.000 H 
ATOM    143  H44 UNL A   1      21.052  29.191  -3.427  1.00  0.00    +0.000 H 
ATOM    144  H45 UNL A   1      21.127  27.066  -4.884  1.00  0.00    +0.000 H 
ATOM     39  C34 UNL A   1      22.016  24.758  -3.422  1.00  0.00    +0.000 C 
ATOM     40  C35 UNL A   1      21.697  26.115  -2.901  1.00  0.00    +0.000 C 
ATOM     41  N3  UNL A   1      21.838  26.557  -1.696  1.00  0.00    +0.000 N 
ATOM     42  C36 UNL A   1      21.349  27.862  -1.704  1.00  0.00    +0.000 C 
ATOM     43  C37 UNL A   1      20.882  28.444  -0.565  1.00  0.00    +0.000 C 
ATOM     55  C44 UNL A   1      21.331  27.725   0.601  1.00  0.00    +0.000 C 
ATOM     56  C45 UNL A   1      22.567  27.441   1.149  1.00  0.00    +0.000 C 
ATOM     57  C46 UNL A   1      22.456  26.108   1.643  1.00  0.00    +0.000 C 
ATOM     58  C47 UNL A   1      21.144  25.683   1.439  1.00  0.00    +0.000 C 
ATOM     59  N4  UNL A   1      20.456  26.842   1.184  1.00  0.00    +0.000 N 
ATOM     60  C48 UNL A   1      20.542  24.375   1.384  1.00  0.00    +0.000 C 
ATOM     72  C55 UNL A   1      19.352  24.089   0.783  1.00  0.00    +0.000 C 
ATOM     73  N5  UNL A   1      19.049  22.791   0.406  1.00  0.00    +0.000 N 
ATOM     74  C56 UNL A   1      18.246  22.927  -0.610  1.00  0.00    +0.000 C 
ATOM     75  C57 UNL A   1      18.320  22.071  -1.814  1.00  0.00    +0.000 C 
ATOM     87  C64 UNL A   1      19.466  22.385  -2.466  1.00  0.00    +0.000 C 
ATOM     88  C65 UNL A   1      20.165  21.669  -3.507  1.00  0.00    +0.000 C 
ATOM     89  C66 UNL A   1      21.274  22.366  -3.824  1.00  0.00    +0.000 C 
ATOM     90  C67 UNL A   1      21.255  23.673  -3.152  1.00  0.00    +0.000 C 
ATOM     91  N6  UNL A   1      20.202  23.573  -2.275  1.00  0.00    +0.000 N 
ATOM     92  C68 UNL A   1      17.604  24.225  -0.741  1.00  0.00    +0.000 C 
ATOM     93  C69 UNL A   1      18.378  24.929   0.090  1.00  0.00    +0.000 C 
ATOM     94  C70 UNL A   1      21.204  28.229  -3.088  1.00  0.00    +0.000 C 
ATOM     95  C71 UNL A   1      21.295  27.151  -3.868  1.00  0.00    +0.000 C 
ENDROOT
BRANCH   39   38
ATOM     97  C73 UNL A   1      25.340  24.386  -4.973  1.00  0.00    +0.000 C 
ATOM     35  C30 UNL A   1      25.046  24.504  -6.326  1.00  0.00    +0.000 C 
ATOM     36  C31 UNL A   1      23.758  24.843  -6.754  1.00  0.00    +0.000 C 
ATOM    133  H34 UNL A   1      23.556  24.980  -7.757  1.00  0.00    +0.000 H 
ATOM     37  C32 UNL A   1      22.753  24.992  -5.801  1.00  0.00    +0.000 C 
ATOM     38  C33 UNL A   1      23.045  24.726  -4.455  1.00  0.00    +0.000 C 
ATOM    134  H35 UNL A   1      21.807  25.294  -6.081  1.00  0.00    +0.000 H 
ATOM    145  H46 UNL A   1      24.498  24.030  -3.095  1.00  0.00    +0.000 H 
ATOM    146  H47 UNL A   1      26.321  24.332  -4.658  1.00  0.00    +0.000 H 
ATOM     96  C72 UNL A   1      24.322  24.343  -4.061  1.00  0.00    +0.000 C 
BRANCH   35   33
ATOM     33  C29 UNL A   1      26.129  24.218  -7.288  1.00  0.00    +0.000 C 
ATOM     34  O2  UNL A   1      26.517  25.069  -8.055  1.00  0.00    +0.000 O 
BRANCH   33   32
ATOM    132  H33 UNL A   1      26.334  22.307  -7.941  1.00  0.00    +0.000 H 
ATOM     32  N2  UNL A   1      26.684  22.945  -7.278  1.00  0.00    +0.000 N 
BRANCH   32   31
ATOM    130  H31 UNL A   1      28.557  22.112  -6.981  1.00  0.00    +0.000 H 
ATOM    131  H32 UNL A   1      28.022  23.254  -5.743  1.00  0.00    +0.000 H 
ATOM     31  C28 UNL A   1      27.735  22.450  -6.388  1.00  0.00    +0.000 C 
BRANCH   31   30
ATOM    129  H30 UNL A   1      27.857  20.453  -5.763  1.00  0.00    +0.000 H 
ATOM     30  C27 UNL A   1      27.256  21.302  -5.516  1.00  0.00    +0.000 C 
ATOM    128  H29 UNL A   1      26.217  21.143  -5.711  1.00  0.00    +0.000 H 
BRANCH   30   29
ATOM     29  C26 UNL A   1      27.433  21.548  -4.009  1.00  0.00    +0.000 C 
ATOM    126  H27 UNL A   1      28.481  21.658  -3.819  1.00  0.00    +0.000 H 
ATOM    127  H28 UNL A   1      26.847  22.417  -3.794  1.00  0.00    +0.000 H 
BRANCH   29   28
ATOM    124  H25 UNL A   1      25.897  20.713  -2.799  1.00  0.00    +0.000 H 
ATOM     28  C25 UNL A   1      26.902  20.459  -3.063  1.00  0.00    +0.000 C 
ATOM    125  H26 UNL A   1      26.989  19.537  -3.600  1.00  0.00    +0.000 H 
BRANCH   28   27
ATOM    122  H23 UNL A   1      28.647  19.850  -2.019  1.00  0.00    +0.000 H 
ATOM     27  C24 UNL A   1      27.694  20.266  -1.769  1.00  0.00    +0.000 C 
ATOM    123  H24 UNL A   1      27.766  21.230  -1.311  1.00  0.00    +0.000 H 
BRANCH   27   26
ATOM    121  H22 UNL A   1      27.342  18.348  -0.957  1.00  0.00    +0.000 H 
ATOM     26  C23 UNL A   1      27.027  19.349  -0.748  1.00  0.00    +0.000 C 
ATOM    120  H21 UNL A   1      25.966  19.455  -0.833  1.00  0.00    +0.000 H 
BRANCH   26   25
ATOM     25  N1  UNL A   1      27.414  19.652   0.610  1.00  0.00    +0.000 N 
ATOM    119  H20 UNL A   1      28.306  20.057   0.717  1.00  0.00    +0.000 H 
BRANCH   25   23
ATOM     23  C22 UNL A   1      26.713  19.454   1.765  1.00  0.00    +0.000 C 
ATOM     24  O1  UNL A   1      26.605  20.411   2.536  1.00  0.00    +0.000 O 
BRANCH   23   22
ATOM    118  H19 UNL A   1      26.661  17.369   1.507  1.00  0.00    +0.000 H 
ATOM    117  H18 UNL A   1      25.095  18.095   1.940  1.00  0.00    +0.000 H 
ATOM     22  C21 UNL A   1      26.150  18.083   2.118  1.00  0.00    +0.000 C 
BRANCH   22   21
ATOM      2  C2  UNL A   1      29.850  17.405   4.798  1.00  0.00    +0.000 C 
ATOM     99  C74 UNL A   1      28.962  18.073   3.707  1.00  0.00    +0.000 C 
ATOM      4  C4  UNL A   1      28.921  17.346   6.056  1.00  0.00    +0.000 C 
ATOM      5  C5  UNL A   1      27.571  17.329   5.443  1.00  0.00    +0.000 C 
ATOM     98  N7  UNL A   1      27.612  17.730   4.137  1.00  0.00    +0.000 N 
ATOM      6  C6  UNL A   1      26.271  17.033   5.747  1.00  0.00    +0.000 C 
ATOM    106  H7  UNL A   1      29.055  18.205   6.679  1.00  0.00    +0.000 H 
ATOM    107  H8  UNL A   1      29.114  16.510   6.696  1.00  0.00    +0.000 H 
ATOM     13  C13 UNL A   1      25.506  17.270   4.549  1.00  0.00    +0.000 C 
ATOM    147  H48 UNL A   1      29.173  17.670   2.738  1.00  0.00    +0.000 H 
ATOM    148  H49 UNL A   1      29.125  19.126   3.616  1.00  0.00    +0.000 H 
ATOM     21  C20 UNL A   1      26.383  17.682   3.545  1.00  0.00    +0.000 C 
BRANCH    2    1
ATOM      1  C1  UNL A   1      31.119  18.216   5.054  1.00  0.00    +0.000 C 
ATOM    100  H1  UNL A   1      31.304  18.862   4.221  1.00  0.00    +0.000 H 
ATOM    101  H2  UNL A   1      31.947  17.553   5.182  1.00  0.00    +0.000 H 
ATOM    102  H3  UNL A   1      30.994  18.805   5.939  1.00  0.00    +0.000 H 
ENDBRANCH    2    1
BRANCH    2    3
ATOM    105  H6  UNL A   1      29.855  15.274   5.084  1.00  0.00    +0.000 H 
ATOM      3  C3  UNL A   1      30.255  15.977   4.382  1.00  0.00    +0.000 C 
ATOM    103  H4  UNL A   1      31.322  15.899   4.368  1.00  0.00    +0.000 H 
ATOM    104  H5  UNL A   1      29.869  15.767   3.407  1.00  0.00    +0.000 H 
ENDBRANCH    2    3
BRANCH    6    7
ATOM      7  C7  UNL A   1      25.761  16.611   7.033  1.00  0.00    +0.000 C 
ATOM      8  C8  UNL A   1      25.509  17.555   8.030  1.00  0.00    +0.000 C 
ATOM      9  C9  UNL A   1      24.752  17.195   9.144  1.00  0.00    +0.000 C 
ATOM     10  C10 UNL A   1      24.262  15.893   9.270  1.00  0.00    +0.000 C 
ATOM     11  C11 UNL A   1      24.566  14.932   8.307  1.00  0.00    +0.000 C 
ATOM     12  C12 UNL A   1      25.314  15.292   7.189  1.00  0.00    +0.000 C 
ATOM    108  H9  UNL A   1      25.882  18.514   7.944  1.00  0.00    +0.000 H 
ATOM    109  H10 UNL A   1      24.552  17.892   9.879  1.00  0.00    +0.000 H 
ATOM    111  H12 UNL A   1      24.239  13.960   8.423  1.00  0.00    +0.000 H 
ATOM    112  H13 UNL A   1      25.540  14.584   6.473  1.00  0.00    +0.000 H 
ATOM    110  H11 UNL A   1      23.671  15.640  10.077  1.00  0.00    +0.000 H 
ENDBRANCH    6    7
BRANCH   13   14
ATOM     14  C14 UNL A   1      24.058  17.136   4.426  1.00  0.00    +0.000 C 
ATOM     15  C15 UNL A   1      23.523  16.369   3.379  1.00  0.00    +0.000 C 
ATOM     16  C16 UNL A   1      22.148  16.359   3.137  1.00  0.00    +0.000 C 
ATOM    113  H14 UNL A   1      24.152  15.807   2.784  1.00  0.00    +0.000 H 
ATOM     17  C17 UNL A   1      21.299  17.107   3.950  1.00  0.00    +0.000 C 
ATOM     19  C18 UNL A   1      21.816  17.869   4.996  1.00  0.00    +0.000 C 
ATOM     20  C19 UNL A   1      23.195  17.896   5.220  1.00  0.00    +0.000 C 
ATOM    116  H17 UNL A   1      23.579  18.480   5.980  1.00  0.00    +0.000 H 
ATOM    114  H15 UNL A   1      21.761  15.801   2.360  1.00  0.00    +0.000 H 
ATOM    115  H16 UNL A   1      21.182  18.412   5.603  1.00  0.00    +0.000 H 
ATOM     18 Cl1  UNL A   1      19.606  17.117   3.642  1.00  0.00    +0.000 Cl
ENDBRANCH   13   14
ENDBRANCH   22   21
ENDBRANCH   23   22
ENDBRANCH   25   23
ENDBRANCH   26   25
ENDBRANCH   27   26
ENDBRANCH   28   27
ENDBRANCH   29   28
ENDBRANCH   30   29
ENDBRANCH   31   30
ENDBRANCH   32   31
ENDBRANCH   33   32
ENDBRANCH   35   33
ENDBRANCH   39   38
BRANCH   43   44
ATOM     44  C38 UNL A   1      19.736  29.431  -0.504  1.00  0.00    +0.000 C 
ATOM     45  C39 UNL A   1      19.812  30.514   0.398  1.00  0.00    +0.000 C 
ATOM     46  F1  UNL A   1      20.969  30.820   1.004  1.00  0.00    +0.000 F 
ATOM     47  C40 UNL A   1      18.683  31.251   0.769  1.00  0.00    +0.000 C 
ATOM     48  F2  UNL A   1      18.783  32.184   1.725  1.00  0.00    +0.000 F 
ATOM     49  C41 UNL A   1      17.451  30.976   0.208  1.00  0.00    +0.000 C 
ATOM     50  F3  UNL A   1      16.357  31.639   0.606  1.00  0.00    +0.000 F 
ATOM     51  C42 UNL A   1      17.348  29.977  -0.734  1.00  0.00    +0.000 C 
ATOM     52  F4  UNL A   1      16.159  29.685  -1.280  1.00  0.00    +0.000 F 
ATOM     53  C43 UNL A   1      18.461  29.205  -1.066  1.00  0.00    +0.000 C 
ATOM     54  F5  UNL A   1      18.207  28.169  -1.873  1.00  0.00    +0.000 F 
ENDBRANCH   43   44
BRANCH   60   61
ATOM     65  F7  UNL A   1      22.155  21.090   4.704  1.00  0.00    +0.000 F 
ATOM     66  C52 UNL A   1      22.855  20.889   2.460  1.00  0.00    +0.000 C 
ATOM     67  F8  UNL A   1      23.539  19.775   2.757  1.00  0.00    +0.000 F 
ATOM     68  C53 UNL A   1      22.831  21.364   1.158  1.00  0.00    +0.000 C 
ATOM     69  F9  UNL A   1      23.475  20.696   0.191  1.00  0.00    +0.000 F 
ATOM     70  C54 UNL A   1      22.118  22.517   0.842  1.00  0.00    +0.000 C 
ATOM     71  F10 UNL A   1      22.101  22.939  -0.432  1.00  0.00    +0.000 F 
ATOM     61  C49 UNL A   1      21.390  23.209   1.816  1.00  0.00    +0.000 C 
ATOM     62  C50 UNL A   1      21.403  22.688   3.122  1.00  0.00    +0.000 C 
ATOM     63  F6  UNL A   1      20.658  23.238   4.088  1.00  0.00    +0.000 F 
ATOM     64  C51 UNL A   1      22.148  21.554   3.446  1.00  0.00    +0.000 C 
ENDBRANCH   60   61
BRANCH   75   76
ATOM     76  C58 UNL A   1      17.109  21.453  -2.383  1.00  0.00    +0.000 C 
ATOM     77  C59 UNL A   1      16.402  20.453  -1.698  1.00  0.00    +0.000 C 
ATOM     78  F11 UNL A   1      16.955  19.848  -0.637  1.00  0.00    +0.000 F 
ATOM     79  C60 UNL A   1      15.084  20.129  -2.038  1.00  0.00    +0.000 C 
ATOM     80  F12 UNL A   1      14.415  19.205  -1.335  1.00  0.00    +0.000 F 
ATOM     81  C61 UNL A   1      14.432  20.828  -3.038  1.00  0.00    +0.000 C 
ATOM     82  F13 UNL A   1      13.143  20.587  -3.312  1.00  0.00    +0.000 F 
ATOM     83  C62 UNL A   1      15.104  21.832  -3.710  1.00  0.00    +0.000 C 
ATOM     84  F14 UNL A   1      14.437  22.627  -4.547  1.00  0.00    +0.000 F 
ATOM     85  C63 UNL A   1      16.435  22.113  -3.422  1.00  0.00    +0.000 C 
ATOM     86  F15 UNL A   1      17.014  23.132  -4.075  1.00  0.00    +0.000 F 
ENDBRANCH   75   76
TORSDOF 20
ENDMDL
MODEL 6
REMARK VINA RESULT:      -8.9     40.560     46.367
ROOT
ATOM    135  H36 UNL A   1       6.594  29.689  -4.869  1.00  0.00    +0.000 H 
ATOM    136  H37 UNL A   1       8.975  28.510  -5.034  1.00  0.00    +0.000 H 
ATOM    137  H38 UNL A   1       9.465  32.514  -4.796  1.00  0.00    +0.000 H 
ATOM    138  H39 UNL A   1      13.236  29.969   2.026  1.00  0.00    +0.000 H 
ATOM    139  H40 UNL A   1      10.988  28.781   2.194  1.00  0.00    +0.000 H 
ATOM    140  H41 UNL A   1      10.829  31.202  -1.174  1.00  0.00    +0.000 H 
ATOM    141  H42 UNL A   1      12.279  34.048  -1.548  1.00  0.00    +0.000 H 
ATOM    142  H43 UNL A   1      10.687  33.215  -3.403  1.00  0.00    +0.000 H 
ATOM    143  H44 UNL A   1       5.752  32.922  -0.754  1.00  0.00    +0.000 H 
ATOM    144  H45 UNL A   1       7.146  32.043   1.228  1.00  0.00    +0.000 H 
ATOM     39  C34 UNL A   1       8.961  29.953   0.461  1.00  0.00    +0.000 C 
ATOM     40  C35 UNL A   1       8.113  30.807  -0.414  1.00  0.00    +0.000 C 
ATOM     41  N3  UNL A   1       7.954  30.724  -1.693  1.00  0.00    +0.000 N 
ATOM     42  C36 UNL A   1       7.111  31.776  -2.046  1.00  0.00    +0.000 C 
ATOM     43  C37 UNL A   1       7.126  32.297  -3.305  1.00  0.00    +0.000 C 
ATOM     55  C44 UNL A   1       7.771  31.394  -4.226  1.00  0.00    +0.000 C 
ATOM     56  C45 UNL A   1       7.513  30.110  -4.665  1.00  0.00    +0.000 C 
ATOM     57  C46 UNL A   1       8.794  29.493  -4.776  1.00  0.00    +0.000 C 
ATOM     58  C47 UNL A   1       9.760  30.452  -4.474  1.00  0.00    +0.000 C 
ATOM     59  N4  UNL A   1       9.082  31.642  -4.552  1.00  0.00    +0.000 N 
ATOM     60  C48 UNL A   1      11.139  30.350  -4.068  1.00  0.00    +0.000 C 
ATOM     72  C55 UNL A   1      11.835  31.328  -3.422  1.00  0.00    +0.000 C 
ATOM     73  N5  UNL A   1      12.981  31.019  -2.707  1.00  0.00    +0.000 N 
ATOM     74  C56 UNL A   1      13.034  31.926  -1.773  1.00  0.00    +0.000 C 
ATOM     75  C57 UNL A   1      13.430  31.623  -0.380  1.00  0.00    +0.000 C 
ATOM     87  C64 UNL A   1      12.441  30.877   0.171  1.00  0.00    +0.000 C 
ATOM     88  C65 UNL A   1      12.444  30.078   1.373  1.00  0.00    +0.000 C 
ATOM     89  C66 UNL A   1      11.231  29.501   1.496  1.00  0.00    +0.000 C 
ATOM     90  C67 UNL A   1      10.310  30.049   0.492  1.00  0.00    +0.000 C 
ATOM     91  N6  UNL A   1      11.126  30.786  -0.333  1.00  0.00    +0.000 N 
ATOM     92  C68 UNL A   1      12.245  33.124  -2.006  1.00  0.00    +0.000 C 
ATOM     93  C69 UNL A   1      11.464  32.675  -2.992  1.00  0.00    +0.000 C 
ATOM     94  C70 UNL A   1       6.556  32.278  -0.817  1.00  0.00    +0.000 C 
ATOM     95  C71 UNL A   1       7.227  31.793   0.230  1.00  0.00    +0.000 C 
ENDROOT
BRANCH   39   38
ATOM     97  C73 UNL A   1       7.051  27.202   2.003  1.00  0.00    +0.000 C 
ATOM     35  C30 UNL A   1       6.953  27.619   3.325  1.00  0.00    +0.000 C 
ATOM     36  C31 UNL A   1       7.401  28.887   3.713  1.00  0.00    +0.000 C 
ATOM    133  H34 UNL A   1       7.280  29.213   4.685  1.00  0.00    +0.000 H 
ATOM     37  C32 UNL A   1       8.015  29.699   2.763  1.00  0.00    +0.000 C 
ATOM     38  C33 UNL A   1       8.230  29.196   1.471  1.00  0.00    +0.000 C 
ATOM    134  H35 UNL A   1       8.307  30.659   3.005  1.00  0.00    +0.000 H 
ATOM    145  H46 UNL A   1       8.089  27.508   0.216  1.00  0.00    +0.000 H 
ATOM    146  H47 UNL A   1       6.547  26.359   1.686  1.00  0.00    +0.000 H 
ATOM     96  C72 UNL A   1       7.818  27.915   1.124  1.00  0.00    +0.000 C 
BRANCH   35   33
ATOM     33  C29 UNL A   1       6.399  26.663   4.305  1.00  0.00    +0.000 C 
ATOM     34  O2  UNL A   1       5.285  26.809   4.752  1.00  0.00    +0.000 O 
BRANCH   33   32
ATOM    132  H33 UNL A   1       7.304  24.866   4.037  1.00  0.00    +0.000 H 
ATOM     32  N2  UNL A   1       7.200  25.595   4.690  1.00  0.00    +0.000 N 
BRANCH   32   31
ATOM    130  H31 UNL A   1       7.595  26.218   6.625  1.00  0.00    +0.000 H 
ATOM    131  H32 UNL A   1       7.666  24.473   6.353  1.00  0.00    +0.000 H 
ATOM     31  C28 UNL A   1       7.906  25.440   5.962  1.00  0.00    +0.000 C 
BRANCH   31   30
ATOM    129  H30 UNL A   1       9.708  24.637   5.254  1.00  0.00    +0.000 H 
ATOM     30  C27 UNL A   1       9.414  25.511   5.796  1.00  0.00    +0.000 C 
ATOM    128  H29 UNL A   1       9.857  25.562   6.768  1.00  0.00    +0.000 H 
BRANCH   30   29
ATOM     29  C26 UNL A   1       9.896  26.722   4.981  1.00  0.00    +0.000 C 
ATOM    126  H27 UNL A   1       9.029  27.220   4.597  1.00  0.00    +0.000 H 
ATOM    127  H28 UNL A   1      10.481  27.305   5.662  1.00  0.00    +0.000 H 
BRANCH   29   28
ATOM    124  H25 UNL A   1      11.031  27.358   3.300  1.00  0.00    +0.000 H 
ATOM     28  C25 UNL A   1      10.828  26.432   3.795  1.00  0.00    +0.000 C 
ATOM    125  H26 UNL A   1      11.696  25.964   4.212  1.00  0.00    +0.000 H 
BRANCH   28   27
ATOM    122  H23 UNL A   1       9.372  25.037   3.129  1.00  0.00    +0.000 H 
ATOM     27  C24 UNL A   1      10.284  25.452   2.753  1.00  0.00    +0.000 C 
ATOM    123  H24 UNL A   1      10.149  26.011   1.852  1.00  0.00    +0.000 H 
BRANCH   27   26
ATOM    121  H22 UNL A   1      10.630  23.422   2.281  1.00  0.00    +0.000 H 
ATOM     26  C23 UNL A   1      11.226  24.300   2.412  1.00  0.00    +0.000 C 
ATOM    120  H21 UNL A   1      11.929  24.184   3.210  1.00  0.00    +0.000 H 
BRANCH   26   25
ATOM     25  N1  UNL A   1      11.953  24.521   1.185  1.00  0.00    +0.000 N 
ATOM    119  H20 UNL A   1      12.311  25.430   1.060  1.00  0.00    +0.000 H 
BRANCH   25   23
ATOM     23  C22 UNL A   1      12.212  23.641   0.173  1.00  0.00    +0.000 C 
ATOM     24  O1  UNL A   1      13.341  23.660  -0.323  1.00  0.00    +0.000 O 
BRANCH   23   22
ATOM    118  H19 UNL A   1      10.251  22.888   0.227  1.00  0.00    +0.000 H 
ATOM    117  H18 UNL A   1      11.473  21.714  -0.316  1.00  0.00    +0.000 H 
ATOM     22  C21 UNL A   1      11.122  22.724  -0.370  1.00  0.00    +0.000 C 
BRANCH   22   21
ATOM      2  C2  UNL A   1       8.132  25.544  -2.476  1.00  0.00    +0.000 C 
ATOM     99  C74 UNL A   1       9.184  25.082  -1.425  1.00  0.00    +0.000 C 
ATOM      4  C4  UNL A   1       8.808  25.224  -3.851  1.00  0.00    +0.000 C 
ATOM      5  C5  UNL A   1       9.731  24.120  -3.494  1.00  0.00    +0.000 C 
ATOM     98  N7  UNL A   1       9.924  24.052  -2.142  1.00  0.00    +0.000 N 
ATOM      6  C6  UNL A   1      10.462  23.119  -4.070  1.00  0.00    +0.000 C 
ATOM    106  H7  UNL A   1       9.343  26.071  -4.227  1.00  0.00    +0.000 H 
ATOM    107  H8  UNL A   1       8.114  24.972  -4.625  1.00  0.00    +0.000 H 
ATOM     13  C13 UNL A   1      11.120  22.420  -2.995  1.00  0.00    +0.000 C 
ATOM    147  H48 UNL A   1       8.709  24.681  -0.554  1.00  0.00    +0.000 H 
ATOM    148  H49 UNL A   1       9.803  25.878  -1.067  1.00  0.00    +0.000 H 
ATOM     21  C20 UNL A   1      10.739  23.014  -1.791  1.00  0.00    +0.000 C 
BRANCH    2    1
ATOM      1  C1  UNL A   1       7.809  27.029  -2.322  1.00  0.00    +0.000 C 
ATOM    100  H1  UNL A   1       6.795  27.142  -2.000  1.00  0.00    +0.000 H 
ATOM    101  H2  UNL A   1       7.942  27.523  -3.261  1.00  0.00    +0.000 H 
ATOM    102  H3  UNL A   1       8.463  27.463  -1.595  1.00  0.00    +0.000 H 
ENDBRANCH    2    1
BRANCH    2    3
ATOM    105  H6  UNL A   1       6.174  24.973  -3.156  1.00  0.00    +0.000 H 
ATOM      3  C3  UNL A   1       6.825  24.739  -2.339  1.00  0.00    +0.000 C 
ATOM    103  H4  UNL A   1       6.345  24.993  -1.417  1.00  0.00    +0.000 H 
ATOM    104  H5  UNL A   1       7.048  23.693  -2.349  1.00  0.00    +0.000 H 
ENDBRANCH    2    3
BRANCH    6    7
ATOM      7  C7  UNL A   1      10.586  22.848  -5.486  1.00  0.00    +0.000 C 
ATOM      8  C8  UNL A   1       9.807  21.853  -6.079  1.00  0.00    +0.000 C 
ATOM      9  C9  UNL A   1       9.709  21.793  -7.469  1.00  0.00    +0.000 C 
ATOM     10  C10 UNL A   1      10.399  22.712  -8.263  1.00  0.00    +0.000 C 
ATOM     11  C11 UNL A   1      11.228  23.665  -7.674  1.00  0.00    +0.000 C 
ATOM     12  C12 UNL A   1      11.320  23.734  -6.287  1.00  0.00    +0.000 C 
ATOM    108  H9  UNL A   1       9.308  21.165  -5.493  1.00  0.00    +0.000 H 
ATOM    109  H10 UNL A   1       9.125  21.066  -7.913  1.00  0.00    +0.000 H 
ATOM    111  H12 UNL A   1      11.769  24.317  -8.264  1.00  0.00    +0.000 H 
ATOM    112  H13 UNL A   1      11.931  24.439  -5.847  1.00  0.00    +0.000 H 
ATOM    110  H11 UNL A   1      10.294  22.687  -9.289  1.00  0.00    +0.000 H 
ENDBRANCH    6    7
BRANCH   13   14
ATOM     14  C14 UNL A   1      12.051  21.307  -3.150  1.00  0.00    +0.000 C 
ATOM     15  C15 UNL A   1      13.406  21.572  -3.404  1.00  0.00    +0.000 C 
ATOM     16  C16 UNL A   1      14.285  20.534  -3.721  1.00  0.00    +0.000 C 
ATOM    113  H14 UNL A   1      13.755  22.542  -3.354  1.00  0.00    +0.000 H 
ATOM     17  C17 UNL A   1      13.814  19.224  -3.773  1.00  0.00    +0.000 C 
ATOM     19  C18 UNL A   1      12.473  18.946  -3.518  1.00  0.00    +0.000 C 
ATOM     20  C19 UNL A   1      11.591  19.989  -3.224  1.00  0.00    +0.000 C 
ATOM    116  H17 UNL A   1      10.593  19.785  -3.060  1.00  0.00    +0.000 H 
ATOM    114  H15 UNL A   1      15.277  20.736  -3.917  1.00  0.00    +0.000 H 
ATOM    115  H16 UNL A   1      12.132  17.972  -3.546  1.00  0.00    +0.000 H 
ATOM     18 Cl1  UNL A   1      14.888  17.944  -4.186  1.00  0.00    +0.000 Cl
ENDBRANCH   13   14
ENDBRANCH   22   21
ENDBRANCH   23   22
ENDBRANCH   25   23
ENDBRANCH   26   25
ENDBRANCH   27   26
ENDBRANCH   28   27
ENDBRANCH   29   28
ENDBRANCH   30   29
ENDBRANCH   31   30
ENDBRANCH   32   31
ENDBRANCH   33   32
ENDBRANCH   35   33
ENDBRANCH   39   38
BRANCH   43   44
ATOM     44  C38 UNL A   1       6.894  33.753  -3.642  1.00  0.00    +0.000 C 
ATOM     45  C39 UNL A   1       5.791  34.102  -4.450  1.00  0.00    +0.000 C 
ATOM     46  F1  UNL A   1       4.821  33.211  -4.705  1.00  0.00    +0.000 F 
ATOM     47  C40 UNL A   1       5.702  35.342  -5.090  1.00  0.00    +0.000 C 
ATOM     48  F2  UNL A   1       4.702  35.577  -5.949  1.00  0.00    +0.000 F 
ATOM     49  C41 UNL A   1       6.678  36.302  -4.898  1.00  0.00    +0.000 C 
ATOM     50  F3  UNL A   1       6.627  37.467  -5.557  1.00  0.00    +0.000 F 
ATOM     51  C42 UNL A   1       7.732  36.029  -4.056  1.00  0.00    +0.000 C 
ATOM     52  F4  UNL A   1       8.697  36.942  -3.867  1.00  0.00    +0.000 F 
ATOM     53  C43 UNL A   1       7.852  34.775  -3.459  1.00  0.00    +0.000 C 
ATOM     54  F5  UNL A   1       8.992  34.576  -2.789  1.00  0.00    +0.000 F 
ENDBRANCH   43   44
BRANCH   60   61
ATOM     65  F7  UNL A   1      12.299  25.895  -2.273  1.00  0.00    +0.000 F 
ATOM     66  C52 UNL A   1      12.840  26.405  -4.512  1.00  0.00    +0.000 C 
ATOM     67  F8  UNL A   1      13.327  25.169  -4.692  1.00  0.00    +0.000 F 
ATOM     68  C53 UNL A   1      12.838  27.311  -5.562  1.00  0.00    +0.000 C 
ATOM     69  F9  UNL A   1      13.303  26.943  -6.763  1.00  0.00    +0.000 F 
ATOM     70  C54 UNL A   1      12.328  28.594  -5.383  1.00  0.00    +0.000 C 
ATOM     71  F10 UNL A   1      12.324  29.439  -6.425  1.00  0.00    +0.000 F 
ATOM     61  C49 UNL A   1      11.784  28.994  -4.158  1.00  0.00    +0.000 C 
ATOM     62  C50 UNL A   1      11.768  28.046  -3.119  1.00  0.00    +0.000 C 
ATOM     63  F6  UNL A   1      11.181  28.321  -1.947  1.00  0.00    +0.000 F 
ATOM     64  C51 UNL A   1      12.313  26.773  -3.287  1.00  0.00    +0.000 C 
ENDBRANCH   60   61
BRANCH   75   76
ATOM     76  C58 UNL A   1      14.420  32.455   0.327  1.00  0.00    +0.000 C 
ATOM     77  C59 UNL A   1      14.030  33.470   1.214  1.00  0.00    +0.000 C 
ATOM     78  F11 UNL A   1      12.755  33.884   1.239  1.00  0.00    +0.000 F 
ATOM     79  C60 UNL A   1      14.923  34.004   2.148  1.00  0.00    +0.000 C 
ATOM     80  F12 UNL A   1      14.510  34.937   3.017  1.00  0.00    +0.000 F 
ATOM     81  C61 UNL A   1      16.210  33.505   2.245  1.00  0.00    +0.000 C 
ATOM     82  F13 UNL A   1      17.045  33.948   3.195  1.00  0.00    +0.000 F 
ATOM     83  C62 UNL A   1      16.607  32.490   1.395  1.00  0.00    +0.000 C 
ATOM     84  F14 UNL A   1      17.776  31.881   1.596  1.00  0.00    +0.000 F 
ATOM     85  C63 UNL A   1      15.745  32.001   0.421  1.00  0.00    +0.000 C 
ATOM     86  F15 UNL A   1      16.175  30.982  -0.339  1.00  0.00    +0.000 F 
ENDBRANCH   75   76
TORSDOF 20
ENDMDL
MODEL 7
REMARK VINA RESULT:      -8.9     40.106     45.887
ROOT
ATOM    135  H36 UNL A   1      12.323  -3.051  25.560  1.00  0.00    +0.000 H 
ATOM    136  H37 UNL A   1       9.723  -3.073  26.136  1.00  0.00    +0.000 H 
ATOM    137  H38 UNL A   1      11.407   0.286  27.625  1.00  0.00    +0.000 H 
ATOM    138  H39 UNL A   1       6.022   3.364  22.262  1.00  0.00    +0.000 H 
ATOM    139  H40 UNL A   1       7.253   1.643  20.841  1.00  0.00    +0.000 H 
ATOM    140  H41 UNL A   1       9.103   1.693  24.556  1.00  0.00    +0.000 H 
ATOM    141  H42 UNL A   1       9.448   4.244  26.483  1.00  0.00    +0.000 H 
ATOM    142  H43 UNL A   1      10.577   2.023  27.156  1.00  0.00    +0.000 H 
ATOM    143  H44 UNL A   1      14.215   1.170  22.975  1.00  0.00    +0.000 H 
ATOM    144  H45 UNL A   1      12.327   2.078  21.474  1.00  0.00    +0.000 H 
ATOM     39  C34 UNL A   1       9.796   0.829  22.007  1.00  0.00    +0.000 C 
ATOM     40  C35 UNL A   1      11.072   0.689  22.759  1.00  0.00    +0.000 C 
ATOM     41  N3  UNL A   1      11.325  -0.093  23.756  1.00  0.00    +0.000 N 
ATOM     42  C36 UNL A   1      12.635   0.186  24.141  1.00  0.00    +0.000 C 
ATOM     43  C37 UNL A   1      13.060  -0.057  25.413  1.00  0.00    +0.000 C 
ATOM     55  C44 UNL A   1      12.159  -0.954  26.093  1.00  0.00    +0.000 C 
ATOM     56  C45 UNL A   1      11.750  -2.258  25.886  1.00  0.00    +0.000 C 
ATOM     57  C46 UNL A   1      10.364  -2.267  26.221  1.00  0.00    +0.000 C 
ATOM     58  C47 UNL A   1      10.025  -0.996  26.682  1.00  0.00    +0.000 C 
ATOM     59  N4  UNL A   1      11.234  -0.406  26.946  1.00  0.00    +0.000 N 
ATOM     60  C48 UNL A   1       8.764  -0.311  26.808  1.00  0.00    +0.000 C 
ATOM     72  C55 UNL A   1       8.617   1.043  26.885  1.00  0.00    +0.000 C 
ATOM     73  N5  UNL A   1       7.401   1.635  26.584  1.00  0.00    +0.000 N 
ATOM     74  C56 UNL A   1       7.717   2.823  26.152  1.00  0.00    +0.000 C 
ATOM     75  C57 UNL A   1       7.046   3.465  25.001  1.00  0.00    +0.000 C 
ATOM     87  C64 UNL A   1       7.408   2.783  23.887  1.00  0.00    +0.000 C 
ATOM     88  C65 UNL A   1       6.827   2.794  22.565  1.00  0.00    +0.000 C 
ATOM     89  C66 UNL A   1       7.521   1.931  21.795  1.00  0.00    +0.000 C 
ATOM     90  C67 UNL A   1       8.713   1.461  22.515  1.00  0.00    +0.000 C 
ATOM     91  N6  UNL A   1       8.526   1.927  23.794  1.00  0.00    +0.000 N 
ATOM     92  C68 UNL A   1       9.044   3.295  26.511  1.00  0.00    +0.000 C 
ATOM     93  C69 UNL A   1       9.587   2.135  26.890  1.00  0.00    +0.000 C 
ATOM     94  C70 UNL A   1      13.208   0.972  23.081  1.00  0.00    +0.000 C 
ATOM     95  C71 UNL A   1      12.255   1.410  22.257  1.00  0.00    +0.000 C 
ENDROOT
BRANCH   39   38
ATOM     97  C73 UNL A   1       9.719   1.225  18.343  1.00  0.00    +0.000 C 
ATOM     35  C30 UNL A   1      10.133  -0.027  17.905  1.00  0.00    +0.000 C 
ATOM     36  C31 UNL A   1      10.320  -1.079  18.809  1.00  0.00    +0.000 C 
ATOM    133  H34 UNL A   1      10.577  -2.020  18.474  1.00  0.00    +0.000 H 
ATOM     37  C32 UNL A   1      10.153  -0.829  20.169  1.00  0.00    +0.000 C 
ATOM     38  C33 UNL A   1       9.877   0.479  20.594  1.00  0.00    +0.000 C 
ATOM    134  H35 UNL A   1      10.232  -1.596  20.855  1.00  0.00    +0.000 H 
ATOM    145  H46 UNL A   1       9.664   2.491  20.003  1.00  0.00    +0.000 H 
ATOM    146  H47 UNL A   1       9.396   1.931  17.664  1.00  0.00    +0.000 H 
ATOM     96  C72 UNL A   1       9.743   1.516  19.678  1.00  0.00    +0.000 C 
BRANCH   35   33
ATOM     33  C29 UNL A   1      10.406  -0.192  16.463  1.00  0.00    +0.000 C 
ATOM     34  O2  UNL A   1      11.184   0.537  15.891  1.00  0.00    +0.000 O 
BRANCH   33   32
ATOM    132  H33 UNL A   1      10.022  -2.129  15.997  1.00  0.00    +0.000 H 
ATOM     32  N2  UNL A   1       9.741  -1.210  15.791  1.00  0.00    +0.000 N 
BRANCH   32   31
ATOM    130  H31 UNL A   1       9.057  -0.573  13.942  1.00  0.00    +0.000 H 
ATOM    131  H32 UNL A   1       8.296  -2.037  14.577  1.00  0.00    +0.000 H 
ATOM     31  C28 UNL A   1       8.665  -1.060  14.810  1.00  0.00    +0.000 C 
BRANCH   31   30
ATOM    129  H30 UNL A   1       6.821  -0.101  14.538  1.00  0.00    +0.000 H 
ATOM     30  C27 UNL A   1       7.505  -0.241  15.348  1.00  0.00    +0.000 C 
ATOM    128  H29 UNL A   1       7.892   0.683  15.726  1.00  0.00    +0.000 H 
BRANCH   30   29
ATOM     29  C26 UNL A   1       6.723  -0.933  16.476  1.00  0.00    +0.000 C 
ATOM    126  H27 UNL A   1       5.793  -1.271  16.065  1.00  0.00    +0.000 H 
ATOM    127  H28 UNL A   1       7.366  -1.712  16.828  1.00  0.00    +0.000 H 
BRANCH   29   28
ATOM    124  H25 UNL A   1       7.142   0.683  17.793  1.00  0.00    +0.000 H 
ATOM     28  C25 UNL A   1       6.400  -0.085  17.716  1.00  0.00    +0.000 C 
ATOM    125  H26 UNL A   1       5.407   0.286  17.567  1.00  0.00    +0.000 H 
BRANCH   28   27
ATOM    122  H23 UNL A   1       6.904  -0.269  19.770  1.00  0.00    +0.000 H 
ATOM     27  C24 UNL A   1       6.368  -0.844  19.044  1.00  0.00    +0.000 C 
ATOM    123  H24 UNL A   1       5.337  -0.976  19.293  1.00  0.00    +0.000 H 
BRANCH   27   26
ATOM    121  H22 UNL A   1       7.632  -2.338  19.838  1.00  0.00    +0.000 H 
ATOM     26  C23 UNL A   1       6.985  -2.239  18.992  1.00  0.00    +0.000 C 
ATOM    120  H21 UNL A   1       7.519  -2.345  18.071  1.00  0.00    +0.000 H 
BRANCH   26   25
ATOM     25  N1  UNL A   1       5.996  -3.288  19.076  1.00  0.00    +0.000 N 
ATOM    119  H20 UNL A   1       5.380  -3.353  18.310  1.00  0.00    +0.000 H 
BRANCH   25   23
ATOM     23  C22 UNL A   1       5.798  -4.200  20.073  1.00  0.00    +0.000 C 
ATOM     24  O1  UNL A   1       5.366  -5.310  19.750  1.00  0.00    +0.000 O 
BRANCH   23   22
ATOM    118  H19 UNL A   1       5.087  -3.905  22.028  1.00  0.00    +0.000 H 
ATOM    117  H18 UNL A   1       6.443  -2.846  21.571  1.00  0.00    +0.000 H 
ATOM     22  C21 UNL A   1       6.032  -3.834  21.533  1.00  0.00    +0.000 C 
BRANCH   22   21
ATOM      2  C2  UNL A   1      10.605  -4.100  22.123  1.00  0.00    +0.000 C 
ATOM     99  C74 UNL A   1       9.205  -3.432  21.986  1.00  0.00    +0.000 C 
ATOM      4  C4  UNL A   1      10.394  -5.196  23.221  1.00  0.00    +0.000 C 
ATOM      5  C5  UNL A   1       8.944  -5.481  23.099  1.00  0.00    +0.000 C 
ATOM     98  N7  UNL A   1       8.300  -4.495  22.405  1.00  0.00    +0.000 N 
ATOM      6  C6  UNL A   1       8.015  -6.422  23.444  1.00  0.00    +0.000 C 
ATOM    106  H7  UNL A   1      10.636  -4.822  24.194  1.00  0.00    +0.000 H 
ATOM    107  H8  UNL A   1      11.015  -6.057  23.096  1.00  0.00    +0.000 H 
ATOM     13  C13 UNL A   1       6.753  -5.965  22.920  1.00  0.00    +0.000 C 
ATOM    147  H48 UNL A   1       9.015  -3.140  20.974  1.00  0.00    +0.000 H 
ATOM    148  H49 UNL A   1       9.104  -2.537  22.561  1.00  0.00    +0.000 H 
ATOM     21  C20 UNL A   1       6.970  -4.762  22.247  1.00  0.00    +0.000 C 
BRANCH    2    1
ATOM      1  C1  UNL A   1      11.670  -3.079  22.523  1.00  0.00    +0.000 C 
ATOM    100  H1  UNL A   1      11.730  -3.025  23.589  1.00  0.00    +0.000 H 
ATOM    101  H2  UNL A   1      11.409  -2.119  22.131  1.00  0.00    +0.000 H 
ATOM    102  H3  UNL A   1      12.618  -3.379  22.127  1.00  0.00    +0.000 H 
ENDBRANCH    2    1
BRANCH    2    3
ATOM    105  H6  UNL A   1      11.161  -4.014  20.049  1.00  0.00    +0.000 H 
ATOM      3  C3  UNL A   1      11.033  -4.765  20.800  1.00  0.00    +0.000 C 
ATOM    103  H4  UNL A   1      10.277  -5.456  20.488  1.00  0.00    +0.000 H 
ATOM    104  H5  UNL A   1      11.956  -5.286  20.946  1.00  0.00    +0.000 H 
ENDBRANCH    2    3
BRANCH    6    7
ATOM      7  C7  UNL A   1       8.248  -7.618  24.225  1.00  0.00    +0.000 C 
ATOM      8  C8  UNL A   1       7.991  -8.875  23.674  1.00  0.00    +0.000 C 
ATOM      9  C9  UNL A   1       8.486 -10.016  24.303  1.00  0.00    +0.000 C 
ATOM     10  C10 UNL A   1       9.222  -9.905  25.485  1.00  0.00    +0.000 C 
ATOM     11  C11 UNL A   1       9.425  -8.657  26.071  1.00  0.00    +0.000 C 
ATOM     12  C12 UNL A   1       8.940  -7.514  25.440  1.00  0.00    +0.000 C 
ATOM    108  H9  UNL A   1       7.436  -8.959  22.808  1.00  0.00    +0.000 H 
ATOM    109  H10 UNL A   1       8.308 -10.948  23.894  1.00  0.00    +0.000 H 
ATOM    111  H12 UNL A   1       9.932  -8.580  26.966  1.00  0.00    +0.000 H 
ATOM    112  H13 UNL A   1       9.089  -6.588  25.869  1.00  0.00    +0.000 H 
ATOM    110  H11 UNL A   1       9.618 -10.749  25.927  1.00  0.00    +0.000 H 
ENDBRANCH    6    7
BRANCH   13   14
ATOM     14  C14 UNL A   1       5.467  -6.632  23.099  1.00  0.00    +0.000 C 
ATOM     15  C15 UNL A   1       4.724  -6.395  24.266  1.00  0.00    +0.000 C 
ATOM     16  C16 UNL A   1       3.576  -7.142  24.540  1.00  0.00    +0.000 C 
ATOM    113  H14 UNL A   1       5.028  -5.662  24.925  1.00  0.00    +0.000 H 
ATOM     17  C17 UNL A   1       3.159  -8.121  23.641  1.00  0.00    +0.000 C 
ATOM     19  C18 UNL A   1       3.885  -8.363  22.476  1.00  0.00    +0.000 C 
ATOM     20  C19 UNL A   1       5.046  -7.630  22.216  1.00  0.00    +0.000 C 
ATOM    116  H17 UNL A   1       5.596  -7.827  21.365  1.00  0.00    +0.000 H 
ATOM    114  H15 UNL A   1       3.039  -6.971  25.404  1.00  0.00    +0.000 H 
ATOM    115  H16 UNL A   1       3.565  -9.081  21.808  1.00  0.00    +0.000 H 
ATOM     18 Cl1  UNL A   1       1.759  -9.060  23.986  1.00  0.00    +0.000 Cl
ENDBRANCH   13   14
ENDBRANCH   22   21
ENDBRANCH   23   22
ENDBRANCH   25   23
ENDBRANCH   26   25
ENDBRANCH   27   26
ENDBRANCH   28   27
ENDBRANCH   29   28
ENDBRANCH   30   29
ENDBRANCH   31   30
ENDBRANCH   32   31
ENDBRANCH   33   32
ENDBRANCH   35   33
ENDBRANCH   39   38
BRANCH   43   44
ATOM     44  C38 UNL A   1      14.071   0.782  26.162  1.00  0.00    +0.000 C 
ATOM     45  C39 UNL A   1      15.392   0.305  26.297  1.00  0.00    +0.000 C 
ATOM     46  F1  UNL A   1      15.822  -0.735  25.568  1.00  0.00    +0.000 F 
ATOM     47  C40 UNL A   1      16.276   0.825  27.248  1.00  0.00    +0.000 C 
ATOM     48  F2  UNL A   1      17.474   0.253  27.426  1.00  0.00    +0.000 F 
ATOM     49  C41 UNL A   1      15.895   1.879  28.056  1.00  0.00    +0.000 C 
ATOM     50  F3  UNL A   1      16.717   2.339  29.010  1.00  0.00    +0.000 F 
ATOM     51  C42 UNL A   1      14.640   2.425  27.904  1.00  0.00    +0.000 C 
ATOM     52  F4  UNL A   1      14.247   3.439  28.688  1.00  0.00    +0.000 F 
ATOM     53  C43 UNL A   1      13.738   1.874  26.995  1.00  0.00    +0.000 C 
ATOM     54  F5  UNL A   1      12.504   2.386  27.044  1.00  0.00    +0.000 F 
ENDBRANCH   43   44
BRANCH   60   61
ATOM     65  F7  UNL A   1       5.355  -2.543  24.013  1.00  0.00    +0.000 F 
ATOM     66  C52 UNL A   1       5.291  -2.840  26.353  1.00  0.00    +0.000 C 
ATOM     67  F8  UNL A   1       4.245  -3.670  26.235  1.00  0.00    +0.000 F 
ATOM     68  C53 UNL A   1       5.827  -2.568  27.603  1.00  0.00    +0.000 C 
ATOM     69  F9  UNL A   1       5.311  -3.154  28.693  1.00  0.00    +0.000 F 
ATOM     70  C54 UNL A   1       6.917  -1.712  27.732  1.00  0.00    +0.000 C 
ATOM     71  F10 UNL A   1       7.421  -1.486  28.954  1.00  0.00    +0.000 F 
ATOM     61  C49 UNL A   1       7.515  -1.126  26.611  1.00  0.00    +0.000 C 
ATOM     62  C50 UNL A   1       6.974  -1.444  25.352  1.00  0.00    +0.000 C 
ATOM     63  F6  UNL A   1       7.547  -0.998  24.226  1.00  0.00    +0.000 F 
ATOM     64  C51 UNL A   1       5.859  -2.272  25.226  1.00  0.00    +0.000 C 
ENDBRANCH   60   61
BRANCH   75   76
ATOM     76  C58 UNL A   1       6.567   4.857  25.080  1.00  0.00    +0.000 C 
ATOM     77  C59 UNL A   1       5.449   5.207  25.852  1.00  0.00    +0.000 C 
ATOM     78  F11 UNL A   1       4.633   4.253  26.322  1.00  0.00    +0.000 F 
ATOM     79  C60 UNL A   1       5.210   6.533  26.229  1.00  0.00    +0.000 C 
ATOM     80  F12 UNL A   1       4.163   6.833  27.009  1.00  0.00    +0.000 F 
ATOM     81  C61 UNL A   1       6.106   7.528  25.878  1.00  0.00    +0.000 C 
ATOM     82  F13 UNL A   1       5.934   8.785  26.308  1.00  0.00    +0.000 F 
ATOM     83  C62 UNL A   1       7.225   7.199  25.136  1.00  0.00    +0.000 C 
ATOM     84  F14 UNL A   1       8.181   8.109  24.946  1.00  0.00    +0.000 F 
ATOM     85  C63 UNL A   1       7.433   5.895  24.703  1.00  0.00    +0.000 C 
ATOM     86  F15 UNL A   1       8.563   5.633  24.029  1.00  0.00    +0.000 F 
ENDBRANCH   75   76
TORSDOF 20
ENDMDL
MODEL 8
REMARK VINA RESULT:      -8.8     30.269     36.354
ROOT
ATOM    135  H36 UNL A   1      10.598  10.888  24.196  1.00  0.00    +0.000 H 
ATOM    136  H37 UNL A   1      11.347   9.296  22.198  1.00  0.00    +0.000 H 
ATOM    137  H38 UNL A   1       8.534  11.882  20.881  1.00  0.00    +0.000 H 
ATOM    138  H39 UNL A   1      14.976  13.926  16.237  1.00  0.00    +0.000 H 
ATOM    139  H40 UNL A   1      15.983  13.963  18.579  1.00  0.00    +0.000 H 
ATOM    140  H41 UNL A   1      11.930  13.185  19.016  1.00  0.00    +0.000 H 
ATOM    141  H42 UNL A   1       9.560  14.306  17.155  1.00  0.00    +0.000 H 
ATOM    142  H43 UNL A   1       8.942  12.945  19.260  1.00  0.00    +0.000 H 
ATOM    143  H44 UNL A   1      10.965  16.118  23.418  1.00  0.00    +0.000 H 
ATOM    144  H45 UNL A   1      12.938  16.533  21.813  1.00  0.00    +0.000 H 
ATOM     39  C34 UNL A   1      13.964  14.103  20.673  1.00  0.00    +0.000 C 
ATOM     40  C35 UNL A   1      12.748  14.289  21.511  1.00  0.00    +0.000 C 
ATOM     41  N3  UNL A   1      11.952  13.382  21.970  1.00  0.00    +0.000 N 
ATOM     42  C36 UNL A   1      10.940  14.062  22.645  1.00  0.00    +0.000 C 
ATOM     43  C37 UNL A   1       9.710  13.502  22.814  1.00  0.00    +0.000 C 
ATOM     55  C44 UNL A   1       9.757  12.079  22.589  1.00  0.00    +0.000 C 
ATOM     56  C45 UNL A   1      10.417  11.024  23.190  1.00  0.00    +0.000 C 
ATOM     57  C46 UNL A   1      10.792  10.163  22.117  1.00  0.00    +0.000 C 
ATOM     58  C47 UNL A   1      10.278  10.699  20.937  1.00  0.00    +0.000 C 
ATOM     59  N4  UNL A   1       9.348  11.611  21.365  1.00  0.00    +0.000 N 
ATOM     60  C48 UNL A   1      10.617  10.503  19.550  1.00  0.00    +0.000 C 
ATOM     72  C55 UNL A   1      10.322  11.375  18.545  1.00  0.00    +0.000 C 
ATOM     73  N5  UNL A   1      11.024  11.336  17.351  1.00  0.00    +0.000 N 
ATOM     74  C56 UNL A   1      10.978  12.559  16.907  1.00  0.00    +0.000 C 
ATOM     75  C57 UNL A   1      12.135  13.229  16.273  1.00  0.00    +0.000 C 
ATOM     87  C64 UNL A   1      13.063  13.439  17.238  1.00  0.00    +0.000 C 
ATOM     88  C65 UNL A   1      14.462  13.774  17.120  1.00  0.00    +0.000 C 
ATOM     89  C66 UNL A   1      14.980  13.858  18.362  1.00  0.00    +0.000 C 
ATOM     90  C67 UNL A   1      13.905  13.779  19.361  1.00  0.00    +0.000 C 
ATOM     91  N6  UNL A   1      12.801  13.422  18.624  1.00  0.00    +0.000 N 
ATOM     92  C68 UNL A   1       9.937  13.401  17.474  1.00  0.00    +0.000 C 
ATOM     93  C69 UNL A   1       9.614  12.653  18.534  1.00  0.00    +0.000 C 
ATOM     94  C70 UNL A   1      11.396  15.418  22.794  1.00  0.00    +0.000 C 
ATOM     95  C71 UNL A   1      12.454  15.643  22.013  1.00  0.00    +0.000 C 
ENDROOT
BRANCH   39   38
ATOM     97  C73 UNL A   1      16.613  16.391  21.828  1.00  0.00    +0.000 C 
ATOM     35  C30 UNL A   1      17.450  15.536  22.535  1.00  0.00    +0.000 C 
ATOM     36  C31 UNL A   1      17.230  14.154  22.537  1.00  0.00    +0.000 C 
ATOM    133  H34 UNL A   1      17.883  13.518  23.020  1.00  0.00    +0.000 H 
ATOM     37  C32 UNL A   1      16.112  13.654  21.873  1.00  0.00    +0.000 C 
ATOM     38  C33 UNL A   1      15.206  14.552  21.289  1.00  0.00    +0.000 C 
ATOM    134  H35 UNL A   1      15.952  12.636  21.810  1.00  0.00    +0.000 H 
ATOM    145  H46 UNL A   1      14.695  16.581  21.025  1.00  0.00    +0.000 H 
ATOM    146  H47 UNL A   1      16.889  17.372  21.669  1.00  0.00    +0.000 H 
ATOM     96  C72 UNL A   1      15.423  15.924  21.344  1.00  0.00    +0.000 C 
BRANCH   35   33
ATOM     33  C29 UNL A   1      18.548  16.143  23.314  1.00  0.00    +0.000 C 
ATOM     34  O2  UNL A   1      19.686  15.751  23.192  1.00  0.00    +0.000 O 
BRANCH   33   32
ATOM    132  H33 UNL A   1      17.281  17.439  24.228  1.00  0.00    +0.000 H 
ATOM     32  N2  UNL A   1      18.229  17.177  24.185  1.00  0.00    +0.000 N 
BRANCH   32   31
ATOM    130  H31 UNL A   1      18.697  18.047  26.006  1.00  0.00    +0.000 H 
ATOM    131  H32 UNL A   1      20.057  17.354  25.116  1.00  0.00    +0.000 H 
ATOM     31  C28 UNL A   1      19.151  17.917  25.047  1.00  0.00    +0.000 C 
BRANCH   31   30
ATOM    129  H30 UNL A   1      19.147  19.298  23.469  1.00  0.00    +0.000 H 
ATOM     30  C27 UNL A   1      19.496  19.284  24.480  1.00  0.00    +0.000 C 
ATOM    128  H29 UNL A   1      20.555  19.420  24.552  1.00  0.00    +0.000 H 
BRANCH   30   29
ATOM     29  C26 UNL A   1      18.809  20.452  25.204  1.00  0.00    +0.000 C 
ATOM    126  H27 UNL A   1      18.917  20.290  26.257  1.00  0.00    +0.000 H 
ATOM    127  H28 UNL A   1      19.290  21.334  24.836  1.00  0.00    +0.000 H 
BRANCH   29   28
ATOM    124  H25 UNL A   1      17.215  21.506  24.270  1.00  0.00    +0.000 H 
ATOM     28  C25 UNL A   1      17.314  20.660  24.919  1.00  0.00    +0.000 C 
ATOM    125  H26 UNL A   1      16.967  19.743  24.488  1.00  0.00    +0.000 H 
BRANCH   28   27
ATOM    122  H23 UNL A   1      16.949  20.526  27.006  1.00  0.00    +0.000 H 
ATOM     27  C24 UNL A   1      16.435  20.904  26.147  1.00  0.00    +0.000 C 
ATOM    123  H24 UNL A   1      16.264  21.959  26.192  1.00  0.00    +0.000 H 
BRANCH   27   26
ATOM    121  H22 UNL A   1      15.029  19.490  26.843  1.00  0.00    +0.000 H 
ATOM     26  C23 UNL A   1      15.060  20.244  26.085  1.00  0.00    +0.000 C 
ATOM    120  H21 UNL A   1      14.922  19.829  25.109  1.00  0.00    +0.000 H 
BRANCH   26   25
ATOM     25  N1  UNL A   1      13.985  21.171  26.349  1.00  0.00    +0.000 N 
ATOM    119  H20 UNL A   1      14.256  22.039  26.727  1.00  0.00    +0.000 H 
BRANCH   25   23
ATOM     23  C22 UNL A   1      12.645  21.008  26.146  1.00  0.00    +0.000 C 
ATOM     24  O1  UNL A   1      12.091  20.071  26.729  1.00  0.00    +0.000 O 
BRANCH   23   22
ATOM    118  H19 UNL A   1      12.601  22.530  24.698  1.00  0.00    +0.000 H 
ATOM    117  H18 UNL A   1      11.157  22.462  25.736  1.00  0.00    +0.000 H 
ATOM     22  C21 UNL A   1      11.880  21.903  25.179  1.00  0.00    +0.000 C 
BRANCH   22   21
ATOM      2  C2  UNL A   1       7.645  20.144  24.628  1.00  0.00    +0.000 C 
ATOM     99  C74 UNL A   1       8.739  21.159  25.075  1.00  0.00    +0.000 C 
ATOM      4  C4  UNL A   1       7.946  19.911  23.109  1.00  0.00    +0.000 C 
ATOM      5  C5  UNL A   1       9.395  20.213  23.031  1.00  0.00    +0.000 C 
ATOM     98  N7  UNL A   1       9.821  20.901  24.133  1.00  0.00    +0.000 N 
ATOM      6  C6  UNL A   1      10.477  20.023  22.216  1.00  0.00    +0.000 C 
ATOM    106  H7  UNL A   1       7.376  20.576  22.494  1.00  0.00    +0.000 H 
ATOM    107  H8  UNL A   1       7.691  18.931  22.765  1.00  0.00    +0.000 H 
ATOM     13  C13 UNL A   1      11.602  20.631  22.879  1.00  0.00    +0.000 C 
ATOM    147  H48 UNL A   1       9.050  20.971  26.082  1.00  0.00    +0.000 H 
ATOM    148  H49 UNL A   1       8.402  22.174  25.069  1.00  0.00    +0.000 H 
ATOM     21  C20 UNL A   1      11.162  21.152  24.097  1.00  0.00    +0.000 C 
BRANCH    2    1
ATOM      1  C1  UNL A   1       6.242  20.703  24.860  1.00  0.00    +0.000 C 
ATOM    100  H1  UNL A   1       5.737  20.107  25.591  1.00  0.00    +0.000 H 
ATOM    101  H2  UNL A   1       5.694  20.683  23.942  1.00  0.00    +0.000 H 
ATOM    102  H3  UNL A   1       6.313  21.711  25.211  1.00  0.00    +0.000 H 
ENDBRANCH    2    1
BRANCH    2    3
ATOM    105  H6  UNL A   1       8.483  18.931  26.192  1.00  0.00    +0.000 H 
ATOM      3  C3  UNL A   1       7.779  18.814  25.395  1.00  0.00    +0.000 C 
ATOM    103  H4  UNL A   1       8.119  18.050  24.727  1.00  0.00    +0.000 H 
ATOM    104  H5  UNL A   1       6.827  18.538  25.797  1.00  0.00    +0.000 H 
ENDBRANCH    2    3
BRANCH    6    7
ATOM      7  C7  UNL A   1      10.477  19.380  20.920  1.00  0.00    +0.000 C 
ATOM      8  C8  UNL A   1      10.222  18.011  20.818  1.00  0.00    +0.000 C 
ATOM      9  C9  UNL A   1       9.932  17.455  19.573  1.00  0.00    +0.000 C 
ATOM     10  C10 UNL A   1       9.912  18.260  18.431  1.00  0.00    +0.000 C 
ATOM     11  C11 UNL A   1      10.229  19.615  18.522  1.00  0.00    +0.000 C 
ATOM     12  C12 UNL A   1      10.509  20.174  19.765  1.00  0.00    +0.000 C 
ATOM    108  H9  UNL A   1      10.249  17.413  21.659  1.00  0.00    +0.000 H 
ATOM    109  H10 UNL A   1       9.731  16.446  19.493  1.00  0.00    +0.000 H 
ATOM    111  H12 UNL A   1      10.255  20.199  17.671  1.00  0.00    +0.000 H 
ATOM    112  H13 UNL A   1      10.743  21.176  19.837  1.00  0.00    +0.000 H 
ATOM    110  H11 UNL A   1       9.660  17.852  17.517  1.00  0.00    +0.000 H 
ENDBRANCH    6    7
BRANCH   13   14
ATOM     14  C14 UNL A   1      12.957  20.717  22.345  1.00  0.00    +0.000 C 
ATOM     15  C15 UNL A   1      13.849  19.654  22.553  1.00  0.00    +0.000 C 
ATOM     16  C16 UNL A   1      15.195  19.777  22.202  1.00  0.00    +0.000 C 
ATOM    113  H14 UNL A   1      13.506  18.773  22.968  1.00  0.00    +0.000 H 
ATOM     17  C17 UNL A   1      15.653  20.962  21.628  1.00  0.00    +0.000 C 
ATOM     19  C18 UNL A   1      14.777  22.024  21.411  1.00  0.00    +0.000 C 
ATOM     20  C19 UNL A   1      13.436  21.906  21.786  1.00  0.00    +0.000 C 
ATOM    116  H17 UNL A   1      12.794  22.702  21.647  1.00  0.00    +0.000 H 
ATOM    114  H15 UNL A   1      15.848  18.995  22.366  1.00  0.00    +0.000 H 
ATOM    115  H16 UNL A   1      15.119  22.894  20.975  1.00  0.00    +0.000 H 
ATOM     18 Cl1  UNL A   1      17.315  21.127  21.215  1.00  0.00    +0.000 Cl
ENDBRANCH   13   14
ENDBRANCH   22   21
ENDBRANCH   23   22
ENDBRANCH   25   23
ENDBRANCH   26   25
ENDBRANCH   27   26
ENDBRANCH   28   27
ENDBRANCH   29   28
ENDBRANCH   30   29
ENDBRANCH   31   30
ENDBRANCH   32   31
ENDBRANCH   33   32
ENDBRANCH   35   33
ENDBRANCH   39   38
BRANCH   43   44
ATOM     44  C38 UNL A   1       8.405  14.268  22.823  1.00  0.00    +0.000 C 
ATOM     45  C39 UNL A   1       8.002  14.948  21.653  1.00  0.00    +0.000 C 
ATOM     46  F1  UNL A   1       8.615  14.718  20.483  1.00  0.00    +0.000 F 
ATOM     47  C40 UNL A   1       7.022  15.945  21.675  1.00  0.00    +0.000 C 
ATOM     48  F2  UNL A   1       6.767  16.650  20.565  1.00  0.00    +0.000 F 
ATOM     49  C41 UNL A   1       6.365  16.257  22.849  1.00  0.00    +0.000 C 
ATOM     50  F3  UNL A   1       5.470  17.254  22.886  1.00  0.00    +0.000 F 
ATOM     51  C42 UNL A   1       6.675  15.564  23.998  1.00  0.00    +0.000 C 
ATOM     52  F4  UNL A   1       6.058  15.861  25.151  1.00  0.00    +0.000 F 
ATOM     53  C43 UNL A   1       7.689  14.607  23.992  1.00  0.00    +0.000 C 
ATOM     54  F5  UNL A   1       8.004  14.112  25.194  1.00  0.00    +0.000 F 
ENDBRANCH   43   44
BRANCH   60   61
ATOM     65  F7  UNL A   1      15.096   8.426  19.334  1.00  0.00    +0.000 F 
ATOM     66  C52 UNL A   1      13.204   7.129  18.784  1.00  0.00    +0.000 C 
ATOM     67  F8  UNL A   1      13.979   6.053  18.590  1.00  0.00    +0.000 F 
ATOM     68  C53 UNL A   1      11.829   7.034  18.627  1.00  0.00    +0.000 C 
ATOM     69  F9  UNL A   1      11.274   5.859  18.303  1.00  0.00    +0.000 F 
ATOM     70  C54 UNL A   1      11.018   8.147  18.833  1.00  0.00    +0.000 C 
ATOM     71  F10 UNL A   1       9.691   8.014  18.691  1.00  0.00    +0.000 F 
ATOM     61  C49 UNL A   1      11.560   9.375  19.225  1.00  0.00    +0.000 C 
ATOM     62  C50 UNL A   1      12.953   9.438  19.409  1.00  0.00    +0.000 C 
ATOM     63  F6  UNL A   1      13.535  10.550  19.873  1.00  0.00    +0.000 F 
ATOM     64  C51 UNL A   1      13.769   8.333  19.167  1.00  0.00    +0.000 C 
ENDBRANCH   60   61
BRANCH   75   76
ATOM     76  C58 UNL A   1      11.986  13.961  15.002  1.00  0.00    +0.000 C 
ATOM     77  C59 UNL A   1      11.779  15.349  14.973  1.00  0.00    +0.000 C 
ATOM     78  F11 UNL A   1      11.448  16.001  16.096  1.00  0.00    +0.000 F 
ATOM     79  C60 UNL A   1      12.002  16.094  13.811  1.00  0.00    +0.000 C 
ATOM     80  F12 UNL A   1      11.846  17.425  13.824  1.00  0.00    +0.000 F 
ATOM     81  C61 UNL A   1      12.478  15.475  12.668  1.00  0.00    +0.000 C 
ATOM     82  F13 UNL A   1      12.779  16.192  11.577  1.00  0.00    +0.000 F 
ATOM     83  C62 UNL A   1      12.709  14.112  12.684  1.00  0.00    +0.000 C 
ATOM     84  F14 UNL A   1      13.332  13.537  11.654  1.00  0.00    +0.000 F 
ATOM     85  C63 UNL A   1      12.426  13.356  13.815  1.00  0.00    +0.000 C 
ATOM     86  F15 UNL A   1      12.719  12.047  13.781  1.00  0.00    +0.000 F 
ENDBRANCH   75   76
TORSDOF 20
ENDMDL
MODEL 9
REMARK VINA RESULT:      -8.8      3.692      7.906
ROOT
ATOM    135  H36 UNL A   1      41.303  32.596  29.184  1.00  0.00    +0.000 H 
ATOM    136  H37 UNL A   1      42.950  34.076  30.663  1.00  0.00    +0.000 H 
ATOM    137  H38 UNL A   1      39.131  34.770  31.791  1.00  0.00    +0.000 H 
ATOM    138  H39 UNL A   1      42.353  31.653  38.658  1.00  0.00    +0.000 H 
ATOM    139  H40 UNL A   1      43.050  29.924  36.918  1.00  0.00    +0.000 H 
ATOM    140  H41 UNL A   1      40.672  32.713  34.969  1.00  0.00    +0.000 H 
ATOM    141  H42 UNL A   1      38.190  34.320  36.233  1.00  0.00    +0.000 H 
ATOM    142  H43 UNL A   1      38.688  34.592  33.714  1.00  0.00    +0.000 H 
ATOM    143  H44 UNL A   1      37.937  29.398  31.738  1.00  0.00    +0.000 H 
ATOM    144  H45 UNL A   1      39.071  28.662  33.933  1.00  0.00    +0.000 H 
ATOM     39  C34 UNL A   1      41.497  30.108  34.461  1.00  0.00    +0.000 C 
ATOM     40  C35 UNL A   1      40.492  30.349  33.390  1.00  0.00    +0.000 C 
ATOM     41  N3  UNL A   1      40.549  31.205  32.424  1.00  0.00    +0.000 N 
ATOM     42  C36 UNL A   1      39.348  31.082  31.729  1.00  0.00    +0.000 C 
ATOM     43  C37 UNL A   1      38.850  32.118  30.997  1.00  0.00    +0.000 C 
ATOM     55  C44 UNL A   1      39.873  33.100  30.736  1.00  0.00    +0.000 C 
ATOM     56  C45 UNL A   1      41.080  33.088  30.063  1.00  0.00    +0.000 C 
ATOM     57  C46 UNL A   1      41.948  33.903  30.847  1.00  0.00    +0.000 C 
ATOM     58  C47 UNL A   1      41.208  34.425  31.906  1.00  0.00    +0.000 C 
ATOM     59  N4  UNL A   1      39.904  34.217  31.534  1.00  0.00    +0.000 N 
ATOM     60  C48 UNL A   1      41.589  34.983  33.179  1.00  0.00    +0.000 C 
ATOM     72  C55 UNL A   1      40.772  35.074  34.266  1.00  0.00    +0.000 C 
ATOM     73  N5  UNL A   1      41.306  35.220  35.536  1.00  0.00    +0.000 N 
ATOM     74  C56 UNL A   1      40.423  34.675  36.324  1.00  0.00    +0.000 C 
ATOM     75  C57 UNL A   1      40.792  33.830  37.481  1.00  0.00    +0.000 C 
ATOM     87  C64 UNL A   1      41.313  32.677  36.993  1.00  0.00    +0.000 C 
ATOM     88  C65 UNL A   1      42.087  31.657  37.660  1.00  0.00    +0.000 C 
ATOM     89  C66 UNL A   1      42.400  30.709  36.753  1.00  0.00    +0.000 C 
ATOM     90  C67 UNL A   1      41.681  30.959  35.496  1.00  0.00    +0.000 C 
ATOM     91  N6  UNL A   1      41.135  32.207  35.676  1.00  0.00    +0.000 N 
ATOM     92  C68 UNL A   1      39.089  34.516  35.768  1.00  0.00    +0.000 C 
ATOM     93  C69 UNL A   1      39.375  34.701  34.476  1.00  0.00    +0.000 C 
ATOM     94  C70 UNL A   1      38.734  29.867  32.196  1.00  0.00    +0.000 C 
ATOM     95  C71 UNL A   1      39.339  29.435  33.303  1.00  0.00    +0.000 C 
ENDROOT
BRANCH   39   38
ATOM     97  C73 UNL A   1      42.166  26.637  35.507  1.00  0.00    +0.000 C 
ATOM     35  C30 UNL A   1      43.001  26.182  34.495  1.00  0.00    +0.000 C 
ATOM     36  C31 UNL A   1      43.474  27.054  33.508  1.00  0.00    +0.000 C 
ATOM    133  H34 UNL A   1      44.135  26.724  32.788  1.00  0.00    +0.000 H 
ATOM     37  C32 UNL A   1      43.034  28.376  33.516  1.00  0.00    +0.000 C 
ATOM     38  C33 UNL A   1      42.078  28.771  34.464  1.00  0.00    +0.000 C 
ATOM    134  H35 UNL A   1      43.406  29.055  32.834  1.00  0.00    +0.000 H 
ATOM    145  H46 UNL A   1      40.800  28.134  36.014  1.00  0.00    +0.000 H 
ATOM    146  H47 UNL A   1      41.982  26.046  36.333  1.00  0.00    +0.000 H 
ATOM     96  C72 UNL A   1      41.589  27.872  35.404  1.00  0.00    +0.000 C 
BRANCH   35   33
ATOM     33  C29 UNL A   1      43.335  24.744  34.478  1.00  0.00    +0.000 C 
ATOM     34  O2  UNL A   1      42.704  23.953  35.142  1.00  0.00    +0.000 O 
BRANCH   33   32
ATOM    132  H33 UNL A   1      45.298  24.481  34.032  1.00  0.00    +0.000 H 
ATOM     32  N2  UNL A   1      44.393  24.334  33.676  1.00  0.00    +0.000 N 
BRANCH   32   31
ATOM    130  H31 UNL A   1      44.832  22.777  32.382  1.00  0.00    +0.000 H 
ATOM    131  H32 UNL A   1      43.268  23.562  32.133  1.00  0.00    +0.000 H 
ATOM     31  C28 UNL A   1      44.304  23.706  32.357  1.00  0.00    +0.000 C 
BRANCH   31   30
ATOM    129  H30 UNL A   1      45.718  24.033  30.845  1.00  0.00    +0.000 H 
ATOM     30  C27 UNL A   1      44.898  24.577  31.264  1.00  0.00    +0.000 C 
ATOM    128  H29 UNL A   1      45.201  25.506  31.701  1.00  0.00    +0.000 H 
BRANCH   30   29
ATOM     29  C26 UNL A   1      43.929  24.880  30.110  1.00  0.00    +0.000 C 
ATOM    126  H27 UNL A   1      42.958  25.034  30.534  1.00  0.00    +0.000 H 
ATOM    127  H28 UNL A   1      44.341  25.734  29.614  1.00  0.00    +0.000 H 
BRANCH   29   28
ATOM    124  H25 UNL A   1      44.001  24.266  28.076  1.00  0.00    +0.000 H 
ATOM     28  C25 UNL A   1      43.795  23.806  29.020  1.00  0.00    +0.000 C 
ATOM    125  H26 UNL A   1      44.485  23.032  29.284  1.00  0.00    +0.000 H 
BRANCH   28   27
ATOM    122  H23 UNL A   1      42.347  22.420  29.721  1.00  0.00    +0.000 H 
ATOM     27  C24 UNL A   1      42.425  23.131  28.924  1.00  0.00    +0.000 C 
ATOM    123  H24 UNL A   1      41.697  23.911  28.988  1.00  0.00    +0.000 H 
BRANCH   27   26
ATOM    121  H22 UNL A   1      41.384  21.693  27.779  1.00  0.00    +0.000 H 
ATOM     26  C23 UNL A   1      42.167  22.402  27.608  1.00  0.00    +0.000 C 
ATOM    120  H21 UNL A   1      43.072  21.923  27.298  1.00  0.00    +0.000 H 
BRANCH   26   25
ATOM     25  N1  UNL A   1      41.730  23.289  26.557  1.00  0.00    +0.000 N 
ATOM    119  H20 UNL A   1      40.778  23.540  26.581  1.00  0.00    +0.000 H 
BRANCH   25   23
ATOM     23  C22 UNL A   1      42.457  23.828  25.534  1.00  0.00    +0.000 C 
ATOM     24  O1  UNL A   1      43.204  23.071  24.908  1.00  0.00    +0.000 O 
BRANCH   23   22
ATOM    118  H19 UNL A   1      41.383  25.624  25.345  1.00  0.00    +0.000 H 
ATOM    117  H18 UNL A   1      42.765  25.474  24.235  1.00  0.00    +0.000 H 
ATOM     22  C21 UNL A   1      42.402  25.319  25.229  1.00  0.00    +0.000 C 
BRANCH   22   21
ATOM      2  C2  UNL A   1      46.887  25.715  26.255  1.00  0.00    +0.000 C 
ATOM     99  C74 UNL A   1      45.622  25.516  25.369  1.00  0.00    +0.000 C 
ATOM      4  C4  UNL A   1      46.583  27.025  27.058  1.00  0.00    +0.000 C 
ATOM      5  C5  UNL A   1      45.100  27.038  27.075  1.00  0.00    +0.000 C 
ATOM     98  N7  UNL A   1      44.583  26.191  26.136  1.00  0.00    +0.000 N 
ATOM      6  C6  UNL A   1      44.052  27.618  27.735  1.00  0.00    +0.000 C 
ATOM    106  H7  UNL A   1      46.973  27.886  26.558  1.00  0.00    +0.000 H 
ATOM    107  H8  UNL A   1      47.025  27.047  28.031  1.00  0.00    +0.000 H 
ATOM     13  C13 UNL A   1      42.850  27.076  27.152  1.00  0.00    +0.000 C 
ATOM    147  H48 UNL A   1      45.398  24.476  25.246  1.00  0.00    +0.000 H 
ATOM    148  H49 UNL A   1      45.736  25.899  24.377  1.00  0.00    +0.000 H 
ATOM     21  C20 UNL A   1      43.218  26.160  26.166  1.00  0.00    +0.000 C 
BRANCH    2    1
ATOM      1  C1  UNL A   1      48.149  25.841  25.402  1.00  0.00    +0.000 C 
ATOM    100  H1  UNL A   1      48.991  25.480  25.955  1.00  0.00    +0.000 H 
ATOM    101  H2  UNL A   1      48.304  26.866  25.143  1.00  0.00    +0.000 H 
ATOM    102  H3  UNL A   1      48.034  25.262  24.509  1.00  0.00    +0.000 H 
ENDBRANCH    2    1
BRANCH    2    3
ATOM    105  H6  UNL A   1      46.158  23.979  27.292  1.00  0.00    +0.000 H 
ATOM      3  C3  UNL A   1      47.069  24.537  27.232  1.00  0.00    +0.000 C 
ATOM    103  H4  UNL A   1      47.321  24.914  28.202  1.00  0.00    +0.000 H 
ATOM    104  H5  UNL A   1      47.855  23.901  26.881  1.00  0.00    +0.000 H 
ENDBRANCH    2    3
BRANCH    6    7
ATOM      7  C7  UNL A   1      44.136  28.614  28.780  1.00  0.00    +0.000 C 
ATOM      8  C8  UNL A   1      44.776  28.314  29.984  1.00  0.00    +0.000 C 
ATOM      9  C9  UNL A   1      45.115  29.345  30.860  1.00  0.00    +0.000 C 
ATOM     10  C10 UNL A   1      44.801  30.668  30.542  1.00  0.00    +0.000 C 
ATOM     11  C11 UNL A   1      44.105  30.964  29.371  1.00  0.00    +0.000 C 
ATOM     12  C12 UNL A   1      43.775  29.938  28.491  1.00  0.00    +0.000 C 
ATOM    108  H9  UNL A   1      44.996  27.335  30.225  1.00  0.00    +0.000 H 
ATOM    109  H10 UNL A   1      45.598  29.129  31.746  1.00  0.00    +0.000 H 
ATOM    111  H12 UNL A   1      43.838  31.938  29.159  1.00  0.00    +0.000 H 
ATOM    112  H13 UNL A   1      43.261  30.152  27.622  1.00  0.00    +0.000 H 
ATOM    110  H11 UNL A   1      45.086  31.432  31.175  1.00  0.00    +0.000 H 
ENDBRANCH    6    7
BRANCH   13   14
ATOM     14  C14 UNL A   1      41.487  27.454  27.510  1.00  0.00    +0.000 C 
ATOM     15  C15 UNL A   1      40.882  28.545  26.867  1.00  0.00    +0.000 C 
ATOM     16  C16 UNL A   1      39.648  29.032  27.305  1.00  0.00    +0.000 C 
ATOM    113  H14 UNL A   1      41.353  28.991  26.064  1.00  0.00    +0.000 H 
ATOM     17  C17 UNL A   1      39.007  28.420  28.380  1.00  0.00    +0.000 C 
ATOM     19  C18 UNL A   1      39.594  27.333  29.024  1.00  0.00    +0.000 C 
ATOM     20  C19 UNL A   1      40.840  26.864  28.599  1.00  0.00    +0.000 C 
ATOM    116  H17 UNL A   1      41.285  26.074  29.093  1.00  0.00    +0.000 H 
ATOM    114  H15 UNL A   1      39.213  29.841  26.834  1.00  0.00    +0.000 H 
ATOM    115  H16 UNL A   1      39.109  26.876  29.812  1.00  0.00    +0.000 H 
ATOM     18 Cl1  UNL A   1      37.498  29.031  28.937  1.00  0.00    +0.000 Cl
ENDBRANCH   13   14
ENDBRANCH   22   21
ENDBRANCH   23   22
ENDBRANCH   25   23
ENDBRANCH   26   25
ENDBRANCH   27   26
ENDBRANCH   28   27
ENDBRANCH   29   28
ENDBRANCH   30   29
ENDBRANCH   31   30
ENDBRANCH   32   31
ENDBRANCH   33   32
ENDBRANCH   35   33
ENDBRANCH   39   38
BRANCH   43   44
ATOM     44  C38 UNL A   1      37.380  32.429  30.826  1.00  0.00    +0.000 C 
ATOM     45  C39 UNL A   1      36.861  32.594  29.524  1.00  0.00    +0.000 C 
ATOM     46  F1  UNL A   1      37.580  32.234  28.450  1.00  0.00    +0.000 F 
ATOM     47  C40 UNL A   1      35.632  33.216  29.288  1.00  0.00    +0.000 C 
ATOM     48  F2  UNL A   1      35.243  33.466  28.031  1.00  0.00    +0.000 F 
ATOM     49  C41 UNL A   1      34.846  33.640  30.343  1.00  0.00    +0.000 C 
ATOM     50  F3  UNL A   1      33.697  34.292  30.119  1.00  0.00    +0.000 F 
ATOM     51  C42 UNL A   1      35.281  33.428  31.632  1.00  0.00    +0.000 C 
ATOM     52  F4  UNL A   1      34.540  33.845  32.670  1.00  0.00    +0.000 F 
ATOM     53  C43 UNL A   1      36.530  32.858  31.870  1.00  0.00    +0.000 C 
ATOM     54  F5  UNL A   1      36.909  32.844  33.152  1.00  0.00    +0.000 F 
ENDBRANCH   43   44
BRANCH   60   61
ATOM     65  F7  UNL A   1      45.431  38.023  33.819  1.00  0.00    +0.000 F 
ATOM     66  C52 UNL A   1      45.768  35.696  34.009  1.00  0.00    +0.000 C 
ATOM     67  F8  UNL A   1      47.057  35.892  34.320  1.00  0.00    +0.000 F 
ATOM     68  C53 UNL A   1      45.252  34.410  33.962  1.00  0.00    +0.000 C 
ATOM     69  F9  UNL A   1      46.038  33.363  34.249  1.00  0.00    +0.000 F 
ATOM     70  C54 UNL A   1      43.912  34.200  33.645  1.00  0.00    +0.000 C 
ATOM     71  F10 UNL A   1      43.441  32.944  33.627  1.00  0.00    +0.000 F 
ATOM     61  C49 UNL A   1      43.050  35.272  33.393  1.00  0.00    +0.000 C 
ATOM     62  C50 UNL A   1      43.590  36.568  33.479  1.00  0.00    +0.000 C 
ATOM     63  F6  UNL A   1      42.810  37.648  33.344  1.00  0.00    +0.000 F 
ATOM     64  C51 UNL A   1      44.940  36.777  33.760  1.00  0.00    +0.000 C 
ENDBRANCH   60   61
BRANCH   75   76
ATOM     76  C58 UNL A   1      40.178  34.043  38.804  1.00  0.00    +0.000 C 
ATOM     77  C59 UNL A   1      40.500  35.157  39.594  1.00  0.00    +0.000 C 
ATOM     78  F11 UNL A   1      41.565  35.912  39.286  1.00  0.00    +0.000 F 
ATOM     79  C60 UNL A   1      39.679  35.563  40.651  1.00  0.00    +0.000 C 
ATOM     80  F12 UNL A   1      39.984  36.660  41.357  1.00  0.00    +0.000 F 
ATOM     81  C61 UNL A   1      38.498  34.891  40.912  1.00  0.00    +0.000 C 
ATOM     82  F13 UNL A   1      37.661  35.324  41.865  1.00  0.00    +0.000 F 
ATOM     83  C62 UNL A   1      38.153  33.804  40.132  1.00  0.00    +0.000 C 
ATOM     84  F14 UNL A   1      36.940  33.261  40.256  1.00  0.00    +0.000 F 
ATOM     85  C63 UNL A   1      38.996  33.356  39.122  1.00  0.00    +0.000 C 
ATOM     86  F15 UNL A   1      38.579  32.326  38.369  1.00  0.00    +0.000 F 
ENDBRANCH   75   76
TORSDOF 20
ENDMDL
MODEL 10
REMARK VINA RESULT:      -8.7     39.215     44.304
ROOT
ATOM    135  H36 UNL A   1      12.773  55.173   9.546  1.00  0.00    +0.000 H 
ATOM    136  H37 UNL A   1      14.427  53.140  10.015  1.00  0.00    +0.000 H 
ATOM    137  H38 UNL A   1      12.930  54.497  13.515  1.00  0.00    +0.000 H 
ATOM    138  H39 UNL A   1      10.082  46.809  13.358  1.00  0.00    +0.000 H 
ATOM    139  H40 UNL A   1       9.387  47.674  11.063  1.00  0.00    +0.000 H 
ATOM    140  H41 UNL A   1      11.116  50.860  13.085  1.00  0.00    +0.000 H 
ATOM    141  H42 UNL A   1      10.986  51.406  16.251  1.00  0.00    +0.000 H 
ATOM    142  H43 UNL A   1      12.086  53.181  14.733  1.00  0.00    +0.000 H 
ATOM    143  H44 UNL A   1       7.839  54.794  11.444  1.00  0.00    +0.000 H 
ATOM    144  H45 UNL A   1       7.198  52.298  11.463  1.00  0.00    +0.000 H 
ATOM     39  C34 UNL A   1       9.430  50.581  10.893  1.00  0.00    +0.000 C 
ATOM     40  C35 UNL A   1       9.431  52.051  11.122  1.00  0.00    +0.000 C 
ATOM     41  N3  UNL A   1      10.424  52.871  11.026  1.00  0.00    +0.000 N 
ATOM     42  C36 UNL A   1       9.930  54.121  11.391  1.00  0.00    +0.000 C 
ATOM     43  C37 UNL A   1      10.756  55.088  11.882  1.00  0.00    +0.000 C 
ATOM     55  C44 UNL A   1      12.134  54.786  11.583  1.00  0.00    +0.000 C 
ATOM     56  C45 UNL A   1      12.862  54.631  10.419  1.00  0.00    +0.000 C 
ATOM     57  C46 UNL A   1      13.762  53.558  10.686  1.00  0.00    +0.000 C 
ATOM     58  C47 UNL A   1      13.587  53.171  12.014  1.00  0.00    +0.000 C 
ATOM     59  N4  UNL A   1      12.892  54.212  12.574  1.00  0.00    +0.000 N 
ATOM     60  C48 UNL A   1      13.918  51.964  12.728  1.00  0.00    +0.000 C 
ATOM     72  C55 UNL A   1      13.336  51.564  13.895  1.00  0.00    +0.000 C 
ATOM     73  N5  UNL A   1      13.391  50.237  14.288  1.00  0.00    +0.000 N 
ATOM     74  C56 UNL A   1      12.315  50.066  15.003  1.00  0.00    +0.000 C 
ATOM     75  C57 UNL A   1      11.483  48.845  14.923  1.00  0.00    +0.000 C 
ATOM     87  C64 UNL A   1      10.877  48.844  13.711  1.00  0.00    +0.000 C 
ATOM     88  C65 UNL A   1      10.211  47.772  13.010  1.00  0.00    +0.000 C 
ATOM     89  C66 UNL A   1       9.787  48.248  11.822  1.00  0.00    +0.000 C 
ATOM     90  C67 UNL A   1       9.975  49.705  11.767  1.00  0.00    +0.000 C 
ATOM     91  N6  UNL A   1      10.728  49.978  12.884  1.00  0.00    +0.000 N 
ATOM     92  C68 UNL A   1      11.693  51.277  15.512  1.00  0.00    +0.000 C 
ATOM     93  C69 UNL A   1      12.309  52.174  14.736  1.00  0.00    +0.000 C 
ATOM     94  C70 UNL A   1       8.497  54.000  11.405  1.00  0.00    +0.000 C 
ATOM     95  C71 UNL A   1       8.137  52.716  11.359  1.00  0.00    +0.000 C 
ENDROOT
BRANCH   39   38
ATOM     97  C73 UNL A   1       6.432  49.335   9.148  1.00  0.00    +0.000 C 
ATOM     35  C30 UNL A   1       6.823  49.397   7.816  1.00  0.00    +0.000 C 
ATOM     36  C31 UNL A   1       8.137  49.726   7.467  1.00  0.00    +0.000 C 
ATOM    133  H34 UNL A   1       8.436  49.720   6.479  1.00  0.00    +0.000 H 
ATOM     37  C32 UNL A   1       9.033  50.063   8.478  1.00  0.00    +0.000 C 
ATOM     38  C33 UNL A   1       8.574  50.132   9.802  1.00  0.00    +0.000 C 
ATOM    134  H35 UNL A   1      10.022  50.258   8.258  1.00  0.00    +0.000 H 
ATOM    145  H46 UNL A   1       6.890  50.020  11.067  1.00  0.00    +0.000 H 
ATOM    146  H47 UNL A   1       5.530  48.905   9.405  1.00  0.00    +0.000 H 
ATOM     96  C72 UNL A   1       7.250  49.847  10.116  1.00  0.00    +0.000 C 
BRANCH   35   33
ATOM     33  C29 UNL A   1       5.792  49.143   6.789  1.00  0.00    +0.000 C 
ATOM     34  O2  UNL A   1       5.112  50.045   6.356  1.00  0.00    +0.000 O 
BRANCH   33   32
ATOM    132  H33 UNL A   1       5.498  47.719   5.372  1.00  0.00    +0.000 H 
ATOM     32  N2  UNL A   1       5.635  47.838   6.339  1.00  0.00    +0.000 N 
BRANCH   32   31
ATOM    130  H31 UNL A   1       5.373  46.869   8.151  1.00  0.00    +0.000 H 
ATOM    131  H32 UNL A   1       4.966  45.926   6.713  1.00  0.00    +0.000 H 
ATOM     31  C28 UNL A   1       5.653  46.620   7.150  1.00  0.00    +0.000 C 
BRANCH   31   30
ATOM    129  H30 UNL A   1       7.664  46.564   6.563  1.00  0.00    +0.000 H 
ATOM     30  C27 UNL A   1       7.023  45.964   7.173  1.00  0.00    +0.000 C 
ATOM    128  H29 UNL A   1       6.923  44.964   6.808  1.00  0.00    +0.000 H 
BRANCH   30   29
ATOM     29  C26 UNL A   1       7.664  45.907   8.569  1.00  0.00    +0.000 C 
ATOM    126  H27 UNL A   1       7.119  46.576   9.204  1.00  0.00    +0.000 H 
ATOM    127  H28 UNL A   1       7.616  44.878   8.858  1.00  0.00    +0.000 H 
BRANCH   29   28
ATOM    124  H25 UNL A   1       9.223  47.211   9.193  1.00  0.00    +0.000 H 
ATOM     28  C25 UNL A   1       9.150  46.284   8.664  1.00  0.00    +0.000 C 
ATOM    125  H26 UNL A   1       9.629  45.465   9.159  1.00  0.00    +0.000 H 
BRANCH   28   27
ATOM    122  H23 UNL A   1       9.182  46.846   6.617  1.00  0.00    +0.000 H 
ATOM     27  C24 UNL A   1       9.876  46.448   7.327  1.00  0.00    +0.000 C 
ATOM    123  H24 UNL A   1      10.706  47.097   7.510  1.00  0.00    +0.000 H 
BRANCH   27   26
ATOM    121  H22 UNL A   1      10.045  45.024   5.776  1.00  0.00    +0.000 H 
ATOM     26  C23 UNL A   1      10.453  45.156   6.756  1.00  0.00    +0.000 C 
ATOM    120  H21 UNL A   1      10.191  44.346   7.405  1.00  0.00    +0.000 H 
BRANCH   26   25
ATOM     25  N1  UNL A   1      11.891  45.198   6.626  1.00  0.00    +0.000 N 
ATOM    119  H20 UNL A   1      12.336  44.324   6.541  1.00  0.00    +0.000 H 
BRANCH   25   23
ATOM     23  C22 UNL A   1      12.717  46.286   6.607  1.00  0.00    +0.000 C 
ATOM     24  O1  UNL A   1      13.155  46.687   7.688  1.00  0.00    +0.000 O 
BRANCH   23   22
ATOM    118  H19 UNL A   1      12.594  46.440   4.515  1.00  0.00    +0.000 H 
ATOM    117  H18 UNL A   1      14.086  47.111   5.215  1.00  0.00    +0.000 H 
ATOM     22  C21 UNL A   1      13.024  47.017   5.306  1.00  0.00    +0.000 C 
BRANCH   22   21
ATOM      2  C2  UNL A   1       9.260  48.860   3.365  1.00  0.00    +0.000 C 
ATOM     99  C74 UNL A   1      10.128  47.805   4.113  1.00  0.00    +0.000 C 
ATOM      4  C4  UNL A   1       9.501  50.183   4.167  1.00  0.00    +0.000 C 
ATOM      5  C5  UNL A   1      10.838  49.945   4.761  1.00  0.00    +0.000 C 
ATOM     98  N7  UNL A   1      11.173  48.620   4.718  1.00  0.00    +0.000 N 
ATOM      6  C6  UNL A   1      11.877  50.618   5.343  1.00  0.00    +0.000 C 
ATOM    106  H7  UNL A   1       8.757  50.319   4.924  1.00  0.00    +0.000 H 
ATOM    107  H8  UNL A   1       9.448  51.067   3.566  1.00  0.00    +0.000 H 
ATOM     13  C13 UNL A   1      12.881  49.633   5.656  1.00  0.00    +0.000 C 
ATOM    147  H48 UNL A   1      10.541  47.092   3.430  1.00  0.00    +0.000 H 
ATOM    148  H49 UNL A   1       9.574  47.228   4.823  1.00  0.00    +0.000 H 
ATOM     21  C20 UNL A   1      12.420  48.388   5.225  1.00  0.00    +0.000 C 
BRANCH    2    1
ATOM      1  C1  UNL A   1       7.786  48.455   3.348  1.00  0.00    +0.000 C 
ATOM    100  H1  UNL A   1       7.614  47.704   4.090  1.00  0.00    +0.000 H 
ATOM    101  H2  UNL A   1       7.533  48.069   2.384  1.00  0.00    +0.000 H 
ATOM    102  H3  UNL A   1       7.179  49.310   3.561  1.00  0.00    +0.000 H 
ENDBRANCH    2    1
BRANCH    2    3
ATOM    105  H6  UNL A   1       9.022  48.605   1.244  1.00  0.00    +0.000 H 
ATOM      3  C3  UNL A   1       9.738  49.038   1.911  1.00  0.00    +0.000 C 
ATOM    103  H4  UNL A   1      10.683  48.551   1.784  1.00  0.00    +0.000 H 
ATOM    104  H5  UNL A   1       9.842  50.081   1.695  1.00  0.00    +0.000 H 
ENDBRANCH    2    3
BRANCH    6    7
ATOM      7  C7  UNL A   1      11.932  52.035   5.630  1.00  0.00    +0.000 C 
ATOM      8  C8  UNL A   1      11.297  52.545   6.764  1.00  0.00    +0.000 C 
ATOM      9  C9  UNL A   1      11.593  53.837   7.196  1.00  0.00    +0.000 C 
ATOM     10  C10 UNL A   1      12.507  54.622   6.490  1.00  0.00    +0.000 C 
ATOM     11  C11 UNL A   1      13.094  54.138   5.322  1.00  0.00    +0.000 C 
ATOM     12  C12 UNL A   1      12.808  52.845   4.894  1.00  0.00    +0.000 C 
ATOM    108  H9  UNL A   1      10.611  51.970   7.278  1.00  0.00    +0.000 H 
ATOM    109  H10 UNL A   1      11.134  54.215   8.040  1.00  0.00    +0.000 H 
ATOM    111  H12 UNL A   1      13.737  54.736   4.779  1.00  0.00    +0.000 H 
ATOM    112  H13 UNL A   1      13.241  52.482   4.030  1.00  0.00    +0.000 H 
ATOM    110  H11 UNL A   1      12.751  55.564   6.834  1.00  0.00    +0.000 H 
ENDBRANCH    6    7
BRANCH   13   14
ATOM     14  C14 UNL A   1      14.143  49.894   6.338  1.00  0.00    +0.000 C 
ATOM     15  C15 UNL A   1      14.188  50.852   7.363  1.00  0.00    +0.000 C 
ATOM     16  C16 UNL A   1      15.409  51.242   7.918  1.00  0.00    +0.000 C 
ATOM    113  H14 UNL A   1      13.310  51.271   7.710  1.00  0.00    +0.000 H 
ATOM     17  C17 UNL A   1      16.591  50.665   7.458  1.00  0.00    +0.000 C 
ATOM     19  C18 UNL A   1      16.561  49.709   6.445  1.00  0.00    +0.000 C 
ATOM     20  C19 UNL A   1      15.340  49.338   5.876  1.00  0.00    +0.000 C 
ATOM    116  H17 UNL A   1      15.321  48.648   5.108  1.00  0.00    +0.000 H 
ATOM    114  H15 UNL A   1      15.436  51.954   8.664  1.00  0.00    +0.000 H 
ATOM    115  H16 UNL A   1      17.438  49.276   6.117  1.00  0.00    +0.000 H 
ATOM     18 Cl1  UNL A   1      18.100  51.159   8.122  1.00  0.00    +0.000 Cl
ENDBRANCH   13   14
ENDBRANCH   22   21
ENDBRANCH   23   22
ENDBRANCH   25   23
ENDBRANCH   26   25
ENDBRANCH   27   26
ENDBRANCH   28   27
ENDBRANCH   29   28
ENDBRANCH   30   29
ENDBRANCH   31   30
ENDBRANCH   32   31
ENDBRANCH   33   32
ENDBRANCH   35   33
ENDBRANCH   39   38
BRANCH   43   44
ATOM     44  C38 UNL A   1      10.369  56.104  12.933  1.00  0.00    +0.000 C 
ATOM     45  C39 UNL A   1      10.555  57.476  12.660  1.00  0.00    +0.000 C 
ATOM     46  F1  UNL A   1      10.821  57.896  11.414  1.00  0.00    +0.000 F 
ATOM     47  C40 UNL A   1      10.561  58.441  13.672  1.00  0.00    +0.000 C 
ATOM     48  F2  UNL A   1      10.869  59.711  13.379  1.00  0.00    +0.000 F 
ATOM     49  C41 UNL A   1      10.322  58.081  14.985  1.00  0.00    +0.000 C 
ATOM     50  F3  UNL A   1      10.389  58.992  15.965  1.00  0.00    +0.000 F 
ATOM     51  C42 UNL A   1      10.061  56.762  15.284  1.00  0.00    +0.000 C 
ATOM     52  F4  UNL A   1       9.840  56.391  16.553  1.00  0.00    +0.000 F 
ATOM     53  C43 UNL A   1      10.107  55.791  14.285  1.00  0.00    +0.000 C 
ATOM     54  F5  UNL A   1       9.990  54.531  14.718  1.00  0.00    +0.000 F 
ENDBRANCH   43   44
BRANCH   60   61
ATOM     65  F7  UNL A   1      14.682  48.082   9.767  1.00  0.00    +0.000 F 
ATOM     66  C52 UNL A   1      16.541  49.288  10.579  1.00  0.00    +0.000 C 
ATOM     67  F8  UNL A   1      17.374  48.504   9.880  1.00  0.00    +0.000 F 
ATOM     68  C53 UNL A   1      17.043  50.329  11.345  1.00  0.00    +0.000 C 
ATOM     69  F9  UNL A   1      18.362  50.565  11.368  1.00  0.00    +0.000 F 
ATOM     70  C54 UNL A   1      16.183  51.151  12.068  1.00  0.00    +0.000 C 
ATOM     71  F10 UNL A   1      16.702  52.160  12.783  1.00  0.00    +0.000 F 
ATOM     61  C49 UNL A   1      14.797  50.967  12.023  1.00  0.00    +0.000 C 
ATOM     62  C50 UNL A   1      14.310  49.925  11.213  1.00  0.00    +0.000 C 
ATOM     63  F6  UNL A   1      12.995  49.743  11.044  1.00  0.00    +0.000 F 
ATOM     64  C51 UNL A   1      15.174  49.079  10.519  1.00  0.00    +0.000 C 
ENDBRANCH   60   61
BRANCH   75   76
ATOM     76  C58 UNL A   1      11.041  48.147  16.144  1.00  0.00    +0.000 C 
ATOM     77  C59 UNL A   1       9.825  48.460  16.771  1.00  0.00    +0.000 C 
ATOM     78  F11 UNL A   1       9.165  49.577  16.433  1.00  0.00    +0.000 F 
ATOM     79  C60 UNL A   1       9.229  47.584  17.683  1.00  0.00    +0.000 C 
ATOM     80  F12 UNL A   1       8.043  47.886  18.230  1.00  0.00    +0.000 F 
ATOM     81  C61 UNL A   1       9.812  46.358  17.954  1.00  0.00    +0.000 C 
ATOM     82  F13 UNL A   1       9.205  45.475  18.758  1.00  0.00    +0.000 F 
ATOM     83  C62 UNL A   1      10.998  46.022  17.329  1.00  0.00    +0.000 C 
ATOM     84  F14 UNL A   1      11.474  44.781  17.442  1.00  0.00    +0.000 F 
ATOM     85  C63 UNL A   1      11.629  46.916  16.472  1.00  0.00    +0.000 C 
ATOM     86  F15 UNL A   1      12.752  46.509  15.860  1.00  0.00    +0.000 F 
ENDBRANCH   75   76
TORSDOF 20
ENDMDL
