MODEL 1
REMARK VINA RESULT:     -12.2      0.000      0.000
ROOT
ATOM     28  C19 UNL A   1      25.753  36.506  45.520  1.00  0.00    +0.000 C 
ATOM     29  C20 UNL A   1      25.709  37.693  46.438  1.00  0.00    +0.000 C 
ATOM     30  N5  UNL A   1      26.665  38.530  46.757  1.00  0.00    +0.000 N 
ATOM     31  C21 UNL A   1      26.080  39.466  47.597  1.00  0.00    +0.000 C 
ATOM     32  C22 UNL A   1      26.665  40.502  48.249  1.00  0.00    +0.000 C 
ATOM     44  C29 UNL A   1      28.066  40.821  48.168  1.00  0.00    +0.000 C 
ATOM     45  C30 UNL A   1      28.769  41.805  48.839  1.00  0.00    +0.000 C 
ATOM     46  C31 UNL A   1      30.099  41.766  48.405  1.00  0.00    +0.000 C 
ATOM     47  C32 UNL A   1      30.236  40.728  47.498  1.00  0.00    +0.000 C 
ATOM     48  N6  UNL A   1      28.980  40.159  47.359  1.00  0.00    +0.000 N 
ATOM     49  C33 UNL A   1      31.422  40.286  46.811  1.00  0.00    +0.000 C 
ATOM     61  C40 UNL A   1      31.477  39.245  45.943  1.00  0.00    +0.000 C 
ATOM     62  N7  UNL A   1      30.456  38.403  45.526  1.00  0.00    +0.000 N 
ATOM     63  C41 UNL A   1      31.002  37.566  44.678  1.00  0.00    +0.000 C 
ATOM     64  C42 UNL A   1      30.367  36.426  43.931  1.00  0.00    +0.000 C 
ATOM     76  C49 UNL A   1      29.074  36.127  44.159  1.00  0.00    +0.000 C 
ATOM     77  C50 UNL A   1      28.333  35.040  43.526  1.00  0.00    +0.000 C 
ATOM     78  C51 UNL A   1      27.060  35.073  43.949  1.00  0.00    +0.000 C 
ATOM     79  C52 UNL A   1      26.903  36.169  44.907  1.00  0.00    +0.000 C 
ATOM     80  N8  UNL A   1      28.156  36.726  44.983  1.00  0.00    +0.000 N 
ATOM     81  C53 UNL A   1      32.434  37.795  44.445  1.00  0.00    +0.000 C 
ATOM     82  C54 UNL A   1      32.681  38.807  45.265  1.00  0.00    +0.000 C 
ATOM     83  C55 UNL A   1      24.676  39.129  47.696  1.00  0.00    +0.000 C 
ATOM     84  C56 UNL A   1      24.411  38.001  47.054  1.00  0.00    +0.000 C 
ATOM    117  H22 UNL A   1      28.380  42.456  49.539  1.00  0.00    +0.000 H 
ATOM    118  H23 UNL A   1      30.853  42.404  48.711  1.00  0.00    +0.000 H 
ATOM    119  H24 UNL A   1      28.767  39.397  46.773  1.00  0.00    +0.000 H 
ATOM    120  H25 UNL A   1      28.725  34.356  42.860  1.00  0.00    +0.000 H 
ATOM    121  H26 UNL A   1      26.311  34.431  43.648  1.00  0.00    +0.000 H 
ATOM    122  H27 UNL A   1      28.372  37.484  45.574  1.00  0.00    +0.000 H 
ATOM    123  H28 UNL A   1      33.079  37.298  43.811  1.00  0.00    +0.000 H 
ATOM    124  H29 UNL A   1      33.612  39.230  45.404  1.00  0.00    +0.000 H 
ATOM    125  H30 UNL A   1      23.974  39.694  48.198  1.00  0.00    +0.000 H 
ATOM    126  H31 UNL A   1      23.524  37.475  47.002  1.00  0.00    +0.000 H 
ENDROOT
BRANCH   28   27
ATOM    115  H20 UNL A   1      21.747  35.818  43.319  1.00  0.00    +0.000 H 
ATOM    116  H21 UNL A   1      23.819  37.025  43.694  1.00  0.00    +0.000 H 
ATOM     85  C57 UNL A   1      24.244  34.561  45.934  1.00  0.00    +0.000 C 
ATOM     86  C58 UNL A   1      23.093  33.825  45.659  1.00  0.00    +0.000 C 
ATOM     24  C15 UNL A   1      22.154  34.314  44.747  1.00  0.00    +0.000 C 
ATOM     25  C16 UNL A   1      22.423  35.478  44.020  1.00  0.00    +0.000 C 
ATOM     26  C17 UNL A   1      23.608  36.180  44.247  1.00  0.00    +0.000 C 
ATOM     27  C18 UNL A   1      24.514  35.742  45.226  1.00  0.00    +0.000 C 
ATOM    127  H32 UNL A   1      24.900  34.236  46.661  1.00  0.00    +0.000 H 
ATOM    128  H33 UNL A   1      22.935  32.920  46.129  1.00  0.00    +0.000 H 
BRANCH   24   22
ATOM     22  C14 UNL A   1      20.875  33.610  44.512  1.00  0.00    +0.000 C 
ATOM     23  O4  UNL A   1      19.814  34.196  44.705  1.00  0.00    +0.000 O 
BRANCH   22   21
ATOM    114  H19 UNL A   1      21.625  32.045  43.515  1.00  0.00    +0.000 H 
ATOM     21  N4  UNL A   1      20.875  32.303  44.099  1.00  0.00    +0.000 N 
BRANCH   21   20
ATOM    113  H18 UNL A   1      19.589  31.384  45.401  1.00  0.00    +0.000 H 
ATOM     20  C13 UNL A   1      19.927  31.245  44.396  1.00  0.00    +0.000 C 
ATOM    112  H17 UNL A   1      20.417  30.300  44.273  1.00  0.00    +0.000 H 
BRANCH   20   19
ATOM     19  C12 UNL A   1      18.705  31.284  43.485  1.00  0.00    +0.000 C 
ATOM    110  H15 UNL A   1      18.206  32.219  43.641  1.00  0.00    +0.000 H 
ATOM    111  H16 UNL A   1      19.073  31.158  42.488  1.00  0.00    +0.000 H 
BRANCH   19   18
ATOM     18  C11 UNL A   1      17.689  30.161  43.709  1.00  0.00    +0.000 C 
ATOM    108  H13 UNL A   1      17.117  30.404  44.581  1.00  0.00    +0.000 H 
ATOM    109  H14 UNL A   1      17.110  30.106  42.813  1.00  0.00    +0.000 H 
BRANCH   18   17
ATOM     17  C10 UNL A   1      18.283  28.763  43.911  1.00  0.00    +0.000 C 
ATOM    106  H11 UNL A   1      18.966  28.576  43.109  1.00  0.00    +0.000 H 
ATOM    107  H12 UNL A   1      18.744  28.776  44.876  1.00  0.00    +0.000 H 
BRANCH   17   16
ATOM    105  H10 UNL A   1      17.414  27.110  44.876  1.00  0.00    +0.000 H 
ATOM    104  H9  UNL A   1      17.449  26.987  43.096  1.00  0.00    +0.000 H 
ATOM     16  C9  UNL A   1      17.270  27.615  43.944  1.00  0.00    +0.000 C 
BRANCH   16   15
ATOM    103  H8  UNL A   1      15.772  29.109  43.746  1.00  0.00    +0.000 H 
ATOM    102  H7  UNL A   1      15.346  27.803  44.842  1.00  0.00    +0.000 H 
ATOM     15  C8  UNL A   1      15.809  28.052  43.910  1.00  0.00    +0.000 C 
BRANCH   15   14
ATOM    101  H6  UNL A   1      14.314  26.886  43.151  1.00  0.00    +0.000 H 
ATOM     14  N3  UNL A   1      15.097  27.392  42.836  1.00  0.00    +0.000 N 
BRANCH   14   12
ATOM     12  C7  UNL A   1      15.271  27.316  41.479  1.00  0.00    +0.000 C 
ATOM     13  O3  UNL A   1      15.795  28.280  40.925  1.00  0.00    +0.000 O 
BRANCH   12   11
ATOM    129  H34 UNL A   1      15.787  26.315  38.742  1.00  0.00    +0.000 H 
ATOM    130  H35 UNL A   1      14.214  26.927  38.683  1.00  0.00    +0.000 H 
ATOM    131  H36 UNL A   1      13.348  24.676  38.368  1.00  0.00    +0.000 H 
ATOM      9  N1  UNL A   1      14.271  24.135  40.178  1.00  0.00    +0.000 N 
ATOM     10  N2  UNL A   1      14.387  25.052  41.175  1.00  0.00    +0.000 N 
ATOM     11  C6  UNL A   1      14.795  26.154  40.621  1.00  0.00    +0.000 C 
ATOM     87  C59 UNL A   1      14.803  26.154  39.130  1.00  0.00    +0.000 C 
ATOM     88  C60 UNL A   1      14.308  24.732  38.838  1.00  0.00    +0.000 C 
BRANCH    9    8
ATOM     99  H4  UNL A   1      12.840  20.686  42.795  1.00  0.00    +0.000 H 
ATOM    100  H5  UNL A   1      13.995  22.800  42.483  1.00  0.00    +0.000 H 
ATOM      5  C2  UNL A   1      12.279  20.486  40.766  1.00  0.00    +0.000 C 
ATOM      6  C3  UNL A   1      12.881  21.119  41.859  1.00  0.00    +0.000 C 
ATOM      7  C4  UNL A   1      13.540  22.341  41.677  1.00  0.00    +0.000 C 
ATOM    136  H41 UNL A   1      11.882  20.603  38.695  1.00  0.00    +0.000 H 
ATOM    135  H40 UNL A   1      13.016  22.719  38.402  1.00  0.00    +0.000 H 
ATOM      8  C5  UNL A   1      13.590  22.947  40.416  1.00  0.00    +0.000 C 
ATOM     94  C65 UNL A   1      12.980  22.289  39.339  1.00  0.00    +0.000 C 
ATOM     95  C66 UNL A   1      12.326  21.069  39.503  1.00  0.00    +0.000 C 
BRANCH    5    2
ATOM      2  S1  UNL A   1      11.505  18.911  41.030  1.00  0.00    +0.000 S 
ATOM      3  O1  UNL A   1      10.180  19.187  41.550  1.00  0.00    +0.000 O 
ATOM      4  O2  UNL A   1      12.451  18.100  41.772  1.00  0.00    +0.000 O 
BRANCH    2    1
ATOM      1  C1  UNL A   1      11.309  18.158  39.437  1.00  0.00    +0.000 C 
ATOM     98  H3  UNL A   1      10.728  17.264  39.533  1.00  0.00    +0.000 H 
ATOM     97  H2  UNL A   1      10.810  18.839  38.780  1.00  0.00    +0.000 H 
ATOM     96  H1  UNL A   1      12.271  17.916  39.037  1.00  0.00    +0.000 H 
ENDBRANCH    2    1
ENDBRANCH    5    2
ENDBRANCH    9    8
BRANCH   88   89
ATOM    132  H37 UNL A   1      16.559  22.709  38.785  1.00  0.00    +0.000 H 
ATOM    133  H38 UNL A   1      17.395  22.230  36.314  1.00  0.00    +0.000 H 
ATOM    134  H39 UNL A   1      15.885  23.611  34.738  1.00  0.00    +0.000 H 
ATOM     89  C61 UNL A   1      15.146  24.026  37.813  1.00  0.00    +0.000 C 
ATOM     90  C62 UNL A   1      16.182  23.117  37.916  1.00  0.00    +0.000 C 
ATOM     91  C63 UNL A   1      16.624  22.855  36.596  1.00  0.00    +0.000 C 
ATOM     92  C64 UNL A   1      15.819  23.599  35.769  1.00  0.00    +0.000 C 
ATOM     93  O5  UNL A   1      14.926  24.316  36.494  1.00  0.00    +0.000 O 
ENDBRANCH   88   89
ENDBRANCH   12   11
ENDBRANCH   14   12
ENDBRANCH   15   14
ENDBRANCH   16   15
ENDBRANCH   17   16
ENDBRANCH   18   17
ENDBRANCH   19   18
ENDBRANCH   20   19
ENDBRANCH   21   20
ENDBRANCH   22   21
ENDBRANCH   24   22
ENDBRANCH   28   27
BRANCH   32   33
ATOM     33  C23 UNL A   1      25.782  41.362  49.105  1.00  0.00    +0.000 C 
ATOM     34  C24 UNL A   1      25.554  41.065  50.459  1.00  0.00    +0.000 C 
ATOM     35  F1  UNL A   1      26.115  39.981  51.015  1.00  0.00    +0.000 F 
ATOM     36  C25 UNL A   1      24.708  41.854  51.233  1.00  0.00    +0.000 C 
ATOM     37  F2  UNL A   1      24.458  41.514  52.506  1.00  0.00    +0.000 F 
ATOM     38  C26 UNL A   1      24.104  42.974  50.684  1.00  0.00    +0.000 C 
ATOM     39  F3  UNL A   1      23.287  43.730  51.430  1.00  0.00    +0.000 F 
ATOM     40  C27 UNL A   1      24.339  43.304  49.358  1.00  0.00    +0.000 C 
ATOM     41  F4  UNL A   1      23.765  44.394  48.829  1.00  0.00    +0.000 F 
ATOM     42  C28 UNL A   1      25.161  42.501  48.572  1.00  0.00    +0.000 C 
ATOM     43  F5  UNL A   1      25.349  42.834  47.286  1.00  0.00    +0.000 F 
ENDBRANCH   32   33
BRANCH   49   50
ATOM     50  C34 UNL A   1      32.704  41.016  47.086  1.00  0.00    +0.000 C 
ATOM     51  C35 UNL A   1      33.615  40.561  48.050  1.00  0.00    +0.000 C 
ATOM     52  F6  UNL A   1      33.329  39.480  48.792  1.00  0.00    +0.000 F 
ATOM     53  C36 UNL A   1      34.809  41.239  48.281  1.00  0.00    +0.000 C 
ATOM     54  F7  UNL A   1      35.645  40.811  49.237  1.00  0.00    +0.000 F 
ATOM     55  C37 UNL A   1      35.128  42.363  47.534  1.00  0.00    +0.000 C 
ATOM     56  F8  UNL A   1      36.281  43.009  47.753  1.00  0.00    +0.000 F 
ATOM     57  C38 UNL A   1      34.249  42.820  46.563  1.00  0.00    +0.000 C 
ATOM     58  F9  UNL A   1      34.561  43.900  45.833  1.00  0.00    +0.000 F 
ATOM     59  C39 UNL A   1      33.042  42.161  46.349  1.00  0.00    +0.000 C 
ATOM     60  F10 UNL A   1      32.206  42.633  45.412  1.00  0.00    +0.000 F 
ENDBRANCH   49   50
BRANCH   64   65
ATOM     65  C43 UNL A   1      31.146  35.608  42.969  1.00  0.00    +0.000 C 
ATOM     66  C44 UNL A   1      31.305  36.018  41.638  1.00  0.00    +0.000 C 
ATOM     67  F11 UNL A   1      30.708  37.139  41.208  1.00  0.00    +0.000 F 
ATOM     68  C45 UNL A   1      32.057  35.265  40.739  1.00  0.00    +0.000 C 
ATOM     69  F12 UNL A   1      32.170  35.664  39.465  1.00  0.00    +0.000 F 
ATOM     70  C46 UNL A   1      32.681  34.100  41.159  1.00  0.00    +0.000 C 
ATOM     71  F13 UNL A   1      33.415  33.382  40.297  1.00  0.00    +0.000 F 
ATOM     72  C47 UNL A   1      32.545  33.679  42.472  1.00  0.00    +0.000 C 
ATOM     73  F14 UNL A   1      33.160  32.563  42.886  1.00  0.00    +0.000 F 
ATOM     74  C48 UNL A   1      31.774  34.419  43.367  1.00  0.00    +0.000 C 
ATOM     75  F15 UNL A   1      31.658  33.989  44.631  1.00  0.00    +0.000 F 
ENDBRANCH   64   65
TORSDOF 19
ENDMDL
MODEL 2
REMARK VINA RESULT:     -12.1     40.038     46.735
ROOT
ATOM     28  C19 UNL A   1      53.369  19.909  11.642  1.00  0.00    +0.000 C 
ATOM     29  C20 UNL A   1      54.714  19.260  11.483  1.00  0.00    +0.000 C 
ATOM     30  N5  UNL A   1      55.713  19.205  12.328  1.00  0.00    +0.000 N 
ATOM     31  C21 UNL A   1      56.693  18.447  11.703  1.00  0.00    +0.000 C 
ATOM     32  C22 UNL A   1      57.944  18.155  12.138  1.00  0.00    +0.000 C 
ATOM     44  C29 UNL A   1      58.490  18.603  13.392  1.00  0.00    +0.000 C 
ATOM     45  C30 UNL A   1      59.764  18.419  13.896  1.00  0.00    +0.000 C 
ATOM     46  C31 UNL A   1      59.820  18.994  15.170  1.00  0.00    +0.000 C 
ATOM     47  C32 UNL A   1      58.593  19.577  15.443  1.00  0.00    +0.000 C 
ATOM     48  N6  UNL A   1      57.785  19.327  14.345  1.00  0.00    +0.000 N 
ATOM     49  C33 UNL A   1      58.187  20.310  16.615  1.00  0.00    +0.000 C 
ATOM     61  C40 UNL A   1      56.964  20.867  16.800  1.00  0.00    +0.000 C 
ATOM     62  N7  UNL A   1      55.865  20.859  15.953  1.00  0.00    +0.000 N 
ATOM     63  C41 UNL A   1      54.921  21.516  16.581  1.00  0.00    +0.000 C 
ATOM     64  C42 UNL A   1      53.524  21.833  16.124  1.00  0.00    +0.000 C 
ATOM     76  C49 UNL A   1      53.137  21.473  14.886  1.00  0.00    +0.000 C 
ATOM     77  C50 UNL A   1      51.825  21.732  14.301  1.00  0.00    +0.000 C 
ATOM     78  C51 UNL A   1      51.776  21.187  13.076  1.00  0.00    +0.000 C 
ATOM     79  C52 UNL A   1      53.068  20.565  12.778  1.00  0.00    +0.000 C 
ATOM     80  N8  UNL A   1      53.819  20.802  13.902  1.00  0.00    +0.000 N 
ATOM     81  C53 UNL A   1      55.309  22.001  17.912  1.00  0.00    +0.000 C 
ATOM     82  C54 UNL A   1      56.574  21.608  17.983  1.00  0.00    +0.000 C 
ATOM     83  C55 UNL A   1      56.150  18.017  10.432  1.00  0.00    +0.000 C 
ATOM     84  C56 UNL A   1      54.957  18.551  10.218  1.00  0.00    +0.000 C 
ATOM    117  H22 UNL A   1      60.542  17.939  13.414  1.00  0.00    +0.000 H 
ATOM    118  H23 UNL A   1      60.637  18.986  15.801  1.00  0.00    +0.000 H 
ATOM    119  H24 UNL A   1      56.850  19.619  14.253  1.00  0.00    +0.000 H 
ATOM    120  H25 UNL A   1      51.057  22.250  14.757  1.00  0.00    +0.000 H 
ATOM    121  H26 UNL A   1      50.960  21.203  12.444  1.00  0.00    +0.000 H 
ATOM    122  H27 UNL A   1      54.757  20.517  13.993  1.00  0.00    +0.000 H 
ATOM    123  H28 UNL A   1      54.746  22.514  18.609  1.00  0.00    +0.000 H 
ATOM    124  H29 UNL A   1      57.200  21.805  18.779  1.00  0.00    +0.000 H 
ATOM    125  H30 UNL A   1      56.629  17.377   9.779  1.00  0.00    +0.000 H 
ATOM    126  H31 UNL A   1      54.356  18.487   9.382  1.00  0.00    +0.000 H 
ENDROOT
BRANCH   28   27
ATOM    115  H20 UNL A   1      50.919  21.442   8.034  1.00  0.00    +0.000 H 
ATOM    116  H21 UNL A   1      52.685  21.655   9.686  1.00  0.00    +0.000 H 
ATOM     85  C57 UNL A   1      51.591  18.586  10.494  1.00  0.00    +0.000 C 
ATOM     86  C58 UNL A   1      50.633  18.433   9.493  1.00  0.00    +0.000 C 
ATOM     24  C15 UNL A   1      50.348  19.497   8.633  1.00  0.00    +0.000 C 
ATOM     25  C16 UNL A   1      51.104  20.672   8.695  1.00  0.00    +0.000 C 
ATOM     26  C17 UNL A   1      52.110  20.800   9.656  1.00  0.00    +0.000 C 
ATOM     27  C18 UNL A   1      52.341  19.769  10.580  1.00  0.00    +0.000 C 
ATOM    127  H32 UNL A   1      51.748  17.827  11.174  1.00  0.00    +0.000 H 
ATOM    128  H33 UNL A   1      50.136  17.535   9.389  1.00  0.00    +0.000 H 
BRANCH   24   22
ATOM     22  C14 UNL A   1      49.265  19.403   7.630  1.00  0.00    +0.000 C 
ATOM     23  O4  UNL A   1      48.201  19.981   7.828  1.00  0.00    +0.000 O 
BRANCH   22   21
ATOM    114  H19 UNL A   1      50.362  18.643   6.138  1.00  0.00    +0.000 H 
ATOM     21  N4  UNL A   1      49.444  18.657   6.494  1.00  0.00    +0.000 N 
BRANCH   21   20
ATOM    113  H18 UNL A   1      47.711  17.567   6.418  1.00  0.00    +0.000 H 
ATOM     20  C13 UNL A   1      48.473  17.886   5.738  1.00  0.00    +0.000 C 
ATOM    112  H17 UNL A   1      48.973  17.052   5.289  1.00  0.00    +0.000 H 
BRANCH   20   19
ATOM     19  C12 UNL A   1      47.804  18.706   4.641  1.00  0.00    +0.000 C 
ATOM    110  H15 UNL A   1      48.473  19.495   4.363  1.00  0.00    +0.000 H 
ATOM    111  H16 UNL A   1      47.597  18.022   3.844  1.00  0.00    +0.000 H 
BRANCH   19   18
ATOM     18  C11 UNL A   1      46.462  19.334   5.024  1.00  0.00    +0.000 C 
ATOM    108  H13 UNL A   1      45.843  18.563   5.435  1.00  0.00    +0.000 H 
ATOM    109  H14 UNL A   1      46.692  20.118   5.714  1.00  0.00    +0.000 H 
BRANCH   18   17
ATOM     17  C10 UNL A   1      45.690  19.996   3.878  1.00  0.00    +0.000 C 
ATOM    106  H11 UNL A   1      44.755  20.341   4.266  1.00  0.00    +0.000 H 
ATOM    107  H12 UNL A   1      46.321  20.780   3.514  1.00  0.00    +0.000 H 
BRANCH   17   16
ATOM    105  H10 UNL A   1      45.102  18.148   3.069  1.00  0.00    +0.000 H 
ATOM    104  H9  UNL A   1      46.284  19.043   2.075  1.00  0.00    +0.000 H 
ATOM     16  C9  UNL A   1      45.398  19.097   2.673  1.00  0.00    +0.000 C 
BRANCH   16   15
ATOM    103  H8  UNL A   1      44.020  18.797   1.084  1.00  0.00    +0.000 H 
ATOM    102  H7  UNL A   1      44.550  20.462   1.273  1.00  0.00    +0.000 H 
ATOM     15  C8  UNL A   1      44.252  19.571   1.785  1.00  0.00    +0.000 C 
BRANCH   15   14
ATOM    101  H6  UNL A   1      42.989  20.800   2.816  1.00  0.00    +0.000 H 
ATOM     14  N3  UNL A   1      43.071  19.850   2.573  1.00  0.00    +0.000 N 
BRANCH   14   12
ATOM     12  C7  UNL A   1      42.041  19.086   3.057  1.00  0.00    +0.000 C 
ATOM     13  O3  UNL A   1      42.339  18.113   3.746  1.00  0.00    +0.000 O 
BRANCH   12   11
ATOM    129  H34 UNL A   1      39.477  19.008   4.533  1.00  0.00    +0.000 H 
ATOM    130  H35 UNL A   1      39.422  17.665   3.510  1.00  0.00    +0.000 H 
ATOM    131  H36 UNL A   1      37.621  18.701   2.245  1.00  0.00    +0.000 H 
ATOM      9  N1  UNL A   1      38.898  20.332   1.884  1.00  0.00    +0.000 N 
ATOM     10  N2  UNL A   1      40.237  20.126   1.768  1.00  0.00    +0.000 N 
ATOM     11  C6  UNL A   1      40.574  19.327   2.735  1.00  0.00    +0.000 C 
ATOM     87  C59 UNL A   1      39.439  18.735   3.499  1.00  0.00    +0.000 C 
ATOM     88  C60 UNL A   1      38.244  19.382   2.789  1.00  0.00    +0.000 C 
BRANCH    9    8
ATOM     99  H4  UNL A   1      35.322  20.803  -0.908  1.00  0.00    +0.000 H 
ATOM    100  H5  UNL A   1      36.437  19.771   0.987  1.00  0.00    +0.000 H 
ATOM      5  C2  UNL A   1      36.929  22.095  -1.380  1.00  0.00    +0.000 C 
ATOM      6  C3  UNL A   1      36.274  21.101  -0.644  1.00  0.00    +0.000 C 
ATOM      7  C4  UNL A   1      36.917  20.512   0.453  1.00  0.00    +0.000 C 
ATOM    136  H41 UNL A   1      38.695  23.238  -1.566  1.00  0.00    +0.000 H 
ATOM    135  H40 UNL A   1      39.785  22.217   0.337  1.00  0.00    +0.000 H 
ATOM      8  C5  UNL A   1      38.202  20.918   0.832  1.00  0.00    +0.000 C 
ATOM     94  C65 UNL A   1      38.834  21.914   0.074  1.00  0.00    +0.000 C 
ATOM     95  C66 UNL A   1      38.211  22.505  -1.024  1.00  0.00    +0.000 C 
BRANCH    5    2
ATOM      2  S1  UNL A   1      36.102  22.772  -2.796  1.00  0.00    +0.000 S 
ATOM      3  O1  UNL A   1      36.485  21.949  -3.927  1.00  0.00    +0.000 O 
ATOM      4  O2  UNL A   1      36.356  24.200  -2.785  1.00  0.00    +0.000 O 
BRANCH    2    1
ATOM      1  C1  UNL A   1      34.363  22.549  -2.534  1.00  0.00    +0.000 C 
ATOM     98  H3  UNL A   1      34.092  21.541  -2.775  1.00  0.00    +0.000 H 
ATOM     97  H2  UNL A   1      34.128  22.747  -1.510  1.00  0.00    +0.000 H 
ATOM     96  H1  UNL A   1      33.818  23.223  -3.162  1.00  0.00    +0.000 H 
ENDBRANCH    2    1
ENDBRANCH    5    2
ENDBRANCH    9    8
BRANCH   88   89
ATOM    132  H37 UNL A   1      37.338  22.112   3.732  1.00  0.00    +0.000 H 
ATOM    133  H38 UNL A   1      35.483  21.936   5.620  1.00  0.00    +0.000 H 
ATOM    134  H39 UNL A   1      34.987  19.422   5.943  1.00  0.00    +0.000 H 
ATOM     89  C61 UNL A   1      37.239  19.951   3.748  1.00  0.00    +0.000 C 
ATOM     90  C62 UNL A   1      36.926  21.246   4.115  1.00  0.00    +0.000 C 
ATOM     91  C63 UNL A   1      35.931  21.154   5.117  1.00  0.00    +0.000 C 
ATOM     92  C64 UNL A   1      35.680  19.813   5.285  1.00  0.00    +0.000 C 
ATOM     93  O5  UNL A   1      36.470  19.077   4.467  1.00  0.00    +0.000 O 
ENDBRANCH   88   89
ENDBRANCH   12   11
ENDBRANCH   14   12
ENDBRANCH   15   14
ENDBRANCH   16   15
ENDBRANCH   17   16
ENDBRANCH   18   17
ENDBRANCH   19   18
ENDBRANCH   20   19
ENDBRANCH   21   20
ENDBRANCH   22   21
ENDBRANCH   24   22
ENDBRANCH   28   27
BRANCH   32   33
ATOM     33  C23 UNL A   1      58.802  17.307  11.244  1.00  0.00    +0.000 C 
ATOM     34  C24 UNL A   1      59.620  17.875  10.254  1.00  0.00    +0.000 C 
ATOM     35  F1  UNL A   1      59.636  19.205  10.074  1.00  0.00    +0.000 F 
ATOM     36  C25 UNL A   1      60.387  17.075   9.412  1.00  0.00    +0.000 C 
ATOM     37  F2  UNL A   1      61.112  17.638   8.434  1.00  0.00    +0.000 F 
ATOM     38  C26 UNL A   1      60.383  15.698   9.566  1.00  0.00    +0.000 C 
ATOM     39  F3  UNL A   1      61.119  14.929   8.752  1.00  0.00    +0.000 F 
ATOM     40  C27 UNL A   1      59.607  15.116  10.557  1.00  0.00    +0.000 C 
ATOM     41  F4  UNL A   1      59.611  13.785  10.715  1.00  0.00    +0.000 F 
ATOM     42  C28 UNL A   1      58.815  15.911  11.382  1.00  0.00    +0.000 C 
ATOM     43  F5  UNL A   1      58.057  15.316  12.316  1.00  0.00    +0.000 F 
ENDBRANCH   32   33
BRANCH   49   50
ATOM     50  C34 UNL A   1      59.196  20.493  17.710  1.00  0.00    +0.000 C 
ATOM     51  C35 UNL A   1      59.930  21.680  17.840  1.00  0.00    +0.000 C 
ATOM     52  F6  UNL A   1      59.781  22.667  16.944  1.00  0.00    +0.000 F 
ATOM     53  C36 UNL A   1      60.850  21.843  18.873  1.00  0.00    +0.000 C 
ATOM     54  F7  UNL A   1      61.572  22.969  18.954  1.00  0.00    +0.000 F 
ATOM     55  C37 UNL A   1      61.029  20.836  19.811  1.00  0.00    +0.000 C 
ATOM     56  F8  UNL A   1      61.909  20.997  20.808  1.00  0.00    +0.000 F 
ATOM     57  C38 UNL A   1      60.301  19.660  19.710  1.00  0.00    +0.000 C 
ATOM     58  F9  UNL A   1      60.465  18.691  20.622  1.00  0.00    +0.000 F 
ATOM     59  C39 UNL A   1      59.401  19.484  18.664  1.00  0.00    +0.000 C 
ATOM     60  F10 UNL A   1      58.719  18.331  18.585  1.00  0.00    +0.000 F 
ENDBRANCH   49   50
BRANCH   64   65
ATOM     65  C43 UNL A   1      52.573  22.558  17.004  1.00  0.00    +0.000 C 
ATOM     66  C44 UNL A   1      52.393  23.942  16.884  1.00  0.00    +0.000 C 
ATOM     67  F11 UNL A   1      53.122  24.638  15.999  1.00  0.00    +0.000 F 
ATOM     68  C45 UNL A   1      51.483  24.621  17.691  1.00  0.00    +0.000 C 
ATOM     69  F12 UNL A   1      51.351  25.950  17.577  1.00  0.00    +0.000 F 
ATOM     70  C46 UNL A   1      50.719  23.925  18.617  1.00  0.00    +0.000 C 
ATOM     71  F13 UNL A   1      49.834  24.577  19.383  1.00  0.00    +0.000 F 
ATOM     72  C47 UNL A   1      50.873  22.554  18.746  1.00  0.00    +0.000 C 
ATOM     73  F14 UNL A   1      50.126  21.875  19.627  1.00  0.00    +0.000 F 
ATOM     74  C48 UNL A   1      51.801  21.877  17.956  1.00  0.00    +0.000 C 
ATOM     75  F15 UNL A   1      51.930  20.550  18.102  1.00  0.00    +0.000 F 
ENDBRANCH   64   65
TORSDOF 19
ENDMDL
MODEL 3
REMARK VINA RESULT:     -12.1     39.981     46.148
ROOT
ATOM     28  C19 UNL A   1      52.930  20.361  11.607  1.00  0.00    +0.000 C 
ATOM     29  C20 UNL A   1      52.751  20.930  12.985  1.00  0.00    +0.000 C 
ATOM     30  N5  UNL A   1      53.612  21.006  13.969  1.00  0.00    +0.000 N 
ATOM     31  C21 UNL A   1      52.952  21.664  14.997  1.00  0.00    +0.000 C 
ATOM     32  C22 UNL A   1      53.392  21.931  16.252  1.00  0.00    +0.000 C 
ATOM     44  C29 UNL A   1      54.690  21.559  16.750  1.00  0.00    +0.000 C 
ATOM     45  C30 UNL A   1      55.207  21.723  18.022  1.00  0.00    +0.000 C 
ATOM     46  C31 UNL A   1      56.525  21.251  18.024  1.00  0.00    +0.000 C 
ATOM     47  C32 UNL A   1      56.814  20.750  16.765  1.00  0.00    +0.000 C 
ATOM     48  N6  UNL A   1      55.680  20.949  15.992  1.00  0.00    +0.000 N 
ATOM     49  C33 UNL A   1      58.031  20.135  16.300  1.00  0.00    +0.000 C 
ATOM     61  C40 UNL A   1      58.231  19.654  15.048  1.00  0.00    +0.000 C 
ATOM     62  N7  UNL A   1      57.360  19.645  13.968  1.00  0.00    +0.000 N 
ATOM     63  C41 UNL A   1      58.016  19.087  12.980  1.00  0.00    +0.000 C 
ATOM     64  C42 UNL A   1      57.553  18.801  11.579  1.00  0.00    +0.000 C 
ATOM     76  C49 UNL A   1      56.281  19.077  11.235  1.00  0.00    +0.000 C 
ATOM     77  C50 UNL A   1      55.689  18.834   9.923  1.00  0.00    +0.000 C 
ATOM     78  C51 UNL A   1      54.423  19.280   9.925  1.00  0.00    +0.000 C 
ATOM     79  C52 UNL A   1      54.107  19.814  11.251  1.00  0.00    +0.000 C 
ATOM     80  N8  UNL A   1      55.264  19.633  11.968  1.00  0.00    +0.000 N 
ATOM     81  C53 UNL A   1      59.390  18.693  13.318  1.00  0.00    +0.000 C 
ATOM     82  C54 UNL A   1      59.460  19.030  14.598  1.00  0.00    +0.000 C 
ATOM     83  C55 UNL A   1      51.639  22.014  14.501  1.00  0.00    +0.000 C 
ATOM     84  C56 UNL A   1      51.439  21.522  13.288  1.00  0.00    +0.000 C 
ATOM    117  H22 UNL A   1      54.708  22.125  18.832  1.00  0.00    +0.000 H 
ATOM    118  H23 UNL A   1      57.172  21.271  18.829  1.00  0.00    +0.000 H 
ATOM    119  H24 UNL A   1      55.590  20.695  15.045  1.00  0.00    +0.000 H 
ATOM    120  H25 UNL A   1      56.166  18.392   9.122  1.00  0.00    +0.000 H 
ATOM    121  H26 UNL A   1      53.775  19.252   9.122  1.00  0.00    +0.000 H 
ATOM    122  H27 UNL A   1      55.353  19.880  12.917  1.00  0.00    +0.000 H 
ATOM    123  H28 UNL A   1      60.113  18.265  12.717  1.00  0.00    +0.000 H 
ATOM    124  H29 UNL A   1      60.283  18.868  15.199  1.00  0.00    +0.000 H 
ATOM    125  H30 UNL A   1      50.948  22.577  15.024  1.00  0.00    +0.000 H 
ATOM    126  H31 UNL A   1      50.587  21.547  12.707  1.00  0.00    +0.000 H 
ENDROOT
BRANCH   28   27
ATOM    115  H20 UNL A   1      49.293  18.713   9.278  1.00  0.00    +0.000 H 
ATOM    116  H21 UNL A   1      50.999  18.559  10.998  1.00  0.00    +0.000 H 
ATOM     85  C57 UNL A   1      51.699  21.635   9.848  1.00  0.00    +0.000 C 
ATOM     86  C58 UNL A   1      50.668  21.753   8.918  1.00  0.00    +0.000 C 
ATOM     24  C15 UNL A   1      49.827  20.665   8.668  1.00  0.00    +0.000 C 
ATOM     25  C16 UNL A   1      49.940  19.501   9.435  1.00  0.00    +0.000 C 
ATOM     26  C17 UNL A   1      50.931  19.408  10.415  1.00  0.00    +0.000 C 
ATOM     27  C18 UNL A   1      51.836  20.464  10.609  1.00  0.00    +0.000 C 
ATOM    127  H32 UNL A   1      52.364  22.413   9.978  1.00  0.00    +0.000 H 
ATOM    128  H33 UNL A   1      50.527  22.642   8.414  1.00  0.00    +0.000 H 
BRANCH   24   22
ATOM     22  C14 UNL A   1      48.792  20.722   7.614  1.00  0.00    +0.000 C 
ATOM     23  O4  UNL A   1      48.622  21.761   6.984  1.00  0.00    +0.000 O 
BRANCH   22   21
ATOM    114  H19 UNL A   1      47.350  19.405   8.052  1.00  0.00    +0.000 H 
ATOM     21  N4  UNL A   1      48.011  19.625   7.357  1.00  0.00    +0.000 N 
BRANCH   21   20
ATOM    113  H18 UNL A   1      47.491  17.850   6.476  1.00  0.00    +0.000 H 
ATOM     20  C13 UNL A   1      48.021  18.739   6.206  1.00  0.00    +0.000 C 
ATOM    112  H17 UNL A   1      49.038  18.526   5.946  1.00  0.00    +0.000 H 
BRANCH   20   19
ATOM     19  C12 UNL A   1      47.323  19.348   4.996  1.00  0.00    +0.000 C 
ATOM    110  H15 UNL A   1      46.502  19.938   5.349  1.00  0.00    +0.000 H 
ATOM    111  H16 UNL A   1      48.067  19.918   4.479  1.00  0.00    +0.000 H 
BRANCH   19   18
ATOM     18  C11 UNL A   1      46.779  18.338   3.982  1.00  0.00    +0.000 C 
ATOM    108  H13 UNL A   1      47.605  17.974   3.405  1.00  0.00    +0.000 H 
ATOM    109  H14 UNL A   1      46.286  17.583   4.556  1.00  0.00    +0.000 H 
BRANCH   18   17
ATOM     17  C10 UNL A   1      45.726  18.879   3.009  1.00  0.00    +0.000 C 
ATOM    106  H11 UNL A   1      46.186  18.979   2.048  1.00  0.00    +0.000 H 
ATOM    107  H12 UNL A   1      44.919  18.178   3.030  1.00  0.00    +0.000 H 
BRANCH   17   16
ATOM    105  H10 UNL A   1      45.876  20.967   3.202  1.00  0.00    +0.000 H 
ATOM    104  H9  UNL A   1      44.813  20.191   4.408  1.00  0.00    +0.000 H 
ATOM     16  C9  UNL A   1      45.118  20.234   3.383  1.00  0.00    +0.000 C 
BRANCH   16   15
ATOM    103  H8  UNL A   1      44.258  21.016   1.604  1.00  0.00    +0.000 H 
ATOM    102  H7  UNL A   1      43.362  21.401   3.066  1.00  0.00    +0.000 H 
ATOM     15  C8  UNL A   1      43.911  20.644   2.545  1.00  0.00    +0.000 C 
BRANCH   15   14
ATOM    101  H6  UNL A   1      43.268  19.027   1.478  1.00  0.00    +0.000 H 
ATOM     14  N3  UNL A   1      43.042  19.513   2.303  1.00  0.00    +0.000 N 
BRANCH   14   12
ATOM     12  C7  UNL A   1      41.975  18.966   2.968  1.00  0.00    +0.000 C 
ATOM     13  O3  UNL A   1      42.222  18.137   3.841  1.00  0.00    +0.000 O 
BRANCH   12   11
ATOM    129  H34 UNL A   1      39.433  19.155   4.472  1.00  0.00    +0.000 H 
ATOM    130  H35 UNL A   1      39.283  17.744   3.555  1.00  0.00    +0.000 H 
ATOM    131  H36 UNL A   1      37.528  18.787   2.234  1.00  0.00    +0.000 H 
ATOM      9  N1  UNL A   1      38.894  20.306   1.735  1.00  0.00    +0.000 N 
ATOM     10  N2  UNL A   1      40.216  20.012   1.622  1.00  0.00    +0.000 N 
ATOM     11  C6  UNL A   1      40.520  19.269   2.644  1.00  0.00    +0.000 C 
ATOM     87  C59 UNL A   1      39.364  18.806   3.463  1.00  0.00    +0.000 C 
ATOM     88  C60 UNL A   1      38.198  19.468   2.717  1.00  0.00    +0.000 C 
BRANCH    9    8
ATOM     99  H4  UNL A   1      38.376  23.239  -1.719  1.00  0.00    +0.000 H 
ATOM    100  H5  UNL A   1      39.655  22.304   0.121  1.00  0.00    +0.000 H 
ATOM      5  C2  UNL A   1      36.720  21.948  -1.461  1.00  0.00    +0.000 C 
ATOM      6  C3  UNL A   1      37.987  22.461  -1.162  1.00  0.00    +0.000 C 
ATOM      7  C4  UNL A   1      38.726  21.915  -0.105  1.00  0.00    +0.000 C 
ATOM    136  H41 UNL A   1      35.260  20.516  -0.936  1.00  0.00    +0.000 H 
ATOM    135  H40 UNL A   1      36.554  19.579   0.879  1.00  0.00    +0.000 H 
ATOM      8  C5  UNL A   1      38.218  20.851   0.648  1.00  0.00    +0.000 C 
ATOM     94  C65 UNL A   1      36.945  20.359   0.328  1.00  0.00    +0.000 C 
ATOM     95  C66 UNL A   1      36.195  20.895  -0.717  1.00  0.00    +0.000 C 
BRANCH    5    2
ATOM      2  S1  UNL A   1      35.794  22.708  -2.771  1.00  0.00    +0.000 S 
ATOM      3  O1  UNL A   1      35.984  21.875  -3.942  1.00  0.00    +0.000 O 
ATOM      4  O2  UNL A   1      36.157  24.112  -2.779  1.00  0.00    +0.000 O 
BRANCH    2    1
ATOM      1  C1  UNL A   1      34.083  22.613  -2.316  1.00  0.00    +0.000 C 
ATOM     98  H3  UNL A   1      33.494  23.149  -3.032  1.00  0.00    +0.000 H 
ATOM     97  H2  UNL A   1      33.776  21.589  -2.296  1.00  0.00    +0.000 H 
ATOM     96  H1  UNL A   1      33.947  23.047  -1.348  1.00  0.00    +0.000 H 
ENDBRANCH    2    1
ENDBRANCH    5    2
ENDBRANCH    9    8
BRANCH   88   89
ATOM    132  H37 UNL A   1      37.525  22.309   3.517  1.00  0.00    +0.000 H 
ATOM    133  H38 UNL A   1      35.658  22.386   5.399  1.00  0.00    +0.000 H 
ATOM    134  H39 UNL A   1      34.948  19.943   5.843  1.00  0.00    +0.000 H 
ATOM     89  C61 UNL A   1      37.243  20.168   3.640  1.00  0.00    +0.000 C 
ATOM     90  C62 UNL A   1      37.041  21.502   3.940  1.00  0.00    +0.000 C 
ATOM     91  C63 UNL A   1      36.038  21.544   4.939  1.00  0.00    +0.000 C 
ATOM     92  C64 UNL A   1      35.674  20.240   5.171  1.00  0.00    +0.000 C 
ATOM     93  O5  UNL A   1      36.401  19.399   4.396  1.00  0.00    +0.000 O 
ENDBRANCH   88   89
ENDBRANCH   12   11
ENDBRANCH   14   12
ENDBRANCH   15   14
ENDBRANCH   16   15
ENDBRANCH   17   16
ENDBRANCH   18   17
ENDBRANCH   19   18
ENDBRANCH   20   19
ENDBRANCH   21   20
ENDBRANCH   22   21
ENDBRANCH   24   22
ENDBRANCH   28   27
BRANCH   32   33
ATOM     33  C23 UNL A   1      52.454  22.661  17.168  1.00  0.00    +0.000 C 
ATOM     34  C24 UNL A   1      51.649  21.979  18.095  1.00  0.00    +0.000 C 
ATOM     35  F1  UNL A   1      51.691  20.640  18.167  1.00  0.00    +0.000 F 
ATOM     36  C25 UNL A   1      50.761  22.667  18.917  1.00  0.00    +0.000 C 
ATOM     37  F2  UNL A   1      49.959  21.988  19.750  1.00  0.00    +0.000 F 
ATOM     38  C26 UNL A   1      50.686  24.049  18.857  1.00  0.00    +0.000 C 
ATOM     39  F3  UNL A   1      49.828  24.710  19.647  1.00  0.00    +0.000 F 
ATOM     40  C27 UNL A   1      51.493  24.747  17.972  1.00  0.00    +0.000 C 
ATOM     41  F4  UNL A   1      51.431  26.085  17.922  1.00  0.00    +0.000 F 
ATOM     42  C28 UNL A   1      52.361  24.061  17.127  1.00  0.00    +0.000 C 
ATOM     43  F5  UNL A   1      53.112  24.763  16.264  1.00  0.00    +0.000 F 
ENDBRANCH   32   33
BRANCH   49   50
ATOM     50  C34 UNL A   1      59.160  19.994  17.277  1.00  0.00    +0.000 C 
ATOM     51  C35 UNL A   1      59.981  21.080  17.612  1.00  0.00    +0.000 C 
ATOM     52  F6  UNL A   1      59.802  22.269  17.016  1.00  0.00    +0.000 F 
ATOM     53  C36 UNL A   1      61.014  20.939  18.536  1.00  0.00    +0.000 C 
ATOM     54  F7  UNL A   1      61.812  21.979  18.808  1.00  0.00    +0.000 F 
ATOM     55  C37 UNL A   1      61.225  19.720  19.162  1.00  0.00    +0.000 C 
ATOM     56  F8  UNL A   1      62.215  19.587  20.056  1.00  0.00    +0.000 F 
ATOM     57  C38 UNL A   1      60.415  18.636  18.858  1.00  0.00    +0.000 C 
ATOM     58  F9  UNL A   1      60.612  17.460  19.471  1.00  0.00    +0.000 F 
ATOM     59  C39 UNL A   1      59.399  18.767  17.916  1.00  0.00    +0.000 C 
ATOM     60  F10 UNL A   1      58.638  17.699  17.634  1.00  0.00    +0.000 F 
ENDBRANCH   49   50
BRANCH   64   65
ATOM     65  C43 UNL A   1      58.465  18.195  10.576  1.00  0.00    +0.000 C 
ATOM     66  C44 UNL A   1      59.289  18.997   9.774  1.00  0.00    +0.000 C 
ATOM     67  F11 UNL A   1      59.224  20.333   9.874  1.00  0.00    +0.000 F 
ATOM     68  C45 UNL A   1      60.164  18.430   8.850  1.00  0.00    +0.000 C 
ATOM     69  F12 UNL A   1      60.920  19.220   8.075  1.00  0.00    +0.000 F 
ATOM     70  C46 UNL A   1      60.247  17.051   8.726  1.00  0.00    +0.000 C 
ATOM     71  F13 UNL A   1      61.099  16.506   7.846  1.00  0.00    +0.000 F 
ATOM     72  C47 UNL A   1      59.448  16.238   9.514  1.00  0.00    +0.000 C 
ATOM     73  F14 UNL A   1      59.537  14.905   9.409  1.00  0.00    +0.000 F 
ATOM     74  C48 UNL A   1      58.555  16.804  10.422  1.00  0.00    +0.000 C 
ATOM     75  F15 UNL A   1      57.794  15.995  11.172  1.00  0.00    +0.000 F 
ENDBRANCH   64   65
TORSDOF 19
ENDMDL
MODEL 4
REMARK VINA RESULT:     -11.9      4.545      8.465
ROOT
ATOM     28  C19 UNL A   1      21.623  35.614  47.524  1.00  0.00    +0.000 C 
ATOM     29  C20 UNL A   1      20.313  36.046  48.118  1.00  0.00    +0.000 C 
ATOM     30  N5  UNL A   1      19.978  37.203  48.632  1.00  0.00    +0.000 N 
ATOM     31  C21 UNL A   1      18.642  37.084  48.987  1.00  0.00    +0.000 C 
ATOM     32  C22 UNL A   1      17.850  37.986  49.618  1.00  0.00    +0.000 C 
ATOM     44  C29 UNL A   1      18.288  39.290  50.043  1.00  0.00    +0.000 C 
ATOM     45  C30 UNL A   1      17.585  40.251  50.747  1.00  0.00    +0.000 C 
ATOM     46  C31 UNL A   1      18.405  41.376  50.891  1.00  0.00    +0.000 C 
ATOM     47  C32 UNL A   1      19.635  41.099  50.317  1.00  0.00    +0.000 C 
ATOM     48  N6  UNL A   1      19.548  39.817  49.796  1.00  0.00    +0.000 N 
ATOM     49  C33 UNL A   1      20.804  41.938  50.248  1.00  0.00    +0.000 C 
ATOM     61  C40 UNL A   1      21.983  41.587  49.677  1.00  0.00    +0.000 C 
ATOM     62  N7  UNL A   1      22.327  40.398  49.050  1.00  0.00    +0.000 N 
ATOM     63  C41 UNL A   1      23.568  40.545  48.654  1.00  0.00    +0.000 C 
ATOM     64  C42 UNL A   1      24.455  39.566  47.937  1.00  0.00    +0.000 C 
ATOM     76  C49 UNL A   1      23.999  38.325  47.683  1.00  0.00    +0.000 C 
ATOM     77  C50 UNL A   1      24.752  37.267  47.017  1.00  0.00    +0.000 C 
ATOM     78  C51 UNL A   1      23.967  36.186  46.887  1.00  0.00    +0.000 C 
ATOM     79  C52 UNL A   1      22.663  36.468  47.489  1.00  0.00    +0.000 C 
ATOM     80  N8  UNL A   1      22.781  37.754  47.953  1.00  0.00    +0.000 N 
ATOM     81  C53 UNL A   1      24.149  41.857  48.970  1.00  0.00    +0.000 C 
ATOM     82  C54 UNL A   1      23.153  42.441  49.623  1.00  0.00    +0.000 C 
ATOM     83  C55 UNL A   1      18.212  35.764  48.581  1.00  0.00    +0.000 C 
ATOM     84  C56 UNL A   1      19.225  35.057  48.102  1.00  0.00    +0.000 C 
ATOM    117  H22 UNL A   1      16.622  40.155  51.105  1.00  0.00    +0.000 H 
ATOM    118  H23 UNL A   1      18.139  42.262  51.349  1.00  0.00    +0.000 H 
ATOM    119  H24 UNL A   1      20.273  39.349  49.323  1.00  0.00    +0.000 H 
ATOM    120  H25 UNL A   1      25.730  37.338  46.696  1.00  0.00    +0.000 H 
ATOM    121  H26 UNL A   1      24.238  35.299  46.435  1.00  0.00    +0.000 H 
ATOM    122  H27 UNL A   1      22.059  38.222  48.433  1.00  0.00    +0.000 H 
ATOM    123  H28 UNL A   1      25.085  42.227  48.745  1.00  0.00    +0.000 H 
ATOM    124  H29 UNL A   1      23.204  43.383  50.040  1.00  0.00    +0.000 H 
ATOM    125  H30 UNL A   1      17.242  35.418  48.653  1.00  0.00    +0.000 H 
ATOM    126  H31 UNL A   1      19.246  34.071  47.799  1.00  0.00    +0.000 H 
ENDROOT
BRANCH   28   27
ATOM    115  H20 UNL A   1      22.413  31.061  47.667  1.00  0.00    +0.000 H 
ATOM    116  H21 UNL A   1      22.086  33.225  48.717  1.00  0.00    +0.000 H 
ATOM     85  C57 UNL A   1      21.613  34.127  45.518  1.00  0.00    +0.000 C 
ATOM     86  C58 UNL A   1      21.719  32.870  44.926  1.00  0.00    +0.000 C 
ATOM     24  C15 UNL A   1      22.069  31.762  45.702  1.00  0.00    +0.000 C 
ATOM     25  C16 UNL A   1      22.193  31.888  47.089  1.00  0.00    +0.000 C 
ATOM     26  C17 UNL A   1      22.020  33.136  47.692  1.00  0.00    +0.000 C 
ATOM     27  C18 UNL A   1      21.756  34.270  46.907  1.00  0.00    +0.000 C 
ATOM    127  H32 UNL A   1      21.427  34.956  44.933  1.00  0.00    +0.000 H 
ATOM    128  H33 UNL A   1      21.541  32.759  43.916  1.00  0.00    +0.000 H 
BRANCH   24   22
ATOM     22  C14 UNL A   1      22.293  30.435  45.088  1.00  0.00    +0.000 C 
ATOM     23  O4  UNL A   1      23.410  30.137  44.674  1.00  0.00    +0.000 O 
BRANCH   22   21
ATOM    114  H19 UNL A   1      21.509  28.630  44.725  1.00  0.00    +0.000 H 
ATOM     21  N4  UNL A   1      21.254  29.550  44.964  1.00  0.00    +0.000 N 
BRANCH   21   20
ATOM    113  H18 UNL A   1      19.685  30.255  46.078  1.00  0.00    +0.000 H 
ATOM     20  C13 UNL A   1      19.829  29.776  45.133  1.00  0.00    +0.000 C 
ATOM    112  H17 UNL A   1      19.325  28.832  45.089  1.00  0.00    +0.000 H 
BRANCH   20   19
ATOM     19  C12 UNL A   1      19.253  30.689  44.057  1.00  0.00    +0.000 C 
ATOM    110  H15 UNL A   1      20.057  31.262  43.643  1.00  0.00    +0.000 H 
ATOM    111  H16 UNL A   1      18.777  30.047  43.346  1.00  0.00    +0.000 H 
BRANCH   19   18
ATOM     18  C11 UNL A   1      18.176  31.664  44.539  1.00  0.00    +0.000 C 
ATOM    108  H13 UNL A   1      18.122  31.594  45.606  1.00  0.00    +0.000 H 
ATOM    109  H14 UNL A   1      18.472  32.628  44.183  1.00  0.00    +0.000 H 
BRANCH   18   17
ATOM     17  C10 UNL A   1      16.769  31.425  43.980  1.00  0.00    +0.000 C 
ATOM    106  H11 UNL A   1      16.159  31.048  44.773  1.00  0.00    +0.000 H 
ATOM    107  H12 UNL A   1      16.442  32.369  43.596  1.00  0.00    +0.000 H 
BRANCH   17   16
ATOM    105  H10 UNL A   1      17.533  29.796  42.895  1.00  0.00    +0.000 H 
ATOM    104  H9  UNL A   1      16.674  31.005  41.900  1.00  0.00    +0.000 H 
ATOM     16  C9  UNL A   1      16.683  30.441  42.810  1.00  0.00    +0.000 C 
BRANCH   16   15
ATOM    103  H8  UNL A   1      14.637  30.068  42.375  1.00  0.00    +0.000 H 
ATOM    102  H7  UNL A   1      15.218  29.280  43.833  1.00  0.00    +0.000 H 
ATOM     15  C8  UNL A   1      15.453  29.540  42.823  1.00  0.00    +0.000 C 
BRANCH   15   14
ATOM    101  H6  UNL A   1      16.067  28.505  41.173  1.00  0.00    +0.000 H 
ATOM     14  N3  UNL A   1      15.691  28.330  42.065  1.00  0.00    +0.000 N 
BRANCH   14   12
ATOM     12  C7  UNL A   1      15.509  26.994  42.314  1.00  0.00    +0.000 C 
ATOM     13  O3  UNL A   1      15.906  26.566  43.396  1.00  0.00    +0.000 O 
BRANCH   12   11
ATOM    129  H34 UNL A   1      15.621  26.580  39.386  1.00  0.00    +0.000 H 
ATOM    130  H35 UNL A   1      14.053  27.135  39.679  1.00  0.00    +0.000 H 
ATOM    131  H36 UNL A   1      13.163  24.963  39.041  1.00  0.00    +0.000 H 
ATOM      9  N1  UNL A   1      14.347  24.105  40.552  1.00  0.00    +0.000 N 
ATOM     10  N2  UNL A   1      14.603  24.807  41.688  1.00  0.00    +0.000 N 
ATOM     11  C6  UNL A   1      14.918  26.012  41.316  1.00  0.00    +0.000 C 
ATOM     87  C59 UNL A   1      14.706  26.309  39.871  1.00  0.00    +0.000 C 
ATOM     88  C60 UNL A   1      14.182  24.957  39.371  1.00  0.00    +0.000 C 
BRANCH    9    8
ATOM     99  H4  UNL A   1      12.197  20.468  38.833  1.00  0.00    +0.000 H 
ATOM    100  H5  UNL A   1      13.348  22.592  38.580  1.00  0.00    +0.000 H 
ATOM      5  C2  UNL A   1      12.359  20.426  40.942  1.00  0.00    +0.000 C 
ATOM      6  C3  UNL A   1      12.549  20.967  39.665  1.00  0.00    +0.000 C 
ATOM      7  C4  UNL A   1      13.219  22.189  39.522  1.00  0.00    +0.000 C 
ATOM    136  H41 UNL A   1      12.698  20.695  43.009  1.00  0.00    +0.000 H 
ATOM    135  H40 UNL A   1      13.861  22.797  42.741  1.00  0.00    +0.000 H 
ATOM      8  C5  UNL A   1      13.716  22.869  40.640  1.00  0.00    +0.000 C 
ATOM     94  C65 UNL A   1      13.508  22.304  41.906  1.00  0.00    +0.000 C 
ATOM     95  C66 UNL A   1      12.837  21.092  42.066  1.00  0.00    +0.000 C 
BRANCH    5    2
ATOM      2  S1  UNL A   1      11.453  18.906  41.082  1.00  0.00    +0.000 S 
ATOM      3  O1  UNL A   1      10.131  19.260  41.558  1.00  0.00    +0.000 O 
ATOM      4  O2  UNL A   1      12.297  17.985  41.819  1.00  0.00    +0.000 O 
BRANCH    2    1
ATOM      1  C1  UNL A   1      11.278  18.256  39.442  1.00  0.00    +0.000 C 
ATOM     98  H3  UNL A   1      12.166  18.462  38.880  1.00  0.00    +0.000 H 
ATOM     97  H2  UNL A   1      11.124  17.199  39.492  1.00  0.00    +0.000 H 
ATOM     96  H1  UNL A   1      10.440  18.717  38.964  1.00  0.00    +0.000 H 
ENDBRANCH    2    1
ENDBRANCH    5    2
ENDBRANCH    9    8
BRANCH   88   89
ATOM    132  H37 UNL A   1      13.879  25.349  36.384  1.00  0.00    +0.000 H 
ATOM    133  H38 UNL A   1      15.646  23.917  35.019  1.00  0.00    +0.000 H 
ATOM    134  H39 UNL A   1      17.140  22.726  36.757  1.00  0.00    +0.000 H 
ATOM     89  C61 UNL A   1      14.863  24.501  38.114  1.00  0.00    +0.000 C 
ATOM     90  C62 UNL A   1      14.613  24.738  36.775  1.00  0.00    +0.000 C 
ATOM     91  C63 UNL A   1      15.561  23.980  36.046  1.00  0.00    +0.000 C 
ATOM     92  C64 UNL A   1      16.344  23.346  36.980  1.00  0.00    +0.000 C 
ATOM     93  O5  UNL A   1      15.927  23.649  38.233  1.00  0.00    +0.000 O 
ENDBRANCH   88   89
ENDBRANCH   12   11
ENDBRANCH   14   12
ENDBRANCH   15   14
ENDBRANCH   16   15
ENDBRANCH   17   16
ENDBRANCH   18   17
ENDBRANCH   19   18
ENDBRANCH   20   19
ENDBRANCH   21   20
ENDBRANCH   22   21
ENDBRANCH   24   22
ENDBRANCH   28   27
BRANCH   32   33
ATOM     33  C23 UNL A   1      16.428  37.585  49.884  1.00  0.00    +0.000 C 
ATOM     34  C24 UNL A   1      15.506  37.406  48.840  1.00  0.00    +0.000 C 
ATOM     35  F1  UNL A   1      15.880  37.611  47.568  1.00  0.00    +0.000 F 
ATOM     36  C25 UNL A   1      14.182  37.065  49.102  1.00  0.00    +0.000 C 
ATOM     37  F2  UNL A   1      13.307  36.960  48.092  1.00  0.00    +0.000 F 
ATOM     38  C26 UNL A   1      13.763  36.857  50.407  1.00  0.00    +0.000 C 
ATOM     39  F3  UNL A   1      12.488  36.531  50.659  1.00  0.00    +0.000 F 
ATOM     40  C27 UNL A   1      14.663  36.997  51.452  1.00  0.00    +0.000 C 
ATOM     41  F4  UNL A   1      14.262  36.784  52.713  1.00  0.00    +0.000 F 
ATOM     42  C28 UNL A   1      15.981  37.368  51.196  1.00  0.00    +0.000 C 
ATOM     43  F5  UNL A   1      16.821  37.519  52.231  1.00  0.00    +0.000 F 
ENDBRANCH   32   33
BRANCH   49   50
ATOM     50  C34 UNL A   1      20.725  43.301  50.871  1.00  0.00    +0.000 C 
ATOM     51  C35 UNL A   1      21.095  43.520  52.206  1.00  0.00    +0.000 C 
ATOM     52  F6  UNL A   1      21.481  42.491  52.976  1.00  0.00    +0.000 F 
ATOM     53  C36 UNL A   1      21.034  44.794  52.765  1.00  0.00    +0.000 C 
ATOM     54  F7  UNL A   1      21.351  44.972  54.054  1.00  0.00    +0.000 F 
ATOM     55  C37 UNL A   1      20.632  45.874  51.994  1.00  0.00    +0.000 C 
ATOM     56  F8  UNL A   1      20.580  47.100  52.532  1.00  0.00    +0.000 F 
ATOM     57  C38 UNL A   1      20.277  45.683  50.667  1.00  0.00    +0.000 C 
ATOM     58  F9  UNL A   1      19.899  46.728  49.918  1.00  0.00    +0.000 F 
ATOM     59  C39 UNL A   1      20.311  44.407  50.113  1.00  0.00    +0.000 C 
ATOM     60  F10 UNL A   1      19.952  44.250  48.830  1.00  0.00    +0.000 F 
ENDBRANCH   49   50
BRANCH   64   65
ATOM     65  C43 UNL A   1      25.834  39.934  47.527  1.00  0.00    +0.000 C 
ATOM     66  C44 UNL A   1      26.906  39.820  48.422  1.00  0.00    +0.000 C 
ATOM     67  F11 UNL A   1      26.685  39.421  49.683  1.00  0.00    +0.000 F 
ATOM     68  C45 UNL A   1      28.205  40.141  48.032  1.00  0.00    +0.000 C 
ATOM     69  F12 UNL A   1      29.208  40.051  48.916  1.00  0.00    +0.000 F 
ATOM     70  C46 UNL A   1      28.459  40.559  46.734  1.00  0.00    +0.000 C 
ATOM     71  F13 UNL A   1      29.710  40.855  46.356  1.00  0.00    +0.000 F 
ATOM     72  C47 UNL A   1      27.415  40.670  45.829  1.00  0.00    +0.000 C 
ATOM     73  F14 UNL A   1      27.658  41.059  44.570  1.00  0.00    +0.000 F 
ATOM     74  C48 UNL A   1      26.112  40.373  46.224  1.00  0.00    +0.000 C 
ATOM     75  F15 UNL A   1      25.121  40.490  45.329  1.00  0.00    +0.000 F 
ENDBRANCH   64   65
TORSDOF 19
ENDMDL
MODEL 5
REMARK VINA RESULT:     -11.8      0.639      2.100
ROOT
ATOM     28  C19 UNL A   1      25.727  36.856  45.751  1.00  0.00    +0.000 C 
ATOM     29  C20 UNL A   1      25.699  38.061  46.645  1.00  0.00    +0.000 C 
ATOM     30  N5  UNL A   1      26.659  38.905  46.930  1.00  0.00    +0.000 N 
ATOM     31  C21 UNL A   1      26.089  39.858  47.763  1.00  0.00    +0.000 C 
ATOM     32  C22 UNL A   1      26.684  40.906  48.382  1.00  0.00    +0.000 C 
ATOM     44  C29 UNL A   1      28.083  41.225  48.269  1.00  0.00    +0.000 C 
ATOM     45  C30 UNL A   1      28.797  42.223  48.907  1.00  0.00    +0.000 C 
ATOM     46  C31 UNL A   1      30.119  42.177  48.450  1.00  0.00    +0.000 C 
ATOM     47  C32 UNL A   1      30.241  41.121  47.561  1.00  0.00    +0.000 C 
ATOM     48  N6  UNL A   1      28.983  40.547  47.457  1.00  0.00    +0.000 N 
ATOM     49  C33 UNL A   1      31.415  40.665  46.861  1.00  0.00    +0.000 C 
ATOM     61  C40 UNL A   1      31.455  39.607  46.014  1.00  0.00    +0.000 C 
ATOM     62  N7  UNL A   1      30.427  38.757  45.633  1.00  0.00    +0.000 N 
ATOM     63  C41 UNL A   1      30.958  37.903  44.791  1.00  0.00    +0.000 C 
ATOM     64  C42 UNL A   1      30.310  36.748  44.079  1.00  0.00    +0.000 C 
ATOM     76  C49 UNL A   1      29.022  36.453  44.337  1.00  0.00    +0.000 C 
ATOM     77  C50 UNL A   1      28.271  35.353  43.739  1.00  0.00    +0.000 C 
ATOM     78  C51 UNL A   1      27.006  35.393  44.185  1.00  0.00    +0.000 C 
ATOM     79  C52 UNL A   1      26.866  36.508  45.124  1.00  0.00    +0.000 C 
ATOM     80  N8  UNL A   1      28.119  37.068  45.166  1.00  0.00    +0.000 N 
ATOM     81  C53 UNL A   1      32.385  38.128  44.527  1.00  0.00    +0.000 C 
ATOM     82  C54 UNL A   1      32.646  39.157  45.322  1.00  0.00    +0.000 C 
ATOM     83  C55 UNL A   1      24.687  39.521  47.893  1.00  0.00    +0.000 C 
ATOM     84  C56 UNL A   1      24.411  38.380  47.280  1.00  0.00    +0.000 C 
ATOM    117  H22 UNL A   1      28.420  42.888  49.601  1.00  0.00    +0.000 H 
ATOM    118  H23 UNL A   1      30.877  42.821  48.729  1.00  0.00    +0.000 H 
ATOM    119  H24 UNL A   1      28.760  39.774  46.891  1.00  0.00    +0.000 H 
ATOM    120  H25 UNL A   1      28.652  34.656  43.080  1.00  0.00    +0.000 H 
ATOM    121  H26 UNL A   1      26.252  34.744  43.911  1.00  0.00    +0.000 H 
ATOM    122  H27 UNL A   1      28.345  37.837  45.737  1.00  0.00    +0.000 H 
ATOM    123  H28 UNL A   1      33.019  37.620  43.891  1.00  0.00    +0.000 H 
ATOM    124  H29 UNL A   1      33.579  39.583  45.435  1.00  0.00    +0.000 H 
ATOM    125  H30 UNL A   1      23.994  40.096  48.398  1.00  0.00    +0.000 H 
ATOM    126  H31 UNL A   1      23.524  37.853  47.254  1.00  0.00    +0.000 H 
ENDROOT
BRANCH   28   27
ATOM    115  H20 UNL A   1      22.833  33.324  46.471  1.00  0.00    +0.000 H 
ATOM    116  H21 UNL A   1      24.815  34.625  46.990  1.00  0.00    +0.000 H 
ATOM     85  C57 UNL A   1      23.590  36.520  44.505  1.00  0.00    +0.000 C 
ATOM     86  C58 UNL A   1      22.411  35.817  44.264  1.00  0.00    +0.000 C 
ATOM     24  C15 UNL A   1      22.164  34.619  44.940  1.00  0.00    +0.000 C 
ATOM     25  C16 UNL A   1      23.036  34.188  45.945  1.00  0.00    +0.000 C 
ATOM     26  C17 UNL A   1      24.184  34.929  46.233  1.00  0.00    +0.000 C 
ATOM     27  C18 UNL A   1      24.484  36.085  45.495  1.00  0.00    +0.000 C 
ATOM    127  H32 UNL A   1      23.806  37.364  43.952  1.00  0.00    +0.000 H 
ATOM    128  H33 UNL A   1      21.723  36.180  43.587  1.00  0.00    +0.000 H 
BRANCH   24   22
ATOM     22  C14 UNL A   1      20.975  33.795  44.632  1.00  0.00    +0.000 C 
ATOM     23  O4  UNL A   1      20.012  34.305  44.068  1.00  0.00    +0.000 O 
BRANCH   22   21
ATOM    114  H19 UNL A   1      21.368  32.260  45.856  1.00  0.00    +0.000 H 
ATOM     21  N4  UNL A   1      20.942  32.473  44.994  1.00  0.00    +0.000 N 
BRANCH   21   20
ATOM    113  H18 UNL A   1      20.958  30.479  44.525  1.00  0.00    +0.000 H 
ATOM     20  C13 UNL A   1      20.370  31.341  44.287  1.00  0.00    +0.000 C 
ATOM    112  H17 UNL A   1      20.386  31.549  43.236  1.00  0.00    +0.000 H 
BRANCH   20   19
ATOM     19  C12 UNL A   1      18.934  31.056  44.709  1.00  0.00    +0.000 C 
ATOM    110  H15 UNL A   1      18.962  30.458  45.597  1.00  0.00    +0.000 H 
ATOM    111  H16 UNL A   1      18.471  32.010  44.852  1.00  0.00    +0.000 H 
BRANCH   19   18
ATOM     18  C11 UNL A   1      18.084  30.321  43.669  1.00  0.00    +0.000 C 
ATOM    108  H13 UNL A   1      18.230  30.803  42.725  1.00  0.00    +0.000 H 
ATOM    109  H14 UNL A   1      18.410  29.303  43.690  1.00  0.00    +0.000 H 
BRANCH   18   17
ATOM     17  C10 UNL A   1      16.578  30.284  43.952  1.00  0.00    +0.000 C 
ATOM    106  H11 UNL A   1      16.369  31.000  44.719  1.00  0.00    +0.000 H 
ATOM    107  H12 UNL A   1      16.099  30.499  43.020  1.00  0.00    +0.000 H 
BRANCH   17   16
ATOM    105  H10 UNL A   1      14.989  28.922  44.143  1.00  0.00    +0.000 H 
ATOM    104  H9  UNL A   1      16.190  28.840  45.461  1.00  0.00    +0.000 H 
ATOM     16  C9  UNL A   1      16.026  28.930  44.407  1.00  0.00    +0.000 C 
BRANCH   16   15
ATOM    103  H8  UNL A   1      16.939  27.013  44.472  1.00  0.00    +0.000 H 
ATOM    102  H7  UNL A   1      17.512  28.040  43.166  1.00  0.00    +0.000 H 
ATOM     15  C8  UNL A   1      16.656  27.722  43.722  1.00  0.00    +0.000 C 
BRANCH   15   14
ATOM    101  H6  UNL A   1      15.158  26.410  43.265  1.00  0.00    +0.000 H 
ATOM     14  N3  UNL A   1      15.715  27.090  42.822  1.00  0.00    +0.000 N 
BRANCH   14   12
ATOM     12  C7  UNL A   1      15.426  27.229  41.489  1.00  0.00    +0.000 C 
ATOM     13  O3  UNL A   1      15.535  28.354  41.005  1.00  0.00    +0.000 O 
BRANCH   12   11
ATOM    129  H34 UNL A   1      15.757  26.398  38.668  1.00  0.00    +0.000 H 
ATOM    130  H35 UNL A   1      14.168  26.964  38.763  1.00  0.00    +0.000 H 
ATOM    131  H36 UNL A   1      13.340  24.708  38.384  1.00  0.00    +0.000 H 
ATOM      9  N1  UNL A   1      14.413  24.096  40.085  1.00  0.00    +0.000 N 
ATOM     10  N2  UNL A   1      14.581  24.960  41.122  1.00  0.00    +0.000 N 
ATOM     11  C6  UNL A   1      14.916  26.103  40.603  1.00  0.00    +0.000 C 
ATOM     87  C59 UNL A   1      14.810  26.185  39.119  1.00  0.00    +0.000 C 
ATOM     88  C60 UNL A   1      14.332  24.767  38.784  1.00  0.00    +0.000 C 
BRANCH    9    8
ATOM     99  H4  UNL A   1      13.421  20.380  42.535  1.00  0.00    +0.000 H 
ATOM    100  H5  UNL A   1      14.501  22.538  42.262  1.00  0.00    +0.000 H 
ATOM      5  C2  UNL A   1      12.557  20.366  40.605  1.00  0.00    +0.000 C 
ATOM      6  C3  UNL A   1      13.316  20.902  41.651  1.00  0.00    +0.000 C 
ATOM      7  C4  UNL A   1      13.932  22.150  41.493  1.00  0.00    +0.000 C 
ATOM    136  H41 UNL A   1      11.847  20.675  38.640  1.00  0.00    +0.000 H 
ATOM    135  H40 UNL A   1      12.910  22.833  38.389  1.00  0.00    +0.000 H 
ATOM      8  C5  UNL A   1      13.785  22.876  40.306  1.00  0.00    +0.000 C 
ATOM     94  C65 UNL A   1      13.021  22.313  39.274  1.00  0.00    +0.000 C 
ATOM     95  C66 UNL A   1      12.407  21.069  39.413  1.00  0.00    +0.000 C 
BRANCH    5    2
ATOM      2  S1  UNL A   1      11.842  18.756  40.825  1.00  0.00    +0.000 S 
ATOM      3  O1  UNL A   1      12.583  18.123  41.899  1.00  0.00    +0.000 O 
ATOM      4  O2  UNL A   1      11.760  18.152  39.510  1.00  0.00    +0.000 O 
BRANCH    2    1
ATOM      1  C1  UNL A   1      10.180  19.002  41.392  1.00  0.00    +0.000 C 
ATOM     98  H3  UNL A   1       9.634  19.564  40.662  1.00  0.00    +0.000 H 
ATOM     97  H2  UNL A   1       9.709  18.054  41.538  1.00  0.00    +0.000 H 
ATOM     96  H1  UNL A   1      10.195  19.540  42.316  1.00  0.00    +0.000 H 
ENDBRANCH    2    1
ENDBRANCH    5    2
ENDBRANCH    9    8
BRANCH   88   89
ATOM    132  H37 UNL A   1      14.424  24.930  35.762  1.00  0.00    +0.000 H 
ATOM    133  H38 UNL A   1      16.186  23.232  34.738  1.00  0.00    +0.000 H 
ATOM    134  H39 UNL A   1      17.336  22.061  36.732  1.00  0.00    +0.000 H 
ATOM     89  C61 UNL A   1      15.107  24.145  37.659  1.00  0.00    +0.000 C 
ATOM     90  C62 UNL A   1      15.041  24.289  36.286  1.00  0.00    +0.000 C 
ATOM     91  C63 UNL A   1      15.987  23.389  35.739  1.00  0.00    +0.000 C 
ATOM     92  C64 UNL A   1      16.587  22.768  36.807  1.00  0.00    +0.000 C 
ATOM     93  O5  UNL A   1      16.058  23.213  37.973  1.00  0.00    +0.000 O 
ENDBRANCH   88   89
ENDBRANCH   12   11
ENDBRANCH   14   12
ENDBRANCH   15   14
ENDBRANCH   16   15
ENDBRANCH   17   16
ENDBRANCH   18   17
ENDBRANCH   19   18
ENDBRANCH   20   19
ENDBRANCH   21   20
ENDBRANCH   22   21
ENDBRANCH   24   22
ENDBRANCH   28   27
BRANCH   32   33
ATOM     33  C23 UNL A   1      25.816  41.783  49.238  1.00  0.00    +0.000 C 
ATOM     34  C24 UNL A   1      25.157  42.905  48.711  1.00  0.00    +0.000 C 
ATOM     35  F1  UNL A   1      25.309  43.232  47.419  1.00  0.00    +0.000 F 
ATOM     36  C25 UNL A   1      24.381  43.728  49.523  1.00  0.00    +0.000 C 
ATOM     37  F2  UNL A   1      23.813  44.828  49.010  1.00  0.00    +0.000 F 
ATOM     38  C26 UNL A   1      24.215  43.423  50.865  1.00  0.00    +0.000 C 
ATOM     39  F3  UNL A   1      23.469  44.217  51.646  1.00  0.00    +0.000 F 
ATOM     40  C27 UNL A   1      24.830  42.302  51.400  1.00  0.00    +0.000 C 
ATOM     41  F4  UNL A   1      24.660  42.000  52.695  1.00  0.00    +0.000 F 
ATOM     42  C28 UNL A   1      25.632  41.494  50.598  1.00  0.00    +0.000 C 
ATOM     43  F5  UNL A   1      26.233  40.430  51.152  1.00  0.00    +0.000 F 
ENDBRANCH   32   33
BRANCH   49   50
ATOM     50  C34 UNL A   1      32.700  41.402  47.098  1.00  0.00    +0.000 C 
ATOM     51  C35 UNL A   1      32.965  42.632  46.480  1.00  0.00    +0.000 C 
ATOM     52  F6  UNL A   1      32.086  43.154  45.611  1.00  0.00    +0.000 F 
ATOM     53  C36 UNL A   1      34.155  43.314  46.724  1.00  0.00    +0.000 C 
ATOM     54  F7  UNL A   1      34.406  44.467  46.090  1.00  0.00    +0.000 F 
ATOM     55  C37 UNL A   1      35.084  42.795  47.613  1.00  0.00    +0.000 C 
ATOM     56  F8  UNL A   1      36.225  43.456  47.852  1.00  0.00    +0.000 F 
ATOM     57  C38 UNL A   1      34.835  41.588  48.248  1.00  0.00    +0.000 C 
ATOM     58  F9  UNL A   1      35.728  41.091  49.115  1.00  0.00    +0.000 F 
ATOM     59  C39 UNL A   1      33.660  40.891  47.985  1.00  0.00    +0.000 C 
ATOM     60  F10 UNL A   1      33.450  39.720  48.606  1.00  0.00    +0.000 F 
ENDBRANCH   49   50
BRANCH   64   65
ATOM     65  C43 UNL A   1      31.073  35.911  43.119  1.00  0.00    +0.000 C 
ATOM     66  C44 UNL A   1      31.602  34.672  43.504  1.00  0.00    +0.000 C 
ATOM     67  F11 UNL A   1      31.465  34.251  44.770  1.00  0.00    +0.000 F 
ATOM     68  C45 UNL A   1      32.296  33.874  42.598  1.00  0.00    +0.000 C 
ATOM     69  F12 UNL A   1      32.817  32.706  43.000  1.00  0.00    +0.000 F 
ATOM     70  C46 UNL A   1      32.454  34.289  41.284  1.00  0.00    +0.000 C 
ATOM     71  F13 UNL A   1      33.111  33.514  40.409  1.00  0.00    +0.000 F 
ATOM     72  C47 UNL A   1      31.931  35.507  40.878  1.00  0.00    +0.000 C 
ATOM     73  F14 UNL A   1      32.068  35.904  39.605  1.00  0.00    +0.000 F 
ATOM     74  C48 UNL A   1      31.258  36.317  41.789  1.00  0.00    +0.000 C 
ATOM     75  F15 UNL A   1      30.763  37.491  41.370  1.00  0.00    +0.000 F 
ENDBRANCH   64   65
TORSDOF 19
ENDMDL
MODEL 6
REMARK VINA RESULT:     -11.7     41.262     47.085
ROOT
ATOM     28  C19 UNL A   1      53.905  18.663  10.943  1.00  0.00    +0.000 C 
ATOM     29  C20 UNL A   1      53.711  19.628  12.077  1.00  0.00    +0.000 C 
ATOM     30  N5  UNL A   1      54.534  19.946  13.044  1.00  0.00    +0.000 N 
ATOM     31  C21 UNL A   1      53.882  20.919  13.789  1.00  0.00    +0.000 C 
ATOM     32  C22 UNL A   1      54.288  21.523  14.933  1.00  0.00    +0.000 C 
ATOM     44  C29 UNL A   1      55.534  21.244  15.597  1.00  0.00    +0.000 C 
ATOM     45  C30 UNL A   1      56.009  21.752  16.793  1.00  0.00    +0.000 C 
ATOM     46  C31 UNL A   1      57.287  21.227  17.015  1.00  0.00    +0.000 C 
ATOM     47  C32 UNL A   1      57.590  20.356  15.982  1.00  0.00    +0.000 C 
ATOM     48  N6  UNL A   1      56.508  20.379  15.116  1.00  0.00    +0.000 N 
ATOM     49  C33 UNL A   1      58.777  19.560  15.795  1.00  0.00    +0.000 C 
ATOM     61  C40 UNL A   1      58.994  18.716  14.757  1.00  0.00    +0.000 C 
ATOM     62  N7  UNL A   1      58.170  18.434  13.677  1.00  0.00    +0.000 N 
ATOM     63  C41 UNL A   1      58.823  17.568  12.941  1.00  0.00    +0.000 C 
ATOM     64  C42 UNL A   1      58.399  16.902  11.661  1.00  0.00    +0.000 C 
ATOM     76  C49 UNL A   1      57.166  17.136  11.173  1.00  0.00    +0.000 C 
ATOM     77  C50 UNL A   1      56.612  16.546   9.958  1.00  0.00    +0.000 C 
ATOM     78  C51 UNL A   1      55.383  17.044   9.751  1.00  0.00    +0.000 C 
ATOM     79  C52 UNL A   1      55.052  17.967  10.837  1.00  0.00    +0.000 C 
ATOM     80  N8  UNL A   1      56.162  17.944  11.645  1.00  0.00    +0.000 N 
ATOM     81  C53 UNL A   1      60.150  17.215  13.463  1.00  0.00    +0.000 C 
ATOM     82  C54 UNL A   1      60.190  17.916  14.588  1.00  0.00    +0.000 C 
ATOM     83  C55 UNL A   1      52.620  21.179  13.132  1.00  0.00    +0.000 C 
ATOM     84  C56 UNL A   1      52.435  20.358  12.109  1.00  0.00    +0.000 C 
ATOM    117  H22 UNL A   1      55.507  22.405  17.415  1.00  0.00    +0.000 H 
ATOM    118  H23 UNL A   1      57.900  21.450  17.816  1.00  0.00    +0.000 H 
ATOM    119  H24 UNL A   1      56.438  19.859  14.284  1.00  0.00    +0.000 H 
ATOM    120  H25 UNL A   1      57.088  15.857   9.355  1.00  0.00    +0.000 H 
ATOM    121  H26 UNL A   1      54.769  16.814   8.954  1.00  0.00    +0.000 H 
ATOM    122  H27 UNL A   1      56.231  18.458  12.482  1.00  0.00    +0.000 H 
ATOM    123  H28 UNL A   1      60.863  16.586  13.062  1.00  0.00    +0.000 H 
ATOM    124  H29 UNL A   1      60.974  17.895  15.259  1.00  0.00    +0.000 H 
ATOM    125  H30 UNL A   1      51.951  21.911  13.421  1.00  0.00    +0.000 H 
ATOM    126  H31 UNL A   1      51.612  20.257  11.496  1.00  0.00    +0.000 H 
ENDROOT
BRANCH   28   27
ATOM    115  H20 UNL A   1      51.822  19.887   7.001  1.00  0.00    +0.000 H 
ATOM    116  H21 UNL A   1      53.604  20.061   8.641  1.00  0.00    +0.000 H 
ATOM     85  C57 UNL A   1      51.873  17.540  10.025  1.00  0.00    +0.000 C 
ATOM     86  C58 UNL A   1      50.899  17.387   9.041  1.00  0.00    +0.000 C 
ATOM     24  C15 UNL A   1      50.845  18.281   7.968  1.00  0.00    +0.000 C 
ATOM     25  C16 UNL A   1      51.840  19.252   7.815  1.00  0.00    +0.000 C 
ATOM     26  C17 UNL A   1      52.856  19.362   8.766  1.00  0.00    +0.000 C 
ATOM     27  C18 UNL A   1      52.864  18.525   9.893  1.00  0.00    +0.000 C 
ATOM    127  H32 UNL A   1      51.866  16.925  10.854  1.00  0.00    +0.000 H 
ATOM    128  H33 UNL A   1      50.217  16.615   9.106  1.00  0.00    +0.000 H 
BRANCH   24   22
ATOM     22  C14 UNL A   1      49.762  18.211   6.964  1.00  0.00    +0.000 C 
ATOM     23  O4  UNL A   1      49.938  17.590   5.921  1.00  0.00    +0.000 O 
BRANCH   22   21
ATOM    114  H19 UNL A   1      48.292  18.904   8.133  1.00  0.00    +0.000 H 
ATOM     21  N4  UNL A   1      48.572  18.855   7.190  1.00  0.00    +0.000 N 
BRANCH   21   20
ATOM    113  H18 UNL A   1      48.253  19.850   5.429  1.00  0.00    +0.000 H 
ATOM     20  C13 UNL A   1      47.666  19.472   6.239  1.00  0.00    +0.000 C 
ATOM    112  H17 UNL A   1      47.130  20.256   6.735  1.00  0.00    +0.000 H 
BRANCH   20   19
ATOM     19  C12 UNL A   1      46.662  18.480   5.663  1.00  0.00    +0.000 C 
ATOM    110  H15 UNL A   1      47.163  17.545   5.522  1.00  0.00    +0.000 H 
ATOM    111  H16 UNL A   1      45.856  18.430   6.366  1.00  0.00    +0.000 H 
BRANCH   19   18
ATOM     18  C11 UNL A   1      46.036  18.889   4.327  1.00  0.00    +0.000 C 
ATOM    108  H13 UNL A   1      46.747  18.684   3.554  1.00  0.00    +0.000 H 
ATOM    109  H14 UNL A   1      45.131  18.326   4.243  1.00  0.00    +0.000 H 
BRANCH   18   17
ATOM     17  C10 UNL A   1      45.626  20.361   4.212  1.00  0.00    +0.000 C 
ATOM    106  H11 UNL A   1      45.084  20.623   5.096  1.00  0.00    +0.000 H 
ATOM    107  H12 UNL A   1      46.536  20.910   4.085  1.00  0.00    +0.000 H 
BRANCH   17   16
ATOM    105  H10 UNL A   1      45.292  21.443   2.441  1.00  0.00    +0.000 H 
ATOM    104  H9  UNL A   1      43.810  21.067   3.364  1.00  0.00    +0.000 H 
ATOM     16  C9  UNL A   1      44.752  20.709   3.003  1.00  0.00    +0.000 C 
BRANCH   16   15
ATOM    103  H8  UNL A   1      44.938  18.665   2.456  1.00  0.00    +0.000 H 
ATOM    102  H7  UNL A   1      44.904  19.774   1.094  1.00  0.00    +0.000 H 
ATOM     15  C8  UNL A   1      44.487  19.547   2.052  1.00  0.00    +0.000 C 
BRANCH   15   14
ATOM    101  H6  UNL A   1      42.755  19.419   0.978  1.00  0.00    +0.000 H 
ATOM     14  N3  UNL A   1      43.066  19.314   1.906  1.00  0.00    +0.000 N 
BRANCH   14   12
ATOM     12  C7  UNL A   1      42.057  18.980   2.772  1.00  0.00    +0.000 C 
ATOM     13  O3  UNL A   1      42.376  18.402   3.809  1.00  0.00    +0.000 O 
BRANCH   12   11
ATOM    129  H34 UNL A   1      39.536  18.856   4.318  1.00  0.00    +0.000 H 
ATOM    130  H35 UNL A   1      39.462  17.532   3.272  1.00  0.00    +0.000 H 
ATOM    131  H36 UNL A   1      37.619  18.576   2.077  1.00  0.00    +0.000 H 
ATOM      9  N1  UNL A   1      38.874  20.223   1.709  1.00  0.00    +0.000 N 
ATOM     10  N2  UNL A   1      40.211  20.029   1.553  1.00  0.00    +0.000 N 
ATOM     11  C6  UNL A   1      40.581  19.215   2.495  1.00  0.00    +0.000 C 
ATOM     87  C59 UNL A   1      39.472  18.601   3.280  1.00  0.00    +0.000 C 
ATOM     88  C60 UNL A   1      38.252  19.251   2.615  1.00  0.00    +0.000 C 
BRANCH    9    8
ATOM     99  H4  UNL A   1      35.143  20.859  -0.834  1.00  0.00    +0.000 H 
ATOM    100  H5  UNL A   1      36.319  19.813   1.014  1.00  0.00    +0.000 H 
ATOM      5  C2  UNL A   1      36.797  22.012  -1.471  1.00  0.00    +0.000 C 
ATOM      6  C3  UNL A   1      36.131  21.095  -0.651  1.00  0.00    +0.000 C 
ATOM      7  C4  UNL A   1      36.810  20.498   0.419  1.00  0.00    +0.000 C 
ATOM    136  H41 UNL A   1      38.621  23.016  -1.828  1.00  0.00    +0.000 H 
ATOM    135  H40 UNL A   1      39.774  21.984   0.029  1.00  0.00    +0.000 H 
ATOM      8  C5  UNL A   1      38.145  20.821   0.688  1.00  0.00    +0.000 C 
ATOM     94  C65 UNL A   1      38.788  21.742  -0.152  1.00  0.00    +0.000 C 
ATOM     95  C66 UNL A   1      38.127  22.339  -1.224  1.00  0.00    +0.000 C 
BRANCH    5    2
ATOM      2  S1  UNL A   1      35.916  22.700  -2.850  1.00  0.00    +0.000 S 
ATOM      3  O1  UNL A   1      36.177  21.827  -3.979  1.00  0.00    +0.000 O 
ATOM      4  O2  UNL A   1      36.250  24.110  -2.898  1.00  0.00    +0.000 O 
BRANCH    2    1
ATOM      1  C1  UNL A   1      34.189  22.584  -2.469  1.00  0.00    +0.000 C 
ATOM     98  H3  UNL A   1      34.051  21.927  -1.635  1.00  0.00    +0.000 H 
ATOM     97  H2  UNL A   1      33.812  23.554  -2.227  1.00  0.00    +0.000 H 
ATOM     96  H1  UNL A   1      33.662  22.198  -3.317  1.00  0.00    +0.000 H 
ENDBRANCH    2    1
ENDBRANCH    5    2
ENDBRANCH    9    8
BRANCH   88   89
ATOM    132  H37 UNL A   1      37.703  21.876   4.020  1.00  0.00    +0.000 H 
ATOM    133  H38 UNL A   1      35.692  21.672   5.737  1.00  0.00    +0.000 H 
ATOM    134  H39 UNL A   1      34.788  19.261   5.541  1.00  0.00    +0.000 H 
ATOM     89  C61 UNL A   1      37.271  19.796   3.612  1.00  0.00    +0.000 C 
ATOM     90  C62 UNL A   1      37.132  21.036   4.206  1.00  0.00    +0.000 C 
ATOM     91  C63 UNL A   1      36.054  20.931   5.117  1.00  0.00    +0.000 C 
ATOM     92  C64 UNL A   1      35.586  19.644   5.009  1.00  0.00    +0.000 C 
ATOM     93  O5  UNL A   1      36.319  18.947   4.106  1.00  0.00    +0.000 O 
ENDBRANCH   88   89
ENDBRANCH   12   11
ENDBRANCH   14   12
ENDBRANCH   15   14
ENDBRANCH   16   15
ENDBRANCH   17   16
ENDBRANCH   18   17
ENDBRANCH   19   18
ENDBRANCH   20   19
ENDBRANCH   21   20
ENDBRANCH   22   21
ENDBRANCH   24   22
ENDBRANCH   28   27
BRANCH   32   33
ATOM     33  C23 UNL A   1      53.369  22.547  15.532  1.00  0.00    +0.000 C 
ATOM     34  C24 UNL A   1      53.380  23.886  15.107  1.00  0.00    +0.000 C 
ATOM     35  F1  UNL A   1      54.238  24.283  14.155  1.00  0.00    +0.000 F 
ATOM     36  C25 UNL A   1      52.544  24.832  15.694  1.00  0.00    +0.000 C 
ATOM     37  F2  UNL A   1      52.618  26.115  15.312  1.00  0.00    +0.000 F 
ATOM     38  C26 UNL A   1      51.655  24.454  16.687  1.00  0.00    +0.000 C 
ATOM     39  F3  UNL A   1      50.853  25.366  17.253  1.00  0.00    +0.000 F 
ATOM     40  C27 UNL A   1      51.604  23.132  17.102  1.00  0.00    +0.000 C 
ATOM     41  F4  UNL A   1      50.736  22.763  18.054  1.00  0.00    +0.000 F 
ATOM     42  C28 UNL A   1      52.460  22.189  16.538  1.00  0.00    +0.000 C 
ATOM     43  F5  UNL A   1      52.403  20.922  16.979  1.00  0.00    +0.000 F 
ENDBRANCH   32   33
BRANCH   49   50
ATOM     50  C34 UNL A   1      59.852  19.654  16.838  1.00  0.00    +0.000 C 
ATOM     51  C35 UNL A   1      60.933  20.536  16.700  1.00  0.00    +0.000 C 
ATOM     52  F6  UNL A   1      61.056  21.285  15.593  1.00  0.00    +0.000 F 
ATOM     53  C36 UNL A   1      61.913  20.626  17.685  1.00  0.00    +0.000 C 
ATOM     54  F7  UNL A   1      62.960  21.445  17.513  1.00  0.00    +0.000 F 
ATOM     55  C37 UNL A   1      61.815  19.860  18.837  1.00  0.00    +0.000 C 
ATOM     56  F8  UNL A   1      62.755  19.952  19.787  1.00  0.00    +0.000 F 
ATOM     57  C38 UNL A   1      60.745  18.992  19.001  1.00  0.00    +0.000 C 
ATOM     58  F9  UNL A   1      60.644  18.259  20.119  1.00  0.00    +0.000 F 
ATOM     59  C39 UNL A   1      59.779  18.880  18.007  1.00  0.00    +0.000 C 
ATOM     60  F10 UNL A   1      58.761  18.025  18.188  1.00  0.00    +0.000 F 
ENDBRANCH   49   50
BRANCH   64   65
ATOM     65  C43 UNL A   1      59.304  15.973  10.940  1.00  0.00    +0.000 C 
ATOM     66  C44 UNL A   1      60.168  16.439   9.940  1.00  0.00    +0.000 C 
ATOM     67  F11 UNL A   1      60.148  17.733   9.588  1.00  0.00    +0.000 F 
ATOM     68  C45 UNL A   1      61.037  15.573   9.280  1.00  0.00    +0.000 C 
ATOM     69  F12 UNL A   1      61.832  16.039   8.307  1.00  0.00    +0.000 F 
ATOM     70  C46 UNL A   1      61.075  14.230   9.623  1.00  0.00    +0.000 C 
ATOM     71  F13 UNL A   1      61.920  13.399   8.996  1.00  0.00    +0.000 F 
ATOM     72  C47 UNL A   1      60.236  13.748  10.615  1.00  0.00    +0.000 C 
ATOM     73  F14 UNL A   1      60.280  12.454  10.961  1.00  0.00    +0.000 F 
ATOM     74  C48 UNL A   1      59.349  14.608  11.260  1.00  0.00    +0.000 C 
ATOM     75  F15 UNL A   1      58.548  14.115  12.216  1.00  0.00    +0.000 F 
ENDBRANCH   64   65
TORSDOF 19
ENDMDL
MODEL 7
REMARK VINA RESULT:     -11.7     40.108     46.283
ROOT
ATOM     28  C19 UNL A   1      53.237  19.958  11.592  1.00  0.00    +0.000 C 
ATOM     29  C20 UNL A   1      53.017  20.562  12.949  1.00  0.00    +0.000 C 
ATOM     30  N5  UNL A   1      53.850  20.671  13.953  1.00  0.00    +0.000 N 
ATOM     31  C21 UNL A   1      53.158  21.350  14.946  1.00  0.00    +0.000 C 
ATOM     32  C22 UNL A   1      53.562  21.653  16.204  1.00  0.00    +0.000 C 
ATOM     44  C29 UNL A   1      54.849  21.305  16.747  1.00  0.00    +0.000 C 
ATOM     45  C30 UNL A   1      55.330  21.507  18.027  1.00  0.00    +0.000 C 
ATOM     46  C31 UNL A   1      56.651  21.044  18.077  1.00  0.00    +0.000 C 
ATOM     47  C32 UNL A   1      56.977  20.513  16.840  1.00  0.00    +0.000 C 
ATOM     48  N6  UNL A   1      55.864  20.683  16.032  1.00  0.00    +0.000 N 
ATOM     49  C33 UNL A   1      58.210  19.894  16.425  1.00  0.00    +0.000 C 
ATOM     61  C40 UNL A   1      58.448  19.382  15.192  1.00  0.00    +0.000 C 
ATOM     62  N7  UNL A   1      57.606  19.338  14.089  1.00  0.00    +0.000 N 
ATOM     63  C41 UNL A   1      58.292  18.758  13.135  1.00  0.00    +0.000 C 
ATOM     64  C42 UNL A   1      57.870  18.432  11.729  1.00  0.00    +0.000 C 
ATOM     76  C49 UNL A   1      56.606  18.690  11.344  1.00  0.00    +0.000 C 
ATOM     77  C50 UNL A   1      56.050  18.408  10.023  1.00  0.00    +0.000 C 
ATOM     78  C51 UNL A   1      54.782  18.844   9.980  1.00  0.00    +0.000 C 
ATOM     79  C52 UNL A   1      54.426  19.410  11.282  1.00  0.00    +0.000 C 
ATOM     80  N8  UNL A   1      55.565  19.257  12.034  1.00  0.00    +0.000 N 
ATOM     81  C53 UNL A   1      59.660  18.384  13.519  1.00  0.00    +0.000 C 
ATOM     82  C54 UNL A   1      59.692  18.756  14.792  1.00  0.00    +0.000 C 
ATOM     83  C55 UNL A   1      51.856  21.678  14.405  1.00  0.00    +0.000 C 
ATOM     84  C56 UNL A   1      51.693  21.152  13.200  1.00  0.00    +0.000 C 
ATOM    117  H22 UNL A   1      54.806  21.926  18.812  1.00  0.00    +0.000 H 
ATOM    118  H23 UNL A   1      57.276  21.091  18.898  1.00  0.00    +0.000 H 
ATOM    119  H24 UNL A   1      55.801  20.403  15.090  1.00  0.00    +0.000 H 
ATOM    120  H25 UNL A   1      56.552  17.948   9.248  1.00  0.00    +0.000 H 
ATOM    121  H26 UNL A   1      54.156  18.790   9.161  1.00  0.00    +0.000 H 
ATOM    122  H27 UNL A   1      55.627  19.530  12.979  1.00  0.00    +0.000 H 
ATOM    123  H28 UNL A   1      60.401  17.946  12.950  1.00  0.00    +0.000 H 
ATOM    124  H29 UNL A   1      60.500  18.616  15.419  1.00  0.00    +0.000 H 
ATOM    125  H30 UNL A   1      51.148  22.248  14.894  1.00  0.00    +0.000 H 
ATOM    126  H31 UNL A   1      50.857  21.155  12.596  1.00  0.00    +0.000 H 
ENDROOT
BRANCH   28   27
ATOM    115  H20 UNL A   1      50.754  22.127   8.351  1.00  0.00    +0.000 H 
ATOM    116  H21 UNL A   1      52.580  22.008   9.946  1.00  0.00    +0.000 H 
ATOM     85  C57 UNL A   1      51.357  18.906  10.330  1.00  0.00    +0.000 C 
ATOM     86  C58 UNL A   1      50.362  18.949   9.356  1.00  0.00    +0.000 C 
ATOM     24  C15 UNL A   1      50.104  20.142   8.676  1.00  0.00    +0.000 C 
ATOM     25  C16 UNL A   1      50.920  21.258   8.883  1.00  0.00    +0.000 C 
ATOM     26  C17 UNL A   1      51.962  21.194   9.811  1.00  0.00    +0.000 C 
ATOM     27  C18 UNL A   1      52.169  20.026  10.562  1.00  0.00    +0.000 C 
ATOM    127  H32 UNL A   1      51.497  18.046  10.883  1.00  0.00    +0.000 H 
ATOM    128  H33 UNL A   1      49.816  18.100   9.138  1.00  0.00    +0.000 H 
BRANCH   24   22
ATOM     22  C14 UNL A   1      48.986  20.250   7.713  1.00  0.00    +0.000 C 
ATOM     23  O4  UNL A   1      48.413  21.324   7.564  1.00  0.00    +0.000 O 
BRANCH   22   21
ATOM    114  H19 UNL A   1      49.256  18.439   6.903  1.00  0.00    +0.000 H 
ATOM     21  N4  UNL A   1      48.581  19.148   7.004  1.00  0.00    +0.000 N 
BRANCH   21   20
ATOM    113  H18 UNL A   1      46.997  19.762   5.860  1.00  0.00    +0.000 H 
ATOM     20  C13 UNL A   1      47.298  18.878   6.380  1.00  0.00    +0.000 C 
ATOM    112  H17 UNL A   1      46.595  18.612   7.142  1.00  0.00    +0.000 H 
BRANCH   20   19
ATOM     19  C12 UNL A   1      47.372  17.743   5.364  1.00  0.00    +0.000 C 
ATOM    110  H15 UNL A   1      48.386  17.399   5.325  1.00  0.00    +0.000 H 
ATOM    111  H16 UNL A   1      46.682  16.998   5.700  1.00  0.00    +0.000 H 
BRANCH   19   18
ATOM     18  C11 UNL A   1      46.942  18.113   3.943  1.00  0.00    +0.000 C 
ATOM    108  H13 UNL A   1      47.796  18.510   3.433  1.00  0.00    +0.000 H 
ATOM    109  H14 UNL A   1      46.559  17.214   3.509  1.00  0.00    +0.000 H 
BRANCH   18   17
ATOM     17  C10 UNL A   1      45.812  19.143   3.840  1.00  0.00    +0.000 C 
ATOM    106  H11 UNL A   1      44.932  18.710   4.267  1.00  0.00    +0.000 H 
ATOM    107  H12 UNL A   1      46.159  20.012   4.358  1.00  0.00    +0.000 H 
BRANCH   17   16
ATOM    105  H10 UNL A   1      45.369  18.720   1.830  1.00  0.00    +0.000 H 
ATOM    104  H9  UNL A   1      46.252  20.251   2.082  1.00  0.00    +0.000 H 
ATOM     16  C9  UNL A   1      45.468  19.606   2.421  1.00  0.00    +0.000 C 
BRANCH   16   15
ATOM    103  H8  UNL A   1      44.204  21.013   1.454  1.00  0.00    +0.000 H 
ATOM    102  H7  UNL A   1      43.977  20.918   3.194  1.00  0.00    +0.000 H 
ATOM     15  C8  UNL A   1      44.147  20.358   2.298  1.00  0.00    +0.000 C 
BRANCH   15   14
ATOM    101  H6  UNL A   1      43.020  19.069   1.185  1.00  0.00    +0.000 H 
ATOM     14  N3  UNL A   1      43.047  19.440   2.097  1.00  0.00    +0.000 N 
BRANCH   14   12
ATOM     12  C7  UNL A   1      42.034  18.971   2.893  1.00  0.00    +0.000 C 
ATOM     13  O3  UNL A   1      42.351  18.255   3.841  1.00  0.00    +0.000 O 
BRANCH   12   11
ATOM    129  H34 UNL A   1      39.511  18.709   4.417  1.00  0.00    +0.000 H 
ATOM    130  H35 UNL A   1      39.444  17.476   3.264  1.00  0.00    +0.000 H 
ATOM    131  H36 UNL A   1      37.599  18.610   2.156  1.00  0.00    +0.000 H 
ATOM      9  N1  UNL A   1      38.848  20.286   1.930  1.00  0.00    +0.000 N 
ATOM     10  N2  UNL A   1      40.186  20.111   1.761  1.00  0.00    +0.000 N 
ATOM     11  C6  UNL A   1      40.557  19.223   2.634  1.00  0.00    +0.000 C 
ATOM     87  C59 UNL A   1      39.449  18.541   3.362  1.00  0.00    +0.000 C 
ATOM     88  C60 UNL A   1      38.229  19.240   2.750  1.00  0.00    +0.000 C 
BRANCH    9    8
ATOM     99  H4  UNL A   1      35.074  21.227  -0.450  1.00  0.00    +0.000 H 
ATOM    100  H5  UNL A   1      36.253  20.042   1.311  1.00  0.00    +0.000 H 
ATOM      5  C2  UNL A   1      36.766  22.317  -1.098  1.00  0.00    +0.000 C 
ATOM      6  C3  UNL A   1      36.078  21.402  -0.293  1.00  0.00    +0.000 C 
ATOM      7  C4  UNL A   1      36.760  20.726   0.727  1.00  0.00    +0.000 C 
ATOM    136  H41 UNL A   1      38.628  23.237  -1.480  1.00  0.00    +0.000 H 
ATOM    135  H40 UNL A   1      39.786  22.067   0.292  1.00  0.00    +0.000 H 
ATOM      8  C5  UNL A   1      38.119  20.966   0.961  1.00  0.00    +0.000 C 
ATOM     94  C65 UNL A   1      38.782  21.886   0.137  1.00  0.00    +0.000 C 
ATOM     95  C66 UNL A   1      38.120  22.562  -0.886  1.00  0.00    +0.000 C 
BRANCH    5    2
ATOM      2  S1  UNL A   1      35.878  23.108  -2.416  1.00  0.00    +0.000 S 
ATOM      3  O1  UNL A   1      36.744  24.154  -2.923  1.00  0.00    +0.000 O 
ATOM      4  O2  UNL A   1      34.554  23.408  -1.906  1.00  0.00    +0.000 O 
BRANCH    2    1
ATOM      1  C1  UNL A   1      35.681  21.903  -3.702  1.00  0.00    +0.000 C 
ATOM     98  H3  UNL A   1      36.616  21.411  -3.876  1.00  0.00    +0.000 H 
ATOM     97  H2  UNL A   1      34.948  21.183  -3.407  1.00  0.00    +0.000 H 
ATOM     96  H1  UNL A   1      35.363  22.390  -4.600  1.00  0.00    +0.000 H 
ENDBRANCH    2    1
ENDBRANCH    5    2
ENDBRANCH    9    8
BRANCH   88   89
ATOM    132  H37 UNL A   1      36.075  18.017   4.491  1.00  0.00    +0.000 H 
ATOM    133  H38 UNL A   1      34.822  19.851   5.942  1.00  0.00    +0.000 H 
ATOM    134  H39 UNL A   1      35.974  22.108   5.444  1.00  0.00    +0.000 H 
ATOM     89  C61 UNL A   1      37.243  19.696   3.787  1.00  0.00    +0.000 C 
ATOM     90  C62 UNL A   1      36.274  19.030   4.513  1.00  0.00    +0.000 C 
ATOM     91  C63 UNL A   1      35.610  20.007   5.293  1.00  0.00    +0.000 C 
ATOM     92  C64 UNL A   1      36.226  21.203   5.015  1.00  0.00    +0.000 C 
ATOM     93  O5  UNL A   1      37.211  21.027   4.101  1.00  0.00    +0.000 O 
ENDBRANCH   88   89
ENDBRANCH   12   11
ENDBRANCH   14   12
ENDBRANCH   15   14
ENDBRANCH   16   15
ENDBRANCH   17   16
ENDBRANCH   18   17
ENDBRANCH   19   18
ENDBRANCH   20   19
ENDBRANCH   21   20
ENDBRANCH   22   21
ENDBRANCH   24   22
ENDBRANCH   28   27
BRANCH   32   33
ATOM     33  C23 UNL A   1      52.595  22.401  17.075  1.00  0.00    +0.000 C 
ATOM     34  C24 UNL A   1      51.809  21.744  18.036  1.00  0.00    +0.000 C 
ATOM     35  F1  UNL A   1      51.897  20.413  18.183  1.00  0.00    +0.000 F 
ATOM     36  C25 UNL A   1      50.893  22.445  18.815  1.00  0.00    +0.000 C 
ATOM     37  F2  UNL A   1      50.111  21.786  19.682  1.00  0.00    +0.000 F 
ATOM     38  C26 UNL A   1      50.772  23.819  18.678  1.00  0.00    +0.000 C 
ATOM     39  F3  UNL A   1      49.887  24.493  19.427  1.00  0.00    +0.000 F 
ATOM     40  C27 UNL A   1      51.559  24.494  17.758  1.00  0.00    +0.000 C 
ATOM     41  F4  UNL A   1      51.451  25.824  17.633  1.00  0.00    +0.000 F 
ATOM     42  C28 UNL A   1      52.455  23.792  16.956  1.00  0.00    +0.000 C 
ATOM     43  F5  UNL A   1      53.185  24.471  16.057  1.00  0.00    +0.000 F 
ENDBRANCH   32   33
BRANCH   49   50
ATOM     50  C34 UNL A   1      59.314  19.787  17.435  1.00  0.00    +0.000 C 
ATOM     51  C35 UNL A   1      59.632  18.567  18.048  1.00  0.00    +0.000 C 
ATOM     52  F6  UNL A   1      58.909  17.469  17.780  1.00  0.00    +0.000 F 
ATOM     53  C36 UNL A   1      60.671  18.479  18.971  1.00  0.00    +0.000 C 
ATOM     54  F7  UNL A   1      60.929  17.312  19.576  1.00  0.00    +0.000 F 
ATOM     55  C37 UNL A   1      61.431  19.600  19.272  1.00  0.00    +0.000 C 
ATOM     56  F8  UNL A   1      62.435  19.512  20.155  1.00  0.00    +0.000 F 
ATOM     57  C38 UNL A   1      61.144  20.813  18.665  1.00  0.00    +0.000 C 
ATOM     58  F9  UNL A   1      61.885  21.894  18.948  1.00  0.00    +0.000 F 
ATOM     59  C39 UNL A   1      60.089  20.910  17.764  1.00  0.00    +0.000 C 
ATOM     60  F10 UNL A   1      59.828  22.100  17.200  1.00  0.00    +0.000 F 
ENDBRANCH   49   50
BRANCH   64   65
ATOM     65  C43 UNL A   1      58.812  17.807  10.768  1.00  0.00    +0.000 C 
ATOM     66  C44 UNL A   1      58.908  16.414  10.655  1.00  0.00    +0.000 C 
ATOM     67  F11 UNL A   1      58.178  15.626  11.458  1.00  0.00    +0.000 F 
ATOM     68  C45 UNL A   1      59.774  15.825   9.736  1.00  0.00    +0.000 C 
ATOM     69  F12 UNL A   1      59.868  14.490   9.668  1.00  0.00    +0.000 F 
ATOM     70  C46 UNL A   1      60.543  16.618   8.897  1.00  0.00    +0.000 C 
ATOM     71  F13 UNL A   1      61.365  16.051   8.004  1.00  0.00    +0.000 F 
ATOM     72  C47 UNL A   1      60.457  17.999   8.985  1.00  0.00    +0.000 C 
ATOM     73  F14 UNL A   1      61.186  18.768   8.165  1.00  0.00    +0.000 F 
ATOM     74  C48 UNL A   1      59.610  18.589   9.920  1.00  0.00    +0.000 C 
ATOM     75  F15 UNL A   1      59.548  19.927   9.984  1.00  0.00    +0.000 F 
ENDBRANCH   64   65
TORSDOF 19
ENDMDL
MODEL 8
REMARK VINA RESULT:     -11.6     43.388     49.381
ROOT
ATOM     28  C19 UNL A   1      54.397  18.100   9.942  1.00  0.00    +0.000 C 
ATOM     29  C20 UNL A   1      54.891  18.379  11.332  1.00  0.00    +0.000 C 
ATOM     30  N5  UNL A   1      55.966  17.935  11.935  1.00  0.00    +0.000 N 
ATOM     31  C21 UNL A   1      55.973  18.538  13.184  1.00  0.00    +0.000 C 
ATOM     32  C22 UNL A   1      56.843  18.354  14.208  1.00  0.00    +0.000 C 
ATOM     44  C29 UNL A   1      57.967  17.456  14.163  1.00  0.00    +0.000 C 
ATOM     45  C30 UNL A   1      58.868  17.148  15.166  1.00  0.00    +0.000 C 
ATOM     46  C31 UNL A   1      59.817  16.260  14.645  1.00  0.00    +0.000 C 
ATOM     47  C32 UNL A   1      59.481  15.980  13.331  1.00  0.00    +0.000 C 
ATOM     48  N6  UNL A   1      58.347  16.723  13.047  1.00  0.00    +0.000 N 
ATOM     49  C33 UNL A   1      60.143  15.098  12.403  1.00  0.00    +0.000 C 
ATOM     61  C40 UNL A   1      59.741  14.865  11.129  1.00  0.00    +0.000 C 
ATOM     62  N7  UNL A   1      58.656  15.395  10.447  1.00  0.00    +0.000 N 
ATOM     63  C41 UNL A   1      58.697  14.875   9.244  1.00  0.00    +0.000 C 
ATOM     64  C42 UNL A   1      57.755  15.082   8.091  1.00  0.00    +0.000 C 
ATOM     76  C49 UNL A   1      56.662  15.850   8.261  1.00  0.00    +0.000 C 
ATOM     77  C50 UNL A   1      55.653  16.122   7.242  1.00  0.00    +0.000 C 
ATOM     78  C51 UNL A   1      54.739  16.966   7.746  1.00  0.00    +0.000 C 
ATOM     79  C52 UNL A   1      55.085  17.272   9.135  1.00  0.00    +0.000 C 
ATOM     80  N8  UNL A   1      56.230  16.549   9.360  1.00  0.00    +0.000 N 
ATOM     81  C53 UNL A   1      59.829  13.966   9.020  1.00  0.00    +0.000 C 
ATOM     82  C54 UNL A   1      60.415  13.969  10.210  1.00  0.00    +0.000 C 
ATOM     83  C55 UNL A   1      54.829  19.422  13.235  1.00  0.00    +0.000 C 
ATOM     84  C56 UNL A   1      54.089  19.307  12.142  1.00  0.00    +0.000 C 
ATOM    117  H22 UNL A   1      58.845  17.510  16.133  1.00  0.00    +0.000 H 
ATOM    118  H23 UNL A   1      60.630  15.878  15.156  1.00  0.00    +0.000 H 
ATOM    119  H24 UNL A   1      57.878  16.730  12.181  1.00  0.00    +0.000 H 
ATOM    120  H25 UNL A   1      55.643  15.729   6.288  1.00  0.00    +0.000 H 
ATOM    121  H26 UNL A   1      53.923  17.341   7.236  1.00  0.00    +0.000 H 
ATOM    122  H27 UNL A   1      56.697  16.535  10.227  1.00  0.00    +0.000 H 
ATOM    123  H28 UNL A   1      60.098  13.458   8.163  1.00  0.00    +0.000 H 
ATOM    124  H29 UNL A   1      61.244  13.404  10.452  1.00  0.00    +0.000 H 
ATOM    125  H30 UNL A   1      54.617  20.059  14.019  1.00  0.00    +0.000 H 
ATOM    126  H31 UNL A   1      53.185  19.753  11.918  1.00  0.00    +0.000 H 
ENDROOT
BRANCH   28   27
ATOM    115  H20 UNL A   1      49.855  18.451   9.157  1.00  0.00    +0.000 H 
ATOM    116  H21 UNL A   1      51.797  17.353  10.113  1.00  0.00    +0.000 H 
ATOM     85  C57 UNL A   1      53.324  20.022   8.764  1.00  0.00    +0.000 C 
ATOM     86  C58 UNL A   1      52.198  20.691   8.288  1.00  0.00    +0.000 C 
ATOM     24  C15 UNL A   1      50.939  20.090   8.379  1.00  0.00    +0.000 C 
ATOM     25  C16 UNL A   1      50.790  18.875   9.055  1.00  0.00    +0.000 C 
ATOM     26  C17 UNL A   1      51.910  18.237   9.592  1.00  0.00    +0.000 C 
ATOM     27  C18 UNL A   1      53.189  18.792   9.426  1.00  0.00    +0.000 C 
ATOM    127  H32 UNL A   1      54.260  20.433   8.630  1.00  0.00    +0.000 H 
ATOM    128  H33 UNL A   1      52.294  21.629   7.867  1.00  0.00    +0.000 H 
BRANCH   24   22
ATOM     22  C14 UNL A   1      49.741  20.726   7.790  1.00  0.00    +0.000 C 
ATOM     23  O4  UNL A   1      49.292  21.754   8.286  1.00  0.00    +0.000 O 
BRANCH   22   21
ATOM    114  H19 UNL A   1      49.568  20.305   5.840  1.00  0.00    +0.000 H 
ATOM     21  N4  UNL A   1      49.123  20.156   6.706  1.00  0.00    +0.000 N 
BRANCH   21   20
ATOM    113  H18 UNL A   1      47.147  19.903   7.181  1.00  0.00    +0.000 H 
ATOM     20  C13 UNL A   1      47.906  19.367   6.652  1.00  0.00    +0.000 C 
ATOM    112  H17 UNL A   1      48.096  18.412   7.098  1.00  0.00    +0.000 H 
BRANCH   20   19
ATOM     19  C12 UNL A   1      47.414  19.152   5.225  1.00  0.00    +0.000 C 
ATOM    110  H15 UNL A   1      48.268  19.143   4.578  1.00  0.00    +0.000 H 
ATOM    111  H16 UNL A   1      46.876  18.227   5.232  1.00  0.00    +0.000 H 
BRANCH   19   18
ATOM     18  C11 UNL A   1      46.437  20.210   4.707  1.00  0.00    +0.000 C 
ATOM    108  H13 UNL A   1      45.818  20.515   5.525  1.00  0.00    +0.000 H 
ATOM    109  H14 UNL A   1      47.041  20.995   4.306  1.00  0.00    +0.000 H 
BRANCH   18   17
ATOM     17  C10 UNL A   1      45.520  19.761   3.564  1.00  0.00    +0.000 C 
ATOM    106  H11 UNL A   1      46.139  19.461   2.744  1.00  0.00    +0.000 H 
ATOM    107  H12 UNL A   1      44.920  18.970   3.963  1.00  0.00    +0.000 H 
BRANCH   17   16
ATOM    105  H10 UNL A   1      45.128  21.664   2.764  1.00  0.00    +0.000 H 
ATOM    104  H9  UNL A   1      43.846  21.039   3.837  1.00  0.00    +0.000 H 
ATOM     16  C9  UNL A   1      44.539  20.819   3.052  1.00  0.00    +0.000 C 
BRANCH   16   15
ATOM    103  H8  UNL A   1      44.427  20.226   1.014  1.00  0.00    +0.000 H 
ATOM    102  H7  UNL A   1      43.063  21.191   1.560  1.00  0.00    +0.000 H 
ATOM     15  C8  UNL A   1      43.743  20.406   1.817  1.00  0.00    +0.000 C 
BRANCH   15   14
ATOM    101  H6  UNL A   1      43.310  18.432   1.531  1.00  0.00    +0.000 H 
ATOM     14  N3  UNL A   1      42.994  19.194   2.067  1.00  0.00    +0.000 N 
BRANCH   14   12
ATOM     12  C7  UNL A   1      41.943  18.870   2.886  1.00  0.00    +0.000 C 
ATOM     13  O3  UNL A   1      42.200  18.223   3.899  1.00  0.00    +0.000 O 
BRANCH   12   11
ATOM    129  H34 UNL A   1      39.423  19.086   4.422  1.00  0.00    +0.000 H 
ATOM    130  H35 UNL A   1      39.240  17.685   3.496  1.00  0.00    +0.000 H 
ATOM    131  H36 UNL A   1      37.486  18.766   2.203  1.00  0.00    +0.000 H 
ATOM      9  N1  UNL A   1      38.870  20.267   1.700  1.00  0.00    +0.000 N 
ATOM     10  N2  UNL A   1      40.186  19.953   1.569  1.00  0.00    +0.000 N 
ATOM     11  C6  UNL A   1      40.490  19.198   2.581  1.00  0.00    +0.000 C 
ATOM     87  C59 UNL A   1      39.336  18.747   3.410  1.00  0.00    +0.000 C 
ATOM     88  C60 UNL A   1      38.173  19.432   2.684  1.00  0.00    +0.000 C 
BRANCH    9    8
ATOM     99  H4  UNL A   1      38.361  23.231  -1.729  1.00  0.00    +0.000 H 
ATOM    100  H5  UNL A   1      39.647  22.261   0.088  1.00  0.00    +0.000 H 
ATOM      5  C2  UNL A   1      36.685  21.969  -1.457  1.00  0.00    +0.000 C 
ATOM      6  C3  UNL A   1      37.966  22.457  -1.172  1.00  0.00    +0.000 C 
ATOM      7  C4  UNL A   1      38.708  21.891  -0.128  1.00  0.00    +0.000 C 
ATOM    136  H41 UNL A   1      35.206  20.560  -0.922  1.00  0.00    +0.000 H 
ATOM    135  H40 UNL A   1      36.506  19.589   0.871  1.00  0.00    +0.000 H 
ATOM      8  C5  UNL A   1      38.190  20.831   0.625  1.00  0.00    +0.000 C 
ATOM     94  C65 UNL A   1      36.904  20.364   0.319  1.00  0.00    +0.000 C 
ATOM     95  C66 UNL A   1      36.150  20.921  -0.713  1.00  0.00    +0.000 C 
BRANCH    5    2
ATOM      2  S1  UNL A   1      35.757  22.754  -2.750  1.00  0.00    +0.000 S 
ATOM      3  O1  UNL A   1      35.953  21.950  -3.941  1.00  0.00    +0.000 O 
ATOM      4  O2  UNL A   1      36.111  24.160  -2.724  1.00  0.00    +0.000 O 
BRANCH    2    1
ATOM      1  C1  UNL A   1      34.046  22.638  -2.301  1.00  0.00    +0.000 C 
ATOM     98  H3  UNL A   1      33.717  23.577  -1.905  1.00  0.00    +0.000 H 
ATOM     97  H2  UNL A   1      33.466  22.392  -3.164  1.00  0.00    +0.000 H 
ATOM     96  H1  UNL A   1      33.923  21.877  -1.559  1.00  0.00    +0.000 H 
ENDBRANCH    2    1
ENDBRANCH    5    2
ENDBRANCH    9    8
BRANCH   88   89
ATOM    132  H37 UNL A   1      37.458  22.282   3.414  1.00  0.00    +0.000 H 
ATOM    133  H38 UNL A   1      35.672  22.378   5.373  1.00  0.00    +0.000 H 
ATOM    134  H39 UNL A   1      35.049  19.935   5.931  1.00  0.00    +0.000 H 
ATOM     89  C61 UNL A   1      37.240  20.140   3.623  1.00  0.00    +0.000 C 
ATOM     90  C62 UNL A   1      37.014  21.478   3.886  1.00  0.00    +0.000 C 
ATOM     91  C63 UNL A   1      36.055  21.530   4.926  1.00  0.00    +0.000 C 
ATOM     92  C64 UNL A   1      35.737  20.227   5.219  1.00  0.00    +0.000 C 
ATOM     93  O5  UNL A   1      36.452  19.378   4.441  1.00  0.00    +0.000 O 
ENDBRANCH   88   89
ENDBRANCH   12   11
ENDBRANCH   14   12
ENDBRANCH   15   14
ENDBRANCH   16   15
ENDBRANCH   17   16
ENDBRANCH   18   17
ENDBRANCH   19   18
ENDBRANCH   20   19
ENDBRANCH   21   20
ENDBRANCH   22   21
ENDBRANCH   24   22
ENDBRANCH   28   27
BRANCH   32   33
ATOM     33  C23 UNL A   1      56.606  19.144  15.462  1.00  0.00    +0.000 C 
ATOM     34  C24 UNL A   1      55.833  18.636  16.518  1.00  0.00    +0.000 C 
ATOM     35  F1  UNL A   1      55.267  17.423  16.416  1.00  0.00    +0.000 F 
ATOM     36  C25 UNL A   1      55.594  19.393  17.662  1.00  0.00    +0.000 C 
ATOM     37  F2  UNL A   1      54.802  18.909  18.629  1.00  0.00    +0.000 F 
ATOM     38  C26 UNL A   1      56.155  20.653  17.791  1.00  0.00    +0.000 C 
ATOM     39  F3  UNL A   1      55.923  21.382  18.891  1.00  0.00    +0.000 F 
ATOM     40  C27 UNL A   1      56.948  21.164  16.775  1.00  0.00    +0.000 C 
ATOM     41  F4  UNL A   1      57.501  22.378  16.904  1.00  0.00    +0.000 F 
ATOM     42  C28 UNL A   1      57.164  20.423  15.616  1.00  0.00    +0.000 C 
ATOM     43  F5  UNL A   1      57.916  20.955  14.640  1.00  0.00    +0.000 F 
ENDBRANCH   32   33
BRANCH   49   50
ATOM     50  C34 UNL A   1      61.360  14.364  12.883  1.00  0.00    +0.000 C 
ATOM     51  C35 UNL A   1      61.261  13.133  13.546  1.00  0.00    +0.000 C 
ATOM     52  F6  UNL A   1      60.056  12.607  13.815  1.00  0.00    +0.000 F 
ATOM     53  C36 UNL A   1      62.400  12.453  13.969  1.00  0.00    +0.000 C 
ATOM     54  F7  UNL A   1      62.279  11.299  14.638  1.00  0.00    +0.000 F 
ATOM     55  C37 UNL A   1      63.658  12.976  13.710  1.00  0.00    +0.000 C 
ATOM     56  F8  UNL A   1      64.754  12.317  14.111  1.00  0.00    +0.000 F 
ATOM     57  C38 UNL A   1      63.781  14.184  13.040  1.00  0.00    +0.000 C 
ATOM     58  F9  UNL A   1      64.997  14.685  12.780  1.00  0.00    +0.000 F 
ATOM     59  C39 UNL A   1      62.643  14.879  12.641  1.00  0.00    +0.000 C 
ATOM     60  F10 UNL A   1      62.792  16.051  12.006  1.00  0.00    +0.000 F 
ENDBRANCH   49   50
BRANCH   64   65
ATOM     65  C43 UNL A   1      57.993  14.434   6.777  1.00  0.00    +0.000 C 
ATOM     66  C44 UNL A   1      58.608  15.133   5.730  1.00  0.00    +0.000 C 
ATOM     67  F11 UNL A   1      58.945  16.421   5.892  1.00  0.00    +0.000 F 
ATOM     68  C45 UNL A   1      58.856  14.519   4.504  1.00  0.00    +0.000 C 
ATOM     69  F12 UNL A   1      59.419  15.218   3.509  1.00  0.00    +0.000 F 
ATOM     70  C46 UNL A   1      58.514  13.189   4.309  1.00  0.00    +0.000 C 
ATOM     71  F13 UNL A   1      58.764  12.595   3.134  1.00  0.00    +0.000 F 
ATOM     72  C47 UNL A   1      57.912  12.475   5.334  1.00  0.00    +0.000 C 
ATOM     73  F14 UNL A   1      57.595  11.186   5.156  1.00  0.00    +0.000 F 
ATOM     74  C48 UNL A   1      57.642  13.095   6.553  1.00  0.00    +0.000 C 
ATOM     75  F15 UNL A   1      57.059  12.381   7.527  1.00  0.00    +0.000 F 
ENDBRANCH   64   65
TORSDOF 19
ENDMDL
MODEL 9
REMARK VINA RESULT:     -11.5     40.144     46.816
ROOT
ATOM     28  C19 UNL A   1      53.248  19.923  11.533  1.00  0.00    +0.000 C 
ATOM     29  C20 UNL A   1      54.583  19.255  11.377  1.00  0.00    +0.000 C 
ATOM     30  N5  UNL A   1      55.587  19.202  12.216  1.00  0.00    +0.000 N 
ATOM     31  C21 UNL A   1      56.553  18.420  11.599  1.00  0.00    +0.000 C 
ATOM     32  C22 UNL A   1      57.803  18.120  12.031  1.00  0.00    +0.000 C 
ATOM     44  C29 UNL A   1      58.363  18.585  13.273  1.00  0.00    +0.000 C 
ATOM     45  C30 UNL A   1      59.639  18.393  13.772  1.00  0.00    +0.000 C 
ATOM     46  C31 UNL A   1      59.710  18.991  15.035  1.00  0.00    +0.000 C 
ATOM     47  C32 UNL A   1      58.493  19.595  15.305  1.00  0.00    +0.000 C 
ATOM     48  N6  UNL A   1      57.674  19.335  14.217  1.00  0.00    +0.000 N 
ATOM     49  C33 UNL A   1      58.103  20.355  16.465  1.00  0.00    +0.000 C 
ATOM     61  C40 UNL A   1      56.889  20.930  16.649  1.00  0.00    +0.000 C 
ATOM     62  N7  UNL A   1      55.785  20.921  15.809  1.00  0.00    +0.000 N 
ATOM     63  C41 UNL A   1      54.853  21.602  16.430  1.00  0.00    +0.000 C 
ATOM     64  C42 UNL A   1      53.457  21.928  15.977  1.00  0.00    +0.000 C 
ATOM     76  C49 UNL A   1      53.058  21.550  14.748  1.00  0.00    +0.000 C 
ATOM     77  C50 UNL A   1      51.744  21.815  14.168  1.00  0.00    +0.000 C 
ATOM     78  C51 UNL A   1      51.681  21.248  12.953  1.00  0.00    +0.000 C 
ATOM     79  C52 UNL A   1      52.962  20.604  12.658  1.00  0.00    +0.000 C 
ATOM     80  N8  UNL A   1      53.724  20.852  13.773  1.00  0.00    +0.000 N 
ATOM     81  C53 UNL A   1      55.256  22.106  17.750  1.00  0.00    +0.000 C 
ATOM     82  C54 UNL A   1      56.516  21.698  17.820  1.00  0.00    +0.000 C 
ATOM     83  C55 UNL A   1      55.996  17.974  10.340  1.00  0.00    +0.000 C 
ATOM     84  C56 UNL A   1      54.808  18.519  10.124  1.00  0.00    +0.000 C 
ATOM    117  H22 UNL A   1      60.406  17.895  13.294  1.00  0.00    +0.000 H 
ATOM    118  H23 UNL A   1      60.532  18.984  15.661  1.00  0.00    +0.000 H 
ATOM    119  H24 UNL A   1      56.742  19.637  14.126  1.00  0.00    +0.000 H 
ATOM    120  H25 UNL A   1      50.987  22.351  14.619  1.00  0.00    +0.000 H 
ATOM    121  H26 UNL A   1      50.861  21.262  12.326  1.00  0.00    +0.000 H 
ATOM    122  H27 UNL A   1      54.659  20.557  13.863  1.00  0.00    +0.000 H 
ATOM    123  H28 UNL A   1      54.705  22.639  18.441  1.00  0.00    +0.000 H 
ATOM    124  H29 UNL A   1      57.151  21.902  18.607  1.00  0.00    +0.000 H 
ATOM    125  H30 UNL A   1      56.462  17.315   9.696  1.00  0.00    +0.000 H 
ATOM    126  H31 UNL A   1      54.201  18.447   9.293  1.00  0.00    +0.000 H 
ENDROOT
BRANCH   28   27
ATOM    115  H20 UNL A   1      50.003  17.571   9.229  1.00  0.00    +0.000 H 
ATOM    116  H21 UNL A   1      51.609  17.824  11.031  1.00  0.00    +0.000 H 
ATOM     85  C57 UNL A   1      51.967  20.837   9.594  1.00  0.00    +0.000 C 
ATOM     86  C58 UNL A   1      50.987  20.720   8.611  1.00  0.00    +0.000 C 
ATOM     24  C15 UNL A   1      50.312  19.508   8.441  1.00  0.00    +0.000 C 
ATOM     25  C16 UNL A   1      50.530  18.452   9.331  1.00  0.00    +0.000 C 
ATOM     26  C17 UNL A   1      51.465  18.593  10.359  1.00  0.00    +0.000 C 
ATOM     27  C18 UNL A   1      52.211  19.776  10.480  1.00  0.00    +0.000 C 
ATOM    127  H32 UNL A   1      52.516  21.707   9.671  1.00  0.00    +0.000 H 
ATOM    128  H33 UNL A   1      50.760  21.527   8.010  1.00  0.00    +0.000 H 
BRANCH   24   22
ATOM     22  C14 UNL A   1      49.342  19.319   7.340  1.00  0.00    +0.000 C 
ATOM     23  O4  UNL A   1      48.201  19.757   7.453  1.00  0.00    +0.000 O 
BRANCH   22   21
ATOM    114  H19 UNL A   1      50.628  18.806   5.895  1.00  0.00    +0.000 H 
ATOM     21  N4  UNL A   1      49.710  18.638   6.209  1.00  0.00    +0.000 N 
BRANCH   21   20
ATOM    113  H18 UNL A   1      49.615  16.968   5.026  1.00  0.00    +0.000 H 
ATOM     20  C13 UNL A   1      48.940  17.707   5.404  1.00  0.00    +0.000 C 
ATOM    112  H17 UNL A   1      48.466  18.248   4.612  1.00  0.00    +0.000 H 
BRANCH   20   19
ATOM     19  C12 UNL A   1      47.868  16.986   6.214  1.00  0.00    +0.000 C 
ATOM    110  H15 UNL A   1      48.356  16.278   6.853  1.00  0.00    +0.000 H 
ATOM    111  H16 UNL A   1      47.337  17.746   6.747  1.00  0.00    +0.000 H 
BRANCH   19   18
ATOM     18  C11 UNL A   1      46.822  16.235   5.387  1.00  0.00    +0.000 C 
ATOM    108  H13 UNL A   1      47.226  16.082   4.407  1.00  0.00    +0.000 H 
ATOM    109  H14 UNL A   1      46.623  15.329   5.918  1.00  0.00    +0.000 H 
BRANCH   18   17
ATOM     17  C10 UNL A   1      45.469  16.938   5.235  1.00  0.00    +0.000 C 
ATOM    106  H11 UNL A   1      44.762  16.218   4.880  1.00  0.00    +0.000 H 
ATOM    107  H12 UNL A   1      45.234  17.333   6.201  1.00  0.00    +0.000 H 
BRANCH   17   16
ATOM    105  H10 UNL A   1      46.441  18.216   3.879  1.00  0.00    +0.000 H 
ATOM    104  H9  UNL A   1      45.143  18.996   4.824  1.00  0.00    +0.000 H 
ATOM     16  C9  UNL A   1      45.450  18.131   4.275  1.00  0.00    +0.000 C 
BRANCH   16   15
ATOM    103  H8  UNL A   1      44.290  16.934   2.958  1.00  0.00    +0.000 H 
ATOM    102  H7  UNL A   1      45.002  18.352   2.203  1.00  0.00    +0.000 H 
ATOM     15  C8  UNL A   1      44.518  17.972   3.078  1.00  0.00    +0.000 C 
BRANCH   15   14
ATOM    101  H6  UNL A   1      42.812  18.420   4.106  1.00  0.00    +0.000 H 
ATOM     14  N3  UNL A   1      43.282  18.695   3.287  1.00  0.00    +0.000 N 
BRANCH   14   12
ATOM     12  C7  UNL A   1      42.621  19.679   2.598  1.00  0.00    +0.000 C 
ATOM     13  O3  UNL A   1      43.278  20.657   2.247  1.00  0.00    +0.000 O 
BRANCH   12   11
ATOM    129  H34 UNL A   1      40.155  18.969   4.072  1.00  0.00    +0.000 H 
ATOM    130  H35 UNL A   1      40.331  17.746   2.920  1.00  0.00    +0.000 H 
ATOM    131  H36 UNL A   1      38.337  18.536   1.774  1.00  0.00    +0.000 H 
ATOM      9  N1  UNL A   1      39.272  20.408   1.570  1.00  0.00    +0.000 N 
ATOM     10  N2  UNL A   1      40.622  20.474   1.428  1.00  0.00    +0.000 N 
ATOM     11  C6  UNL A   1      41.129  19.664   2.309  1.00  0.00    +0.000 C 
ATOM     87  C59 UNL A   1      40.145  18.795   3.016  1.00  0.00    +0.000 C 
ATOM     88  C60 UNL A   1      38.832  19.267   2.379  1.00  0.00    +0.000 C 
BRANCH    9    8
ATOM     99  H4  UNL A   1      38.397  22.017  -2.606  1.00  0.00    +0.000 H 
ATOM    100  H5  UNL A   1      39.880  21.008  -0.969  1.00  0.00    +0.000 H 
ATOM      5  C2  UNL A   1      36.741  22.144  -1.296  1.00  0.00    +0.000 C 
ATOM      6  C3  UNL A   1      38.056  21.822  -1.652  1.00  0.00    +0.000 C 
ATOM      7  C4  UNL A   1      38.907  21.234  -0.707  1.00  0.00    +0.000 C 
ATOM    136  H41 UNL A   1      35.305  22.113   0.251  1.00  0.00    +0.000 H 
ATOM    135  H40 UNL A   1      36.785  21.088   1.866  1.00  0.00    +0.000 H 
ATOM      8  C5  UNL A   1      38.452  20.949   0.586  1.00  0.00    +0.000 C 
ATOM     94  C65 UNL A   1      37.132  21.284   0.914  1.00  0.00    +0.000 C 
ATOM     95  C66 UNL A   1      36.275  21.876  -0.013  1.00  0.00    +0.000 C 
BRANCH    5    2
ATOM      2  S1  UNL A   1      35.716  22.941  -2.506  1.00  0.00    +0.000 S 
ATOM      3  O1  UNL A   1      36.324  24.230  -2.773  1.00  0.00    +0.000 O 
ATOM      4  O2  UNL A   1      34.350  22.838  -2.029  1.00  0.00    +0.000 O 
BRANCH    2    1
ATOM      1  C1  UNL A   1      35.825  21.978  -3.991  1.00  0.00    +0.000 C 
ATOM     98  H3  UNL A   1      36.031  20.958  -3.740  1.00  0.00    +0.000 H 
ATOM     97  H2  UNL A   1      34.899  22.035  -4.521  1.00  0.00    +0.000 H 
ATOM     96  H1  UNL A   1      36.613  22.359  -4.605  1.00  0.00    +0.000 H 
ENDBRANCH    2    1
ENDBRANCH    5    2
ENDBRANCH    9    8
BRANCH   88   89
ATOM    132  H37 UNL A   1      36.625  17.737   3.777  1.00  0.00    +0.000 H 
ATOM    133  H38 UNL A   1      35.198  19.303   5.372  1.00  0.00    +0.000 H 
ATOM    134  H39 UNL A   1      36.279  21.647   5.273  1.00  0.00    +0.000 H 
ATOM     89  C61 UNL A   1      37.761  19.538   3.395  1.00  0.00    +0.000 C 
ATOM     90  C62 UNL A   1      36.777  18.743   3.952  1.00  0.00    +0.000 C 
ATOM     91  C63 UNL A   1      36.020  19.576   4.810  1.00  0.00    +0.000 C 
ATOM     92  C64 UNL A   1      36.599  20.820   4.744  1.00  0.00    +0.000 C 
ATOM     93  O5  UNL A   1      37.648  20.810   3.886  1.00  0.00    +0.000 O 
ENDBRANCH   88   89
ENDBRANCH   12   11
ENDBRANCH   14   12
ENDBRANCH   15   14
ENDBRANCH   16   15
ENDBRANCH   17   16
ENDBRANCH   18   17
ENDBRANCH   19   18
ENDBRANCH   20   19
ENDBRANCH   21   20
ENDBRANCH   22   21
ENDBRANCH   24   22
ENDBRANCH   28   27
BRANCH   32   33
ATOM     33  C23 UNL A   1      58.644  17.245  11.148  1.00  0.00    +0.000 C 
ATOM     34  C24 UNL A   1      59.453  17.783  10.134  1.00  0.00    +0.000 C 
ATOM     35  F1  UNL A   1      59.474  19.107   9.920  1.00  0.00    +0.000 F 
ATOM     36  C25 UNL A   1      60.203  16.957   9.301  1.00  0.00    +0.000 C 
ATOM     37  F2  UNL A   1      60.919  17.491   8.301  1.00  0.00    +0.000 F 
ATOM     38  C26 UNL A   1      60.193  15.585   9.490  1.00  0.00    +0.000 C 
ATOM     39  F3  UNL A   1      60.914  14.791   8.686  1.00  0.00    +0.000 F 
ATOM     40  C27 UNL A   1      59.426  15.033  10.505  1.00  0.00    +0.000 C 
ATOM     41  F4  UNL A   1      59.425  13.706  10.696  1.00  0.00    +0.000 F 
ATOM     42  C28 UNL A   1      58.651  15.852  11.320  1.00  0.00    +0.000 C 
ATOM     43  F5  UNL A   1      57.901  15.286  12.278  1.00  0.00    +0.000 F 
ENDBRANCH   32   33
BRANCH   49   50
ATOM     50  C34 UNL A   1      59.122  20.545  17.550  1.00  0.00    +0.000 C 
ATOM     51  C35 UNL A   1      59.340  19.568  18.532  1.00  0.00    +0.000 C 
ATOM     52  F6  UNL A   1      58.593  18.453  18.551  1.00  0.00    +0.000 F 
ATOM     53  C36 UNL A   1      60.302  19.749  19.522  1.00  0.00    +0.000 C 
ATOM     54  F7  UNL A   1      60.463  18.822  20.475  1.00  0.00    +0.000 F 
ATOM     55  C37 UNL A   1      61.084  20.895  19.530  1.00  0.00    +0.000 C 
ATOM     56  F8  UNL A   1      62.015  21.065  20.479  1.00  0.00    +0.000 F 
ATOM     57  C38 UNL A   1      60.898  21.867  18.558  1.00  0.00    +0.000 C 
ATOM     58  F9  UNL A   1      61.660  22.969  18.559  1.00  0.00    +0.000 F 
ATOM     59  C39 UNL A   1      59.918  21.700  17.584  1.00  0.00    +0.000 C 
ATOM     60  F10 UNL A   1      59.752  22.662  16.664  1.00  0.00    +0.000 F 
ENDBRANCH   49   50
BRANCH   64   65
ATOM     65  C43 UNL A   1      52.521  22.681  16.849  1.00  0.00    +0.000 C 
ATOM     66  C44 UNL A   1      51.766  22.026  17.831  1.00  0.00    +0.000 C 
ATOM     67  F11 UNL A   1      51.847  20.693  17.959  1.00  0.00    +0.000 F 
ATOM     68  C45 UNL A   1      50.905  22.733  18.667  1.00  0.00    +0.000 C 
ATOM     69  F12 UNL A   1      50.173  22.080  19.579  1.00  0.00    +0.000 F 
ATOM     70  C46 UNL A   1      50.801  24.112  18.553  1.00  0.00    +0.000 C 
ATOM     71  F13 UNL A   1      49.984  24.794  19.366  1.00  0.00    +0.000 F 
ATOM     72  C47 UNL A   1      51.546  24.782  17.594  1.00  0.00    +0.000 C 
ATOM     73  F14 UNL A   1      51.460  26.116  17.491  1.00  0.00    +0.000 F 
ATOM     74  C48 UNL A   1      52.388  24.073  16.741  1.00  0.00    +0.000 C 
ATOM     75  F15 UNL A   1      53.096  24.746  15.823  1.00  0.00    +0.000 F 
ENDBRANCH   64   65
TORSDOF 19
ENDMDL
MODEL 10
REMARK VINA RESULT:     -11.3     42.135     45.966
ROOT
ATOM     28  C19 UNL A   1      14.054  53.677   5.047  1.00  0.00    +0.000 C 
ATOM     29  C20 UNL A   1      14.997  54.145   3.976  1.00  0.00    +0.000 C 
ATOM     30  N5  UNL A   1      15.487  53.485   2.957  1.00  0.00    +0.000 N 
ATOM     31  C21 UNL A   1      16.263  54.397   2.256  1.00  0.00    +0.000 C 
ATOM     32  C22 UNL A   1      17.033  54.187   1.159  1.00  0.00    +0.000 C 
ATOM     44  C29 UNL A   1      17.176  52.914   0.503  1.00  0.00    +0.000 C 
ATOM     45  C30 UNL A   1      17.981  52.582  -0.572  1.00  0.00    +0.000 C 
ATOM     46  C31 UNL A   1      17.753  51.238  -0.891  1.00  0.00    +0.000 C 
ATOM     47  C32 UNL A   1      16.840  50.720   0.014  1.00  0.00    +0.000 C 
ATOM     48  N6  UNL A   1      16.491  51.761   0.861  1.00  0.00    +0.000 N 
ATOM     49  C33 UNL A   1      16.325  49.378   0.102  1.00  0.00    +0.000 C 
ATOM     61  C40 UNL A   1      15.438  48.943   1.032  1.00  0.00    +0.000 C 
ATOM     62  N7  UNL A   1      14.842  49.652   2.065  1.00  0.00    +0.000 N 
ATOM     63  C41 UNL A   1      14.056  48.802   2.679  1.00  0.00    +0.000 C 
ATOM     64  C42 UNL A   1      13.181  49.020   3.882  1.00  0.00    +0.000 C 
ATOM     76  C49 UNL A   1      13.199  50.214   4.503  1.00  0.00    +0.000 C 
ATOM     77  C50 UNL A   1      12.422  50.562   5.689  1.00  0.00    +0.000 C 
ATOM     78  C51 UNL A   1      12.648  51.848   5.999  1.00  0.00    +0.000 C 
ATOM     79  C52 UNL A   1      13.610  52.406   5.047  1.00  0.00    +0.000 C 
ATOM     80  N8  UNL A   1      13.896  51.358   4.208  1.00  0.00    +0.000 N 
ATOM     81  C53 UNL A   1      14.051  47.455   2.092  1.00  0.00    +0.000 C 
ATOM     82  C54 UNL A   1      14.935  47.587   1.112  1.00  0.00    +0.000 C 
ATOM     83  C55 UNL A   1      16.135  55.670   2.932  1.00  0.00    +0.000 C 
ATOM     84  C56 UNL A   1      15.420  55.551   4.041  1.00  0.00    +0.000 C 
ATOM    117  H22 UNL A   1      18.637  53.215  -1.055  1.00  0.00    +0.000 H 
ATOM    118  H23 UNL A   1      18.192  50.719  -1.668  1.00  0.00    +0.000 H 
ATOM    119  H24 UNL A   1      15.853  51.692   1.607  1.00  0.00    +0.000 H 
ATOM    120  H25 UNL A   1      11.798  49.923   6.206  1.00  0.00    +0.000 H 
ATOM    121  H26 UNL A   1      12.214  52.362   6.781  1.00  0.00    +0.000 H 
ATOM    122  H27 UNL A   1      14.540  51.423   3.466  1.00  0.00    +0.000 H 
ATOM    123  H28 UNL A   1      13.504  46.624   2.368  1.00  0.00    +0.000 H 
ATOM    124  H29 UNL A   1      15.228  46.820   0.486  1.00  0.00    +0.000 H 
ATOM    125  H30 UNL A   1      16.546  56.554   2.594  1.00  0.00    +0.000 H 
ATOM    126  H31 UNL A   1      15.215  56.261   4.762  1.00  0.00    +0.000 H 
ENDROOT
BRANCH   28   27
ATOM    115  H20 UNL A   1      14.294  55.929   9.077  1.00  0.00    +0.000 H 
ATOM    116  H21 UNL A   1      15.200  54.453   7.377  1.00  0.00    +0.000 H 
ATOM     85  C57 UNL A   1      12.323  55.282   5.859  1.00  0.00    +0.000 C 
ATOM     86  C58 UNL A   1      11.843  56.192   6.800  1.00  0.00    +0.000 C 
ATOM     24  C15 UNL A   1      12.533  56.383   8.000  1.00  0.00    +0.000 C 
ATOM     25  C16 UNL A   1      13.765  55.757   8.208  1.00  0.00    +0.000 C 
ATOM     26  C17 UNL A   1      14.280  54.896   7.235  1.00  0.00    +0.000 C 
ATOM     27  C18 UNL A   1      13.548  54.631   6.067  1.00  0.00    +0.000 C 
ATOM    127  H32 UNL A   1      11.775  55.088   5.008  1.00  0.00    +0.000 H 
ATOM    128  H33 UNL A   1      10.979  56.723   6.609  1.00  0.00    +0.000 H 
BRANCH   24   22
ATOM     22  C14 UNL A   1      11.996  57.261   9.062  1.00  0.00    +0.000 C 
ATOM     23  O4  UNL A   1      12.051  58.480   8.929  1.00  0.00    +0.000 O 
BRANCH   22   21
ATOM    114  H19 UNL A   1      11.671  57.187  11.036  1.00  0.00    +0.000 H 
ATOM     21  N4  UNL A   1      11.457  56.715  10.198  1.00  0.00    +0.000 N 
BRANCH   21   20
ATOM    113  H18 UNL A   1      10.035  55.444   9.452  1.00  0.00    +0.000 H 
ATOM     20  C13 UNL A   1      10.616  55.540  10.344  1.00  0.00    +0.000 C 
ATOM    112  H17 UNL A   1       9.995  55.668  11.207  1.00  0.00    +0.000 H 
BRANCH   20   19
ATOM     19  C12 UNL A   1      11.428  54.261  10.511  1.00  0.00    +0.000 C 
ATOM    110  H15 UNL A   1      10.749  53.464  10.735  1.00  0.00    +0.000 H 
ATOM    111  H16 UNL A   1      11.959  54.123   9.592  1.00  0.00    +0.000 H 
BRANCH   19   18
ATOM     18  C11 UNL A   1      12.490  54.303  11.614  1.00  0.00    +0.000 C 
ATOM    108  H13 UNL A   1      12.522  55.300  12.001  1.00  0.00    +0.000 H 
ATOM    109  H14 UNL A   1      12.195  53.569  12.333  1.00  0.00    +0.000 H 
BRANCH   18   17
ATOM     17  C10 UNL A   1      13.909  53.919  11.180  1.00  0.00    +0.000 C 
ATOM    106  H11 UNL A   1      14.161  54.505  10.321  1.00  0.00    +0.000 H 
ATOM    107  H12 UNL A   1      14.535  54.105  12.027  1.00  0.00    +0.000 H 
BRANCH   17   16
ATOM    105  H10 UNL A   1      13.139  52.000  10.803  1.00  0.00    +0.000 H 
ATOM    104  H9  UNL A   1      14.758  52.008  11.555  1.00  0.00    +0.000 H 
ATOM     16  C9  UNL A   1      14.112  52.444  10.821  1.00  0.00    +0.000 C 
BRANCH   16   15
ATOM    103  H8  UNL A   1      15.442  52.970   9.250  1.00  0.00    +0.000 H 
ATOM    102  H7  UNL A   1      13.949  52.218   8.708  1.00  0.00    +0.000 H 
ATOM     15  C8  UNL A   1      14.724  52.201   9.445  1.00  0.00    +0.000 C 
BRANCH   15   14
ATOM    101  H6  UNL A   1      16.124  50.845  10.055  1.00  0.00    +0.000 H 
ATOM     14  N3  UNL A   1      15.395  50.919   9.398  1.00  0.00    +0.000 N 
BRANCH   14   12
ATOM     12  C7  UNL A   1      15.241  49.786   8.642  1.00  0.00    +0.000 C 
ATOM     13  O3  UNL A   1      15.964  49.668   7.654  1.00  0.00    +0.000 O 
BRANCH   12   11
ATOM    129  H34 UNL A   1      14.904  47.535  10.533  1.00  0.00    +0.000 H 
ATOM    130  H35 UNL A   1      15.191  46.799   9.040  1.00  0.00    +0.000 H 
ATOM    131  H36 UNL A   1      12.916  45.940   9.024  1.00  0.00    +0.000 H 
ATOM      9  N1  UNL A   1      12.234  47.923   9.181  1.00  0.00    +0.000 N 
ATOM     10  N2  UNL A   1      12.948  48.928   8.608  1.00  0.00    +0.000 N 
ATOM     11  C6  UNL A   1      14.194  48.717   8.909  1.00  0.00    +0.000 C 
ATOM     87  C59 UNL A   1      14.480  47.406   9.559  1.00  0.00    +0.000 C 
ATOM     88  C60 UNL A   1      13.070  46.807   9.634  1.00  0.00    +0.000 C 
BRANCH    9    8
ATOM     99  H4  UNL A   1       8.333  45.566   9.007  1.00  0.00    +0.000 H 
ATOM    100  H5  UNL A   1      10.620  45.866   9.767  1.00  0.00    +0.000 H 
ATOM      5  C2  UNL A   1       8.274  47.366   7.899  1.00  0.00    +0.000 C 
ATOM      6  C3  UNL A   1       8.865  46.404   8.725  1.00  0.00    +0.000 C 
ATOM      7  C4  UNL A   1      10.182  46.583   9.167  1.00  0.00    +0.000 C 
ATOM    136  H41 UNL A   1       8.551  49.212   6.911  1.00  0.00    +0.000 H 
ATOM    135  H40 UNL A   1      10.819  49.510   7.692  1.00  0.00    +0.000 H 
ATOM      8  C5  UNL A   1      10.910  47.723   8.805  1.00  0.00    +0.000 C 
ATOM     94  C65 UNL A   1      10.293  48.668   7.974  1.00  0.00    +0.000 C 
ATOM     95  C66 UNL A   1       8.985  48.501   7.521  1.00  0.00    +0.000 C 
BRANCH    5    2
ATOM      2  S1  UNL A   1       6.625  47.071   7.314  1.00  0.00    +0.000 S 
ATOM      3  O1  UNL A   1       6.485  45.633   7.192  1.00  0.00    +0.000 O 
ATOM      4  O2  UNL A   1       6.422  47.945   6.175  1.00  0.00    +0.000 O 
BRANCH    2    1
ATOM      1  C1  UNL A   1       5.520  47.612   8.590  1.00  0.00    +0.000 C 
ATOM     98  H3  UNL A   1       6.063  47.732   9.505  1.00  0.00    +0.000 H 
ATOM     97  H2  UNL A   1       5.081  48.546   8.310  1.00  0.00    +0.000 H 
ATOM     96  H1  UNL A   1       4.749  46.883   8.727  1.00  0.00    +0.000 H 
ENDBRANCH    2    1
ENDBRANCH    5    2
ENDBRANCH    9    8
BRANCH   88   89
ATOM    132  H37 UNL A   1      12.361  44.116  10.826  1.00  0.00    +0.000 H 
ATOM    133  H38 UNL A   1      11.881  44.287  13.429  1.00  0.00    +0.000 H 
ATOM    134  H39 UNL A   1      12.304  46.744  14.102  1.00  0.00    +0.000 H 
ATOM     89  C61 UNL A   1      12.754  46.237  10.986  1.00  0.00    +0.000 C 
ATOM     90  C62 UNL A   1      12.418  44.965  11.410  1.00  0.00    +0.000 C 
ATOM     91  C63 UNL A   1      12.169  45.054  12.800  1.00  0.00    +0.000 C 
ATOM     92  C64 UNL A   1      12.390  46.365  13.146  1.00  0.00    +0.000 C 
ATOM     93  O5  UNL A   1      12.738  47.090  12.055  1.00  0.00    +0.000 O 
ENDBRANCH   88   89
ENDBRANCH   12   11
ENDBRANCH   14   12
ENDBRANCH   15   14
ENDBRANCH   16   15
ENDBRANCH   17   16
ENDBRANCH   18   17
ENDBRANCH   19   18
ENDBRANCH   20   19
ENDBRANCH   21   20
ENDBRANCH   22   21
ENDBRANCH   24   22
ENDBRANCH   28   27
BRANCH   32   33
ATOM     33  C23 UNL A   1      17.776  55.368   0.606  1.00  0.00    +0.000 C 
ATOM     34  C24 UNL A   1      17.257  56.136  -0.449  1.00  0.00    +0.000 C 
ATOM     35  F1  UNL A   1      16.079  55.813  -1.003  1.00  0.00    +0.000 F 
ATOM     36  C25 UNL A   1      17.972  57.209  -0.974  1.00  0.00    +0.000 C 
ATOM     37  F2  UNL A   1      17.484  57.888  -2.022  1.00  0.00    +0.000 F 
ATOM     38  C26 UNL A   1      19.198  57.560  -0.431  1.00  0.00    +0.000 C 
ATOM     39  F3  UNL A   1      19.887  58.592  -0.939  1.00  0.00    +0.000 F 
ATOM     40  C27 UNL A   1      19.716  56.836   0.631  1.00  0.00    +0.000 C 
ATOM     41  F4  UNL A   1      20.896  57.182   1.165  1.00  0.00    +0.000 F 
ATOM     42  C28 UNL A   1      19.018  55.743   1.139  1.00  0.00    +0.000 C 
ATOM     43  F5  UNL A   1      19.558  55.048   2.152  1.00  0.00    +0.000 F 
ENDBRANCH   32   33
BRANCH   49   50
ATOM     50  C34 UNL A   1      16.817  48.373  -0.897  1.00  0.00    +0.000 C 
ATOM     51  C35 UNL A   1      18.030  47.692  -0.716  1.00  0.00    +0.000 C 
ATOM     52  F6  UNL A   1      18.808  47.971   0.341  1.00  0.00    +0.000 F 
ATOM     53  C36 UNL A   1      18.465  46.748  -1.642  1.00  0.00    +0.000 C 
ATOM     54  F7  UNL A   1      19.647  46.141  -1.471  1.00  0.00    +0.000 F 
ATOM     55  C37 UNL A   1      17.683  46.444  -2.747  1.00  0.00    +0.000 C 
ATOM     56  F8  UNL A   1      18.100  45.530  -3.633  1.00  0.00    +0.000 F 
ATOM     57  C38 UNL A   1      16.472  47.094  -2.936  1.00  0.00    +0.000 C 
ATOM     58  F9  UNL A   1      15.711  46.793  -3.998  1.00  0.00    +0.000 F 
ATOM     59  C39 UNL A   1      16.048  48.057  -2.027  1.00  0.00    +0.000 C 
ATOM     60  F10 UNL A   1      14.878  48.677  -2.242  1.00  0.00    +0.000 F 
ENDBRANCH   49   50
BRANCH   64   65
ATOM     65  C43 UNL A   1      12.318  47.934   4.413  1.00  0.00    +0.000 C 
ATOM     66  C44 UNL A   1      12.783  47.068   5.412  1.00  0.00    +0.000 C 
ATOM     67  F11 UNL A   1      14.040  47.182   5.865  1.00  0.00    +0.000 F 
ATOM     68  C45 UNL A   1      11.967  46.064   5.929  1.00  0.00    +0.000 C 
ATOM     69  F12 UNL A   1      12.445  45.230   6.863  1.00  0.00    +0.000 F 
ATOM     70  C46 UNL A   1      10.664  45.923   5.475  1.00  0.00    +0.000 C 
ATOM     71  F13 UNL A   1       9.875  44.966   5.983  1.00  0.00    +0.000 F 
ATOM     72  C47 UNL A   1      10.180  46.775   4.494  1.00  0.00    +0.000 C 
ATOM     73  F14 UNL A   1       8.917  46.653   4.064  1.00  0.00    +0.000 F 
ATOM     74  C48 UNL A   1      11.003  47.763   3.958  1.00  0.00    +0.000 C 
ATOM     75  F15 UNL A   1      10.509  48.573   3.010  1.00  0.00    +0.000 F 
ENDBRANCH   64   65
TORSDOF 19
ENDMDL
