MODEL 1
REMARK VINA RESULT:     -11.5      0.000      0.000
ROOT
ATOM      2  C2  UNL A   1      30.159  29.696  23.374  1.00  0.00    +0.000 C 
ATOM      3  C3  UNL A   1      29.681  31.024  24.051  1.00  0.00    +0.000 C 
ATOM      5  C5  UNL A   1      30.607  31.546  25.161  1.00  0.00    +0.000 C 
ATOM      6  C6  UNL A   1      31.181  30.511  26.103  1.00  0.00    +0.000 C 
ATOM      7  C7  UNL A   1      31.480  29.110  25.537  1.00  0.00    +0.000 C 
ATOM    146  H41 UNL A   1      30.298  28.367  27.183  1.00  0.00    +0.000 H 
ATOM    147  H42 UNL A   1      32.091  28.335  27.416  1.00  0.00    +0.000 H 
ATOM    148  H43 UNL A   1      30.803  26.147  27.310  1.00  0.00    +0.000 H 
ATOM    149  H44 UNL A   1      32.348  26.401  26.412  1.00  0.00    +0.000 H 
ATOM    153  H48 UNL A   1      31.743  27.691  22.273  1.00  0.00    +0.000 H 
ATOM    154  H49 UNL A   1      33.623  26.134  22.621  1.00  0.00    +0.000 H 
ATOM    155  H50 UNL A   1      32.230  25.147  22.164  1.00  0.00    +0.000 H 
ATOM    156  H51 UNL A   1      33.212  25.608  24.986  1.00  0.00    +0.000 H 
ATOM    160  H55 UNL A   1      35.195  25.194  25.310  1.00  0.00    +0.000 H 
ATOM    161  H56 UNL A   1      35.470  25.054  23.554  1.00  0.00    +0.000 H 
ATOM    162  H57 UNL A   1      37.287  24.123  24.926  1.00  0.00    +0.000 H 
ATOM    163  H58 UNL A   1      36.511  22.981  23.807  1.00  0.00    +0.000 H 
ATOM    164  H59 UNL A   1      36.106  23.159  26.745  1.00  0.00    +0.000 H 
ATOM    172  H67 UNL A   1      33.836  23.593  26.387  1.00  0.00    +0.000 H 
ATOM    173  H68 UNL A   1      32.131  21.780  26.484  1.00  0.00    +0.000 H 
ATOM    174  H69 UNL A   1      31.926  21.966  24.763  1.00  0.00    +0.000 H 
ATOM    175  H70 UNL A   1      31.635  24.172  26.791  1.00  0.00    +0.000 H 
ATOM    176  H71 UNL A   1      30.306  23.295  26.004  1.00  0.00    +0.000 H 
ATOM    180  H75 UNL A   1      29.452  28.537  24.807  1.00  0.00    +0.000 H 
ATOM     83  C60 UNL A   1      31.260  28.146  26.769  1.00  0.00    +0.000 C 
ATOM     84  C61 UNL A   1      31.308  26.633  26.501  1.00  0.00    +0.000 C 
ATOM     85  C62 UNL A   1      30.664  26.122  25.167  1.00  0.00    +0.000 C 
ATOM     87  C64 UNL A   1      30.918  27.209  24.083  1.00  0.00    +0.000 C 
ATOM     88  C65 UNL A   1      31.738  26.994  23.033  1.00  0.00    +0.000 C 
ATOM     89  C66 UNL A   1      32.647  25.797  22.904  1.00  0.00    +0.000 C 
ATOM     90  C67 UNL A   1      32.758  25.001  24.231  1.00  0.00    +0.000 C 
ATOM     91  C68 UNL A   1      33.859  23.857  24.275  1.00  0.00    +0.000 C 
ATOM     93  C70 UNL A   1      35.255  24.539  24.466  1.00  0.00    +0.000 C 
ATOM     94  C71 UNL A   1      36.405  23.561  24.700  1.00  0.00    +0.000 C 
ATOM     95  C72 UNL A   1      36.149  22.580  25.846  1.00  0.00    +0.000 C 
ATOM     97  C73 UNL A   1      34.768  21.856  25.798  1.00  0.00    +0.000 C 
ATOM    100  C76 UNL A   1      33.663  22.952  25.548  1.00  0.00    +0.000 C 
ATOM    101  C77 UNL A   1      32.215  22.463  25.665  1.00  0.00    +0.000 C 
ATOM    102  C78 UNL A   1      31.304  23.669  25.907  1.00  0.00    +0.000 C 
ATOM    103  C79 UNL A   1      31.301  24.685  24.735  1.00  0.00    +0.000 C 
ATOM    105  C81 UNL A   1      30.460  28.632  24.463  1.00  0.00    +0.000 C 
ATOM    109  H4  UNL A   1      31.056  29.893  22.825  1.00  0.00    +0.000 H 
ATOM    110  H5  UNL A   1      28.746  30.714  24.469  1.00  0.00    +0.000 H 
ATOM    114  H9  UNL A   1      30.049  32.247  25.746  1.00  0.00    +0.000 H 
ATOM    115  H10 UNL A   1      31.451  31.965  24.652  1.00  0.00    +0.000 H 
ATOM    116  H11 UNL A   1      30.483  30.388  26.905  1.00  0.00    +0.000 H 
ATOM    117  H12 UNL A   1      32.139  30.900  26.379  1.00  0.00    +0.000 H 
ENDROOT
BRANCH    2    1
ATOM      1  C1  UNL A   1      29.108  29.181  22.377  1.00  0.00    +0.000 C 
ATOM    106  H1  UNL A   1      29.578  28.535  21.666  1.00  0.00    +0.000 H 
ATOM    107  H2  UNL A   1      28.664  30.010  21.867  1.00  0.00    +0.000 H 
ATOM    108  H3  UNL A   1      28.350  28.640  22.905  1.00  0.00    +0.000 H 
ENDBRANCH    2    1
BRANCH    3    4
ATOM    113  H8  UNL A   1      30.097  33.011  23.365  1.00  0.00    +0.000 H 
ATOM      4  C4  UNL A   1      29.469  32.193  23.080  1.00  0.00    +0.000 C 
ATOM    111  H6  UNL A   1      28.445  32.502  23.112  1.00  0.00    +0.000 H 
ATOM    112  H7  UNL A   1      29.717  31.882  22.087  1.00  0.00    +0.000 H 
ENDBRANCH    3    4
BRANCH    7    8
ATOM      9  O1  UNL A   1      33.337  29.407  23.960  1.00  0.00    +0.000 O 
ATOM      8  C8  UNL A   1      32.983  28.991  25.070  1.00  0.00    +0.000 C 
BRANCH    8   10
ATOM     10  N1  UNL A   1      34.010  28.495  25.836  1.00  0.00    +0.000 N 
ATOM    118  H13 UNL A   1      34.451  27.682  25.500  1.00  0.00    +0.000 H 
BRANCH   10   11
ATOM     11  C9  UNL A   1      34.520  29.032  27.084  1.00  0.00    +0.000 C 
ATOM    119  H14 UNL A   1      35.432  28.522  27.318  1.00  0.00    +0.000 H 
ATOM    120  H15 UNL A   1      33.754  28.878  27.815  1.00  0.00    +0.000 H 
BRANCH   11   12
ATOM    121  H16 UNL A   1      34.458  30.913  26.123  1.00  0.00    +0.000 H 
ATOM    122  H17 UNL A   1      35.859  30.608  27.237  1.00  0.00    +0.000 H 
ATOM     12  C10 UNL A   1      34.806  30.537  27.064  1.00  0.00    +0.000 C 
BRANCH   12   13
ATOM    123  H18 UNL A   1      34.529  31.033  29.099  1.00  0.00    +0.000 H 
ATOM    124  H19 UNL A   1      33.131  31.344  27.971  1.00  0.00    +0.000 H 
ATOM     13  C11 UNL A   1      34.181  31.413  28.161  1.00  0.00    +0.000 C 
BRANCH   13   14
ATOM    126  H21 UNL A   1      34.931  33.102  29.100  1.00  0.00    +0.000 H 
ATOM    125  H20 UNL A   1      35.030  33.139  27.289  1.00  0.00    +0.000 H 
ATOM     14  C12 UNL A   1      34.450  32.920  28.162  1.00  0.00    +0.000 C 
BRANCH   14   15
ATOM    127  H22 UNL A   1      32.519  33.453  28.816  1.00  0.00    +0.000 H 
ATOM     15  C13 UNL A   1      33.255  33.870  28.161  1.00  0.00    +0.000 C 
ATOM    128  H23 UNL A   1      32.977  33.943  27.130  1.00  0.00    +0.000 H 
BRANCH   15   16
ATOM    129  H24 UNL A   1      33.244  35.949  27.767  1.00  0.00    +0.000 H 
ATOM    130  H25 UNL A   1      34.501  35.381  28.901  1.00  0.00    +0.000 H 
ATOM     16  C14 UNL A   1      33.478  35.311  28.593  1.00  0.00    +0.000 C 
BRANCH   16   17
ATOM     17  N2  UNL A   1      32.681  35.730  29.726  1.00  0.00    +0.000 N 
ATOM    131  H26 UNL A   1      31.868  36.238  29.503  1.00  0.00    +0.000 H 
BRANCH   17   18
ATOM     18  C15 UNL A   1      32.894  35.520  31.073  1.00  0.00    +0.000 C 
ATOM     19  O2  UNL A   1      32.063  35.901  31.884  1.00  0.00    +0.000 O 
BRANCH   18   20
ATOM    132  H27 UNL A   1      33.041  32.973  31.783  1.00  0.00    +0.000 H 
ATOM    133  H28 UNL A   1      34.963  31.695  32.530  1.00  0.00    +0.000 H 
ATOM    144  H39 UNL A   1      37.388  35.110  32.100  1.00  0.00    +0.000 H 
ATOM     81  C58 UNL A   1      36.460  34.657  32.059  1.00  0.00    +0.000 C 
ATOM     82  C59 UNL A   1      35.337  35.411  31.718  1.00  0.00    +0.000 C 
ATOM    145  H40 UNL A   1      35.421  36.432  31.589  1.00  0.00    +0.000 H 
ATOM     20  C16 UNL A   1      34.098  34.788  31.549  1.00  0.00    +0.000 C 
ATOM     21  C17 UNL A   1      33.963  33.429  31.860  1.00  0.00    +0.000 C 
ATOM     22  C18 UNL A   1      35.076  32.689  32.274  1.00  0.00    +0.000 C 
ATOM     23  C19 UNL A   1      36.342  33.289  32.347  1.00  0.00    +0.000 C 
BRANCH   23   24
ATOM    134  H29 UNL A   1      42.682  31.697  38.352  1.00  0.00    +0.000 H 
ATOM    135  H30 UNL A   1      44.129  29.814  37.273  1.00  0.00    +0.000 H 
ATOM    136  H31 UNL A   1      41.115  30.824  34.618  1.00  0.00    +0.000 H 
ATOM    137  H32 UNL A   1      38.028  29.802  29.128  1.00  0.00    +0.000 H 
ATOM    138  H33 UNL A   1      36.652  31.672  30.160  1.00  0.00    +0.000 H 
ATOM    139  H34 UNL A   1      39.710  30.731  32.813  1.00  0.00    +0.000 H 
ATOM    140  H35 UNL A   1      42.430  27.137  30.573  1.00  0.00    +0.000 H 
ATOM    141  H36 UNL A   1      43.839  27.047  32.707  1.00  0.00    +0.000 H 
ATOM    142  H37 UNL A   1      38.506  34.596  36.642  1.00  0.00    +0.000 H 
ATOM    143  H38 UNL A   1      36.788  34.364  34.758  1.00  0.00    +0.000 H 
ATOM     24  C20 UNL A   1      37.543  32.502  32.738  1.00  0.00    +0.000 C 
ATOM     25  C21 UNL A   1      38.247  32.785  34.037  1.00  0.00    +0.000 C 
ATOM     26  N3  UNL A   1      39.336  32.249  34.527  1.00  0.00    +0.000 N 
ATOM     27  C22 UNL A   1      39.574  32.900  35.731  1.00  0.00    +0.000 C 
ATOM     28  C23 UNL A   1      40.546  32.665  36.646  1.00  0.00    +0.000 C 
ATOM     40  C30 UNL A   1      41.548  31.640  36.518  1.00  0.00    +0.000 C 
ATOM     41  C31 UNL A   1      42.536  31.282  37.419  1.00  0.00    +0.000 C 
ATOM     42  C32 UNL A   1      43.302  30.261  36.846  1.00  0.00    +0.000 C 
ATOM     43  C33 UNL A   1      42.763  29.950  35.609  1.00  0.00    +0.000 C 
ATOM     44  N4  UNL A   1      41.690  30.808  35.417  1.00  0.00    +0.000 N 
ATOM     45  C34 UNL A   1      43.192  28.947  34.669  1.00  0.00    +0.000 C 
ATOM     57  C41 UNL A   1      42.603  28.700  33.473  1.00  0.00    +0.000 C 
ATOM     58  N5  UNL A   1      41.499  29.317  32.901  1.00  0.00    +0.000 N 
ATOM     59  C42 UNL A   1      41.326  28.740  31.737  1.00  0.00    +0.000 C 
ATOM     60  C43 UNL A   1      40.262  28.988  30.701  1.00  0.00    +0.000 C 
ATOM     72  C50 UNL A   1      39.310  29.910  30.941  1.00  0.00    +0.000 C 
ATOM     73  C51 UNL A   1      38.211  30.247  30.041  1.00  0.00    +0.000 C 
ATOM     74  C52 UNL A   1      37.477  31.228  30.592  1.00  0.00    +0.000 C 
ATOM     75  C53 UNL A   1      38.036  31.567  31.901  1.00  0.00    +0.000 C 
ATOM     76  N6  UNL A   1      39.121  30.735  32.024  1.00  0.00    +0.000 N 
ATOM     77  C54 UNL A   1      42.323  27.705  31.428  1.00  0.00    +0.000 C 
ATOM     78  C55 UNL A   1      43.052  27.693  32.535  1.00  0.00    +0.000 C 
ATOM     79  C56 UNL A   1      38.545  33.907  35.874  1.00  0.00    +0.000 C 
ATOM     80  C57 UNL A   1      37.660  33.831  34.891  1.00  0.00    +0.000 C 
BRANCH   28   29
ATOM     33  F2  UNL A   1      42.355  36.395  39.262  1.00  0.00    +0.000 F 
ATOM     34  C27 UNL A   1      40.555  35.161  40.163  1.00  0.00    +0.000 C 
ATOM     35  F3  UNL A   1      40.559  35.930  41.260  1.00  0.00    +0.000 F 
ATOM     36  C28 UNL A   1      39.651  34.116  40.050  1.00  0.00    +0.000 C 
ATOM     37  F4  UNL A   1      38.766  33.888  41.031  1.00  0.00    +0.000 F 
ATOM     38  C29 UNL A   1      39.663  33.299  38.921  1.00  0.00    +0.000 C 
ATOM     39  F5  UNL A   1      38.786  32.287  38.850  1.00  0.00    +0.000 F 
ATOM     29  C24 UNL A   1      40.566  33.529  37.873  1.00  0.00    +0.000 C 
ATOM     30  C25 UNL A   1      41.456  34.608  37.999  1.00  0.00    +0.000 C 
ATOM     31  F1  UNL A   1      42.347  34.864  37.030  1.00  0.00    +0.000 F 
ATOM     32  C26 UNL A   1      41.461  35.403  39.142  1.00  0.00    +0.000 C 
ENDBRANCH   28   29
BRANCH   45   46
ATOM     46  C35 UNL A   1      44.365  28.092  35.048  1.00  0.00    +0.000 C 
ATOM     47  C36 UNL A   1      45.682  28.486  34.770  1.00  0.00    +0.000 C 
ATOM     48  F6  UNL A   1      45.920  29.626  34.103  1.00  0.00    +0.000 F 
ATOM     49  C37 UNL A   1      46.762  27.690  35.146  1.00  0.00    +0.000 C 
ATOM     50  F7  UNL A   1      48.009  28.064  34.831  1.00  0.00    +0.000 F 
ATOM     51  C38 UNL A   1      46.546  26.505  35.833  1.00  0.00    +0.000 C 
ATOM     52  F8  UNL A   1      47.587  25.744  36.200  1.00  0.00    +0.000 F 
ATOM     53  C39 UNL A   1      45.253  26.104  36.133  1.00  0.00    +0.000 C 
ATOM     54  F9  UNL A   1      45.044  24.966  36.808  1.00  0.00    +0.000 F 
ATOM     55  C40 UNL A   1      44.171  26.884  35.734  1.00  0.00    +0.000 C 
ATOM     56  F10 UNL A   1      42.932  26.465  36.029  1.00  0.00    +0.000 F 
ENDBRANCH   45   46
BRANCH   60   61
ATOM     65  F12 UNL A   1      38.831  25.103  28.122  1.00  0.00    +0.000 F 
ATOM     66  C47 UNL A   1      40.193  26.709  27.054  1.00  0.00    +0.000 C 
ATOM     67  F13 UNL A   1      40.181  25.991  25.923  1.00  0.00    +0.000 F 
ATOM     68  C48 UNL A   1      40.907  27.897  27.117  1.00  0.00    +0.000 C 
ATOM     69  F14 UNL A   1      41.568  28.337  26.039  1.00  0.00    +0.000 F 
ATOM     70  C49 UNL A   1      40.939  28.632  28.300  1.00  0.00    +0.000 C 
ATOM     71  F15 UNL A   1      41.649  29.770  28.336  1.00  0.00    +0.000 F 
ATOM     61  C44 UNL A   1      40.236  28.207  29.437  1.00  0.00    +0.000 C 
ATOM     62  C45 UNL A   1      39.508  27.012  29.344  1.00  0.00    +0.000 C 
ATOM     63  F11 UNL A   1      38.839  26.553  30.411  1.00  0.00    +0.000 F 
ATOM     64  C46 UNL A   1      39.499  26.263  28.169  1.00  0.00    +0.000 C 
ENDBRANCH   60   61
ENDBRANCH   23   24
ENDBRANCH   18   20
ENDBRANCH   17   18
ENDBRANCH   16   17
ENDBRANCH   15   16
ENDBRANCH   14   15
ENDBRANCH   13   14
ENDBRANCH   12   13
ENDBRANCH   11   12
ENDBRANCH   10   11
ENDBRANCH    8   10
ENDBRANCH    7    8
BRANCH   85   86
ATOM    151  H46 UNL A   1      28.945  25.858  26.447  1.00  0.00    +0.000 H 
ATOM     86  C63 UNL A   1      29.138  25.963  25.399  1.00  0.00    +0.000 C 
ATOM    150  H45 UNL A   1      28.629  26.829  25.029  1.00  0.00    +0.000 H 
ATOM    152  H47 UNL A   1      28.786  25.094  24.883  1.00  0.00    +0.000 H 
ENDBRANCH   85   86
BRANCH   91   92
ATOM     92  C69 UNL A   1      33.871  23.086  22.941  1.00  0.00    +0.000 C 
ATOM    157  H52 UNL A   1      34.880  22.972  22.605  1.00  0.00    +0.000 H 
ATOM    158  H53 UNL A   1      33.311  23.631  22.210  1.00  0.00    +0.000 H 
ATOM    159  H54 UNL A   1      33.431  22.121  23.083  1.00  0.00    +0.000 H 
ENDBRANCH   91   92
BRANCH   95   96
ATOM    165  H60 UNL A   1      37.824  21.793  25.154  1.00  0.00    +0.000 H 
ATOM     96  O3  UNL A   1      37.227  21.644  25.903  1.00  0.00    +0.000 O 
ENDBRANCH   95   96
BRANCH   97   98
ATOM     98  C74 UNL A   1      34.755  20.691  24.786  1.00  0.00    +0.000 C 
ATOM    166  H61 UNL A   1      34.782  19.760  25.314  1.00  0.00    +0.000 H 
ATOM    167  H62 UNL A   1      35.611  20.763  24.148  1.00  0.00    +0.000 H 
ATOM    168  H63 UNL A   1      33.864  20.741  24.197  1.00  0.00    +0.000 H 
ENDBRANCH   97   98
BRANCH   97   99
ATOM    169  H64 UNL A   1      35.425  21.342  27.793  1.00  0.00    +0.000 H 
ATOM    170  H65 UNL A   1      34.391  20.141  27.059  1.00  0.00    +0.000 H 
ATOM     99  C75 UNL A   1      34.556  21.190  27.188  1.00  0.00    +0.000 C 
ATOM    171  H66 UNL A   1      33.706  21.628  27.668  1.00  0.00    +0.000 H 
ENDBRANCH   97   99
BRANCH  103  104
ATOM    177  H72 UNL A   1      30.187  24.757  22.876  1.00  0.00    +0.000 H 
ATOM    178  H73 UNL A   1      29.548  23.617  24.036  1.00  0.00    +0.000 H 
ATOM    179  H74 UNL A   1      31.005  23.238  23.149  1.00  0.00    +0.000 H 
ATOM    104  C80 UNL A   1      30.442  24.022  23.611  1.00  0.00    +0.000 C 
ENDBRANCH  103  104
TORSDOF 23
ENDMDL
MODEL 2
REMARK VINA RESULT:     -11.4      0.327      1.568
ROOT
ATOM      2  C2  UNL A   1      30.251  29.841  23.609  1.00  0.00    +0.000 C 
ATOM      3  C3  UNL A   1      29.784  31.144  24.338  1.00  0.00    +0.000 C 
ATOM      5  C5  UNL A   1      30.721  31.620  25.460  1.00  0.00    +0.000 C 
ATOM      6  C6  UNL A   1      31.296  30.548  26.359  1.00  0.00    +0.000 C 
ATOM      7  C7  UNL A   1      31.585  29.168  25.738  1.00  0.00    +0.000 C 
ATOM    146  H41 UNL A   1      30.411  28.369  27.364  1.00  0.00    +0.000 H 
ATOM    147  H42 UNL A   1      32.205  28.320  27.583  1.00  0.00    +0.000 H 
ATOM    148  H43 UNL A   1      30.906  26.143  27.405  1.00  0.00    +0.000 H 
ATOM    149  H44 UNL A   1      32.446  26.424  26.505  1.00  0.00    +0.000 H 
ATOM    153  H48 UNL A   1      31.817  27.871  22.422  1.00  0.00    +0.000 H 
ATOM    154  H49 UNL A   1      33.692  26.293  22.697  1.00  0.00    +0.000 H 
ATOM    155  H50 UNL A   1      32.291  25.330  22.214  1.00  0.00    +0.000 H 
ATOM    156  H51 UNL A   1      33.296  25.681  25.044  1.00  0.00    +0.000 H 
ATOM    160  H55 UNL A   1      35.278  25.246  25.338  1.00  0.00    +0.000 H 
ATOM    161  H56 UNL A   1      35.541  25.171  23.576  1.00  0.00    +0.000 H 
ATOM    162  H57 UNL A   1      37.362  24.181  24.899  1.00  0.00    +0.000 H 
ATOM    163  H58 UNL A   1      36.574  23.085  23.743  1.00  0.00    +0.000 H 
ATOM    164  H59 UNL A   1      36.190  23.154  26.689  1.00  0.00    +0.000 H 
ATOM    172  H67 UNL A   1      33.920  23.612  26.364  1.00  0.00    +0.000 H 
ATOM    173  H68 UNL A   1      32.206  21.804  26.406  1.00  0.00    +0.000 H 
ATOM    174  H69 UNL A   1      31.990  22.055  24.695  1.00  0.00    +0.000 H 
ATOM    175  H70 UNL A   1      31.725  24.185  26.806  1.00  0.00    +0.000 H 
ATOM    176  H71 UNL A   1      30.385  23.345  25.996  1.00  0.00    +0.000 H 
ATOM    180  H75 UNL A   1      29.548  28.631  25.003  1.00  0.00    +0.000 H 
ATOM     83  C60 UNL A   1      31.368  28.159  26.935  1.00  0.00    +0.000 C 
ATOM     84  C61 UNL A   1      31.407  26.657  26.611  1.00  0.00    +0.000 C 
ATOM     85  C62 UNL A   1      30.751  26.199  25.263  1.00  0.00    +0.000 C 
ATOM     87  C64 UNL A   1      31.003  27.325  24.219  1.00  0.00    +0.000 C 
ATOM     88  C65 UNL A   1      31.814  27.145  23.156  1.00  0.00    +0.000 C 
ATOM     89  C66 UNL A   1      32.716  25.951  22.975  1.00  0.00    +0.000 C 
ATOM     90  C67 UNL A   1      32.833  25.105  24.271  1.00  0.00    +0.000 C 
ATOM     91  C68 UNL A   1      33.928  23.955  24.264  1.00  0.00    +0.000 C 
ATOM     93  C70 UNL A   1      35.329  24.623  24.470  1.00  0.00    +0.000 C 
ATOM     94  C71 UNL A   1      36.476  23.631  24.658  1.00  0.00    +0.000 C 
ATOM     95  C72 UNL A   1      36.224  22.609  25.769  1.00  0.00    +0.000 C 
ATOM     97  C73 UNL A   1      34.839  21.894  25.704  1.00  0.00    +0.000 C 
ATOM    100  C76 UNL A   1      33.738  23.004  25.503  1.00  0.00    +0.000 C 
ATOM    101  C77 UNL A   1      32.288  22.518  25.612  1.00  0.00    +0.000 C 
ATOM    102  C78 UNL A   1      31.385  23.717  25.906  1.00  0.00    +0.000 C 
ATOM    103  C79 UNL A   1      31.378  24.777  24.773  1.00  0.00    +0.000 C 
ATOM    105  C81 UNL A   1      30.555  28.734  24.655  1.00  0.00    +0.000 C 
ATOM    109  H4  UNL A   1      31.145  30.054  23.061  1.00  0.00    +0.000 H 
ATOM    110  H5  UNL A   1      28.850  30.823  24.752  1.00  0.00    +0.000 H 
ATOM    114  H9  UNL A   1      30.170  32.301  26.076  1.00  0.00    +0.000 H 
ATOM    115  H10 UNL A   1      31.562  32.054  24.961  1.00  0.00    +0.000 H 
ATOM    116  H11 UNL A   1      30.604  30.398  27.160  1.00  0.00    +0.000 H 
ATOM    117  H12 UNL A   1      32.258  30.922  26.642  1.00  0.00    +0.000 H 
ENDROOT
BRANCH    2    1
ATOM      1  C1  UNL A   1      29.190  29.367  22.601  1.00  0.00    +0.000 C 
ATOM    106  H1  UNL A   1      28.221  29.677  22.932  1.00  0.00    +0.000 H 
ATOM    107  H2  UNL A   1      29.219  28.300  22.530  1.00  0.00    +0.000 H 
ATOM    108  H3  UNL A   1      29.394  29.795  21.642  1.00  0.00    +0.000 H 
ENDBRANCH    2    1
BRANCH    3    4
ATOM    113  H8  UNL A   1      28.553  32.372  23.085  1.00  0.00    +0.000 H 
ATOM      4  C4  UNL A   1      29.571  32.350  23.414  1.00  0.00    +0.000 C 
ATOM    111  H6  UNL A   1      30.218  32.267  22.565  1.00  0.00    +0.000 H 
ATOM    112  H7  UNL A   1      29.794  33.251  23.945  1.00  0.00    +0.000 H 
ENDBRANCH    3    4
BRANCH    7    8
ATOM      9  O1  UNL A   1      33.426  29.490  24.148  1.00  0.00    +0.000 O 
ATOM      8  C8  UNL A   1      33.084  29.059  25.257  1.00  0.00    +0.000 C 
BRANCH    8   10
ATOM     10  N1  UNL A   1      34.119  28.558  26.007  1.00  0.00    +0.000 N 
ATOM    118  H13 UNL A   1      34.586  27.774  25.637  1.00  0.00    +0.000 H 
BRANCH   10   11
ATOM     11  C9  UNL A   1      34.605  29.050  27.283  1.00  0.00    +0.000 C 
ATOM    119  H14 UNL A   1      35.459  28.467  27.561  1.00  0.00    +0.000 H 
ATOM    120  H15 UNL A   1      33.792  28.959  27.972  1.00  0.00    +0.000 H 
BRANCH   11   12
ATOM    121  H16 UNL A   1      34.861  30.899  26.293  1.00  0.00    +0.000 H 
ATOM    122  H17 UNL A   1      36.025  30.520  27.633  1.00  0.00    +0.000 H 
ATOM     12  C10 UNL A   1      35.013  30.527  27.285  1.00  0.00    +0.000 C 
BRANCH   12   13
ATOM    123  H18 UNL A   1      34.595  31.221  29.236  1.00  0.00    +0.000 H 
ATOM    124  H19 UNL A   1      33.254  31.343  28.006  1.00  0.00    +0.000 H 
ATOM     13  C11 UNL A   1      34.288  31.482  28.245  1.00  0.00    +0.000 C 
BRANCH   13   14
ATOM    126  H21 UNL A   1      35.072  33.266  28.955  1.00  0.00    +0.000 H 
ATOM    125  H20 UNL A   1      34.958  33.158  27.147  1.00  0.00    +0.000 H 
ATOM     14  C12 UNL A   1      34.493  32.993  28.097  1.00  0.00    +0.000 C 
BRANCH   14   15
ATOM    127  H22 UNL A   1      32.569  33.440  28.831  1.00  0.00    +0.000 H 
ATOM     15  C13 UNL A   1      33.268  33.901  28.164  1.00  0.00    +0.000 C 
ATOM    128  H23 UNL A   1      32.952  33.994  27.145  1.00  0.00    +0.000 H 
BRANCH   15   16
ATOM    129  H24 UNL A   1      33.118  35.988  27.855  1.00  0.00    +0.000 H 
ATOM    130  H25 UNL A   1      34.499  35.449  28.848  1.00  0.00    +0.000 H 
ATOM     16  C14 UNL A   1      33.457  35.336  28.631  1.00  0.00    +0.000 C 
BRANCH   16   17
ATOM     17  N2  UNL A   1      32.747  35.672  29.847  1.00  0.00    +0.000 N 
ATOM    131  H26 UNL A   1      31.925  36.199  29.721  1.00  0.00    +0.000 H 
BRANCH   17   18
ATOM     18  C15 UNL A   1      33.053  35.361  31.155  1.00  0.00    +0.000 C 
ATOM     19  O2  UNL A   1      32.323  35.746  32.056  1.00  0.00    +0.000 O 
BRANCH   18   20
ATOM    132  H27 UNL A   1      35.588  35.852  30.563  1.00  0.00    +0.000 H 
ATOM    133  H28 UNL A   1      37.568  34.554  31.091  1.00  0.00    +0.000 H 
ATOM    144  H39 UNL A   1      35.169  31.723  33.080  1.00  0.00    +0.000 H 
ATOM     81  C58 UNL A   1      35.261  32.587  32.522  1.00  0.00    +0.000 C 
ATOM     82  C59 UNL A   1      34.117  33.288  32.138  1.00  0.00    +0.000 C 
ATOM    145  H40 UNL A   1      33.182  32.899  32.341  1.00  0.00    +0.000 H 
ATOM     20  C16 UNL A   1      34.233  34.516  31.482  1.00  0.00    +0.000 C 
ATOM     21  C17 UNL A   1      35.498  34.969  31.089  1.00  0.00    +0.000 C 
ATOM     22  C18 UNL A   1      36.641  34.228  31.409  1.00  0.00    +0.000 C 
ATOM     23  C19 UNL A   1      36.536  33.046  32.157  1.00  0.00    +0.000 C 
BRANCH   23   24
ATOM    134  H29 UNL A   1      42.937  31.571  38.128  1.00  0.00    +0.000 H 
ATOM    135  H30 UNL A   1      44.389  29.687  37.059  1.00  0.00    +0.000 H 
ATOM    136  H31 UNL A   1      41.346  30.644  34.418  1.00  0.00    +0.000 H 
ATOM    137  H32 UNL A   1      38.223  29.536  28.965  1.00  0.00    +0.000 H 
ATOM    138  H33 UNL A   1      36.841  31.406  29.986  1.00  0.00    +0.000 H 
ATOM    139  H34 UNL A   1      39.928  30.519  32.625  1.00  0.00    +0.000 H 
ATOM    140  H35 UNL A   1      42.657  26.922  30.403  1.00  0.00    +0.000 H 
ATOM    141  H36 UNL A   1      44.084  26.867  32.527  1.00  0.00    +0.000 H 
ATOM    142  H37 UNL A   1      38.724  34.418  36.420  1.00  0.00    +0.000 H 
ATOM    143  H38 UNL A   1      36.992  34.152  34.553  1.00  0.00    +0.000 H 
ATOM     24  C20 UNL A   1      37.747  32.273  32.547  1.00  0.00    +0.000 C 
ATOM     25  C21 UNL A   1      38.458  32.576  33.838  1.00  0.00    +0.000 C 
ATOM     26  N3  UNL A   1      39.556  32.054  34.325  1.00  0.00    +0.000 N 
ATOM     27  C22 UNL A   1      39.797  32.721  35.519  1.00  0.00    +0.000 C 
ATOM     28  C23 UNL A   1      40.779  32.503  36.429  1.00  0.00    +0.000 C 
ATOM     40  C30 UNL A   1      41.788  31.485  36.304  1.00  0.00    +0.000 C 
ATOM     41  C31 UNL A   1      42.786  31.144  37.201  1.00  0.00    +0.000 C 
ATOM     42  C32 UNL A   1      43.555  30.123  36.634  1.00  0.00    +0.000 C 
ATOM     43  C33 UNL A   1      43.008  29.794  35.404  1.00  0.00    +0.000 C 
ATOM     44  N4  UNL A   1      41.928  30.641  35.212  1.00  0.00    +0.000 N 
ATOM     45  C34 UNL A   1      43.438  28.783  34.473  1.00  0.00    +0.000 C 
ATOM     57  C41 UNL A   1      42.842  28.519  33.285  1.00  0.00    +0.000 C 
ATOM     58  N5  UNL A   1      41.728  29.121  32.714  1.00  0.00    +0.000 N 
ATOM     59  C42 UNL A   1      41.551  28.529  31.558  1.00  0.00    +0.000 C 
ATOM     60  C43 UNL A   1      40.476  28.757  30.528  1.00  0.00    +0.000 C 
ATOM     72  C50 UNL A   1      39.519  29.674  30.766  1.00  0.00    +0.000 C 
ATOM     73  C51 UNL A   1      38.410  29.993  29.871  1.00  0.00    +0.000 C 
ATOM     74  C52 UNL A   1      37.673  30.974  30.416  1.00  0.00    +0.000 C 
ATOM     75  C53 UNL A   1      38.240  31.332  31.717  1.00  0.00    +0.000 C 
ATOM     76  N6  UNL A   1      39.333  30.510  31.841  1.00  0.00    +0.000 N 
ATOM     77  C54 UNL A   1      42.553  27.499  31.253  1.00  0.00    +0.000 C 
ATOM     78  C55 UNL A   1      43.291  27.505  32.354  1.00  0.00    +0.000 C 
ATOM     79  C56 UNL A   1      38.762  33.721  35.659  1.00  0.00    +0.000 C 
ATOM     80  C57 UNL A   1      37.870  33.627  34.685  1.00  0.00    +0.000 C 
BRANCH   28   29
ATOM     33  F2  UNL A   1      39.098  33.790  40.850  1.00  0.00    +0.000 F 
ATOM     34  C27 UNL A   1      40.898  35.012  39.934  1.00  0.00    +0.000 C 
ATOM     35  F3  UNL A   1      40.934  35.799  41.019  1.00  0.00    +0.000 F 
ATOM     36  C28 UNL A   1      41.781  35.232  38.888  1.00  0.00    +0.000 C 
ATOM     37  F4  UNL A   1      42.686  36.217  38.971  1.00  0.00    +0.000 F 
ATOM     38  C29 UNL A   1      41.727  34.431  37.749  1.00  0.00    +0.000 C 
ATOM     39  F5  UNL A   1      42.584  34.679  36.747  1.00  0.00    +0.000 F 
ATOM     29  C24 UNL A   1      40.802  33.382  37.646  1.00  0.00    +0.000 C 
ATOM     30  C25 UNL A   1      39.935  33.164  38.728  1.00  0.00    +0.000 C 
ATOM     31  F1  UNL A   1      39.025  32.180  38.676  1.00  0.00    +0.000 F 
ATOM     32  C26 UNL A   1      39.971  33.985  39.852  1.00  0.00    +0.000 C 
ENDBRANCH   28   29
BRANCH   45   46
ATOM     46  C35 UNL A   1      44.621  27.942  34.852  1.00  0.00    +0.000 C 
ATOM     47  C36 UNL A   1      45.932  28.335  34.542  1.00  0.00    +0.000 C 
ATOM     48  F6  UNL A   1      46.153  29.459  33.845  1.00  0.00    +0.000 F 
ATOM     49  C37 UNL A   1      47.021  27.551  34.919  1.00  0.00    +0.000 C 
ATOM     50  F7  UNL A   1      48.261  27.923  34.574  1.00  0.00    +0.000 F 
ATOM     51  C38 UNL A   1      46.821  26.382  35.637  1.00  0.00    +0.000 C 
ATOM     52  F8  UNL A   1      47.871  25.634  36.004  1.00  0.00    +0.000 F 
ATOM     53  C39 UNL A   1      45.535  25.984  35.968  1.00  0.00    +0.000 C 
ATOM     54  F9  UNL A   1      45.343  24.861  36.673  1.00  0.00    +0.000 F 
ATOM     55  C40 UNL A   1      44.444  26.750  35.569  1.00  0.00    +0.000 C 
ATOM     56  F10 UNL A   1      43.211  26.334  35.895  1.00  0.00    +0.000 F 
ENDBRANCH   45   46
BRANCH   60   61
ATOM     65  F12 UNL A   1      41.852  28.046  25.903  1.00  0.00    +0.000 F 
ATOM     66  C47 UNL A   1      40.388  26.475  26.884  1.00  0.00    +0.000 C 
ATOM     67  F13 UNL A   1      40.351  25.773  25.743  1.00  0.00    +0.000 F 
ATOM     68  C48 UNL A   1      39.648  26.059  27.981  1.00  0.00    +0.000 C 
ATOM     69  F14 UNL A   1      38.912  24.942  27.908  1.00  0.00    +0.000 F 
ATOM     70  C49 UNL A   1      39.667  26.801  29.160  1.00  0.00    +0.000 C 
ATOM     71  F15 UNL A   1      38.931  26.383  30.201  1.00  0.00    +0.000 F 
ATOM     61  C44 UNL A   1      40.447  27.962  29.273  1.00  0.00    +0.000 C 
ATOM     62  C45 UNL A   1      41.199  28.353  28.156  1.00  0.00    +0.000 C 
ATOM     63  F11 UNL A   1      41.943  29.467  28.208  1.00  0.00    +0.000 F 
ATOM     64  C46 UNL A   1      41.158  27.625  26.969  1.00  0.00    +0.000 C 
ENDBRANCH   60   61
ENDBRANCH   23   24
ENDBRANCH   18   20
ENDBRANCH   17   18
ENDBRANCH   16   17
ENDBRANCH   15   16
ENDBRANCH   14   15
ENDBRANCH   13   14
ENDBRANCH   12   13
ENDBRANCH   11   12
ENDBRANCH   10   11
ENDBRANCH    8   10
ENDBRANCH    7    8
BRANCH   85   86
ATOM    151  H46 UNL A   1      28.709  26.110  24.566  1.00  0.00    +0.000 H 
ATOM     86  C63 UNL A   1      29.226  26.039  25.501  1.00  0.00    +0.000 C 
ATOM    150  H45 UNL A   1      29.032  25.084  25.943  1.00  0.00    +0.000 H 
ATOM    152  H47 UNL A   1      28.883  26.812  26.157  1.00  0.00    +0.000 H 
ENDBRANCH   85   86
BRANCH   91   92
ATOM     92  C69 UNL A   1      33.927  23.235  22.901  1.00  0.00    +0.000 C 
ATOM    157  H52 UNL A   1      33.511  22.256  23.016  1.00  0.00    +0.000 H 
ATOM    158  H53 UNL A   1      34.931  23.156  22.540  1.00  0.00    +0.000 H 
ATOM    159  H54 UNL A   1      33.338  23.793  22.203  1.00  0.00    +0.000 H 
ENDBRANCH   91   92
BRANCH   95   96
ATOM    165  H60 UNL A   1      37.835  21.800  26.579  1.00  0.00    +0.000 H 
ATOM     96  O3  UNL A   1      37.297  21.667  25.783  1.00  0.00    +0.000 O 
ENDBRANCH   95   96
BRANCH   97   98
ATOM     98  C74 UNL A   1      34.813  20.768  24.649  1.00  0.00    +0.000 C 
ATOM    166  H61 UNL A   1      34.033  20.960  23.942  1.00  0.00    +0.000 H 
ATOM    167  H62 UNL A   1      34.633  19.831  25.132  1.00  0.00    +0.000 H 
ATOM    168  H63 UNL A   1      35.754  20.734  24.141  1.00  0.00    +0.000 H 
ENDBRANCH   97   98
BRANCH   97   99
ATOM    169  H64 UNL A   1      33.872  20.433  26.971  1.00  0.00    +0.000 H 
ATOM    170  H65 UNL A   1      34.339  21.894  27.807  1.00  0.00    +0.000 H 
ATOM     99  C75 UNL A   1      34.634  21.177  27.070  1.00  0.00    +0.000 C 
ATOM    171  H66 UNL A   1      35.549  20.712  27.370  1.00  0.00    +0.000 H 
ENDBRANCH   97   99
BRANCH  103  104
ATOM    177  H72 UNL A   1      30.088  23.234  23.964  1.00  0.00    +0.000 H 
ATOM    178  H73 UNL A   1      31.120  23.985  22.771  1.00  0.00    +0.000 H 
ATOM    179  H74 UNL A   1      29.720  24.837  23.378  1.00  0.00    +0.000 H 
ATOM    104  C80 UNL A   1      30.508  24.160  23.631  1.00  0.00    +0.000 C 
ENDBRANCH  103  104
TORSDOF 23
ENDMDL
MODEL 3
REMARK VINA RESULT:     -11.3      0.712      6.777
ROOT
ATOM      2  C2  UNL A   1      30.083  29.605  23.156  1.00  0.00    +0.000 C 
ATOM      3  C3  UNL A   1      29.585  30.940  23.801  1.00  0.00    +0.000 C 
ATOM      5  C5  UNL A   1      30.499  31.497  24.905  1.00  0.00    +0.000 C 
ATOM      6  C6  UNL A   1      31.079  30.489  25.872  1.00  0.00    +0.000 C 
ATOM      7  C7  UNL A   1      31.398  29.080  25.338  1.00  0.00    +0.000 C 
ATOM    146  H41 UNL A   1      30.214  28.358  26.992  1.00  0.00    +0.000 H 
ATOM    147  H42 UNL A   1      32.006  28.352  27.237  1.00  0.00    +0.000 H 
ATOM    148  H43 UNL A   1      30.744  26.147  27.170  1.00  0.00    +0.000 H 
ATOM    149  H44 UNL A   1      32.292  26.401  26.275  1.00  0.00    +0.000 H 
ATOM    153  H48 UNL A   1      31.697  27.596  22.106  1.00  0.00    +0.000 H 
ATOM    154  H49 UNL A   1      33.593  26.069  22.498  1.00  0.00    +0.000 H 
ATOM    155  H50 UNL A   1      32.215  25.056  22.054  1.00  0.00    +0.000 H 
ATOM    156  H51 UNL A   1      33.174  25.588  24.872  1.00  0.00    +0.000 H 
ATOM    160  H55 UNL A   1      35.159  25.205  25.216  1.00  0.00    +0.000 H 
ATOM    161  H56 UNL A   1      35.447  25.031  23.465  1.00  0.00    +0.000 H 
ATOM    162  H57 UNL A   1      37.266  24.151  24.867  1.00  0.00    +0.000 H 
ATOM    163  H58 UNL A   1      36.511  22.976  23.768  1.00  0.00    +0.000 H 
ATOM    164  H59 UNL A   1      36.085  23.211  26.699  1.00  0.00    +0.000 H 
ATOM    172  H67 UNL A   1      33.813  23.610  26.318  1.00  0.00    +0.000 H 
ATOM    173  H68 UNL A   1      32.128  21.780  26.444  1.00  0.00    +0.000 H 
ATOM    174  H69 UNL A   1      31.932  21.927  24.718  1.00  0.00    +0.000 H 
ATOM    175  H70 UNL A   1      31.603  24.172  26.698  1.00  0.00    +0.000 H 
ATOM    176  H71 UNL A   1      30.289  23.263  25.921  1.00  0.00    +0.000 H 
ATOM    180  H75 UNL A   1      29.381  28.467  24.609  1.00  0.00    +0.000 H 
ATOM     83  C60 UNL A   1      31.181  28.139  26.589  1.00  0.00    +0.000 C 
ATOM     84  C61 UNL A   1      31.249  26.622  26.354  1.00  0.00    +0.000 C 
ATOM     85  C62 UNL A   1      30.619  26.075  25.027  1.00  0.00    +0.000 C 
ATOM     87  C64 UNL A   1      30.867  27.143  23.922  1.00  0.00    +0.000 C 
ATOM     88  C65 UNL A   1      31.695  26.914  22.882  1.00  0.00    +0.000 C 
ATOM     89  C66 UNL A   1      32.619  25.727  22.783  1.00  0.00    +0.000 C 
ATOM     90  C67 UNL A   1      32.731  24.960  24.127  1.00  0.00    +0.000 C 
ATOM     91  C68 UNL A   1      33.845  23.830  24.202  1.00  0.00    +0.000 C 
ATOM     93  C70 UNL A   1      35.232  24.532  24.387  1.00  0.00    +0.000 C 
ATOM     94  C71 UNL A   1      36.392  23.573  24.648  1.00  0.00    +0.000 C 
ATOM     95  C72 UNL A   1      36.141  22.614  25.813  1.00  0.00    +0.000 C 
ATOM     97  C73 UNL A   1      34.769  21.873  25.772  1.00  0.00    +0.000 C 
ATOM    100  C76 UNL A   1      33.652  22.950  25.492  1.00  0.00    +0.000 C 
ATOM    101  C77 UNL A   1      32.209  22.447  25.611  1.00  0.00    +0.000 C 
ATOM    102  C78 UNL A   1      31.283  23.646  25.822  1.00  0.00    +0.000 C 
ATOM    103  C79 UNL A   1      31.275  24.638  24.629  1.00  0.00    +0.000 C 
ATOM    105  C81 UNL A   1      30.390  28.567  24.269  1.00  0.00    +0.000 C 
ATOM    109  H4  UNL A   1      30.981  29.800  22.608  1.00  0.00    +0.000 H 
ATOM    110  H5  UNL A   1      28.651  30.629  24.220  1.00  0.00    +0.000 H 
ATOM    114  H9  UNL A   1      29.929  32.204  25.473  1.00  0.00    +0.000 H 
ATOM    115  H10 UNL A   1      31.340  31.915  24.392  1.00  0.00    +0.000 H 
ATOM    116  H11 UNL A   1      30.378  30.375  26.672  1.00  0.00    +0.000 H 
ATOM    117  H12 UNL A   1      32.030  30.895  26.145  1.00  0.00    +0.000 H 
ENDROOT
BRANCH    2    1
ATOM      1  C1  UNL A   1      29.044  29.056  22.164  1.00  0.00    +0.000 C 
ATOM    106  H1  UNL A   1      29.253  28.026  21.962  1.00  0.00    +0.000 H 
ATOM    107  H2  UNL A   1      29.092  29.615  21.252  1.00  0.00    +0.000 H 
ATOM    108  H3  UNL A   1      28.065  29.146  22.586  1.00  0.00    +0.000 H 
ENDBRANCH    2    1
BRANCH    3    4
ATOM    113  H8  UNL A   1      28.570  31.831  22.137  1.00  0.00    +0.000 H 
ATOM      4  C4  UNL A   1      29.366  32.086  22.805  1.00  0.00    +0.000 C 
ATOM    111  H6  UNL A   1      30.263  32.247  22.243  1.00  0.00    +0.000 H 
ATOM    112  H7  UNL A   1      29.113  32.979  23.337  1.00  0.00    +0.000 H 
ENDBRANCH    3    4
BRANCH    7    8
ATOM      9  O1  UNL A   1      33.278  29.447  23.804  1.00  0.00    +0.000 O 
ATOM      8  C8  UNL A   1      32.905  28.969  24.883  1.00  0.00    +0.000 C 
BRANCH    8   10
ATOM     10  N1  UNL A   1      33.916  28.414  25.629  1.00  0.00    +0.000 N 
ATOM    118  H13 UNL A   1      34.504  27.778  25.162  1.00  0.00    +0.000 H 
BRANCH   10   11
ATOM     11  C9  UNL A   1      34.217  28.657  27.028  1.00  0.00    +0.000 C 
ATOM    119  H14 UNL A   1      34.354  27.710  27.508  1.00  0.00    +0.000 H 
ATOM    120  H15 UNL A   1      33.392  29.212  27.423  1.00  0.00    +0.000 H 
BRANCH   11   12
ATOM    121  H16 UNL A   1      35.999  29.564  26.347  1.00  0.00    +0.000 H 
ATOM    122  H17 UNL A   1      35.975  29.002  28.073  1.00  0.00    +0.000 H 
ATOM     12  C10 UNL A   1      35.469  29.504  27.275  1.00  0.00    +0.000 C 
BRANCH   12   13
ATOM    123  H18 UNL A   1      35.829  31.581  27.120  1.00  0.00    +0.000 H 
ATOM    124  H19 UNL A   1      35.632  30.895  28.798  1.00  0.00    +0.000 H 
ATOM     13  C11 UNL A   1      35.288  30.942  27.787  1.00  0.00    +0.000 C 
BRANCH   13   14
ATOM    126  H21 UNL A   1      33.264  30.849  27.345  1.00  0.00    +0.000 H 
ATOM    125  H20 UNL A   1      33.652  31.588  28.957  1.00  0.00    +0.000 H 
ATOM     14  C12 UNL A   1      33.875  31.521  27.912  1.00  0.00    +0.000 C 
BRANCH   14   15
ATOM    127  H22 UNL A   1      33.483  32.750  26.246  1.00  0.00    +0.000 H 
ATOM     15  C13 UNL A   1      33.597  32.891  27.301  1.00  0.00    +0.000 C 
ATOM    128  H23 UNL A   1      34.430  33.491  27.606  1.00  0.00    +0.000 H 
BRANCH   15   16
ATOM    129  H24 UNL A   1      31.873  33.068  28.515  1.00  0.00    +0.000 H 
ATOM    130  H25 UNL A   1      31.784  33.866  26.920  1.00  0.00    +0.000 H 
ATOM     16  C14 UNL A   1      32.380  33.664  27.786  1.00  0.00    +0.000 C 
BRANCH   16   17
ATOM     17  N2  UNL A   1      32.681  34.947  28.384  1.00  0.00    +0.000 N 
ATOM    131  H26 UNL A   1      32.483  35.730  27.820  1.00  0.00    +0.000 H 
BRANCH   17   18
ATOM     18  C15 UNL A   1      33.205  35.234  29.627  1.00  0.00    +0.000 C 
ATOM     19  O2  UNL A   1      32.704  36.116  30.307  1.00  0.00    +0.000 O 
BRANCH   18   20
ATOM    132  H27 UNL A   1      35.739  35.325  28.859  1.00  0.00    +0.000 H 
ATOM    133  H28 UNL A   1      37.650  34.108  29.724  1.00  0.00    +0.000 H 
ATOM    144  H39 UNL A   1      35.160  32.220  32.545  1.00  0.00    +0.000 H 
ATOM     81  C58 UNL A   1      35.284  32.860  31.744  1.00  0.00    +0.000 C 
ATOM     82  C59 UNL A   1      34.173  33.492  31.185  1.00  0.00    +0.000 C 
ATOM    145  H40 UNL A   1      33.224  33.257  31.518  1.00  0.00    +0.000 H 
ATOM     20  C16 UNL A   1      34.340  34.445  30.176  1.00  0.00    +0.000 C 
ATOM     21  C17 UNL A   1      35.614  34.657  29.636  1.00  0.00    +0.000 C 
ATOM     22  C18 UNL A   1      36.719  33.967  30.147  1.00  0.00    +0.000 C 
ATOM     23  C19 UNL A   1      36.569  33.086  31.228  1.00  0.00    +0.000 C 
BRANCH   23   24
ATOM    134  H29 UNL A   1      42.871  26.899  30.331  1.00  0.00    +0.000 H 
ATOM    135  H30 UNL A   1      44.185  26.991  32.581  1.00  0.00    +0.000 H 
ATOM    136  H31 UNL A   1      41.097  29.745  32.762  1.00  0.00    +0.000 H 
ATOM    137  H32 UNL A   1      38.061  34.435  35.844  1.00  0.00    +0.000 H 
ATOM    138  H33 UNL A   1      36.752  34.306  33.672  1.00  0.00    +0.000 H 
ATOM    139  H34 UNL A   1      39.797  31.483  33.490  1.00  0.00    +0.000 H 
ATOM    140  H35 UNL A   1      42.195  31.748  37.907  1.00  0.00    +0.000 H 
ATOM    141  H36 UNL A   1      43.819  29.997  36.988  1.00  0.00    +0.000 H 
ATOM    142  H37 UNL A   1      38.471  29.368  28.508  1.00  0.00    +0.000 H 
ATOM    143  H38 UNL A   1      37.150  31.453  29.187  1.00  0.00    +0.000 H 
ATOM     24  C20 UNL A   1      37.742  32.383  31.814  1.00  0.00    +0.000 C 
ATOM     25  C21 UNL A   1      38.421  31.274  31.056  1.00  0.00    +0.000 C 
ATOM     26  N3  UNL A   1      39.418  30.508  31.420  1.00  0.00    +0.000 N 
ATOM     27  C22 UNL A   1      39.621  29.623  30.368  1.00  0.00    +0.000 C 
ATOM     28  C23 UNL A   1      40.577  28.672  30.232  1.00  0.00    +0.000 C 
ATOM     40  C30 UNL A   1      41.602  28.408  31.207  1.00  0.00    +0.000 C 
ATOM     41  C31 UNL A   1      42.653  27.509  31.133  1.00  0.00    +0.000 C 
ATOM     42  C32 UNL A   1      43.366  27.570  32.334  1.00  0.00    +0.000 C 
ATOM     43  C33 UNL A   1      42.790  28.540  33.138  1.00  0.00    +0.000 C 
ATOM     44  N4  UNL A   1      41.705  29.043  32.436  1.00  0.00    +0.000 N 
ATOM     45  C34 UNL A   1      43.196  28.978  34.448  1.00  0.00    +0.000 C 
ATOM     57  C41 UNL A   1      42.578  29.944  35.171  1.00  0.00    +0.000 C 
ATOM     58  N5  UNL A   1      41.467  30.708  34.836  1.00  0.00    +0.000 N 
ATOM     59  C42 UNL A   1      41.246  31.490  35.864  1.00  0.00    +0.000 C 
ATOM     60  C43 UNL A   1      40.188  32.547  36.043  1.00  0.00    +0.000 C 
ATOM     72  C50 UNL A   1      39.319  32.788  35.042  1.00  0.00    +0.000 C 
ATOM     73  C51 UNL A   1      38.255  33.786  35.066  1.00  0.00    +0.000 C 
ATOM     74  C52 UNL A   1      37.570  33.726  33.912  1.00  0.00    +0.000 C 
ATOM     75  C53 UNL A   1      38.168  32.704  33.052  1.00  0.00    +0.000 C 
ATOM     76  N6  UNL A   1      39.200  32.199  33.805  1.00  0.00    +0.000 N 
ATOM     77  C54 UNL A   1      42.178  31.290  36.982  1.00  0.00    +0.000 C 
ATOM     78  C55 UNL A   1      42.993  30.367  36.492  1.00  0.00    +0.000 C 
ATOM     79  C56 UNL A   1      38.611  29.914  29.373  1.00  0.00    +0.000 C 
ATOM     80  C57 UNL A   1      37.890  30.970  29.718  1.00  0.00    +0.000 C 
BRANCH   28   29
ATOM     33  F2  UNL A   1      42.012  27.819  25.623  1.00  0.00    +0.000 F 
ATOM     34  C27 UNL A   1      40.557  26.270  26.650  1.00  0.00    +0.000 C 
ATOM     35  F3  UNL A   1      40.542  25.524  25.536  1.00  0.00    +0.000 F 
ATOM     36  C28 UNL A   1      39.809  25.886  27.753  1.00  0.00    +0.000 C 
ATOM     37  F4  UNL A   1      39.088  24.757  27.713  1.00  0.00    +0.000 F 
ATOM     38  C29 UNL A   1      39.802  26.675  28.901  1.00  0.00    +0.000 C 
ATOM     39  F5  UNL A   1      39.056  26.284  29.946  1.00  0.00    +0.000 F 
ATOM     29  C24 UNL A   1      40.564  27.850  28.975  1.00  0.00    +0.000 C 
ATOM     30  C25 UNL A   1      41.331  28.206  27.855  1.00  0.00    +0.000 C 
ATOM     31  F1  UNL A   1      42.068  29.326  27.870  1.00  0.00    +0.000 F 
ATOM     32  C26 UNL A   1      41.312  27.432  26.697  1.00  0.00    +0.000 C 
ENDBRANCH   28   29
BRANCH   45   46
ATOM     46  C35 UNL A   1      44.409  28.336  35.054  1.00  0.00    +0.000 C 
ATOM     47  C36 UNL A   1      44.314  27.170  35.829  1.00  0.00    +0.000 C 
ATOM     48  F6  UNL A   1      43.115  26.630  36.092  1.00  0.00    +0.000 F 
ATOM     49  C37 UNL A   1      45.453  26.575  36.368  1.00  0.00    +0.000 C 
ATOM     50  F7  UNL A   1      45.335  25.488  37.142  1.00  0.00    +0.000 F 
ATOM     51  C38 UNL A   1      46.705  27.114  36.116  1.00  0.00    +0.000 C 
ATOM     52  F8  UNL A   1      47.800  26.535  36.630  1.00  0.00    +0.000 F 
ATOM     53  C39 UNL A   1      46.823  28.256  35.339  1.00  0.00    +0.000 C 
ATOM     54  F9  UNL A   1      48.035  28.770  35.084  1.00  0.00    +0.000 F 
ATOM     55  C40 UNL A   1      45.686  28.869  34.822  1.00  0.00    +0.000 C 
ATOM     56  F10 UNL A   1      45.831  29.978  34.083  1.00  0.00    +0.000 F 
ENDBRANCH   45   46
BRANCH   60   61
ATOM     65  F12 UNL A   1      38.137  33.508  40.363  1.00  0.00    +0.000 F 
ATOM     66  C47 UNL A   1      39.951  34.850  39.668  1.00  0.00    +0.000 C 
ATOM     67  F13 UNL A   1      39.867  35.574  40.792  1.00  0.00    +0.000 F 
ATOM     68  C48 UNL A   1      40.906  35.159  38.711  1.00  0.00    +0.000 C 
ATOM     69  F14 UNL A   1      41.759  36.171  38.919  1.00  0.00    +0.000 F 
ATOM     70  C49 UNL A   1      40.979  34.421  37.531  1.00  0.00    +0.000 C 
ATOM     71  F15 UNL A   1      41.902  34.752  36.616  1.00  0.00    +0.000 F 
ATOM     61  C44 UNL A   1      40.114  33.342  37.297  1.00  0.00    +0.000 C 
ATOM     62  C45 UNL A   1      39.168  33.037  38.287  1.00  0.00    +0.000 C 
ATOM     63  F11 UNL A   1      38.305  32.029  38.099  1.00  0.00    +0.000 F 
ATOM     64  C46 UNL A   1      39.078  33.793  39.454  1.00  0.00    +0.000 C 
ENDBRANCH   60   61
ENDBRANCH   23   24
ENDBRANCH   18   20
ENDBRANCH   17   18
ENDBRANCH   16   17
ENDBRANCH   15   16
ENDBRANCH   14   15
ENDBRANCH   13   14
ENDBRANCH   12   13
ENDBRANCH   11   12
ENDBRANCH   10   11
ENDBRANCH    8   10
ENDBRANCH    7    8
BRANCH   85   86
ATOM    151  H46 UNL A   1      28.735  26.690  25.887  1.00  0.00    +0.000 H 
ATOM     86  C63 UNL A   1      29.093  25.904  25.254  1.00  0.00    +0.000 C 
ATOM    150  H45 UNL A   1      28.585  25.946  24.312  1.00  0.00    +0.000 H 
ATOM    152  H47 UNL A   1      28.905  24.958  25.718  1.00  0.00    +0.000 H 
ENDBRANCH   85   86
BRANCH   91   92
ATOM     92  C69 UNL A   1      33.875  23.032  22.884  1.00  0.00    +0.000 C 
ATOM    157  H52 UNL A   1      34.546  23.503  22.197  1.00  0.00    +0.000 H 
ATOM    158  H53 UNL A   1      32.892  23.005  22.462  1.00  0.00    +0.000 H 
ATOM    159  H54 UNL A   1      34.208  22.033  23.080  1.00  0.00    +0.000 H 
ENDBRANCH   91   92
BRANCH   95   96
ATOM    165  H60 UNL A   1      37.137  21.154  26.698  1.00  0.00    +0.000 H 
ATOM     96  O3  UNL A   1      37.229  21.692  25.896  1.00  0.00    +0.000 O 
ENDBRANCH   95   96
BRANCH   97   98
ATOM     98  C74 UNL A   1      34.776  20.686  24.785  1.00  0.00    +0.000 C 
ATOM    166  H61 UNL A   1      33.777  20.496  24.450  1.00  0.00    +0.000 H 
ATOM    167  H62 UNL A   1      35.158  19.816  25.275  1.00  0.00    +0.000 H 
ATOM    168  H63 UNL A   1      35.394  20.925  23.945  1.00  0.00    +0.000 H 
ENDBRANCH   97   98
BRANCH   97   99
ATOM    169  H64 UNL A   1      35.383  20.596  27.405  1.00  0.00    +0.000 H 
ATOM    170  H65 UNL A   1      33.653  20.660  27.172  1.00  0.00    +0.000 H 
ATOM     99  C75 UNL A   1      34.556  21.234  27.175  1.00  0.00    +0.000 C 
ATOM    171  H66 UNL A   1      34.486  22.006  27.912  1.00  0.00    +0.000 H 
ENDBRANCH   97   99
BRANCH  103  104
ATOM    177  H72 UNL A   1      30.337  24.597  22.675  1.00  0.00    +0.000 H 
ATOM    178  H73 UNL A   1      29.460  23.706  23.896  1.00  0.00    +0.000 H 
ATOM    179  H74 UNL A   1      30.921  23.040  23.208  1.00  0.00    +0.000 H 
ATOM    104  C80 UNL A   1      30.431  23.940  23.514  1.00  0.00    +0.000 C 
ENDBRANCH  103  104
TORSDOF 23
ENDMDL
MODEL 4
REMARK VINA RESULT:     -11.3      2.651      8.858
ROOT
ATOM      2  C2  UNL A   1      33.643  19.296  24.824  1.00  0.00    +0.000 C 
ATOM      3  C3  UNL A   1      34.827  18.308  24.562  1.00  0.00    +0.000 C 
ATOM      5  C5  UNL A   1      36.221  18.886  24.855  1.00  0.00    +0.000 C 
ATOM      6  C6  UNL A   1      36.463  20.315  24.419  1.00  0.00    +0.000 C 
ATOM      7  C7  UNL A   1      35.272  21.291  24.460  1.00  0.00    +0.000 C 
ATOM    146  H41 UNL A   1      35.769  21.730  22.406  1.00  0.00    +0.000 H 
ATOM    147  H42 UNL A   1      36.389  22.898  23.638  1.00  0.00    +0.000 H 
ATOM    148  H43 UNL A   1      34.665  23.671  21.940  1.00  0.00    +0.000 H 
ATOM    149  H44 UNL A   1      34.537  24.072  23.695  1.00  0.00    +0.000 H 
ATOM    153  H48 UNL A   1      32.017  21.270  25.922  1.00  0.00    +0.000 H 
ATOM    154  H49 UNL A   1      31.833  23.627  26.621  1.00  0.00    +0.000 H 
ATOM    155  H50 UNL A   1      30.536  23.346  25.456  1.00  0.00    +0.000 H 
ATOM    156  H51 UNL A   1      33.205  24.630  24.845  1.00  0.00    +0.000 H 
ATOM    160  H55 UNL A   1      33.715  26.217  26.040  1.00  0.00    +0.000 H 
ATOM    161  H56 UNL A   1      32.372  25.836  27.150  1.00  0.00    +0.000 H 
ATOM    162  H57 UNL A   1      33.323  28.081  27.469  1.00  0.00    +0.000 H 
ATOM    163  H58 UNL A   1      31.591  28.034  27.077  1.00  0.00    +0.000 H 
ATOM    164  H59 UNL A   1      33.818  28.744  25.244  1.00  0.00    +0.000 H 
ATOM    172  H67 UNL A   1      33.220  26.960  23.855  1.00  0.00    +0.000 H 
ATOM    173  H68 UNL A   1      31.766  27.292  21.860  1.00  0.00    +0.000 H 
ATOM    174  H69 UNL A   1      30.521  26.406  22.698  1.00  0.00    +0.000 H 
ATOM    175  H70 UNL A   1      33.304  25.392  22.159  1.00  0.00    +0.000 H 
ATOM    176  H71 UNL A   1      31.838  24.949  21.259  1.00  0.00    +0.000 H 
ATOM    180  H75 UNL A   1      33.851  20.238  23.101  1.00  0.00    +0.000 H 
ATOM     83  C60 UNL A   1      35.571  22.306  23.286  1.00  0.00    +0.000 C 
ATOM     84  C61 UNL A   1      34.474  23.324  22.934  1.00  0.00    +0.000 C 
ATOM     85  C62 UNL A   1      32.990  22.821  22.982  1.00  0.00    +0.000 C 
ATOM     87  C64 UNL A   1      32.887  21.793  24.144  1.00  0.00    +0.000 C 
ATOM     88  C65 UNL A   1      32.174  22.047  25.261  1.00  0.00    +0.000 C 
ATOM     89  C66 UNL A   1      31.594  23.396  25.604  1.00  0.00    +0.000 C 
ATOM     90  C67 UNL A   1      32.151  24.521  24.691  1.00  0.00    +0.000 C 
ATOM     91  C68 UNL A   1      31.784  26.009  25.106  1.00  0.00    +0.000 C 
ATOM     93  C70 UNL A   1      32.699  26.414  26.310  1.00  0.00    +0.000 C 
ATOM     94  C71 UNL A   1      32.587  27.882  26.718  1.00  0.00    +0.000 C 
ATOM     95  C72 UNL A   1      32.802  28.856  25.558  1.00  0.00    +0.000 C 
ATOM     97  C73 UNL A   1      31.975  28.543  24.273  1.00  0.00    +0.000 C 
ATOM    100  C76 UNL A   1      32.156  27.011  23.950  1.00  0.00    +0.000 C 
ATOM    101  C77 UNL A   1      31.577  26.550  22.608  1.00  0.00    +0.000 C 
ATOM    102  C78 UNL A   1      32.247  25.234  22.206  1.00  0.00    +0.000 C 
ATOM    103  C79 UNL A   1      31.967  24.071  23.195  1.00  0.00    +0.000 C 
ATOM    105  C81 UNL A   1      33.908  20.639  24.091  1.00  0.00    +0.000 C 
ATOM    109  H4  UNL A   1      33.577  19.484  25.876  1.00  0.00    +0.000 H 
ATOM    110  H5  UNL A   1      34.716  18.132  23.512  1.00  0.00    +0.000 H 
ATOM    114  H9  UNL A   1      36.940  18.268  24.359  1.00  0.00    +0.000 H 
ATOM    115  H10 UNL A   1      36.304  18.897  25.922  1.00  0.00    +0.000 H 
ATOM    116  H11 UNL A   1      36.816  20.285  23.410  1.00  0.00    +0.000 H 
ATOM    117  H12 UNL A   1      37.153  20.702  25.140  1.00  0.00    +0.000 H 
ENDROOT
BRANCH    2    1
ATOM      1  C1  UNL A   1      32.307  18.681  24.377  1.00  0.00    +0.000 C 
ATOM    106  H1  UNL A   1      32.203  17.705  24.803  1.00  0.00    +0.000 H 
ATOM    107  H2  UNL A   1      32.288  18.608  23.309  1.00  0.00    +0.000 H 
ATOM    108  H3  UNL A   1      31.500  19.302  24.706  1.00  0.00    +0.000 H 
ENDBRANCH    2    1
BRANCH    3    4
ATOM    113  H8  UNL A   1      35.124  17.125  26.324  1.00  0.00    +0.000 H 
ATOM      4  C4  UNL A   1      34.737  16.987  25.336  1.00  0.00    +0.000 C 
ATOM    111  H6  UNL A   1      35.311  16.238  24.831  1.00  0.00    +0.000 H 
ATOM    112  H7  UNL A   1      33.716  16.675  25.393  1.00  0.00    +0.000 H 
ENDBRANCH    3    4
BRANCH    7    8
ATOM      9  O1  UNL A   1      34.931  21.532  26.878  1.00  0.00    +0.000 O 
ATOM      8  C8  UNL A   1      35.236  22.093  25.818  1.00  0.00    +0.000 C 
BRANCH    8   10
ATOM     10  N1  UNL A   1      35.583  23.415  25.964  1.00  0.00    +0.000 N 
ATOM    118  H13 UNL A   1      34.880  24.074  25.765  1.00  0.00    +0.000 H 
BRANCH   10   11
ATOM     11  C9  UNL A   1      36.866  23.950  26.378  1.00  0.00    +0.000 C 
ATOM    119  H14 UNL A   1      36.965  23.801  27.433  1.00  0.00    +0.000 H 
ATOM    120  H15 UNL A   1      36.867  24.983  26.098  1.00  0.00    +0.000 H 
BRANCH   11   12
ATOM    121  H16 UNL A   1      38.616  24.100  25.203  1.00  0.00    +0.000 H 
ATOM    122  H17 UNL A   1      37.655  22.568  25.048  1.00  0.00    +0.000 H 
ATOM     12  C10 UNL A   1      38.077  23.313  25.690  1.00  0.00    +0.000 C 
BRANCH   12   13
ATOM    123  H18 UNL A   1      38.528  22.074  27.341  1.00  0.00    +0.000 H 
ATOM    124  H19 UNL A   1      39.795  23.287  26.843  1.00  0.00    +0.000 H 
ATOM     13  C11 UNL A   1      39.085  22.541  26.555  1.00  0.00    +0.000 C 
BRANCH   13   14
ATOM    126  H21 UNL A   1      39.351  20.565  25.987  1.00  0.00    +0.000 H 
ATOM    125  H20 UNL A   1      40.179  21.776  24.918  1.00  0.00    +0.000 H 
ATOM     14  C12 UNL A   1      39.947  21.451  25.911  1.00  0.00    +0.000 C 
BRANCH   14   15
ATOM    127  H22 UNL A   1      41.285  20.010  26.670  1.00  0.00    +0.000 H 
ATOM     15  C13 UNL A   1      41.265  21.077  26.584  1.00  0.00    +0.000 C 
ATOM    128  H23 UNL A   1      41.254  21.620  27.506  1.00  0.00    +0.000 H 
BRANCH   15   16
ATOM    129  H24 UNL A   1      42.824  20.756  25.190  1.00  0.00    +0.000 H 
ATOM    130  H25 UNL A   1      43.289  21.599  26.694  1.00  0.00    +0.000 H 
ATOM     16  C14 UNL A   1      42.563  21.500  25.914  1.00  0.00    +0.000 C 
BRANCH   16   17
ATOM     17  N2  UNL A   1      42.504  22.781  25.243  1.00  0.00    +0.000 N 
ATOM    131  H26 UNL A   1      41.840  22.846  24.519  1.00  0.00    +0.000 H 
BRANCH   17   18
ATOM     18  C15 UNL A   1      43.243  23.923  25.470  1.00  0.00    +0.000 C 
ATOM     19  O2  UNL A   1      44.229  24.153  24.786  1.00  0.00    +0.000 O 
BRANCH   18   20
ATOM    132  H27 UNL A   1      41.437  23.576  27.377  1.00  0.00    +0.000 H 
ATOM    133  H28 UNL A   1      40.727  25.109  29.117  1.00  0.00    +0.000 H 
ATOM    144  H39 UNL A   1      43.451  27.982  27.684  1.00  0.00    +0.000 H 
ATOM     81  C58 UNL A   1      43.001  27.055  27.608  1.00  0.00    +0.000 C 
ATOM     82  C59 UNL A   1      43.341  26.206  26.554  1.00  0.00    +0.000 C 
ATOM    145  H40 UNL A   1      43.977  26.536  25.810  1.00  0.00    +0.000 H 
ATOM     20  C16 UNL A   1      42.824  24.909  26.502  1.00  0.00    +0.000 C 
ATOM     21  C17 UNL A   1      41.858  24.517  27.436  1.00  0.00    +0.000 C 
ATOM     22  C18 UNL A   1      41.461  25.396  28.450  1.00  0.00    +0.000 C 
ATOM     23  C19 UNL A   1      42.053  26.662  28.565  1.00  0.00    +0.000 C 
BRANCH   23   24
ATOM    134  H29 UNL A   1      43.640  29.649  36.772  1.00  0.00    +0.000 H 
ATOM    135  H30 UNL A   1      41.790  31.444  37.169  1.00  0.00    +0.000 H 
ATOM    136  H31 UNL A   1      41.229  29.806  33.407  1.00  0.00    +0.000 H 
ATOM    137  H32 UNL A   1      38.120  29.720  27.836  1.00  0.00    +0.000 H 
ATOM    138  H33 UNL A   1      39.890  27.936  27.472  1.00  0.00    +0.000 H 
ATOM    139  H34 UNL A   1      40.434  29.509  31.281  1.00  0.00    +0.000 H 
ATOM    140  H35 UNL A   1      36.773  32.904  31.912  1.00  0.00    +0.000 H 
ATOM    141  H36 UNL A   1      37.825  33.433  34.183  1.00  0.00    +0.000 H 
ATOM    142  H37 UNL A   1      44.666  26.210  32.785  1.00  0.00    +0.000 H 
ATOM    143  H38 UNL A   1      43.957  26.014  30.332  1.00  0.00    +0.000 H 
ATOM     24  C20 UNL A   1      41.677  27.589  29.667  1.00  0.00    +0.000 C 
ATOM     25  C21 UNL A   1      42.432  27.567  30.968  1.00  0.00    +0.000 C 
ATOM     26  N3  UNL A   1      42.221  28.254  32.063  1.00  0.00    +0.000 N 
ATOM     27  C22 UNL A   1      43.175  27.819  32.975  1.00  0.00    +0.000 C 
ATOM     28  C23 UNL A   1      43.414  28.267  34.231  1.00  0.00    +0.000 C 
ATOM     40  C30 UNL A   1      42.682  29.332  34.865  1.00  0.00    +0.000 C 
ATOM     41  C31 UNL A   1      42.890  29.901  36.110  1.00  0.00    +0.000 C 
ATOM     42  C32 UNL A   1      41.907  30.874  36.316  1.00  0.00    +0.000 C 
ATOM     43  C33 UNL A   1      41.116  30.946  35.181  1.00  0.00    +0.000 C 
ATOM     44  N4  UNL A   1      41.599  29.991  34.300  1.00  0.00    +0.000 N 
ATOM     45  C34 UNL A   1      40.002  31.820  34.917  1.00  0.00    +0.000 C 
ATOM     57  C41 UNL A   1      39.279  31.832  33.771  1.00  0.00    +0.000 C 
ATOM     58  N5  UNL A   1      39.434  31.050  32.633  1.00  0.00    +0.000 N 
ATOM     59  C42 UNL A   1      38.487  31.424  31.807  1.00  0.00    +0.000 C 
ATOM     60  C43 UNL A   1      38.196  30.938  30.412  1.00  0.00    +0.000 C 
ATOM     72  C50 UNL A   1      38.987  29.995  29.864  1.00  0.00    +0.000 C 
ATOM     73  C51 UNL A   1      38.836  29.438  28.523  1.00  0.00    +0.000 C 
ATOM     74  C52 UNL A   1      39.779  28.504  28.327  1.00  0.00    +0.000 C 
ATOM     75  C53 UNL A   1      40.623  28.416  29.519  1.00  0.00    +0.000 C 
ATOM     76  N6  UNL A   1      40.078  29.337  30.379  1.00  0.00    +0.000 N 
ATOM     77  C54 UNL A   1      37.604  32.470  32.342  1.00  0.00    +0.000 C 
ATOM     78  C55 UNL A   1      38.155  32.711  33.524  1.00  0.00    +0.000 C 
ATOM     79  C56 UNL A   1      43.931  26.771  32.324  1.00  0.00    +0.000 C 
ATOM     80  C57 UNL A   1      43.560  26.626  31.061  1.00  0.00    +0.000 C 
BRANCH   28   29
ATOM     33  F2  UNL A   1      48.110  27.931  35.593  1.00  0.00    +0.000 F 
ATOM     34  C27 UNL A   1      46.568  26.387  36.493  1.00  0.00    +0.000 C 
ATOM     35  F3  UNL A   1      47.546  25.796  37.193  1.00  0.00    +0.000 F 
ATOM     36  C28 UNL A   1      45.271  25.902  36.567  1.00  0.00    +0.000 C 
ATOM     37  F4  UNL A   1      44.991  24.855  37.355  1.00  0.00    +0.000 F 
ATOM     38  C29 UNL A   1      44.258  26.500  35.820  1.00  0.00    +0.000 C 
ATOM     39  F5  UNL A   1      43.017  25.997  35.901  1.00  0.00    +0.000 F 
ATOM     29  C24 UNL A   1      44.521  27.609  35.003  1.00  0.00    +0.000 C 
ATOM     30  C25 UNL A   1      45.836  28.097  34.964  1.00  0.00    +0.000 C 
ATOM     31  F1  UNL A   1      46.143  29.149  34.190  1.00  0.00    +0.000 F 
ATOM     32  C26 UNL A   1      46.853  27.479  35.688  1.00  0.00    +0.000 C 
ENDBRANCH   28   29
BRANCH   45   46
ATOM     46  C35 UNL A   1      39.624  32.810  35.979  1.00  0.00    +0.000 C 
ATOM     47  C36 UNL A   1      38.663  32.510  36.956  1.00  0.00    +0.000 C 
ATOM     48  F6  UNL A   1      38.015  31.336  36.927  1.00  0.00    +0.000 F 
ATOM     49  C37 UNL A   1      38.338  33.433  37.947  1.00  0.00    +0.000 C 
ATOM     50  F7  UNL A   1      37.385  33.143  38.843  1.00  0.00    +0.000 F 
ATOM     51  C38 UNL A   1      38.989  34.657  37.999  1.00  0.00    +0.000 C 
ATOM     52  F8  UNL A   1      38.679  35.540  38.958  1.00  0.00    +0.000 F 
ATOM     53  C39 UNL A   1      39.955  34.967  37.054  1.00  0.00    +0.000 C 
ATOM     54  F9  UNL A   1      40.593  36.144  37.111  1.00  0.00    +0.000 F 
ATOM     55  C40 UNL A   1      40.262  34.058  36.046  1.00  0.00    +0.000 C 
ATOM     56  F10 UNL A   1      41.192  34.391  35.139  1.00  0.00    +0.000 F 
ENDBRANCH   45   46
BRANCH   60   61
ATOM     65  F12 UNL A   1      36.094  34.656  28.058  1.00  0.00    +0.000 F 
ATOM     66  C47 UNL A   1      34.932  32.604  28.162  1.00  0.00    +0.000 C 
ATOM     67  F13 UNL A   1      33.910  33.129  27.472  1.00  0.00    +0.000 F 
ATOM     68  C48 UNL A   1      34.875  31.288  28.596  1.00  0.00    +0.000 C 
ATOM     69  F14 UNL A   1      33.806  30.533  28.307  1.00  0.00    +0.000 F 
ATOM     70  C49 UNL A   1      35.926  30.748  29.334  1.00  0.00    +0.000 C 
ATOM     71  F15 UNL A   1      35.838  29.477  29.753  1.00  0.00    +0.000 F 
ATOM     61  C44 UNL A   1      37.068  31.507  29.630  1.00  0.00    +0.000 C 
ATOM     62  C45 UNL A   1      37.110  32.830  29.166  1.00  0.00    +0.000 C 
ATOM     63  F11 UNL A   1      38.170  33.602  29.443  1.00  0.00    +0.000 F 
ATOM     64  C46 UNL A   1      36.046  33.377  28.452  1.00  0.00    +0.000 C 
ENDBRANCH   60   61
ENDBRANCH   23   24
ENDBRANCH   18   20
ENDBRANCH   17   18
ENDBRANCH   16   17
ENDBRANCH   15   16
ENDBRANCH   14   15
ENDBRANCH   13   14
ENDBRANCH   12   13
ENDBRANCH   11   12
ENDBRANCH   10   11
ENDBRANCH    8   10
ENDBRANCH    7    8
BRANCH   85   86
ATOM    151  H46 UNL A   1      31.673  21.748  21.649  1.00  0.00    +0.000 H 
ATOM     86  C63 UNL A   1      32.677  22.119  21.633  1.00  0.00    +0.000 C 
ATOM    150  H45 UNL A   1      32.784  22.820  20.832  1.00  0.00    +0.000 H 
ATOM    152  H47 UNL A   1      33.356  21.304  21.489  1.00  0.00    +0.000 H 
ENDBRANCH   85   86
BRANCH   91   92
ATOM     92  C69 UNL A   1      30.315  26.081  25.564  1.00  0.00    +0.000 C 
ATOM    157  H52 UNL A   1      29.930  27.061  25.374  1.00  0.00    +0.000 H 
ATOM    158  H53 UNL A   1      30.257  25.871  26.611  1.00  0.00    +0.000 H 
ATOM    159  H54 UNL A   1      29.737  25.360  25.022  1.00  0.00    +0.000 H 
ENDBRANCH   91   92
BRANCH   95   96
ATOM    165  H60 UNL A   1      31.923  30.165  26.749  1.00  0.00    +0.000 H 
ATOM     96  O3  UNL A   1      32.563  30.186  26.021  1.00  0.00    +0.000 O 
ENDBRANCH   95   96
BRANCH   97   98
ATOM     98  C74 UNL A   1      30.506  29.002  24.398  1.00  0.00    +0.000 C 
ATOM    166  H61 UNL A   1      30.478  30.013  24.748  1.00  0.00    +0.000 H 
ATOM    167  H62 UNL A   1      29.993  28.371  25.093  1.00  0.00    +0.000 H 
ATOM    168  H63 UNL A   1      30.031  28.942  23.442  1.00  0.00    +0.000 H 
ENDBRANCH   97   98
BRANCH   97   99
ATOM    169  H64 UNL A   1      33.306  28.835  22.594  1.00  0.00    +0.000 H 
ATOM    170  H65 UNL A   1      33.035  30.279  23.539  1.00  0.00    +0.000 H 
ATOM     99  C75 UNL A   1      32.574  29.406  23.126  1.00  0.00    +0.000 C 
ATOM    171  H66 UNL A   1      31.794  29.699  22.454  1.00  0.00    +0.000 H 
ENDBRANCH   97   99
BRANCH  103  104
ATOM    177  H72 UNL A   1      30.105  23.121  23.768  1.00  0.00    +0.000 H 
ATOM    178  H73 UNL A   1      30.477  22.973  22.067  1.00  0.00    +0.000 H 
ATOM    179  H74 UNL A   1      29.898  24.492  22.706  1.00  0.00    +0.000 H 
ATOM    104  C80 UNL A   1      30.496  23.629  22.911  1.00  0.00    +0.000 C 
ENDBRANCH  103  104
TORSDOF 23
ENDMDL
MODEL 5
REMARK VINA RESULT:     -11.2     37.506     42.863
ROOT
ATOM      2  C2  UNL A   1      15.427  50.009   6.960  1.00  0.00    +0.000 C 
ATOM      3  C3  UNL A   1      16.185  48.732   6.465  1.00  0.00    +0.000 C 
ATOM      5  C5  UNL A   1      15.604  47.404   6.976  1.00  0.00    +0.000 C 
ATOM      6  C6  UNL A   1      15.162  47.374   8.423  1.00  0.00    +0.000 C 
ATOM      7  C7  UNL A   1      14.596  48.670   9.030  1.00  0.00    +0.000 C 
ATOM    146  H41 UNL A   1      16.047  48.380  10.601  1.00  0.00    +0.000 H 
ATOM    147  H42 UNL A   1      14.365  47.823  10.962  1.00  0.00    +0.000 H 
ATOM    148  H43 UNL A   1      15.359  49.747  12.292  1.00  0.00    +0.000 H 
ATOM    149  H44 UNL A   1      13.681  49.799  11.627  1.00  0.00    +0.000 H 
ATOM    153  H48 UNL A   1      13.430  51.785   7.735  1.00  0.00    +0.000 H 
ATOM    154  H49 UNL A   1      11.534  52.210   9.252  1.00  0.00    +0.000 H 
ATOM    155  H50 UNL A   1      12.671  53.543   9.483  1.00  0.00    +0.000 H 
ATOM    156  H51 UNL A   1      12.430  51.105  11.255  1.00  0.00    +0.000 H 
ATOM    160  H55 UNL A   1      10.546  50.712  11.966  1.00  0.00    +0.000 H 
ATOM    161  H56 UNL A   1       9.854  51.915  10.846  1.00  0.00    +0.000 H 
ATOM    162  H57 UNL A   1       8.323  51.230  12.645  1.00  0.00    +0.000 H 
ATOM    163  H58 UNL A   1       8.693  52.967  12.575  1.00  0.00    +0.000 H 
ATOM    164  H59 UNL A   1       9.791  50.981  14.493  1.00  0.00    +0.000 H 
ATOM    172  H67 UNL A   1      11.946  51.450  13.717  1.00  0.00    +0.000 H 
ATOM    173  H68 UNL A   1      13.430  53.072  14.888  1.00  0.00    +0.000 H 
ATOM    174  H69 UNL A   1      13.244  54.135  13.519  1.00  0.00    +0.000 H 
ATOM    175  H70 UNL A   1      14.228  51.293  13.386  1.00  0.00    +0.000 H 
ATOM    176  H71 UNL A   1      15.238  52.752  13.312  1.00  0.00    +0.000 H 
ATOM    180  H75 UNL A   1      16.326  50.043   8.717  1.00  0.00    +0.000 H 
ATOM     83  C60 UNL A   1      14.997  48.585  10.555  1.00  0.00    +0.000 C 
ATOM     84  C61 UNL A   1      14.731  49.822  11.428  1.00  0.00    +0.000 C 
ATOM     85  C62 UNL A   1      14.989  51.224  10.778  1.00  0.00    +0.000 C 
ATOM     87  C64 UNL A   1      14.602  51.116   9.274  1.00  0.00    +0.000 C 
ATOM     88  C65 UNL A   1      13.542  51.774   8.761  1.00  0.00    +0.000 C 
ATOM     89  C66 UNL A   1      12.509  52.491   9.593  1.00  0.00    +0.000 C 
ATOM     90  C67 UNL A   1      12.630  52.144  11.101  1.00  0.00    +0.000 C 
ATOM     91  C68 UNL A   1      11.458  52.663  12.038  1.00  0.00    +0.000 C 
ATOM     93  C70 UNL A   1      10.223  51.723  11.832  1.00  0.00    +0.000 C 
ATOM     94  C71 UNL A   1       9.065  51.987  12.792  1.00  0.00    +0.000 C 
ATOM     95  C72 UNL A   1       9.479  51.978  14.266  1.00  0.00    +0.000 C 
ATOM     97  C73 UNL A   1      10.728  52.850  14.604  1.00  0.00    +0.000 C 
ATOM    100  C76 UNL A   1      11.851  52.503  13.554  1.00  0.00    +0.000 C 
ATOM    101  C77 UNL A   1      13.228  53.114  13.838  1.00  0.00    +0.000 C 
ATOM    102  C78 UNL A   1      14.289  52.316  13.079  1.00  0.00    +0.000 C 
ATOM    103  C79 UNL A   1      14.124  52.378  11.537  1.00  0.00    +0.000 C 
ATOM    105  C81 UNL A   1      15.281  49.966   8.505  1.00  0.00    +0.000 C 
ATOM    109  H4  UNL A   1      14.452  50.022   6.520  1.00  0.00    +0.000 H 
ATOM    110  H5  UNL A   1      17.155  48.895   6.887  1.00  0.00    +0.000 H 
ATOM    114  H9  UNL A   1      16.353  46.651   6.847  1.00  0.00    +0.000 H 
ATOM    115  H10 UNL A   1      14.713  47.247   6.404  1.00  0.00    +0.000 H 
ATOM    116  H11 UNL A   1      16.012  47.092   9.009  1.00  0.00    +0.000 H 
ATOM    117  H12 UNL A   1      14.341  46.687   8.438  1.00  0.00    +0.000 H 
ENDROOT
BRANCH    2    1
ATOM      1  C1  UNL A   1      16.157  51.286   6.512  1.00  0.00    +0.000 C 
ATOM    106  H1  UNL A   1      15.964  52.071   7.213  1.00  0.00    +0.000 H 
ATOM    107  H2  UNL A   1      15.803  51.577   5.545  1.00  0.00    +0.000 H 
ATOM    108  H3  UNL A   1      17.209  51.099   6.466  1.00  0.00    +0.000 H 
ENDBRANCH    2    1
BRANCH    3    4
ATOM    113  H8  UNL A   1      16.326  47.567   4.672  1.00  0.00    +0.000 H 
ATOM      4  C4  UNL A   1      16.283  48.602   4.940  1.00  0.00    +0.000 C 
ATOM    111  H6  UNL A   1      17.169  49.095   4.596  1.00  0.00    +0.000 H 
ATOM    112  H7  UNL A   1      15.425  49.052   4.487  1.00  0.00    +0.000 H 
ENDBRANCH    3    4
BRANCH    7    8
ATOM      9  O1  UNL A   1      12.461  48.964   7.854  1.00  0.00    +0.000 O 
ATOM      8  C8  UNL A   1      13.021  48.709   8.928  1.00  0.00    +0.000 C 
BRANCH    8   10
ATOM     10  N1  UNL A   1      12.156  48.417   9.954  1.00  0.00    +0.000 N 
ATOM    118  H13 UNL A   1      11.787  49.187  10.445  1.00  0.00    +0.000 H 
BRANCH   10   11
ATOM     11  C9  UNL A   1      11.725  47.106  10.400  1.00  0.00    +0.000 C 
ATOM    119  H14 UNL A   1      11.209  47.224  11.331  1.00  0.00    +0.000 H 
ATOM    120  H15 UNL A   1      12.609  46.508  10.483  1.00  0.00    +0.000 H 
BRANCH   11   12
ATOM    121  H16 UNL A   1      10.848  45.330   9.663  1.00  0.00    +0.000 H 
ATOM    122  H17 UNL A   1      11.153  46.654   8.459  1.00  0.00    +0.000 H 
ATOM     12  C10 UNL A   1      10.795  46.373   9.428  1.00  0.00    +0.000 C 
BRANCH   12   13
ATOM    123  H18 UNL A   1       9.037  47.002  10.417  1.00  0.00    +0.000 H 
ATOM    124  H19 UNL A   1       8.831  45.907   8.972  1.00  0.00    +0.000 H 
ATOM     13  C11 UNL A   1       9.308  46.759   9.410  1.00  0.00    +0.000 C 
BRANCH   13   14
ATOM    126  H21 UNL A   1       8.437  48.631   9.222  1.00  0.00    +0.000 H 
ATOM    125  H20 UNL A   1       9.696  48.255   7.970  1.00  0.00    +0.000 H 
ATOM     14  C12 UNL A   1       8.846  47.924   8.530  1.00  0.00    +0.000 C 
BRANCH   14   15
ATOM    127  H22 UNL A   1       7.956  48.219   6.642  1.00  0.00    +0.000 H 
ATOM     15  C13 UNL A   1       7.717  47.676   7.533  1.00  0.00    +0.000 C 
ATOM    128  H23 UNL A   1       6.834  47.991   8.050  1.00  0.00    +0.000 H 
BRANCH   15   16
ATOM    129  H24 UNL A   1       6.393  46.184   6.828  1.00  0.00    +0.000 H 
ATOM    130  H25 UNL A   1       7.650  45.629   7.967  1.00  0.00    +0.000 H 
ATOM     16  C14 UNL A   1       7.420  46.242   7.121  1.00  0.00    +0.000 C 
BRANCH   16   17
ATOM     17  N2  UNL A   1       8.230  45.751   6.027  1.00  0.00    +0.000 N 
ATOM    131  H26 UNL A   1       7.738  45.549   5.198  1.00  0.00    +0.000 H 
BRANCH   17   18
ATOM     18  C15 UNL A   1       9.589  45.524   5.976  1.00  0.00    +0.000 C 
ATOM     19  O2  UNL A   1      10.048  44.487   6.431  1.00  0.00    +0.000 O 
BRANCH   18   20
ATOM    132  H27 UNL A   1       8.933  47.421   4.247  1.00  0.00    +0.000 H 
ATOM    133  H28 UNL A   1      10.345  49.076   3.174  1.00  0.00    +0.000 H 
ATOM    144  H39 UNL A   1      13.686  47.542   5.226  1.00  0.00    +0.000 H 
ATOM     81  C58 UNL A   1      12.680  47.504   4.994  1.00  0.00    +0.000 C 
ATOM     82  C59 UNL A   1      11.882  46.497   5.539  1.00  0.00    +0.000 C 
ATOM    145  H40 UNL A   1      12.313  45.747   6.103  1.00  0.00    +0.000 H 
ATOM     20  C16 UNL A   1      10.502  46.502   5.325  1.00  0.00    +0.000 C 
ATOM     21  C17 UNL A   1       9.945  47.441   4.447  1.00  0.00    +0.000 C 
ATOM     22  C18 UNL A   1      10.758  48.406   3.842  1.00  0.00    +0.000 C 
ATOM     23  C19 UNL A   1      12.129  48.467   4.135  1.00  0.00    +0.000 C 
BRANCH   23   24
ATOM    134  H29 UNL A   1      18.133  50.686  -2.014  1.00  0.00    +0.000 H 
ATOM    135  H30 UNL A   1      18.643  53.198  -1.535  1.00  0.00    +0.000 H 
ATOM    136  H31 UNL A   1      15.905  51.866   1.273  1.00  0.00    +0.000 H 
ATOM    137  H32 UNL A   1      12.005  53.067   6.178  1.00  0.00    +0.000 H 
ATOM    138  H33 UNL A   1      11.551  50.607   5.741  1.00  0.00    +0.000 H 
ATOM    139  H34 UNL A   1      14.353  51.896   2.955  1.00  0.00    +0.000 H 
ATOM    140  H35 UNL A   1      15.265  56.725   4.042  1.00  0.00    +0.000 H 
ATOM    141  H36 UNL A   1      16.795  56.768   1.992  1.00  0.00    +0.000 H 
ATOM    142  H37 UNL A   1      15.134  46.982   0.447  1.00  0.00    +0.000 H 
ATOM    143  H38 UNL A   1      13.232  47.034   2.160  1.00  0.00    +0.000 H 
ATOM     24  C20 UNL A   1      12.996  49.518   3.538  1.00  0.00    +0.000 C 
ATOM     25  C21 UNL A   1      13.909  49.186   2.389  1.00  0.00    +0.000 C 
ATOM     26  N3  UNL A   1      14.777  49.947   1.771  1.00  0.00    +0.000 N 
ATOM     27  C22 UNL A   1      15.384  49.137   0.819  1.00  0.00    +0.000 C 
ATOM     28  C23 UNL A   1      16.307  49.471  -0.115  1.00  0.00    +0.000 C 
ATOM     40  C30 UNL A   1      16.840  50.797  -0.291  1.00  0.00    +0.000 C 
ATOM     41  C31 UNL A   1      17.731  51.249  -1.249  1.00  0.00    +0.000 C 
ATOM     42  C32 UNL A   1      17.991  52.601  -1.001  1.00  0.00    +0.000 C 
ATOM     43  C33 UNL A   1      17.227  53.003   0.082  1.00  0.00    +0.000 C 
ATOM     44  N4  UNL A   1      16.529  51.885   0.511  1.00  0.00    +0.000 N 
ATOM     45  C34 UNL A   1      17.138  54.310   0.682  1.00  0.00    +0.000 C 
ATOM     57  C41 UNL A   1      16.357  54.625   1.744  1.00  0.00    +0.000 C 
ATOM     58  N5  UNL A   1      15.495  53.810   2.465  1.00  0.00    +0.000 N 
ATOM     59  C42 UNL A   1      14.979  54.569   3.401  1.00  0.00    +0.000 C 
ATOM     60  C43 UNL A   1      13.961  54.221   4.454  1.00  0.00    +0.000 C 
ATOM     72  C50 UNL A   1      13.451  52.975   4.492  1.00  0.00    +0.000 C 
ATOM     73  C51 UNL A   1      12.451  52.497   5.442  1.00  0.00    +0.000 C 
ATOM     74  C52 UNL A   1      12.202  51.200   5.203  1.00  0.00    +0.000 C 
ATOM     75  C53 UNL A   1      13.003  50.760   4.061  1.00  0.00    +0.000 C 
ATOM     76  N6  UNL A   1      13.714  51.879   3.704  1.00  0.00    +0.000 N 
ATOM     77  C54 UNL A   1      15.481  55.950   3.395  1.00  0.00    +0.000 C 
ATOM     78  C55 UNL A   1      16.286  55.942   2.342  1.00  0.00    +0.000 C 
ATOM     79  C56 UNL A   1      14.823  47.813   0.975  1.00  0.00    +0.000 C 
ATOM     80  C57 UNL A   1      13.857  47.806   1.882  1.00  0.00    +0.000 C 
BRANCH   28   29
ATOM     33  F2  UNL A   1      15.813  46.615  -4.068  1.00  0.00    +0.000 F 
ATOM     34  C27 UNL A   1      17.753  46.375  -2.745  1.00  0.00    +0.000 C 
ATOM     35  F3  UNL A   1      18.204  45.407  -3.557  1.00  0.00    +0.000 F 
ATOM     36  C28 UNL A   1      18.493  46.749  -1.634  1.00  0.00    +0.000 C 
ATOM     37  F4  UNL A   1      19.670  46.158  -1.382  1.00  0.00    +0.000 F 
ATOM     38  C29 UNL A   1      18.014  47.736  -0.776  1.00  0.00    +0.000 C 
ATOM     39  F5  UNL A   1      18.745  48.064   0.300  1.00  0.00    +0.000 F 
ATOM     29  C24 UNL A   1      16.795  48.383  -1.028  1.00  0.00    +0.000 C 
ATOM     30  C25 UNL A   1      16.076  48.005  -2.172  1.00  0.00    +0.000 C 
ATOM     31  F1  UNL A   1      14.900  48.585  -2.453  1.00  0.00    +0.000 F 
ATOM     32  C26 UNL A   1      16.543  46.996  -3.011  1.00  0.00    +0.000 C 
ENDBRANCH   28   29
BRANCH   45   46
ATOM     46  C35 UNL A   1      17.953  55.413   0.075  1.00  0.00    +0.000 C 
ATOM     47  C36 UNL A   1      17.512  56.118  -1.054  1.00  0.00    +0.000 C 
ATOM     48  F6  UNL A   1      16.361  55.778  -1.655  1.00  0.00    +0.000 F 
ATOM     49  C37 UNL A   1      18.271  57.154  -1.594  1.00  0.00    +0.000 C 
ATOM     50  F7  UNL A   1      17.852  57.783  -2.700  1.00  0.00    +0.000 F 
ATOM     51  C38 UNL A   1      19.467  57.524  -0.997  1.00  0.00    +0.000 C 
ATOM     52  F8  UNL A   1      20.193  58.525  -1.513  1.00  0.00    +0.000 F 
ATOM     53  C39 UNL A   1      19.914  56.852   0.131  1.00  0.00    +0.000 C 
ATOM     54  F9  UNL A   1      21.062  57.218   0.717  1.00  0.00    +0.000 F 
ATOM     55  C40 UNL A   1      19.171  55.798   0.656  1.00  0.00    +0.000 C 
ATOM     56  F10 UNL A   1      19.634  55.160   1.741  1.00  0.00    +0.000 F 
ENDBRANCH   45   46
BRANCH   60   61
ATOM     65  F12 UNL A   1      11.306  58.165   5.543  1.00  0.00    +0.000 F 
ATOM     66  C47 UNL A   1      12.615  57.197   7.253  1.00  0.00    +0.000 C 
ATOM     67  F13 UNL A   1      12.205  58.132   8.119  1.00  0.00    +0.000 F 
ATOM     68  C48 UNL A   1      13.513  56.219   7.657  1.00  0.00    +0.000 C 
ATOM     69  F14 UNL A   1      13.954  56.198   8.922  1.00  0.00    +0.000 F 
ATOM     70  C49 UNL A   1      13.958  55.260   6.750  1.00  0.00    +0.000 C 
ATOM     71  F15 UNL A   1      14.837  54.335   7.165  1.00  0.00    +0.000 F 
ATOM     61  C44 UNL A   1      13.495  55.243   5.426  1.00  0.00    +0.000 C 
ATOM     62  C45 UNL A   1      12.574  56.231   5.045  1.00  0.00    +0.000 C 
ATOM     63  F11 UNL A   1      12.120  56.270   3.785  1.00  0.00    +0.000 F 
ATOM     64  C46 UNL A   1      12.151  57.207   5.946  1.00  0.00    +0.000 C 
ENDBRANCH   60   61
ENDBRANCH   23   24
ENDBRANCH   18   20
ENDBRANCH   17   18
ENDBRANCH   16   17
ENDBRANCH   15   16
ENDBRANCH   14   15
ENDBRANCH   13   14
ENDBRANCH   12   13
ENDBRANCH   11   12
ENDBRANCH   10   11
ENDBRANCH    8   10
ENDBRANCH    7    8
BRANCH   85   86
ATOM    151  H46 UNL A   1      16.709  51.904  11.892  1.00  0.00    +0.000 H 
ATOM     86  C63 UNL A   1      16.502  51.543  10.905  1.00  0.00    +0.000 C 
ATOM    150  H45 UNL A   1      17.071  50.655  10.725  1.00  0.00    +0.000 H 
ATOM    152  H47 UNL A   1      16.772  52.291  10.189  1.00  0.00    +0.000 H 
ENDBRANCH   85   86
BRANCH   91   92
ATOM     92  C69 UNL A   1      11.053  54.094  11.633  1.00  0.00    +0.000 C 
ATOM    157  H52 UNL A   1      10.151  54.061  11.059  1.00  0.00    +0.000 H 
ATOM    158  H53 UNL A   1      11.834  54.532  11.046  1.00  0.00    +0.000 H 
ATOM    159  H54 UNL A   1      10.895  54.683  12.513  1.00  0.00    +0.000 H 
ENDBRANCH   91   92
BRANCH   95   96
ATOM    165  H60 UNL A   1       8.540  53.184  15.518  1.00  0.00    +0.000 H 
ATOM     96  O3  UNL A   1       8.354  52.348  15.064  1.00  0.00    +0.000 O 
ENDBRANCH   95   96
BRANCH   97   98
ATOM     98  C74 UNL A   1      10.383  54.351  14.700  1.00  0.00    +0.000 C 
ATOM    166  H61 UNL A   1      11.153  54.860  15.242  1.00  0.00    +0.000 H 
ATOM    167  H62 UNL A   1       9.450  54.471  15.210  1.00  0.00    +0.000 H 
ATOM    168  H63 UNL A   1      10.308  54.763  13.716  1.00  0.00    +0.000 H 
ENDBRANCH   97   98
BRANCH   97   99
ATOM    169  H64 UNL A   1      11.285  53.323  16.639  1.00  0.00    +0.000 H 
ATOM    170  H65 UNL A   1      12.134  51.948  15.976  1.00  0.00    +0.000 H 
ATOM     99  C75 UNL A   1      11.189  52.446  16.034  1.00  0.00    +0.000 C 
ATOM    171  H66 UNL A   1      10.466  51.788  16.470  1.00  0.00    +0.000 H 
ENDBRANCH   97   99
BRANCH  103  104
ATOM    177  H72 UNL A   1      15.563  53.998  11.591  1.00  0.00    +0.000 H 
ATOM    178  H73 UNL A   1      13.907  54.532  11.431  1.00  0.00    +0.000 H 
ATOM    179  H74 UNL A   1      14.738  53.839  10.059  1.00  0.00    +0.000 H 
ATOM    104  C80 UNL A   1      14.622  53.799  11.122  1.00  0.00    +0.000 C 
ENDBRANCH  103  104
TORSDOF 23
ENDMDL
MODEL 6
REMARK VINA RESULT:     -11.2      5.066     10.327
ROOT
ATOM      2  C2  UNL A   1      33.648  19.400  24.879  1.00  0.00    +0.000 C 
ATOM      3  C3  UNL A   1      34.793  18.370  24.605  1.00  0.00    +0.000 C 
ATOM      5  C5  UNL A   1      36.206  18.881  24.932  1.00  0.00    +0.000 C 
ATOM      6  C6  UNL A   1      36.514  20.310  24.540  1.00  0.00    +0.000 C 
ATOM      7  C7  UNL A   1      35.364  21.334  24.591  1.00  0.00    +0.000 C 
ATOM    146  H41 UNL A   1      35.908  21.807  22.557  1.00  0.00    +0.000 H 
ATOM    147  H42 UNL A   1      36.560  22.914  23.829  1.00  0.00    +0.000 H 
ATOM    148  H43 UNL A   1      34.894  23.804  22.130  1.00  0.00    +0.000 H 
ATOM    149  H44 UNL A   1      34.758  24.162  23.894  1.00  0.00    +0.000 H 
ATOM    153  H48 UNL A   1      32.090  21.410  26.009  1.00  0.00    +0.000 H 
ATOM    154  H49 UNL A   1      31.996  23.753  26.771  1.00  0.00    +0.000 H 
ATOM    155  H50 UNL A   1      30.704  23.559  25.581  1.00  0.00    +0.000 H 
ATOM    156  H51 UNL A   1      33.433  24.745  25.041  1.00  0.00    +0.000 H 
ATOM    160  H55 UNL A   1      33.993  26.276  26.286  1.00  0.00    +0.000 H 
ATOM    161  H56 UNL A   1      32.619  25.923  27.367  1.00  0.00    +0.000 H 
ATOM    162  H57 UNL A   1      33.659  28.116  27.760  1.00  0.00    +0.000 H 
ATOM    163  H58 UNL A   1      31.932  28.153  27.345  1.00  0.00    +0.000 H 
ATOM    164  H59 UNL A   1      34.213  28.817  25.561  1.00  0.00    +0.000 H 
ATOM    172  H67 UNL A   1      33.561  27.099  24.116  1.00  0.00    +0.000 H 
ATOM    173  H68 UNL A   1      32.151  27.545  22.112  1.00  0.00    +0.000 H 
ATOM    174  H69 UNL A   1      30.857  26.691  22.908  1.00  0.00    +0.000 H 
ATOM    175  H70 UNL A   1      33.603  25.575  22.379  1.00  0.00    +0.000 H 
ATOM    176  H71 UNL A   1      32.133  25.218  21.447  1.00  0.00    +0.000 H 
ATOM    180  H75 UNL A   1      33.920  20.378  23.185  1.00  0.00    +0.000 H 
ATOM     83  C60 UNL A   1      35.722  22.366  23.450  1.00  0.00    +0.000 C 
ATOM     84  C61 UNL A   1      34.675  23.439  23.111  1.00  0.00    +0.000 C 
ATOM     85  C62 UNL A   1      33.170  22.998  23.126  1.00  0.00    +0.000 C 
ATOM     87  C64 UNL A   1      33.007  21.944  24.258  1.00  0.00    +0.000 C 
ATOM     88  C65 UNL A   1      32.289  22.198  25.372  1.00  0.00    +0.000 C 
ATOM     89  C66 UNL A   1      31.762  23.560  25.744  1.00  0.00    +0.000 C 
ATOM     90  C67 UNL A   1      32.379  24.685  24.871  1.00  0.00    +0.000 C 
ATOM     91  C68 UNL A   1      32.069  26.176  25.321  1.00  0.00    +0.000 C 
ATOM     93  C70 UNL A   1      32.982  26.509  26.548  1.00  0.00    +0.000 C 
ATOM     94  C71 UNL A   1      32.926  27.969  26.995  1.00  0.00    +0.000 C 
ATOM     95  C72 UNL A   1      33.198  28.964  25.865  1.00  0.00    +0.000 C 
ATOM     97  C73 UNL A   1      32.377  28.721  24.561  1.00  0.00    +0.000 C 
ATOM    100  C76 UNL A   1      32.498  27.192  24.198  1.00  0.00    +0.000 C 
ATOM    101  C77 UNL A   1      31.920  26.792  22.836  1.00  0.00    +0.000 C 
ATOM    102  C78 UNL A   1      32.540  25.460  22.407  1.00  0.00    +0.000 C 
ATOM    103  C79 UNL A   1      32.197  24.284  23.360  1.00  0.00    +0.000 C 
ATOM    105  C81 UNL A   1      33.980  20.750  24.186  1.00  0.00    +0.000 C 
ATOM    109  H4  UNL A   1      33.575  19.562  25.934  1.00  0.00    +0.000 H 
ATOM    110  H5  UNL A   1      34.690  18.227  23.549  1.00  0.00    +0.000 H 
ATOM    114  H9  UNL A   1      36.905  18.247  24.429  1.00  0.00    +0.000 H 
ATOM    115  H10 UNL A   1      36.274  18.859  26.000  1.00  0.00    +0.000 H 
ATOM    116  H11 UNL A   1      36.880  20.292  23.535  1.00  0.00    +0.000 H 
ATOM    117  H12 UNL A   1      37.209  20.647  25.280  1.00  0.00    +0.000 H 
ENDROOT
BRANCH    2    1
ATOM      1  C1  UNL A   1      32.293  18.854  24.397  1.00  0.00    +0.000 C 
ATOM    106  H1  UNL A   1      31.654  19.669  24.131  1.00  0.00    +0.000 H 
ATOM    107  H2  UNL A   1      31.839  18.286  25.182  1.00  0.00    +0.000 H 
ATOM    108  H3  UNL A   1      32.445  18.226  23.544  1.00  0.00    +0.000 H 
ENDBRANCH    2    1
BRANCH    3    4
ATOM    113  H8  UNL A   1      33.860  16.460  24.880  1.00  0.00    +0.000 H 
ATOM      4  C4  UNL A   1      34.637  17.034  25.341  1.00  0.00    +0.000 C 
ATOM    111  H6  UNL A   1      34.383  17.218  26.364  1.00  0.00    +0.000 H 
ATOM    112  H7  UNL A   1      35.557  16.490  25.294  1.00  0.00    +0.000 H 
ENDBRANCH    3    4
BRANCH    7    8
ATOM      9  O1  UNL A   1      35.029  21.515  27.016  1.00  0.00    +0.000 O 
ATOM      8  C8  UNL A   1      35.343  22.100  25.971  1.00  0.00    +0.000 C 
BRANCH    8   10
ATOM     10  N1  UNL A   1      35.711  23.411  26.151  1.00  0.00    +0.000 N 
ATOM    118  H13 UNL A   1      35.075  23.978  26.645  1.00  0.00    +0.000 H 
BRANCH   10   11
ATOM     11  C9  UNL A   1      36.928  24.057  25.698  1.00  0.00    +0.000 C 
ATOM    119  H14 UNL A   1      36.686  25.058  25.409  1.00  0.00    +0.000 H 
ATOM    120  H15 UNL A   1      37.302  23.465  24.889  1.00  0.00    +0.000 H 
BRANCH   11   12
ATOM    121  H16 UNL A   1      37.652  23.716  27.654  1.00  0.00    +0.000 H 
ATOM    122  H17 UNL A   1      38.326  25.151  26.770  1.00  0.00    +0.000 H 
ATOM     12  C10 UNL A   1      38.047  24.119  26.744  1.00  0.00    +0.000 C 
BRANCH   12   13
ATOM    123  H18 UNL A   1      40.122  23.852  27.035  1.00  0.00    +0.000 H 
ATOM    124  H19 UNL A   1      39.455  23.441  25.389  1.00  0.00    +0.000 H 
ATOM     13  C11 UNL A   1      39.360  23.377  26.452  1.00  0.00    +0.000 C 
BRANCH   13   14
ATOM    126  H21 UNL A   1      40.309  21.777  27.367  1.00  0.00    +0.000 H 
ATOM    125  H20 UNL A   1      38.517  21.575  27.161  1.00  0.00    +0.000 H 
ATOM     14  C12 UNL A   1      39.452  21.875  26.734  1.00  0.00    +0.000 C 
BRANCH   14   15
ATOM    127  H22 UNL A   1      40.621  21.294  25.079  1.00  0.00    +0.000 H 
ATOM     15  C13 UNL A   1      39.738  20.935  25.566  1.00  0.00    +0.000 C 
ATOM    128  H23 UNL A   1      38.840  20.957  24.983  1.00  0.00    +0.000 H 
BRANCH   15   16
ATOM    129  H24 UNL A   1      39.733  18.902  24.979  1.00  0.00    +0.000 H 
ATOM    130  H25 UNL A   1      39.315  19.217  26.686  1.00  0.00    +0.000 H 
ATOM     16  C14 UNL A   1      39.957  19.459  25.864  1.00  0.00    +0.000 C 
BRANCH   16   17
ATOM     17  N2  UNL A   1      41.301  19.122  26.281  1.00  0.00    +0.000 N 
ATOM    131  H26 UNL A   1      41.367  18.385  26.930  1.00  0.00    +0.000 H 
BRANCH   17   18
ATOM     18  C15 UNL A   1      42.502  19.683  25.902  1.00  0.00    +0.000 C 
ATOM     19  O2  UNL A   1      43.222  19.096  25.108  1.00  0.00    +0.000 O 
BRANCH   18   20
ATOM    132  H27 UNL A   1      43.430  21.715  24.478  1.00  0.00    +0.000 H 
ATOM    133  H28 UNL A   1      44.079  23.935  25.210  1.00  0.00    +0.000 H 
ATOM    144  H39 UNL A   1      43.065  22.914  29.167  1.00  0.00    +0.000 H 
ATOM     81  C58 UNL A   1      43.169  22.656  28.173  1.00  0.00    +0.000 C 
ATOM     82  C59 UNL A   1      42.884  21.353  27.762  1.00  0.00    +0.000 C 
ATOM    145  H40 UNL A   1      42.650  20.632  28.463  1.00  0.00    +0.000 H 
ATOM     20  C16 UNL A   1      42.911  21.022  26.405  1.00  0.00    +0.000 C 
ATOM     21  C17 UNL A   1      43.362  21.967  25.476  1.00  0.00    +0.000 C 
ATOM     22  C18 UNL A   1      43.720  23.253  25.897  1.00  0.00    +0.000 C 
ATOM     23  C19 UNL A   1      43.596  23.619  27.246  1.00  0.00    +0.000 C 
BRANCH   23   24
ATOM    134  H29 UNL A   1      40.700  31.514  30.088  1.00  0.00    +0.000 H 
ATOM    135  H30 UNL A   1      42.875  32.917  30.409  1.00  0.00    +0.000 H 
ATOM    136  H31 UNL A   1      43.937  29.174  28.989  1.00  0.00    +0.000 H 
ATOM    137  H32 UNL A   1      48.450  24.947  27.416  1.00  0.00    +0.000 H 
ATOM    138  H33 UNL A   1      46.327  23.602  27.054  1.00  0.00    +0.000 H 
ATOM    139  H34 UNL A   1      45.226  27.374  28.409  1.00  0.00    +0.000 H 
ATOM    140  H35 UNL A   1      49.510  29.963  28.927  1.00  0.00    +0.000 H 
ATOM    141  H36 UNL A   1      48.090  31.887  29.838  1.00  0.00    +0.000 H 
ATOM    142  H37 UNL A   1      39.712  26.601  28.175  1.00  0.00    +0.000 H 
ATOM    143  H38 UNL A   1      41.119  24.506  27.746  1.00  0.00    +0.000 H 
ATOM     24  C20 UNL A   1      43.926  24.997  27.701  1.00  0.00    +0.000 C 
ATOM     25  C21 UNL A   1      42.828  25.965  28.051  1.00  0.00    +0.000 C 
ATOM     26  N3  UNL A   1      42.911  27.221  28.412  1.00  0.00    +0.000 N 
ATOM     27  C22 UNL A   1      41.602  27.658  28.572  1.00  0.00    +0.000 C 
ATOM     28  C23 UNL A   1      41.157  28.865  28.998  1.00  0.00    +0.000 C 
ATOM     40  C30 UNL A   1      42.014  29.956  29.381  1.00  0.00    +0.000 C 
ATOM     41  C31 UNL A   1      41.660  31.196  29.885  1.00  0.00    +0.000 C 
ATOM     42  C32 UNL A   1      42.828  31.942  30.073  1.00  0.00    +0.000 C 
ATOM     43  C33 UNL A   1      43.913  31.151  29.730  1.00  0.00    +0.000 C 
ATOM     44  N4  UNL A   1      43.399  29.937  29.303  1.00  0.00    +0.000 N 
ATOM     45  C34 UNL A   1      45.314  31.477  29.788  1.00  0.00    +0.000 C 
ATOM     57  C41 UNL A   1      46.321  30.640  29.438  1.00  0.00    +0.000 C 
ATOM     58  N5  UNL A   1      46.248  29.334  28.972  1.00  0.00    +0.000 N 
ATOM     59  C42 UNL A   1      47.485  28.956  28.761  1.00  0.00    +0.000 C 
ATOM     60  C43 UNL A   1      48.005  27.627  28.282  1.00  0.00    +0.000 C 
ATOM     72  C50 UNL A   1      47.134  26.631  28.027  1.00  0.00    +0.000 C 
ATOM     73  C51 UNL A   1      47.489  25.291  27.572  1.00  0.00    +0.000 C 
ATOM     74  C52 UNL A   1      46.367  24.576  27.392  1.00  0.00    +0.000 C 
ATOM     75  C53 UNL A   1      45.212  25.399  27.750  1.00  0.00    +0.000 C 
ATOM     76  N6  UNL A   1      45.762  26.603  28.114  1.00  0.00    +0.000 N 
ATOM     77  C54 UNL A   1      48.485  29.995  29.045  1.00  0.00    +0.000 C 
ATOM     78  C55 UNL A   1      47.726  30.986  29.493  1.00  0.00    +0.000 C 
ATOM     79  C56 UNL A   1      40.742  26.549  28.219  1.00  0.00    +0.000 C 
ATOM     80  C57 UNL A   1      41.449  25.459  27.958  1.00  0.00    +0.000 C 
BRANCH   28   29
ATOM     33  F2  UNL A   1      36.955  28.996  31.518  1.00  0.00    +0.000 F 
ATOM     34  C27 UNL A   1      36.896  29.495  29.212  1.00  0.00    +0.000 C 
ATOM     35  F3  UNL A   1      35.570  29.685  29.273  1.00  0.00    +0.000 F 
ATOM     36  C28 UNL A   1      37.562  29.629  28.003  1.00  0.00    +0.000 C 
ATOM     37  F4  UNL A   1      36.883  29.971  26.899  1.00  0.00    +0.000 F 
ATOM     38  C29 UNL A   1      38.935  29.406  27.934  1.00  0.00    +0.000 C 
ATOM     39  F5  UNL A   1      39.547  29.528  26.746  1.00  0.00    +0.000 F 
ATOM     29  C24 UNL A   1      39.671  29.067  29.079  1.00  0.00    +0.000 C 
ATOM     30  C25 UNL A   1      38.979  28.961  30.295  1.00  0.00    +0.000 C 
ATOM     31  F1  UNL A   1      39.634  28.629  31.417  1.00  0.00    +0.000 F 
ATOM     32  C26 UNL A   1      37.601  29.154  30.355  1.00  0.00    +0.000 C 
ENDBRANCH   28   29
BRANCH   45   46
ATOM     46  C35 UNL A   1      45.695  32.837  30.295  1.00  0.00    +0.000 C 
ATOM     47  C36 UNL A   1      45.813  33.936  29.432  1.00  0.00    +0.000 C 
ATOM     48  F6  UNL A   1      45.639  33.781  28.111  1.00  0.00    +0.000 F 
ATOM     49  C37 UNL A   1      46.148  35.197  29.922  1.00  0.00    +0.000 C 
ATOM     50  F7  UNL A   1      46.300  36.224  29.075  1.00  0.00    +0.000 F 
ATOM     51  C38 UNL A   1      46.339  35.387  31.282  1.00  0.00    +0.000 C 
ATOM     52  F8  UNL A   1      46.654  36.603  31.752  1.00  0.00    +0.000 F 
ATOM     53  C39 UNL A   1      46.210  34.317  32.155  1.00  0.00    +0.000 C 
ATOM     54  F9  UNL A   1      46.380  34.503  33.471  1.00  0.00    +0.000 F 
ATOM     55  C40 UNL A   1      45.903  33.051  31.666  1.00  0.00    +0.000 C 
ATOM     56  F10 UNL A   1      45.795  32.034  32.533  1.00  0.00    +0.000 F 
ENDBRANCH   45   46
BRANCH   60   61
ATOM     65  F12 UNL A   1      52.022  27.559  25.517  1.00  0.00    +0.000 F 
ATOM     66  C47 UNL A   1      52.223  26.948  27.789  1.00  0.00    +0.000 C 
ATOM     67  F13 UNL A   1      53.534  26.724  27.630  1.00  0.00    +0.000 F 
ATOM     68  C48 UNL A   1      51.626  26.738  29.023  1.00  0.00    +0.000 C 
ATOM     69  F14 UNL A   1      52.365  26.332  30.064  1.00  0.00    +0.000 F 
ATOM     70  C49 UNL A   1      50.258  26.948  29.184  1.00  0.00    +0.000 C 
ATOM     71  F15 UNL A   1      49.705  26.724  30.385  1.00  0.00    +0.000 F 
ATOM     61  C44 UNL A   1      49.463  27.396  28.118  1.00  0.00    +0.000 C 
ATOM     62  C45 UNL A   1      50.092  27.618  26.884  1.00  0.00    +0.000 C 
ATOM     63  F11 UNL A   1      49.371  28.025  25.830  1.00  0.00    +0.000 F 
ATOM     64  C46 UNL A   1      51.456  27.381  26.718  1.00  0.00    +0.000 C 
ENDBRANCH   60   61
ENDBRANCH   23   24
ENDBRANCH   18   20
ENDBRANCH   17   18
ENDBRANCH   16   17
ENDBRANCH   15   16
ENDBRANCH   14   15
ENDBRANCH   13   14
ENDBRANCH   12   13
ENDBRANCH   11   12
ENDBRANCH   10   11
ENDBRANCH    8   10
ENDBRANCH    7    8
BRANCH   85   86
ATOM    151  H46 UNL A   1      33.135  21.316  21.773  1.00  0.00    +0.000 H 
ATOM     86  C63 UNL A   1      32.847  22.346  21.755  1.00  0.00    +0.000 C 
ATOM    150  H45 UNL A   1      31.796  22.419  21.564  1.00  0.00    +0.000 H 
ATOM    152  H47 UNL A   1      33.386  22.854  20.982  1.00  0.00    +0.000 H 
ENDBRANCH   85   86
BRANCH   91   92
ATOM     92  C69 UNL A   1      30.597  26.297  25.761  1.00  0.00    +0.000 C 
ATOM    157  H52 UNL A   1      30.023  25.518  25.307  1.00  0.00    +0.000 H 
ATOM    158  H53 UNL A   1      30.212  27.248  25.457  1.00  0.00    +0.000 H 
ATOM    159  H54 UNL A   1      30.535  26.210  26.827  1.00  0.00    +0.000 H 
ENDBRANCH   91   92
BRANCH   95   96
ATOM    165  H60 UNL A   1      32.734  30.871  25.634  1.00  0.00    +0.000 H 
ATOM     96  O3  UNL A   1      33.008  30.290  26.361  1.00  0.00    +0.000 O 
ENDBRANCH   95   96
BRANCH   97   98
ATOM     98  C74 UNL A   1      30.928  29.238  24.680  1.00  0.00    +0.000 C 
ATOM    166  H61 UNL A   1      30.913  30.122  25.283  1.00  0.00    +0.000 H 
ATOM    167  H62 UNL A   1      30.317  28.487  25.134  1.00  0.00    +0.000 H 
ATOM    168  H63 UNL A   1      30.549  29.466  23.705  1.00  0.00    +0.000 H 
ENDBRANCH   97   98
BRANCH   97   99
ATOM    169  H64 UNL A   1      33.159  30.589  23.802  1.00  0.00    +0.000 H 
ATOM    170  H65 UNL A   1      32.394  29.597  22.584  1.00  0.00    +0.000 H 
ATOM     99  C75 UNL A   1      33.029  29.589  23.446  1.00  0.00    +0.000 C 
ATOM    171  H66 UNL A   1      33.981  29.177  23.184  1.00  0.00    +0.000 H 
ENDBRANCH   97   99
BRANCH  103  104
ATOM    177  H72 UNL A   1      30.382  24.462  22.188  1.00  0.00    +0.000 H 
ATOM    178  H73 UNL A   1      30.098  24.157  23.885  1.00  0.00    +0.000 H 
ATOM    179  H74 UNL A   1      30.643  22.865  22.843  1.00  0.00    +0.000 H 
ATOM    104  C80 UNL A   1      30.713  23.913  23.045  1.00  0.00    +0.000 C 
ENDBRANCH  103  104
TORSDOF 23
ENDMDL
MODEL 7
REMARK VINA RESULT:     -11.2      5.041     10.630
ROOT
ATOM      2  C2  UNL A   1      33.499  19.306  24.726  1.00  0.00    +0.000 C 
ATOM      3  C3  UNL A   1      34.650  18.279  24.461  1.00  0.00    +0.000 C 
ATOM      5  C5  UNL A   1      36.053  18.778  24.840  1.00  0.00    +0.000 C 
ATOM      6  C6  UNL A   1      36.375  20.215  24.489  1.00  0.00    +0.000 C 
ATOM      7  C7  UNL A   1      35.227  21.240  24.531  1.00  0.00    +0.000 C 
ATOM    146  H41 UNL A   1      35.830  21.758  22.524  1.00  0.00    +0.000 H 
ATOM    147  H42 UNL A   1      36.447  22.834  23.839  1.00  0.00    +0.000 H 
ATOM    148  H43 UNL A   1      34.832  23.767  22.113  1.00  0.00    +0.000 H 
ATOM    149  H44 UNL A   1      34.646  24.086  23.880  1.00  0.00    +0.000 H 
ATOM    153  H48 UNL A   1      31.914  21.294  25.857  1.00  0.00    +0.000 H 
ATOM    154  H49 UNL A   1      31.803  23.620  26.668  1.00  0.00    +0.000 H 
ATOM    155  H50 UNL A   1      30.546  23.456  25.437  1.00  0.00    +0.000 H 
ATOM    156  H51 UNL A   1      33.291  24.646  25.002  1.00  0.00    +0.000 H 
ATOM    160  H55 UNL A   1      33.819  26.147  26.297  1.00  0.00    +0.000 H 
ATOM    161  H56 UNL A   1      32.413  25.774  27.330  1.00  0.00    +0.000 H 
ATOM    162  H57 UNL A   1      33.447  27.955  27.802  1.00  0.00    +0.000 H 
ATOM    163  H58 UNL A   1      31.732  28.006  27.338  1.00  0.00    +0.000 H 
ATOM    164  H59 UNL A   1      34.065  28.703  25.636  1.00  0.00    +0.000 H 
ATOM    172  H67 UNL A   1      33.450  27.019  24.135  1.00  0.00    +0.000 H 
ATOM    173  H68 UNL A   1      32.099  27.515  22.102  1.00  0.00    +0.000 H 
ATOM    174  H69 UNL A   1      30.781  26.646  22.842  1.00  0.00    +0.000 H 
ATOM    175  H70 UNL A   1      33.539  25.535  22.365  1.00  0.00    +0.000 H 
ATOM    176  H71 UNL A   1      32.095  25.203  21.384  1.00  0.00    +0.000 H 
ATOM    180  H75 UNL A   1      33.821  20.321  23.063  1.00  0.00    +0.000 H 
ATOM     83  C60 UNL A   1      35.619  22.297  23.424  1.00  0.00    +0.000 C 
ATOM     84  C61 UNL A   1      34.584  23.380  23.080  1.00  0.00    +0.000 C 
ATOM     85  C62 UNL A   1      33.079  22.944  23.041  1.00  0.00    +0.000 C 
ATOM     87  C64 UNL A   1      32.881  21.864  24.145  1.00  0.00    +0.000 C 
ATOM     88  C65 UNL A   1      32.133  22.095  25.243  1.00  0.00    +0.000 C 
ATOM     89  C66 UNL A   1      31.598  23.451  25.631  1.00  0.00    +0.000 C 
ATOM     90  C67 UNL A   1      32.242  24.593  24.801  1.00  0.00    +0.000 C 
ATOM     91  C68 UNL A   1      31.922  26.074  25.275  1.00  0.00    +0.000 C 
ATOM     93  C70 UNL A   1      32.801  26.377  26.535  1.00  0.00    +0.000 C 
ATOM     94  C71 UNL A   1      32.735  27.826  27.013  1.00  0.00    +0.000 C 
ATOM     95  C72 UNL A   1      33.042  28.846  25.914  1.00  0.00    +0.000 C 
ATOM     97  C73 UNL A   1      32.257  28.635  24.582  1.00  0.00    +0.000 C 
ATOM    100  C76 UNL A   1      32.386  27.114  24.189  1.00  0.00    +0.000 C 
ATOM    101  C77 UNL A   1      31.846  26.746  22.802  1.00  0.00    +0.000 C 
ATOM    102  C78 UNL A   1      32.475  25.423  22.361  1.00  0.00    +0.000 C 
ATOM    103  C79 UNL A   1      32.103  24.227  23.277  1.00  0.00    +0.000 C 
ATOM    105  C81 UNL A   1      33.853  20.670  24.073  1.00  0.00    +0.000 C 
ATOM    109  H4  UNL A   1      33.396  19.444  25.782  1.00  0.00    +0.000 H 
ATOM    110  H5  UNL A   1      34.577  18.160  23.400  1.00  0.00    +0.000 H 
ATOM    114  H9  UNL A   1      36.766  18.153  24.343  1.00  0.00    +0.000 H 
ATOM    115  H10 UNL A   1      36.091  18.732  25.909  1.00  0.00    +0.000 H 
ATOM    116  H11 UNL A   1      36.770  20.218  23.495  1.00  0.00    +0.000 H 
ATOM    117  H12 UNL A   1      37.050  20.534  25.256  1.00  0.00    +0.000 H 
ENDROOT
BRANCH    2    1
ATOM      1  C1  UNL A   1      32.158  18.774  24.194  1.00  0.00    +0.000 C 
ATOM    106  H1  UNL A   1      32.306  17.812  23.752  1.00  0.00    +0.000 H 
ATOM    107  H2  UNL A   1      31.774  19.450  23.457  1.00  0.00    +0.000 H 
ATOM    108  H3  UNL A   1      31.460  18.693  25.001  1.00  0.00    +0.000 H 
ENDBRANCH    2    1
BRANCH    3    4
ATOM    113  H8  UNL A   1      35.282  16.765  25.840  1.00  0.00    +0.000 H 
ATOM      4  C4  UNL A   1      34.470  16.927  25.163  1.00  0.00    +0.000 C 
ATOM    111  H6  UNL A   1      34.455  16.145  24.432  1.00  0.00    +0.000 H 
ATOM    112  H7  UNL A   1      33.547  16.925  25.705  1.00  0.00    +0.000 H 
ENDBRANCH    3    4
BRANCH    7    8
ATOM      9  O1  UNL A   1      34.894  21.352  26.960  1.00  0.00    +0.000 O 
ATOM      8  C8  UNL A   1      35.168  21.975  25.926  1.00  0.00    +0.000 C 
BRANCH    8   10
ATOM     10  N1  UNL A   1      35.460  23.302  26.132  1.00  0.00    +0.000 N 
ATOM    118  H13 UNL A   1      34.746  23.944  25.918  1.00  0.00    +0.000 H 
BRANCH   10   11
ATOM     11  C9  UNL A   1      36.701  23.865  26.629  1.00  0.00    +0.000 C 
ATOM    119  H14 UNL A   1      36.937  23.386  27.557  1.00  0.00    +0.000 H 
ATOM    120  H15 UNL A   1      36.536  24.918  26.731  1.00  0.00    +0.000 H 
BRANCH   11   12
ATOM    121  H16 UNL A   1      38.071  24.653  25.228  1.00  0.00    +0.000 H 
ATOM    122  H17 UNL A   1      37.614  22.908  25.033  1.00  0.00    +0.000 H 
ATOM     12  C10 UNL A   1      37.900  23.703  25.689  1.00  0.00    +0.000 C 
BRANCH   12   13
ATOM    123  H18 UNL A   1      39.394  23.809  27.179  1.00  0.00    +0.000 H 
ATOM    124  H19 UNL A   1      39.935  23.388  25.489  1.00  0.00    +0.000 H 
ATOM     13  C11 UNL A   1      39.237  23.240  26.286  1.00  0.00    +0.000 C 
BRANCH   13   14
ATOM    126  H21 UNL A   1      40.321  21.751  27.239  1.00  0.00    +0.000 H 
ATOM    125  H20 UNL A   1      38.533  21.453  27.165  1.00  0.00    +0.000 H 
ATOM     14  C12 UNL A   1      39.422  21.766  26.658  1.00  0.00    +0.000 C 
BRANCH   14   15
ATOM    127  H22 UNL A   1      40.552  21.095  25.010  1.00  0.00    +0.000 H 
ATOM     15  C13 UNL A   1      39.682  20.762  25.537  1.00  0.00    +0.000 C 
ATOM    128  H23 UNL A   1      38.770  20.752  24.976  1.00  0.00    +0.000 H 
BRANCH   15   16
ATOM    129  H24 UNL A   1      39.660  18.700  25.066  1.00  0.00    +0.000 H 
ATOM    130  H25 UNL A   1      39.293  19.111  26.764  1.00  0.00    +0.000 H 
ATOM     16  C14 UNL A   1      39.910  19.306  25.911  1.00  0.00    +0.000 C 
BRANCH   16   17
ATOM     17  N2  UNL A   1      41.266  18.991  26.306  1.00  0.00    +0.000 N 
ATOM    131  H26 UNL A   1      41.357  18.241  26.938  1.00  0.00    +0.000 H 
BRANCH   17   18
ATOM     18  C15 UNL A   1      42.450  19.589  25.928  1.00  0.00    +0.000 C 
ATOM     19  O2  UNL A   1      43.204  19.008  25.161  1.00  0.00    +0.000 O 
BRANCH   18   20
ATOM    132  H27 UNL A   1      43.194  21.652  24.442  1.00  0.00    +0.000 H 
ATOM    133  H28 UNL A   1      43.738  23.916  25.120  1.00  0.00    +0.000 H 
ATOM    144  H39 UNL A   1      42.951  22.894  29.128  1.00  0.00    +0.000 H 
ATOM     81  C58 UNL A   1      43.030  22.628  28.133  1.00  0.00    +0.000 C 
ATOM     82  C59 UNL A   1      42.806  21.305  27.750  1.00  0.00    +0.000 C 
ATOM    145  H40 UNL A   1      42.646  20.581  28.469  1.00  0.00    +0.000 H 
ATOM     20  C16 UNL A   1      42.798  20.957  26.397  1.00  0.00    +0.000 C 
ATOM     21  C17 UNL A   1      43.152  21.913  25.439  1.00  0.00    +0.000 C 
ATOM     22  C18 UNL A   1      43.449  23.224  25.829  1.00  0.00    +0.000 C 
ATOM     23  C19 UNL A   1      43.359  23.602  27.177  1.00  0.00    +0.000 C 
BRANCH   23   24
ATOM    134  H29 UNL A   1      49.312  29.937  28.976  1.00  0.00    +0.000 H 
ATOM    135  H30 UNL A   1      47.869  31.987  29.692  1.00  0.00    +0.000 H 
ATOM    136  H31 UNL A   1      45.322  28.826  28.871  1.00  0.00    +0.000 H 
ATOM    137  H32 UNL A   1      39.402  26.536  28.221  1.00  0.00    +0.000 H 
ATOM    138  H33 UNL A   1      40.813  24.525  27.575  1.00  0.00    +0.000 H 
ATOM    139  H34 UNL A   1      43.396  27.658  28.463  1.00  0.00    +0.000 H 
ATOM    140  H35 UNL A   1      40.474  31.505  29.871  1.00  0.00    +0.000 H 
ATOM    141  H36 UNL A   1      42.613  32.897  30.064  1.00  0.00    +0.000 H 
ATOM    142  H37 UNL A   1      48.153  24.852  27.721  1.00  0.00    +0.000 H 
ATOM    143  H38 UNL A   1      46.033  23.592  27.034  1.00  0.00    +0.000 H 
ATOM     24  C20 UNL A   1      43.624  25.003  27.602  1.00  0.00    +0.000 C 
ATOM     25  C21 UNL A   1      45.037  25.498  27.753  1.00  0.00    +0.000 C 
ATOM     26  N3  UNL A   1      45.470  26.663  28.163  1.00  0.00    +0.000 N 
ATOM     27  C22 UNL A   1      46.857  26.577  28.156  1.00  0.00    +0.000 C 
ATOM     28  C23 UNL A   1      47.768  27.540  28.438  1.00  0.00    +0.000 C 
ATOM     40  C30 UNL A   1      47.433  28.890  28.809  1.00  0.00    +0.000 C 
ATOM     41  C31 UNL A   1      48.283  29.955  29.053  1.00  0.00    +0.000 C 
ATOM     42  C32 UNL A   1      47.508  31.058  29.421  1.00  0.00    +0.000 C 
ATOM     43  C33 UNL A   1      46.172  30.696  29.361  1.00  0.00    +0.000 C 
ATOM     44  N4  UNL A   1      46.140  29.361  28.989  1.00  0.00    +0.000 N 
ATOM     45  C34 UNL A   1      45.010  31.505  29.623  1.00  0.00    +0.000 C 
ATOM     57  C41 UNL A   1      43.727  31.073  29.536  1.00  0.00    +0.000 C 
ATOM     58  N5  UNL A   1      43.252  29.817  29.185  1.00  0.00    +0.000 N 
ATOM     59  C42 UNL A   1      41.945  29.892  29.261  1.00  0.00    +0.000 C 
ATOM     60  C43 UNL A   1      40.913  28.837  28.962  1.00  0.00    +0.000 C 
ATOM     72  C50 UNL A   1      41.315  27.623  28.537  1.00  0.00    +0.000 C 
ATOM     73  C51 UNL A   1      40.434  26.511  28.196  1.00  0.00    +0.000 C 
ATOM     74  C52 UNL A   1      41.179  25.452  27.843  1.00  0.00    +0.000 C 
ATOM     75  C53 UNL A   1      42.594  25.820  27.903  1.00  0.00    +0.000 C 
ATOM     76  N6  UNL A   1      42.579  27.127  28.324  1.00  0.00    +0.000 N 
ATOM     77  C54 UNL A   1      41.445  31.203  29.698  1.00  0.00    +0.000 C 
ATOM     78  C55 UNL A   1      42.569  31.897  29.812  1.00  0.00    +0.000 C 
ATOM     79  C56 UNL A   1      47.193  25.230  27.750  1.00  0.00    +0.000 C 
ATOM     80  C57 UNL A   1      46.108  24.544  27.421  1.00  0.00    +0.000 C 
BRANCH   28   29
ATOM     33  F2  UNL A   1      51.953  27.078  25.929  1.00  0.00    +0.000 F 
ATOM     34  C27 UNL A   1      51.950  26.508  28.219  1.00  0.00    +0.000 C 
ATOM     35  F3  UNL A   1      53.248  26.180  28.154  1.00  0.00    +0.000 F 
ATOM     36  C28 UNL A   1      51.259  26.372  29.414  1.00  0.00    +0.000 C 
ATOM     37  F4  UNL A   1      51.894  25.933  30.509  1.00  0.00    +0.000 F 
ATOM     38  C29 UNL A   1      49.903  26.688  29.476  1.00  0.00    +0.000 C 
ATOM     39  F5  UNL A   1      49.259  26.531  30.642  1.00  0.00    +0.000 F 
ATOM     29  C24 UNL A   1      49.220  27.168  28.349  1.00  0.00    +0.000 C 
ATOM     30  C25 UNL A   1      49.946  27.320  27.158  1.00  0.00    +0.000 C 
ATOM     31  F1  UNL A   1      49.338  27.765  26.048  1.00  0.00    +0.000 F 
ATOM     32  C26 UNL A   1      51.294  26.974  27.090  1.00  0.00    +0.000 C 
ENDBRANCH   28   29
BRANCH   45   46
ATOM     46  C35 UNL A   1      45.228  32.941  29.999  1.00  0.00    +0.000 C 
ATOM     47  C36 UNL A   1      45.415  33.331  31.333  1.00  0.00    +0.000 C 
ATOM     48  F6  UNL A   1      45.346  32.424  32.319  1.00  0.00    +0.000 F 
ATOM     49  C37 UNL A   1      45.637  34.667  31.663  1.00  0.00    +0.000 C 
ATOM     50  F7  UNL A   1      45.767  35.024  32.948  1.00  0.00    +0.000 F 
ATOM     51  C38 UNL A   1      45.708  35.628  30.665  1.00  0.00    +0.000 C 
ATOM     52  F8  UNL A   1      45.929  36.911  30.985  1.00  0.00    +0.000 F 
ATOM     53  C39 UNL A   1      45.544  35.260  29.339  1.00  0.00    +0.000 C 
ATOM     54  F9  UNL A   1      45.626  36.186  28.373  1.00  0.00    +0.000 F 
ATOM     55  C40 UNL A   1      45.294  33.932  29.008  1.00  0.00    +0.000 C 
ATOM     56  F10 UNL A   1      45.128  33.609  27.717  1.00  0.00    +0.000 F 
ENDBRANCH   45   46
BRANCH   60   61
ATOM     65  F12 UNL A   1      36.631  30.155  27.036  1.00  0.00    +0.000 F 
ATOM     66  C47 UNL A   1      36.720  29.710  29.352  1.00  0.00    +0.000 C 
ATOM     67  F13 UNL A   1      35.417  29.995  29.474  1.00  0.00    +0.000 F 
ATOM     68  C48 UNL A   1      37.461  29.350  30.469  1.00  0.00    +0.000 C 
ATOM     69  F14 UNL A   1      36.868  29.267  31.667  1.00  0.00    +0.000 F 
ATOM     70  C49 UNL A   1      38.822  29.076  30.347  1.00  0.00    +0.000 C 
ATOM     71  F15 UNL A   1      39.517  28.745  31.445  1.00  0.00    +0.000 F 
ATOM     61  C44 UNL A   1      39.464  29.132  29.101  1.00  0.00    +0.000 C 
ATOM     62  C45 UNL A   1      38.691  29.481  27.984  1.00  0.00    +0.000 C 
ATOM     63  F11 UNL A   1      39.264  29.570  26.776  1.00  0.00    +0.000 F 
ATOM     64  C46 UNL A   1      37.336  29.782  28.111  1.00  0.00    +0.000 C 
ENDBRANCH   60   61
ENDBRANCH   23   24
ENDBRANCH   18   20
ENDBRANCH   17   18
ENDBRANCH   16   17
ENDBRANCH   15   16
ENDBRANCH   14   15
ENDBRANCH   13   14
ENDBRANCH   12   13
ENDBRANCH   11   12
ENDBRANCH   10   11
ENDBRANCH    8   10
ENDBRANCH    7    8
BRANCH   85   86
ATOM    151  H46 UNL A   1      31.922  21.705  21.704  1.00  0.00    +0.000 H 
ATOM     86  C63 UNL A   1      32.794  22.323  21.647  1.00  0.00    +0.000 C 
ATOM    150  H45 UNL A   1      32.629  23.106  20.936  1.00  0.00    +0.000 H 
ATOM    152  H47 UNL A   1      33.631  21.732  21.341  1.00  0.00    +0.000 H 
ENDBRANCH   85   86
BRANCH   91   92
ATOM     92  C69 UNL A   1      30.439  26.190  25.676  1.00  0.00    +0.000 C 
ATOM    157  H52 UNL A   1      30.276  27.121  26.176  1.00  0.00    +0.000 H 
ATOM    158  H53 UNL A   1      30.183  25.383  26.331  1.00  0.00    +0.000 H 
ATOM    159  H54 UNL A   1      29.828  26.145  24.798  1.00  0.00    +0.000 H 
ENDBRANCH   91   92
BRANCH   95   96
ATOM    165  H60 UNL A   1      33.140  30.194  27.356  1.00  0.00    +0.000 H 
ATOM     96  O3  UNL A   1      32.841  30.161  26.434  1.00  0.00    +0.000 O 
ENDBRANCH   95   96
BRANCH   97   98
ATOM     98  C74 UNL A   1      30.806  29.153  24.671  1.00  0.00    +0.000 C 
ATOM    166  H61 UNL A   1      30.662  29.933  23.952  1.00  0.00    +0.000 H 
ATOM    167  H62 UNL A   1      30.623  29.535  25.653  1.00  0.00    +0.000 H 
ATOM    168  H63 UNL A   1      30.128  28.351  24.467  1.00  0.00    +0.000 H 
ENDBRANCH   97   98
BRANCH   97   99
ATOM    169  H64 UNL A   1      32.415  30.452  23.421  1.00  0.00    +0.000 H 
ATOM    170  H65 UNL A   1      32.928  29.020  22.563  1.00  0.00    +0.000 H 
ATOM     99  C75 UNL A   1      32.942  29.525  23.506  1.00  0.00    +0.000 C 
ATOM    171  H66 UNL A   1      33.955  29.717  23.792  1.00  0.00    +0.000 H 
ENDBRANCH   97   99
BRANCH  103  104
ATOM    177  H72 UNL A   1      30.025  24.750  22.949  1.00  0.00    +0.000 H 
ATOM    178  H73 UNL A   1      30.252  23.149  23.609  1.00  0.00    +0.000 H 
ATOM    179  H74 UNL A   1      30.595  23.456  21.924  1.00  0.00    +0.000 H 
ATOM    104  C80 UNL A   1      30.627  23.866  22.911  1.00  0.00    +0.000 C 
ENDBRANCH  103  104
TORSDOF 23
ENDMDL
MODEL 8
REMARK VINA RESULT:     -11.1      4.527      6.536
ROOT
ATOM      2  C2  UNL A   1      30.127  29.793  23.314  1.00  0.00    +0.000 C 
ATOM      3  C3  UNL A   1      29.696  31.113  24.036  1.00  0.00    +0.000 C 
ATOM      5  C5  UNL A   1      30.642  31.566  25.160  1.00  0.00    +0.000 C 
ATOM      6  C6  UNL A   1      31.181  30.481  26.065  1.00  0.00    +0.000 C 
ATOM      7  C7  UNL A   1      31.431  29.091  25.452  1.00  0.00    +0.000 C 
ATOM    146  H41 UNL A   1      30.228  28.334  27.076  1.00  0.00    +0.000 H 
ATOM    147  H42 UNL A   1      32.019  28.232  27.302  1.00  0.00    +0.000 H 
ATOM    148  H43 UNL A   1      30.656  26.095  27.128  1.00  0.00    +0.000 H 
ATOM    149  H44 UNL A   1      32.208  26.326  26.234  1.00  0.00    +0.000 H 
ATOM    153  H48 UNL A   1      31.639  27.773  22.142  1.00  0.00    +0.000 H 
ATOM    154  H49 UNL A   1      33.465  26.142  22.432  1.00  0.00    +0.000 H 
ATOM    155  H50 UNL A   1      32.038  25.219  21.946  1.00  0.00    +0.000 H 
ATOM    156  H51 UNL A   1      33.041  25.551  24.780  1.00  0.00    +0.000 H 
ATOM    160  H55 UNL A   1      35.009  25.060  25.084  1.00  0.00    +0.000 H 
ATOM    161  H56 UNL A   1      35.276  24.969  23.322  1.00  0.00    +0.000 H 
ATOM    162  H57 UNL A   1      37.062  23.931  24.657  1.00  0.00    +0.000 H 
ATOM    163  H58 UNL A   1      36.246  22.854  23.503  1.00  0.00    +0.000 H 
ATOM    164  H59 UNL A   1      35.852  22.948  26.446  1.00  0.00    +0.000 H 
ATOM    172  H67 UNL A   1      33.598  23.471  26.110  1.00  0.00    +0.000 H 
ATOM    173  H68 UNL A   1      31.832  21.714  26.153  1.00  0.00    +0.000 H 
ATOM    174  H69 UNL A   1      31.630  21.965  24.439  1.00  0.00    +0.000 H 
ATOM    175  H70 UNL A   1      31.419  24.111  26.541  1.00  0.00    +0.000 H 
ATOM    176  H71 UNL A   1      30.059  23.306  25.729  1.00  0.00    +0.000 H 
ATOM    180  H75 UNL A   1      29.383  28.611  24.710  1.00  0.00    +0.000 H 
ATOM     83  C60 UNL A   1      31.180  28.093  26.652  1.00  0.00    +0.000 C 
ATOM     84  C61 UNL A   1      31.176  26.590  26.334  1.00  0.00    +0.000 C 
ATOM     85  C62 UNL A   1      30.513  26.146  24.985  1.00  0.00    +0.000 C 
ATOM     87  C64 UNL A   1      30.802  27.260  23.938  1.00  0.00    +0.000 C 
ATOM     88  C65 UNL A   1      31.611  27.051  22.879  1.00  0.00    +0.000 C 
ATOM     89  C66 UNL A   1      32.478  25.829  22.707  1.00  0.00    +0.000 C 
ATOM     90  C67 UNL A   1      32.565  24.986  24.006  1.00  0.00    +0.000 C 
ATOM     91  C68 UNL A   1      33.626  23.804  24.009  1.00  0.00    +0.000 C 
ATOM     93  C70 UNL A   1      35.045  24.431  24.218  1.00  0.00    +0.000 C 
ATOM     94  C71 UNL A   1      36.161  23.407  24.415  1.00  0.00    +0.000 C 
ATOM     95  C72 UNL A   1      35.874  22.398  25.529  1.00  0.00    +0.000 C 
ATOM     97  C73 UNL A   1      34.469  21.724  25.461  1.00  0.00    +0.000 C 
ATOM    100  C76 UNL A   1      33.402  22.864  25.251  1.00  0.00    +0.000 C 
ATOM    101  C77 UNL A   1      31.938  22.422  25.356  1.00  0.00    +0.000 C 
ATOM    102  C78 UNL A   1      31.070  23.649  25.641  1.00  0.00    +0.000 C 
ATOM    103  C79 UNL A   1      31.099  24.704  24.504  1.00  0.00    +0.000 C 
ATOM    105  C81 UNL A   1      30.393  28.683  24.366  1.00  0.00    +0.000 C 
ATOM    109  H4  UNL A   1      31.029  29.977  22.769  1.00  0.00    +0.000 H 
ATOM    110  H5  UNL A   1      28.751  30.822  24.447  1.00  0.00    +0.000 H 
ATOM    114  H9  UNL A   1      30.109  32.266  25.770  1.00  0.00    +0.000 H 
ATOM    115  H10 UNL A   1      31.498  31.973  24.663  1.00  0.00    +0.000 H 
ATOM    116  H11 UNL A   1      30.482  30.356  26.865  1.00  0.00    +0.000 H 
ATOM    117  H12 UNL A   1      32.153  30.828  26.351  1.00  0.00    +0.000 H 
ENDROOT
BRANCH    2    1
ATOM      1  C1  UNL A   1      29.056  29.347  22.304  1.00  0.00    +0.000 C 
ATOM    106  H1  UNL A   1      28.104  29.307  22.788  1.00  0.00    +0.000 H 
ATOM    107  H2  UNL A   1      29.306  28.378  21.926  1.00  0.00    +0.000 H 
ATOM    108  H3  UNL A   1      29.017  30.046  21.494  1.00  0.00    +0.000 H 
ENDBRANCH    2    1
BRANCH    3    4
ATOM    113  H8  UNL A   1      28.831  32.074  22.327  1.00  0.00    +0.000 H 
ATOM      4  C4  UNL A   1      29.522  32.320  23.106  1.00  0.00    +0.000 C 
ATOM    111  H6  UNL A   1      30.468  32.577  22.674  1.00  0.00    +0.000 H 
ATOM    112  H7  UNL A   1      29.148  33.152  23.665  1.00  0.00    +0.000 H 
ENDBRANCH    3    4
BRANCH    7    8
ATOM      9  O1  UNL A   1      33.302  29.407  23.895  1.00  0.00    +0.000 O 
ATOM      8  C8  UNL A   1      32.928  28.936  24.977  1.00  0.00    +0.000 C 
BRANCH    8   10
ATOM     10  N1  UNL A   1      33.931  28.347  25.708  1.00  0.00    +0.000 N 
ATOM    118  H13 UNL A   1      34.022  27.371  25.616  1.00  0.00    +0.000 H 
BRANCH   10   11
ATOM     11  C9  UNL A   1      34.872  28.997  26.601  1.00  0.00    +0.000 C 
ATOM    119  H14 UNL A   1      35.554  29.569  26.006  1.00  0.00    +0.000 H 
ATOM    120  H15 UNL A   1      35.352  28.217  27.155  1.00  0.00    +0.000 H 
BRANCH   11   12
ATOM    121  H16 UNL A   1      34.347  29.472  28.591  1.00  0.00    +0.000 H 
ATOM    122  H17 UNL A   1      33.229  30.059  27.287  1.00  0.00    +0.000 H 
ATOM     12  C10 UNL A   1      34.234  29.933  27.631  1.00  0.00    +0.000 C 
BRANCH   12   13
ATOM    123  H18 UNL A   1      35.129  31.647  26.779  1.00  0.00    +0.000 H 
ATOM    124  H19 UNL A   1      35.507  31.295  28.528  1.00  0.00    +0.000 H 
ATOM     13  C11 UNL A   1      34.777  31.366  27.750  1.00  0.00    +0.000 C 
BRANCH   13   14
ATOM    126  H21 UNL A   1      33.457  32.907  27.325  1.00  0.00    +0.000 H 
ATOM    125  H20 UNL A   1      33.126  32.038  28.884  1.00  0.00    +0.000 H 
ATOM     14  C12 UNL A   1      33.845  32.484  28.228  1.00  0.00    +0.000 C 
BRANCH   14   15
ATOM    127  H22 UNL A   1      34.099  34.559  28.491  1.00  0.00    +0.000 H 
ATOM     15  C13 UNL A   1      34.458  33.670  28.967  1.00  0.00    +0.000 C 
ATOM    128  H23 UNL A   1      35.513  33.502  28.909  1.00  0.00    +0.000 H 
BRANCH   15   16
ATOM    129  H24 UNL A   1      33.578  32.987  30.766  1.00  0.00    +0.000 H 
ATOM    130  H25 UNL A   1      33.695  34.759  30.585  1.00  0.00    +0.000 H 
ATOM     16  C14 UNL A   1      34.181  33.814  30.456  1.00  0.00    +0.000 C 
BRANCH   16   17
ATOM     17  N2  UNL A   1      35.365  33.847  31.287  1.00  0.00    +0.000 N 
ATOM    131  H26 UNL A   1      35.789  34.731  31.381  1.00  0.00    +0.000 H 
BRANCH   17   18
ATOM     18  C15 UNL A   1      35.987  32.820  31.967  1.00  0.00    +0.000 C 
ATOM     19  O2  UNL A   1      35.506  32.407  33.012  1.00  0.00    +0.000 O 
BRANCH   18   20
ATOM    132  H27 UNL A   1      36.693  32.632  29.421  1.00  0.00    +0.000 H 
ATOM    133  H28 UNL A   1      38.676  31.632  28.447  1.00  0.00    +0.000 H 
ATOM    144  H39 UNL A   1      40.048  30.626  32.299  1.00  0.00    +0.000 H 
ATOM     81  C58 UNL A   1      39.325  31.028  31.680  1.00  0.00    +0.000 C 
ATOM     82  C59 UNL A   1      38.142  31.523  32.230  1.00  0.00    +0.000 C 
ATOM    145  H40 UNL A   1      37.956  31.411  33.240  1.00  0.00    +0.000 H 
ATOM     20  C16 UNL A   1      37.207  32.171  31.418  1.00  0.00    +0.000 C 
ATOM     21  C17 UNL A   1      37.402  32.197  30.032  1.00  0.00    +0.000 C 
ATOM     22  C18 UNL A   1      38.554  31.634  29.472  1.00  0.00    +0.000 C 
ATOM     23  C19 UNL A   1      39.543  31.073  30.295  1.00  0.00    +0.000 C 
BRANCH   23   24
ATOM    134  H29 UNL A   1      48.000  32.398  27.944  1.00  0.00    +0.000 H 
ATOM    135  H30 UNL A   1      48.756  30.107  26.953  1.00  0.00    +0.000 H 
ATOM    136  H31 UNL A   1      44.777  29.797  28.062  1.00  0.00    +0.000 H 
ATOM    137  H32 UNL A   1      39.516  26.265  28.802  1.00  0.00    +0.000 H 
ATOM    138  H33 UNL A   1      38.768  28.512  29.719  1.00  0.00    +0.000 H 
ATOM    139  H34 UNL A   1      42.740  28.875  28.548  1.00  0.00    +0.000 H 
ATOM    140  H35 UNL A   1      44.026  24.409  26.617  1.00  0.00    +0.000 H 
ATOM    141  H36 UNL A   1      46.386  25.355  26.325  1.00  0.00    +0.000 H 
ATOM    142  H37 UNL A   1      43.314  34.286  29.749  1.00  0.00    +0.000 H 
ATOM    143  H38 UNL A   1      41.110  33.233  30.516  1.00  0.00    +0.000 H 
ATOM     24  C20 UNL A   1      40.796  30.516  29.718  1.00  0.00    +0.000 C 
ATOM     25  C21 UNL A   1      42.010  31.389  29.552  1.00  0.00    +0.000 C 
ATOM     26  N3  UNL A   1      43.173  31.104  29.021  1.00  0.00    +0.000 N 
ATOM     27  C22 UNL A   1      43.915  32.277  29.079  1.00  0.00    +0.000 C 
ATOM     28  C23 UNL A   1      45.204  32.484  28.713  1.00  0.00    +0.000 C 
ATOM     40  C30 UNL A   1      46.068  31.465  28.178  1.00  0.00    +0.000 C 
ATOM     41  C31 UNL A   1      47.407  31.561  27.836  1.00  0.00    +0.000 C 
ATOM     42  C32 UNL A   1      47.815  30.327  27.320  1.00  0.00    +0.000 C 
ATOM     43  C33 UNL A   1      46.746  29.449  27.383  1.00  0.00    +0.000 C 
ATOM     44  N4  UNL A   1      45.678  30.162  27.907  1.00  0.00    +0.000 N 
ATOM     45  C34 UNL A   1      46.699  28.063  26.995  1.00  0.00    +0.000 C 
ATOM     57  C41 UNL A   1      45.607  27.265  27.094  1.00  0.00    +0.000 C 
ATOM     58  N5  UNL A   1      44.342  27.575  27.575  1.00  0.00    +0.000 N 
ATOM     59  C42 UNL A   1      43.632  26.479  27.453  1.00  0.00    +0.000 C 
ATOM     60  C43 UNL A   1      42.200  26.226  27.843  1.00  0.00    +0.000 C 
ATOM     72  C50 UNL A   1      41.488  27.215  28.418  1.00  0.00    +0.000 C 
ATOM     73  C51 UNL A   1      40.101  27.113  28.860  1.00  0.00    +0.000 C 
ATOM     74  C52 UNL A   1      39.709  28.297  29.355  1.00  0.00    +0.000 C 
ATOM     75  C53 UNL A   1      40.830  29.237  29.295  1.00  0.00    +0.000 C 
ATOM     76  N6  UNL A   1      41.843  28.507  28.723  1.00  0.00    +0.000 N 
ATOM     77  C54 UNL A   1      44.364  25.355  26.853  1.00  0.00    +0.000 C 
ATOM     78  C55 UNL A   1      45.573  25.875  26.691  1.00  0.00    +0.000 C 
ATOM     79  C56 UNL A   1      43.055  33.291  29.648  1.00  0.00    +0.000 C 
ATOM     80  C57 UNL A   1      41.893  32.778  30.023  1.00  0.00    +0.000 C 
BRANCH   28   29
ATOM     33  F2  UNL A   1      46.145  36.994  27.040  1.00  0.00    +0.000 F 
ATOM     34  C27 UNL A   1      46.769  36.466  29.254  1.00  0.00    +0.000 C 
ATOM     35  F3  UNL A   1      47.263  37.700  29.425  1.00  0.00    +0.000 F 
ATOM     36  C28 UNL A   1      46.844  35.540  30.284  1.00  0.00    +0.000 C 
ATOM     37  F4  UNL A   1      47.391  35.886  31.458  1.00  0.00    +0.000 F 
ATOM     38  C29 UNL A   1      46.355  34.249  30.099  1.00  0.00    +0.000 C 
ATOM     39  F5  UNL A   1      46.456  33.371  31.109  1.00  0.00    +0.000 F 
ATOM     29  C24 UNL A   1      45.760  33.868  28.887  1.00  0.00    +0.000 C 
ATOM     30  C25 UNL A   1      45.674  34.829  27.868  1.00  0.00    +0.000 C 
ATOM     31  F1  UNL A   1      45.125  34.513  26.686  1.00  0.00    +0.000 F 
ATOM     32  C26 UNL A   1      46.192  36.110  28.046  1.00  0.00    +0.000 C 
ENDBRANCH   28   29
BRANCH   45   46
ATOM     46  C35 UNL A   1      47.957  27.444  26.461  1.00  0.00    +0.000 C 
ATOM     47  C36 UNL A   1      48.894  26.835  27.309  1.00  0.00    +0.000 C 
ATOM     48  F6  UNL A   1      48.707  26.842  28.637  1.00  0.00    +0.000 F 
ATOM     49  C37 UNL A   1      50.048  26.248  26.795  1.00  0.00    +0.000 C 
ATOM     50  F7  UNL A   1      50.951  25.712  27.627  1.00  0.00    +0.000 F 
ATOM     51  C38 UNL A   1      50.270  26.230  25.426  1.00  0.00    +0.000 C 
ATOM     52  F8  UNL A   1      51.377  25.657  24.934  1.00  0.00    +0.000 F 
ATOM     53  C39 UNL A   1      49.348  26.811  24.569  1.00  0.00    +0.000 C 
ATOM     54  F9  UNL A   1      49.555  26.782  23.245  1.00  0.00    +0.000 F 
ATOM     55  C40 UNL A   1      48.208  27.423  25.081  1.00  0.00    +0.000 C 
ATOM     56  F10 UNL A   1      47.340  27.986  24.227  1.00  0.00    +0.000 F 
ENDBRANCH   45   46
BRANCH   60   61
ATOM     65  F12 UNL A   1      39.014  23.331  25.551  1.00  0.00    +0.000 F 
ATOM     66  C47 UNL A   1      40.383  22.378  27.222  1.00  0.00    +0.000 C 
ATOM     67  F13 UNL A   1      39.806  21.183  27.036  1.00  0.00    +0.000 F 
ATOM     68  C48 UNL A   1      41.372  22.531  28.182  1.00  0.00    +0.000 C 
ATOM     69  F14 UNL A   1      41.766  21.478  28.911  1.00  0.00    +0.000 F 
ATOM     70  C49 UNL A   1      41.956  23.779  28.393  1.00  0.00    +0.000 C 
ATOM     71  F15 UNL A   1      42.899  23.901  29.338  1.00  0.00    +0.000 F 
ATOM     61  C44 UNL A   1      41.579  24.893  27.628  1.00  0.00    +0.000 C 
ATOM     62  C45 UNL A   1      40.590  24.710  26.651  1.00  0.00    +0.000 C 
ATOM     63  F11 UNL A   1      40.181  25.749  25.911  1.00  0.00    +0.000 F 
ATOM     64  C46 UNL A   1      39.987  23.468  26.461  1.00  0.00    +0.000 C 
ENDBRANCH   60   61
ENDBRANCH   23   24
ENDBRANCH   18   20
ENDBRANCH   17   18
ENDBRANCH   16   17
ENDBRANCH   15   16
ENDBRANCH   14   15
ENDBRANCH   13   14
ENDBRANCH   12   13
ENDBRANCH   11   12
ENDBRANCH   10   11
ENDBRANCH    8   10
ENDBRANCH    7    8
BRANCH   85   86
ATOM    151  H46 UNL A   1      28.583  25.256  24.597  1.00  0.00    +0.000 H 
ATOM     86  C63 UNL A   1      28.982  26.032  25.217  1.00  0.00    +0.000 C 
ATOM    150  H45 UNL A   1      28.793  25.798  26.245  1.00  0.00    +0.000 H 
ATOM    152  H47 UNL A   1      28.513  26.962  24.971  1.00  0.00    +0.000 H 
ENDBRANCH   85   86
BRANCH   91   92
ATOM     92  C69 UNL A   1      33.609  23.079  22.649  1.00  0.00    +0.000 C 
ATOM    157  H52 UNL A   1      34.484  22.470  22.560  1.00  0.00    +0.000 H 
ATOM    158  H53 UNL A   1      33.593  23.801  21.860  1.00  0.00    +0.000 H 
ATOM    159  H54 UNL A   1      32.737  22.461  22.586  1.00  0.00    +0.000 H 
ENDBRANCH   91   92
BRANCH   95   96
ATOM    165  H60 UNL A   1      36.888  20.935  26.389  1.00  0.00    +0.000 H 
ATOM     96  O3  UNL A   1      36.919  21.424  25.551  1.00  0.00    +0.000 O 
ENDBRANCH   95   96
BRANCH   97   98
ATOM     98  C74 UNL A   1      34.414  20.594  24.411  1.00  0.00    +0.000 C 
ATOM    166  H61 UNL A   1      33.599  19.938  24.636  1.00  0.00    +0.000 H 
ATOM    167  H62 UNL A   1      35.331  20.043  24.431  1.00  0.00    +0.000 H 
ATOM    168  H63 UNL A   1      34.273  21.018  23.439  1.00  0.00    +0.000 H 
ENDBRANCH   97   98
BRANCH   97   99
ATOM    169  H64 UNL A   1      35.180  20.825  27.295  1.00  0.00    +0.000 H 
ATOM    170  H65 UNL A   1      33.721  20.096  26.671  1.00  0.00    +0.000 H 
ATOM     99  C75 UNL A   1      34.237  21.019  26.829  1.00  0.00    +0.000 C 
ATOM    171  H66 UNL A   1      33.651  21.652  27.462  1.00  0.00    +0.000 H 
ENDBRANCH   97   99
BRANCH  103  104
ATOM    177  H72 UNL A   1      29.301  24.659  23.293  1.00  0.00    +0.000 H 
ATOM    178  H73 UNL A   1      30.000  23.082  23.575  1.00  0.00    +0.000 H 
ATOM    179  H74 UNL A   1      30.742  24.176  22.432  1.00  0.00    +0.000 H 
ATOM    104  C80 UNL A   1      30.216  24.108  23.361  1.00  0.00    +0.000 C 
ENDBRANCH  103  104
TORSDOF 23
ENDMDL
MODEL 9
REMARK VINA RESULT:     -11.1      5.388     11.175
ROOT
ATOM      2  C2  UNL A   1      33.646  19.489  24.686  1.00  0.00    +0.000 C 
ATOM      3  C3  UNL A   1      34.812  18.482  24.413  1.00  0.00    +0.000 C 
ATOM      5  C5  UNL A   1      36.208  18.998  24.798  1.00  0.00    +0.000 C 
ATOM      6  C6  UNL A   1      36.509  20.442  24.461  1.00  0.00    +0.000 C 
ATOM      7  C7  UNL A   1      35.346  21.451  24.512  1.00  0.00    +0.000 C 
ATOM    146  H41 UNL A   1      35.943  21.996  22.510  1.00  0.00    +0.000 H 
ATOM    147  H42 UNL A   1      36.543  23.068  23.837  1.00  0.00    +0.000 H 
ATOM    148  H43 UNL A   1      34.917  23.995  22.118  1.00  0.00    +0.000 H 
ATOM    149  H44 UNL A   1      34.725  24.294  23.888  1.00  0.00    +0.000 H 
ATOM    153  H48 UNL A   1      32.031  21.443  25.834  1.00  0.00    +0.000 H 
ATOM    154  H49 UNL A   1      31.886  23.759  26.667  1.00  0.00    +0.000 H 
ATOM    155  H50 UNL A   1      30.632  23.589  25.434  1.00  0.00    +0.000 H 
ATOM    156  H51 UNL A   1      33.360  24.823  25.014  1.00  0.00    +0.000 H 
ATOM    160  H55 UNL A   1      33.864  26.319  26.324  1.00  0.00    +0.000 H 
ATOM    161  H56 UNL A   1      32.464  25.915  27.351  1.00  0.00    +0.000 H 
ATOM    162  H57 UNL A   1      33.464  28.106  27.846  1.00  0.00    +0.000 H 
ATOM    163  H58 UNL A   1      31.749  28.137  27.381  1.00  0.00    +0.000 H 
ATOM    164  H59 UNL A   1      34.074  28.885  25.688  1.00  0.00    +0.000 H 
ATOM    172  H67 UNL A   1      33.485  27.207  24.170  1.00  0.00    +0.000 H 
ATOM    173  H68 UNL A   1      32.129  27.702  22.140  1.00  0.00    +0.000 H 
ATOM    174  H69 UNL A   1      30.824  26.807  22.870  1.00  0.00    +0.000 H 
ATOM    175  H70 UNL A   1      33.597  25.741  22.386  1.00  0.00    +0.000 H 
ATOM    176  H71 UNL A   1      32.160  25.398  21.400  1.00  0.00    +0.000 H 
ATOM    180  H75 UNL A   1      33.955  20.525  23.033  1.00  0.00    +0.000 H 
ATOM     83  C60 UNL A   1      35.724  22.524  23.415  1.00  0.00    +0.000 C 
ATOM     84  C61 UNL A   1      34.674  23.595  23.081  1.00  0.00    +0.000 C 
ATOM     85  C62 UNL A   1      33.175  23.137  23.036  1.00  0.00    +0.000 C 
ATOM     87  C64 UNL A   1      32.992  22.044  24.129  1.00  0.00    +0.000 C 
ATOM     88  C65 UNL A   1      32.239  22.253  25.229  1.00  0.00    +0.000 C 
ATOM     89  C66 UNL A   1      31.684  23.597  25.628  1.00  0.00    +0.000 C 
ATOM     90  C67 UNL A   1      32.312  24.756  24.810  1.00  0.00    +0.000 C 
ATOM     91  C68 UNL A   1      31.970  26.228  25.299  1.00  0.00    +0.000 C 
ATOM     93  C70 UNL A   1      32.843  26.531  26.563  1.00  0.00    +0.000 C 
ATOM     94  C71 UNL A   1      32.756  27.975  27.054  1.00  0.00    +0.000 C 
ATOM     95  C72 UNL A   1      33.049  29.010  25.966  1.00  0.00    +0.000 C 
ATOM     97  C73 UNL A   1      32.269  28.800  24.631  1.00  0.00    +0.000 C 
ATOM    100  C76 UNL A   1      32.420  27.285  24.223  1.00  0.00    +0.000 C 
ATOM    101  C77 UNL A   1      31.887  26.923  22.832  1.00  0.00    +0.000 C 
ATOM    102  C78 UNL A   1      32.536  25.614  22.379  1.00  0.00    +0.000 C 
ATOM    103  C79 UNL A   1      32.180  24.403  23.283  1.00  0.00    +0.000 C 
ATOM    105  C81 UNL A   1      33.981  20.865  24.047  1.00  0.00    +0.000 C 
ATOM    109  H4  UNL A   1      33.540  19.616  25.743  1.00  0.00    +0.000 H 
ATOM    110  H5  UNL A   1      34.742  18.372  23.350  1.00  0.00    +0.000 H 
ATOM    114  H9  UNL A   1      36.930  18.388  24.296  1.00  0.00    +0.000 H 
ATOM    115  H10 UNL A   1      36.245  18.942  25.866  1.00  0.00    +0.000 H 
ATOM    116  H11 UNL A   1      36.905  20.461  23.468  1.00  0.00    +0.000 H 
ATOM    117  H12 UNL A   1      37.178  20.764  25.232  1.00  0.00    +0.000 H 
ENDROOT
BRANCH    2    1
ATOM      1  C1  UNL A   1      32.313  18.944  24.147  1.00  0.00    +0.000 C 
ATOM    106  H1  UNL A   1      32.441  18.627  23.133  1.00  0.00    +0.000 H 
ATOM    107  H2  UNL A   1      31.571  19.713  24.189  1.00  0.00    +0.000 H 
ATOM    108  H3  UNL A   1      32.001  18.113  24.744  1.00  0.00    +0.000 H 
ENDBRANCH    2    1
BRANCH    3    4
ATOM    113  H8  UNL A   1      34.701  16.342  24.368  1.00  0.00    +0.000 H 
ATOM      4  C4  UNL A   1      34.651  17.120  25.101  1.00  0.00    +0.000 C 
ATOM    111  H6  UNL A   1      33.703  17.081  25.597  1.00  0.00    +0.000 H 
ATOM    112  H7  UNL A   1      35.435  16.987  25.816  1.00  0.00    +0.000 H 
ENDBRANCH    3    4
BRANCH    7    8
ATOM      9  O1  UNL A   1      35.058  21.526  26.948  1.00  0.00    +0.000 O 
ATOM      8  C8  UNL A   1      35.274  22.171  25.914  1.00  0.00    +0.000 C 
BRANCH    8   10
ATOM     10  N1  UNL A   1      35.495  23.510  26.125  1.00  0.00    +0.000 N 
ATOM    118  H13 UNL A   1      34.758  24.117  25.885  1.00  0.00    +0.000 H 
BRANCH   10   11
ATOM     11  C9  UNL A   1      36.690  24.135  26.661  1.00  0.00    +0.000 C 
ATOM    119  H14 UNL A   1      36.793  23.834  27.683  1.00  0.00    +0.000 H 
ATOM    120  H15 UNL A   1      36.558  25.190  26.545  1.00  0.00    +0.000 H 
BRANCH   11   12
ATOM    121  H16 UNL A   1      38.461  24.695  25.654  1.00  0.00    +0.000 H 
ATOM    122  H17 UNL A   1      37.663  23.157  25.113  1.00  0.00    +0.000 H 
ATOM     12  C10 UNL A   1      37.985  23.775  25.925  1.00  0.00    +0.000 C 
BRANCH   12   13
ATOM    123  H18 UNL A   1      38.533  22.472  27.495  1.00  0.00    +0.000 H 
ATOM    124  H19 UNL A   1      39.813  23.617  26.881  1.00  0.00    +0.000 H 
ATOM     13  C11 UNL A   1      39.030  22.922  26.661  1.00  0.00    +0.000 C 
BRANCH   13   14
ATOM    126  H21 UNL A   1      39.013  21.436  25.215  1.00  0.00    +0.000 H 
ATOM    125  H20 UNL A   1      40.629  22.218  25.475  1.00  0.00    +0.000 H 
ATOM     14  C12 UNL A   1      39.745  21.798  25.907  1.00  0.00    +0.000 C 
BRANCH   14   15
ATOM    127  H22 UNL A   1      39.366  20.310  27.352  1.00  0.00    +0.000 H 
ATOM     15  C13 UNL A   1      40.170  20.557  26.689  1.00  0.00    +0.000 C 
ATOM    128  H23 UNL A   1      41.091  20.842  27.155  1.00  0.00    +0.000 H 
BRANCH   15   16
ATOM    129  H24 UNL A   1      40.298  19.470  24.878  1.00  0.00    +0.000 H 
ATOM    130  H25 UNL A   1      39.931  18.508  26.336  1.00  0.00    +0.000 H 
ATOM     16  C14 UNL A   1      40.516  19.297  25.911  1.00  0.00    +0.000 C 
BRANCH   16   17
ATOM     17  N2  UNL A   1      41.899  18.884  26.018  1.00  0.00    +0.000 N 
ATOM    131  H26 UNL A   1      42.049  18.041  26.502  1.00  0.00    +0.000 H 
BRANCH   17   18
ATOM     18  C15 UNL A   1      43.036  19.500  25.540  1.00  0.00    +0.000 C 
ATOM     19  O2  UNL A   1      43.771  18.902  24.768  1.00  0.00    +0.000 O 
BRANCH   18   20
ATOM    132  H27 UNL A   1      43.405  21.544  23.895  1.00  0.00    +0.000 H 
ATOM    133  H28 UNL A   1      43.885  23.864  24.412  1.00  0.00    +0.000 H 
ATOM    144  H39 UNL A   1      43.778  22.960  28.522  1.00  0.00    +0.000 H 
ATOM     81  C58 UNL A   1      43.726  22.659  27.536  1.00  0.00    +0.000 C 
ATOM     82  C59 UNL A   1      43.540  21.309  27.233  1.00  0.00    +0.000 C 
ATOM    145  H40 UNL A   1      43.540  20.607  27.990  1.00  0.00    +0.000 H 
ATOM     20  C16 UNL A   1      43.355  20.906  25.909  1.00  0.00    +0.000 C 
ATOM     21  C17 UNL A   1      43.494  21.843  24.878  1.00  0.00    +0.000 C 
ATOM     22  C18 UNL A   1      43.754  23.185  25.178  1.00  0.00    +0.000 C 
ATOM     23  C19 UNL A   1      43.840  23.612  26.512  1.00  0.00    +0.000 C 
BRANCH   23   24
ATOM    134  H29 UNL A   1      49.465  30.469  26.874  1.00  0.00    +0.000 H 
ATOM    135  H30 UNL A   1      48.037  32.418  27.857  1.00  0.00    +0.000 H 
ATOM    136  H31 UNL A   1      45.659  29.033  27.658  1.00  0.00    +0.000 H 
ATOM    137  H32 UNL A   1      39.962  26.245  28.350  1.00  0.00    +0.000 H 
ATOM    138  H33 UNL A   1      41.369  24.336  27.441  1.00  0.00    +0.000 H 
ATOM    139  H34 UNL A   1      43.800  27.698  27.697  1.00  0.00    +0.000 H 
ATOM    140  H35 UNL A   1      40.926  31.338  29.652  1.00  0.00    +0.000 H 
ATOM    141  H36 UNL A   1      42.927  32.905  29.353  1.00  0.00    +0.000 H 
ATOM    142  H37 UNL A   1      48.511  25.267  25.978  1.00  0.00    +0.000 H 
ATOM    143  H38 UNL A   1      46.410  23.815  25.789  1.00  0.00    +0.000 H 
ATOM     24  C20 UNL A   1      44.067  25.043  26.847  1.00  0.00    +0.000 C 
ATOM     25  C21 UNL A   1      45.431  25.656  26.679  1.00  0.00    +0.000 C 
ATOM     26  N3  UNL A   1      45.839  26.867  26.968  1.00  0.00    +0.000 N 
ATOM     27  C22 UNL A   1      47.194  26.894  26.659  1.00  0.00    +0.000 C 
ATOM     28  C23 UNL A   1      48.057  27.938  26.722  1.00  0.00    +0.000 C 
ATOM     40  C30 UNL A   1      47.693  29.267  27.136  1.00  0.00    +0.000 C 
ATOM     41  C31 UNL A   1      48.480  30.406  27.173  1.00  0.00    +0.000 C 
ATOM     42  C32 UNL A   1      47.709  31.454  27.685  1.00  0.00    +0.000 C 
ATOM     43  C33 UNL A   1      46.428  30.981  27.923  1.00  0.00    +0.000 C 
ATOM     44  N4  UNL A   1      46.434  29.636  27.587  1.00  0.00    +0.000 N 
ATOM     45  C34 UNL A   1      45.284  31.701  28.421  1.00  0.00    +0.000 C 
ATOM     57  C41 UNL A   1      44.056  31.163  28.622  1.00  0.00    +0.000 C 
ATOM     58  N5  UNL A   1      43.627  29.861  28.402  1.00  0.00    +0.000 N 
ATOM     59  C42 UNL A   1      42.367  29.831  28.760  1.00  0.00    +0.000 C 
ATOM     60  C43 UNL A   1      41.391  28.686  28.708  1.00  0.00    +0.000 C 
ATOM     72  C50 UNL A   1      41.795  27.495  28.225  1.00  0.00    +0.000 C 
ATOM     73  C51 UNL A   1      40.962  26.303  28.101  1.00  0.00    +0.000 C 
ATOM     74  C52 UNL A   1      41.703  25.298  27.610  1.00  0.00    +0.000 C 
ATOM     75  C53 UNL A   1      43.059  25.782  27.353  1.00  0.00    +0.000 C 
ATOM     76  N6  UNL A   1      43.022  27.097  27.749  1.00  0.00    +0.000 N 
ATOM     77  C54 UNL A   1      41.860  31.110  29.275  1.00  0.00    +0.000 C 
ATOM     78  C55 UNL A   1      42.917  31.898  29.132  1.00  0.00    +0.000 C 
ATOM     79  C56 UNL A   1      47.550  25.566  26.210  1.00  0.00    +0.000 C 
ATOM     80  C57 UNL A   1      46.484  24.784  26.136  1.00  0.00    +0.000 C 
BRANCH   28   29
ATOM     33  F2  UNL A   1      52.739  26.998  27.824  1.00  0.00    +0.000 F 
ATOM     34  C27 UNL A   1      52.134  27.166  25.549  1.00  0.00    +0.000 C 
ATOM     35  F3  UNL A   1      53.402  26.932  25.180  1.00  0.00    +0.000 F 
ATOM     36  C28 UNL A   1      51.162  27.393  24.586  1.00  0.00    +0.000 C 
ATOM     37  F4  UNL A   1      51.485  27.359  23.286  1.00  0.00    +0.000 F 
ATOM     38  C29 UNL A   1      49.849  27.661  24.970  1.00  0.00    +0.000 C 
ATOM     39  F5  UNL A   1      48.935  27.893  24.015  1.00  0.00    +0.000 F 
ATOM     29  C24 UNL A   1      49.482  27.683  26.323  1.00  0.00    +0.000 C 
ATOM     30  C25 UNL A   1      50.478  27.426  27.277  1.00  0.00    +0.000 C 
ATOM     31  F1  UNL A   1      50.181  27.446  28.585  1.00  0.00    +0.000 F 
ATOM     32  C26 UNL A   1      51.796  27.189  26.892  1.00  0.00    +0.000 C 
ENDBRANCH   28   29
BRANCH   45   46
ATOM     46  C35 UNL A   1      45.453  33.161  28.718  1.00  0.00    +0.000 C 
ATOM     47  C36 UNL A   1      45.177  34.144  27.756  1.00  0.00    +0.000 C 
ATOM     48  F6  UNL A   1      44.803  33.791  26.517  1.00  0.00    +0.000 F 
ATOM     49  C37 UNL A   1      45.320  35.498  28.054  1.00  0.00    +0.000 C 
ATOM     50  F7  UNL A   1      45.094  36.417  27.107  1.00  0.00    +0.000 F 
ATOM     51  C38 UNL A   1      45.709  35.892  29.326  1.00  0.00    +0.000 C 
ATOM     52  F8  UNL A   1      45.839  37.195  29.613  1.00  0.00    +0.000 F 
ATOM     53  C39 UNL A   1      45.970  34.938  30.297  1.00  0.00    +0.000 C 
ATOM     54  F9  UNL A   1      46.334  35.319  31.529  1.00  0.00    +0.000 F 
ATOM     55  C40 UNL A   1      45.856  33.584  29.994  1.00  0.00    +0.000 C 
ATOM     56  F10 UNL A   1      46.126  32.684  30.951  1.00  0.00    +0.000 F 
ENDBRANCH   45   46
BRANCH   60   61
ATOM     65  F12 UNL A   1      37.986  28.581  32.200  1.00  0.00    +0.000 F 
ATOM     66  C47 UNL A   1      37.324  29.186  30.016  1.00  0.00    +0.000 C 
ATOM     67  F13 UNL A   1      36.056  29.328  30.423  1.00  0.00    +0.000 F 
ATOM     68  C48 UNL A   1      37.657  29.400  28.686  1.00  0.00    +0.000 C 
ATOM     69  F14 UNL A   1      36.712  29.770  27.811  1.00  0.00    +0.000 F 
ATOM     70  C49 UNL A   1      38.971  29.229  28.258  1.00  0.00    +0.000 C 
ATOM     71  F15 UNL A   1      39.262  29.429  26.964  1.00  0.00    +0.000 F 
ATOM     61  C44 UNL A   1      39.985  28.865  29.156  1.00  0.00    +0.000 C 
ATOM     62  C45 UNL A   1      39.628  28.671  30.499  1.00  0.00    +0.000 C 
ATOM     63  F11 UNL A   1      40.557  28.301  31.391  1.00  0.00    +0.000 F 
ATOM     64  C46 UNL A   1      38.308  28.816  30.921  1.00  0.00    +0.000 C 
ENDBRANCH   60   61
ENDBRANCH   23   24
ENDBRANCH   18   20
ENDBRANCH   17   18
ENDBRANCH   16   17
ENDBRANCH   15   16
ENDBRANCH   14   15
ENDBRANCH   13   14
ENDBRANCH   12   13
ENDBRANCH   11   12
ENDBRANCH   10   11
ENDBRANCH    8   10
ENDBRANCH    7    8
BRANCH   85   86
ATOM    151  H46 UNL A   1      33.194  21.497  21.631  1.00  0.00    +0.000 H 
ATOM     86  C63 UNL A   1      32.900  22.526  21.636  1.00  0.00    +0.000 C 
ATOM    150  H45 UNL A   1      31.856  22.599  21.414  1.00  0.00    +0.000 H 
ATOM    152  H47 UNL A   1      33.461  23.060  20.897  1.00  0.00    +0.000 H 
ENDBRANCH   85   86
BRANCH   91   92
ATOM     92  C69 UNL A   1      30.485  26.318  25.699  1.00  0.00    +0.000 C 
ATOM    157  H52 UNL A   1      29.873  26.191  24.831  1.00  0.00    +0.000 H 
ATOM    158  H53 UNL A   1      30.291  27.276  26.135  1.00  0.00    +0.000 H 
ATOM    159  H54 UNL A   1      30.260  25.549  26.410  1.00  0.00    +0.000 H 
ENDBRANCH   91   92
BRANCH   95   96
ATOM    165  H60 UNL A   1      33.132  30.982  25.861  1.00  0.00    +0.000 H 
ATOM     96  O3  UNL A   1      32.828  30.317  26.499  1.00  0.00    +0.000 O 
ENDBRANCH   95   96
BRANCH   97   98
ATOM     98  C74 UNL A   1      30.810  29.296  24.723  1.00  0.00    +0.000 C 
ATOM    166  H61 UNL A   1      30.689  30.164  24.108  1.00  0.00    +0.000 H 
ATOM    167  H62 UNL A   1      30.581  29.545  25.738  1.00  0.00    +0.000 H 
ATOM    168  H63 UNL A   1      30.150  28.525  24.386  1.00  0.00    +0.000 H 
ENDBRANCH   97   98
BRANCH   97   99
ATOM    169  H64 UNL A   1      32.211  30.371  23.146  1.00  0.00    +0.000 H 
ATOM    170  H65 UNL A   1      33.358  29.104  22.789  1.00  0.00    +0.000 H 
ATOM     99  C75 UNL A   1      32.942  29.711  23.564  1.00  0.00    +0.000 C 
ATOM    171  H66 UNL A   1      33.719  30.286  24.024  1.00  0.00    +0.000 H 
ENDBRANCH   97   99
BRANCH  103  104
ATOM    177  H72 UNL A   1      30.326  23.337  23.636  1.00  0.00    +0.000 H 
ATOM    178  H73 UNL A   1      30.692  23.572  21.944  1.00  0.00    +0.000 H 
ATOM    179  H74 UNL A   1      30.106  24.908  22.905  1.00  0.00    +0.000 H 
ATOM    104  C80 UNL A   1      30.710  24.025  22.912  1.00  0.00    +0.000 C 
ENDBRANCH  103  104
TORSDOF 23
ENDMDL
MODEL 10
REMARK VINA RESULT:     -11.0     26.741     33.825
ROOT
ATOM      2  C2  UNL A   1      27.411  18.649   4.600  1.00  0.00    +0.000 C 
ATOM      3  C3  UNL A   1      28.676  18.221   3.785  1.00  0.00    +0.000 C 
ATOM      5  C5  UNL A   1      29.277  16.868   4.200  1.00  0.00    +0.000 C 
ATOM      6  C6  UNL A   1      29.337  16.584   5.685  1.00  0.00    +0.000 C 
ATOM      7  C7  UNL A   1      28.219  17.160   6.574  1.00  0.00    +0.000 C 
ATOM    146  H41 UNL A   1      29.816  17.982   7.772  1.00  0.00    +0.000 H 
ATOM    147  H42 UNL A   1      29.091  16.437   8.369  1.00  0.00    +0.000 H 
ATOM    148  H43 UNL A   1      28.829  18.556   9.746  1.00  0.00    +0.000 H 
ATOM    149  H44 UNL A   1      27.452  17.431   9.436  1.00  0.00    +0.000 H 
ATOM    153  H48 UNL A   1      25.007  18.604   6.000  1.00  0.00    +0.000 H 
ATOM    154  H49 UNL A   1      23.755  17.661   7.904  1.00  0.00    +0.000 H 
ATOM    155  H50 UNL A   1      23.722  19.417   8.101  1.00  0.00    +0.000 H 
ATOM    156  H51 UNL A   1      25.609  17.520   9.511  1.00  0.00    +0.000 H 
ATOM    160  H55 UNL A   1      24.717  15.967  10.509  1.00  0.00    +0.000 H 
ATOM    161  H56 UNL A   1      23.155  16.342   9.734  1.00  0.00    +0.000 H 
ATOM    162  H57 UNL A   1      22.970  14.846  11.677  1.00  0.00    +0.000 H 
ATOM    163  H58 UNL A   1      22.054  16.365  11.792  1.00  0.00    +0.000 H 
ATOM    164  H59 UNL A   1      24.618  15.717  13.147  1.00  0.00    +0.000 H 
ATOM    172  H67 UNL A   1      25.634  17.509  12.043  1.00  0.00    +0.000 H 
ATOM    173  H68 UNL A   1      25.880  19.738  13.127  1.00  0.00    +0.000 H 
ATOM    174  H69 UNL A   1      24.709  20.351  11.990  1.00  0.00    +0.000 H 
ATOM    175  H70 UNL A   1      27.266  18.943  11.253  1.00  0.00    +0.000 H 
ATOM    176  H71 UNL A   1      26.986  20.696  11.198  1.00  0.00    +0.000 H 
ATOM    180  H75 UNL A   1      28.447  19.335   6.134  1.00  0.00    +0.000 H 
ATOM     83  C60 UNL A   1      28.929  17.414   7.963  1.00  0.00    +0.000 C 
ATOM     84  C61 UNL A   1      28.128  18.159   9.042  1.00  0.00    +0.000 C 
ATOM     85  C62 UNL A   1      27.215  19.341   8.566  1.00  0.00    +0.000 C 
ATOM     87  C64 UNL A   1      26.651  18.957   7.167  1.00  0.00    +0.000 C 
ATOM     88  C65 UNL A   1      25.341  18.700   6.972  1.00  0.00    +0.000 C 
ATOM     89  C66 UNL A   1      24.337  18.541   8.086  1.00  0.00    +0.000 C 
ATOM     90  C67 UNL A   1      25.019  18.412   9.474  1.00  0.00    +0.000 C 
ATOM     91  C68 UNL A   1      24.074  18.016  10.687  1.00  0.00    +0.000 C 
ATOM     93  C70 UNL A   1      23.782  16.481  10.591  1.00  0.00    +0.000 C 
ATOM     94  C71 UNL A   1      23.023  15.910  11.787  1.00  0.00    +0.000 C 
ATOM     95  C72 UNL A   1      23.677  16.225  13.133  1.00  0.00    +0.000 C 
ATOM     97  C73 UNL A   1      24.057  17.724  13.345  1.00  0.00    +0.000 C 
ATOM    100  C76 UNL A   1      24.825  18.208  12.057  1.00  0.00    +0.000 C 
ATOM    101  C77 UNL A   1      25.456  19.602  12.153  1.00  0.00    +0.000 C 
ATOM    102  C78 UNL A   1      26.552  19.723  11.093  1.00  0.00    +0.000 C 
ATOM    103  C79 UNL A   1      26.021  19.614   9.640  1.00  0.00    +0.000 C 
ATOM    105  C81 UNL A   1      27.711  18.560   6.120  1.00  0.00    +0.000 C 
ATOM    109  H4  UNL A   1      26.608  17.981   4.366  1.00  0.00    +0.000 H 
ATOM    110  H5  UNL A   1      29.353  19.013   4.030  1.00  0.00    +0.000 H 
ATOM    114  H9  UNL A   1      30.276  16.825   3.819  1.00  0.00    +0.000 H 
ATOM    115  H10 UNL A   1      28.616  16.129   3.796  1.00  0.00    +0.000 H 
ATOM    116  H11 UNL A   1      30.265  16.974   6.046  1.00  0.00    +0.000 H 
ATOM    117  H12 UNL A   1      29.220  15.522   5.760  1.00  0.00    +0.000 H 
ENDROOT
BRANCH    2    1
ATOM      1  C1  UNL A   1      26.963  20.068   4.210  1.00  0.00    +0.000 C 
ATOM    106  H1  UNL A   1      27.569  20.786   4.722  1.00  0.00    +0.000 H 
ATOM    107  H2  UNL A   1      25.938  20.205   4.485  1.00  0.00    +0.000 H 
ATOM    108  H3  UNL A   1      27.070  20.199   3.154  1.00  0.00    +0.000 H 
ENDBRANCH    2    1
BRANCH    3    4
ATOM    113  H8  UNL A   1      29.023  18.930   1.793  1.00  0.00    +0.000 H 
ATOM      4  C4  UNL A   1      28.463  18.151   2.268  1.00  0.00    +0.000 C 
ATOM    111  H6  UNL A   1      27.423  18.275   2.047  1.00  0.00    +0.000 H 
ATOM    112  H7  UNL A   1      28.794  17.201   1.904  1.00  0.00    +0.000 H 
ENDBRANCH    3    4
BRANCH    7    8
ATOM      9  O1  UNL A   1      26.875  15.588   7.894  1.00  0.00    +0.000 O 
ATOM      8  C8  UNL A   1      27.060  16.111   6.788  1.00  0.00    +0.000 C 
BRANCH    8   10
ATOM     10  N1  UNL A   1      26.146  15.739   5.832  1.00  0.00    +0.000 N 
ATOM    118  H13 UNL A   1      26.394  15.922   4.897  1.00  0.00    +0.000 H 
BRANCH   10   11
ATOM     11  C9  UNL A   1      24.857  15.106   6.041  1.00  0.00    +0.000 C 
ATOM    119  H14 UNL A   1      24.530  15.338   7.033  1.00  0.00    +0.000 H 
ATOM    120  H15 UNL A   1      25.004  14.059   5.881  1.00  0.00    +0.000 H 
BRANCH   11   12
ATOM    121  H16 UNL A   1      24.230  16.158   4.319  1.00  0.00    +0.000 H 
ATOM    122  H17 UNL A   1      23.036  16.030   5.680  1.00  0.00    +0.000 H 
ATOM     12  C10 UNL A   1      23.763  15.546   5.062  1.00  0.00    +0.000 C 
BRANCH   12   13
ATOM    123  H18 UNL A   1      22.912  14.760   3.295  1.00  0.00    +0.000 H 
ATOM    124  H19 UNL A   1      22.047  14.407   4.862  1.00  0.00    +0.000 H 
ATOM     13  C11 UNL A   1      22.969  14.459   4.321  1.00  0.00    +0.000 C 
BRANCH   13   14
ATOM    126  H21 UNL A   1      23.582  12.761   3.301  1.00  0.00    +0.000 H 
ATOM    125  H20 UNL A   1      24.380  13.004   4.913  1.00  0.00    +0.000 H 
ATOM     14  C12 UNL A   1      23.479  13.015   4.336  1.00  0.00    +0.000 C 
BRANCH   14   15
ATOM    127  H22 UNL A   1      22.495  11.160   4.161  1.00  0.00    +0.000 H 
ATOM     15  C13 UNL A   1      22.566  11.930   4.901  1.00  0.00    +0.000 C 
ATOM    128  H23 UNL A   1      21.656  12.444   5.131  1.00  0.00    +0.000 H 
BRANCH   15   16
ATOM    129  H24 UNL A   1      24.022  11.350   6.323  1.00  0.00    +0.000 H 
ATOM    130  H25 UNL A   1      22.629  10.248   6.146  1.00  0.00    +0.000 H 
ATOM     16  C14 UNL A   1      22.962  11.263   6.210  1.00  0.00    +0.000 C 
BRANCH   16   17
ATOM     17  N2  UNL A   1      22.335  11.826   7.386  1.00  0.00    +0.000 N 
ATOM    131  H26 UNL A   1      21.674  11.246   7.829  1.00  0.00    +0.000 H 
BRANCH   17   18
ATOM     18  C15 UNL A   1      22.528  13.057   7.978  1.00  0.00    +0.000 C 
ATOM     19  O2  UNL A   1      23.539  13.262   8.633  1.00  0.00    +0.000 O 
BRANCH   18   20
ATOM    132  H27 UNL A   1      20.238  12.947   6.651  1.00  0.00    +0.000 H 
ATOM    133  H28 UNL A   1      18.569  14.676   6.323  1.00  0.00    +0.000 H 
ATOM    144  H39 UNL A   1      20.894  17.340   8.607  1.00  0.00    +0.000 H 
ATOM     81  C58 UNL A   1      20.762  16.416   8.167  1.00  0.00    +0.000 C 
ATOM     82  C59 UNL A   1      21.761  15.448   8.277  1.00  0.00    +0.000 C 
ATOM    145  H40 UNL A   1      22.661  15.685   8.725  1.00  0.00    +0.000 H 
ATOM     20  C16 UNL A   1      21.547  14.158   7.784  1.00  0.00    +0.000 C 
ATOM     21  C17 UNL A   1      20.382  13.884   7.058  1.00  0.00    +0.000 C 
ATOM     22  C18 UNL A   1      19.412  14.877   6.884  1.00  0.00    +0.000 C 
ATOM     23  C19 UNL A   1      19.578  16.143   7.465  1.00  0.00    +0.000 C 
BRANCH   23   24
ATOM    134  H29 UNL A   1      11.840  19.479  10.258  1.00  0.00    +0.000 H 
ATOM    135  H30 UNL A   1      11.438  21.543   8.715  1.00  0.00    +0.000 H 
ATOM    136  H31 UNL A   1      14.976  19.725   7.562  1.00  0.00    +0.000 H 
ATOM    137  H32 UNL A   1      20.217  19.665   3.924  1.00  0.00    +0.000 H 
ATOM    138  H33 UNL A   1      20.580  17.626   5.394  1.00  0.00    +0.000 H 
ATOM    139  H34 UNL A   1      16.988  19.386   6.525  1.00  0.00    +0.000 H 
ATOM    140  H35 UNL A   1      16.333  23.303   3.434  1.00  0.00    +0.000 H 
ATOM    141  H36 UNL A   1      14.220  23.845   4.772  1.00  0.00    +0.000 H 
ATOM    142  H37 UNL A   1      15.585  15.641  10.406  1.00  0.00    +0.000 H 
ATOM    143  H38 UNL A   1      17.937  15.365   9.433  1.00  0.00    +0.000 H 
ATOM     24  C20 UNL A   1      18.532  17.193   7.330  1.00  0.00    +0.000 C 
ATOM     25  C21 UNL A   1      17.306  17.161   8.202  1.00  0.00    +0.000 C 
ATOM     26  N3  UNL A   1      16.262  17.952   8.197  1.00  0.00    +0.000 N 
ATOM     27  C22 UNL A   1      15.405  17.454   9.171  1.00  0.00    +0.000 C 
ATOM     28  C23 UNL A   1      14.219  17.957   9.593  1.00  0.00    +0.000 C 
ATOM     40  C30 UNL A   1      13.618  19.159   9.079  1.00  0.00    +0.000 C 
ATOM     41  C31 UNL A   1      12.451  19.784   9.485  1.00  0.00    +0.000 C 
ATOM     42  C32 UNL A   1      12.245  20.900   8.668  1.00  0.00    +0.000 C 
ATOM     43  C33 UNL A   1      13.306  20.998   7.783  1.00  0.00    +0.000 C 
ATOM     44  N4  UNL A   1      14.139  19.921   8.042  1.00  0.00    +0.000 N 
ATOM     45  C34 UNL A   1      13.545  21.999   6.775  1.00  0.00    +0.000 C 
ATOM     57  C41 UNL A   1      14.618  22.028   5.948  1.00  0.00    +0.000 C 
ATOM     58  N5  UNL A   1      15.692  21.150   5.882  1.00  0.00    +0.000 N 
ATOM     59  C42 UNL A   1      16.460  21.592   4.915  1.00  0.00    +0.000 C 
ATOM     60  C43 UNL A   1      17.775  21.048   4.422  1.00  0.00    +0.000 C 
ATOM     72  C50 UNL A   1      18.307  19.965   5.020  1.00  0.00    +0.000 C 
ATOM     73  C51 UNL A   1      19.575  19.337   4.662  1.00  0.00    +0.000 C 
ATOM     74  C52 UNL A   1      19.772  18.266   5.446  1.00  0.00    +0.000 C 
ATOM     75  C53 UNL A   1      18.657  18.148   6.387  1.00  0.00    +0.000 C 
ATOM     76  N6  UNL A   1      17.835  19.199   6.060  1.00  0.00    +0.000 N 
ATOM     77  C54 UNL A   1      15.942  22.789   4.239  1.00  0.00    +0.000 C 
ATOM     78  C55 UNL A   1      14.840  23.036   4.933  1.00  0.00    +0.000 C 
ATOM     79  C56 UNL A   1      16.026  16.265   9.711  1.00  0.00    +0.000 C 
ATOM     80  C57 UNL A   1      17.233  16.080   9.197  1.00  0.00    +0.000 C 
BRANCH   28   29
ATOM     33  F2  UNL A   1      13.288  17.033  14.316  1.00  0.00    +0.000 F 
ATOM     34  C27 UNL A   1      12.092  15.823  12.679  1.00  0.00    +0.000 C 
ATOM     35  F3  UNL A   1      11.433  15.154  13.635  1.00  0.00    +0.000 F 
ATOM     36  C28 UNL A   1      11.845  15.548  11.343  1.00  0.00    +0.000 C 
ATOM     37  F4  UNL A   1      10.932  14.626  11.006  1.00  0.00    +0.000 F 
ATOM     38  C29 UNL A   1      12.548  16.225  10.349  1.00  0.00    +0.000 C 
ATOM     39  F5  UNL A   1      12.298  15.925   9.065  1.00  0.00    +0.000 F 
ATOM     29  C24 UNL A   1      13.494  17.208  10.675  1.00  0.00    +0.000 C 
ATOM     30  C25 UNL A   1      13.709  17.487  12.033  1.00  0.00    +0.000 C 
ATOM     31  F1  UNL A   1      14.611  18.409  12.399  1.00  0.00    +0.000 F 
ATOM     32  C26 UNL A   1      13.027  16.786  13.025  1.00  0.00    +0.000 C 
ENDBRANCH   28   29
BRANCH   45   46
ATOM     46  C35 UNL A   1      12.544  23.109   6.643  1.00  0.00    +0.000 C 
ATOM     47  C36 UNL A   1      11.520  23.065   5.686  1.00  0.00    +0.000 C 
ATOM     48  F6  UNL A   1      11.445  22.040   4.824  1.00  0.00    +0.000 F 
ATOM     49  C37 UNL A   1      10.586  24.095   5.589  1.00  0.00    +0.000 C 
ATOM     50  F7  UNL A   1       9.643  24.054   4.639  1.00  0.00    +0.000 F 
ATOM     51  C38 UNL A   1      10.642  25.169   6.465  1.00  0.00    +0.000 C 
ATOM     52  F8  UNL A   1       9.738  26.155   6.375  1.00  0.00    +0.000 F 
ATOM     53  C39 UNL A   1      11.636  25.224   7.430  1.00  0.00    +0.000 C 
ATOM     54  F9  UNL A   1      11.683  26.255   8.285  1.00  0.00    +0.000 F 
ATOM     55  C40 UNL A   1      12.587  24.211   7.511  1.00  0.00    +0.000 C 
ATOM     56  F10 UNL A   1      13.543  24.297   8.447  1.00  0.00    +0.000 F 
ENDBRANCH   45   46
BRANCH   60   61
ATOM     65  F12 UNL A   1      20.753  24.532   2.755  1.00  0.00    +0.000 F 
ATOM     66  C47 UNL A   1      19.866  22.989   1.204  1.00  0.00    +0.000 C 
ATOM     67  F13 UNL A   1      20.508  23.604   0.201  1.00  0.00    +0.000 F 
ATOM     68  C48 UNL A   1      19.060  21.890   0.945  1.00  0.00    +0.000 C 
ATOM     69  F14 UNL A   1      18.940  21.429  -0.307  1.00  0.00    +0.000 F 
ATOM     70  C49 UNL A   1      18.374  21.265   1.984  1.00  0.00    +0.000 C 
ATOM     71  F15 UNL A   1      17.590  20.214   1.702  1.00  0.00    +0.000 F 
ATOM     61  C44 UNL A   1      18.500  21.712   3.308  1.00  0.00    +0.000 C 
ATOM     62  C45 UNL A   1      19.334  22.814   3.548  1.00  0.00    +0.000 C 
ATOM     63  F11 UNL A   1      19.469  23.291   4.793  1.00  0.00    +0.000 F 
ATOM     64  C46 UNL A   1      19.998  23.455   2.504  1.00  0.00    +0.000 C 
ENDBRANCH   60   61
ENDBRANCH   23   24
ENDBRANCH   18   20
ENDBRANCH   17   18
ENDBRANCH   16   17
ENDBRANCH   15   16
ENDBRANCH   14   15
ENDBRANCH   13   14
ENDBRANCH   12   13
ENDBRANCH   11   12
ENDBRANCH   10   11
ENDBRANCH    8   10
ENDBRANCH    7    8
BRANCH   85   86
ATOM    151  H46 UNL A   1      27.562  21.370   7.911  1.00  0.00    +0.000 H 
ATOM     86  C63 UNL A   1      28.100  20.611   8.441  1.00  0.00    +0.000 C 
ATOM    150  H45 UNL A   1      28.350  20.969   9.418  1.00  0.00    +0.000 H 
ATOM    152  H47 UNL A   1      28.996  20.371   7.908  1.00  0.00    +0.000 H 
ENDBRANCH   85   86
BRANCH   91   92
ATOM     92  C69 UNL A   1      22.736  18.774  10.582  1.00  0.00    +0.000 C 
ATOM    157  H52 UNL A   1      22.135  18.331   9.816  1.00  0.00    +0.000 H 
ATOM    158  H53 UNL A   1      22.926  19.799  10.340  1.00  0.00    +0.000 H 
ATOM    159  H54 UNL A   1      22.220  18.717  11.518  1.00  0.00    +0.000 H 
ENDBRANCH   91   92
BRANCH   95   96
ATOM    165  H60 UNL A   1      22.642  14.808  14.042  1.00  0.00    +0.000 H 
ATOM     96  O3  UNL A   1      22.832  15.749  14.181  1.00  0.00    +0.000 O 
ENDBRANCH   95   96
BRANCH   97   98
ATOM     98  C74 UNL A   1      22.835  18.587  13.725  1.00  0.00    +0.000 C 
ATOM    166  H61 UNL A   1      22.826  18.745  14.784  1.00  0.00    +0.000 H 
ATOM    167  H62 UNL A   1      21.938  18.084  13.433  1.00  0.00    +0.000 H 
ATOM    168  H63 UNL A   1      22.896  19.531  13.225  1.00  0.00    +0.000 H 
ENDBRANCH   97   98
BRANCH   97   99
ATOM    169  H64 UNL A   1      25.899  17.246  14.372  1.00  0.00    +0.000 H 
ATOM    170  H65 UNL A   1      24.508  17.339  15.425  1.00  0.00    +0.000 H 
ATOM     99  C75 UNL A   1      24.998  17.783  14.583  1.00  0.00    +0.000 C 
ATOM    171  H66 UNL A   1      25.234  18.803  14.804  1.00  0.00    +0.000 H 
ENDBRANCH   97   99
BRANCH  103  104
ATOM    177  H72 UNL A   1      24.687  20.880   8.493  1.00  0.00    +0.000 H 
ATOM    178  H73 UNL A   1      26.064  21.726   9.156  1.00  0.00    +0.000 H 
ATOM    179  H74 UNL A   1      24.736  21.269  10.195  1.00  0.00    +0.000 H 
ATOM    104  C80 UNL A   1      25.322  20.980   9.348  1.00  0.00    +0.000 C 
ENDBRANCH  103  104
TORSDOF 23
ENDMDL
