MODEL 1
REMARK VINA RESULT:     -12.0      0.000      0.000
ROOT
ATOM    129  H34 UNL A   1      41.270  32.574  30.794  1.00  0.00    +0.000 H 
ATOM    130  H35 UNL A   1      43.259  29.853  28.361  1.00  0.00    +0.000 H 
ATOM    131  H36 UNL A   1      47.556  32.098  27.039  1.00  0.00    +0.000 H 
ATOM    132  H37 UNL A   1      48.093  29.980  25.704  1.00  0.00    +0.000 H 
ATOM    133  H38 UNL A   1      39.625  25.644  28.973  1.00  0.00    +0.000 H 
ATOM    134  H39 UNL A   1      38.942  27.838  30.107  1.00  0.00    +0.000 H 
ATOM     37  C29 UNL A   1      40.886  29.915  29.852  1.00  0.00    +0.000 C 
ATOM     38  C30 UNL A   1      40.929  28.534  29.266  1.00  0.00    +0.000 C 
ATOM     39  N3  UNL A   1      41.852  27.990  28.512  1.00  0.00    +0.000 N 
ATOM     40  C31 UNL A   1      41.425  26.694  28.260  1.00  0.00    +0.000 C 
ATOM     41  C32 UNL A   1      42.031  25.741  27.511  1.00  0.00    +0.000 C 
ATOM     53  C39 UNL A   1      43.272  25.928  26.804  1.00  0.00    +0.000 C 
ATOM     54  C40 UNL A   1      43.928  25.043  25.965  1.00  0.00    +0.000 C 
ATOM     55  C41 UNL A   1      45.125  25.636  25.550  1.00  0.00    +0.000 C 
ATOM     56  C42 UNL A   1      45.194  26.907  26.095  1.00  0.00    +0.000 C 
ATOM     57  N4  UNL A   1      44.049  27.075  26.859  1.00  0.00    +0.000 N 
ATOM     58  C43 UNL A   1      46.231  27.894  25.937  1.00  0.00    +0.000 C 
ATOM     70  C50 UNL A   1      46.200  29.146  26.456  1.00  0.00    +0.000 C 
ATOM     71  N5  UNL A   1      45.222  29.740  27.239  1.00  0.00    +0.000 N 
ATOM     72  C51 UNL A   1      45.666  30.941  27.516  1.00  0.00    +0.000 C 
ATOM     73  C52 UNL A   1      45.017  32.025  28.327  1.00  0.00    +0.000 C 
ATOM     85  C59 UNL A   1      43.816  31.791  28.886  1.00  0.00    +0.000 C 
ATOM     86  C60 UNL A   1      43.072  32.741  29.703  1.00  0.00    +0.000 C 
ATOM     87  C61 UNL A   1      41.963  32.145  30.160  1.00  0.00    +0.000 C 
ATOM     88  C62 UNL A   1      41.888  30.785  29.618  1.00  0.00    +0.000 C 
ATOM     89  N6  UNL A   1      43.028  30.666  28.866  1.00  0.00    +0.000 N 
ATOM     90  C63 UNL A   1      46.985  31.243  26.946  1.00  0.00    +0.000 C 
ATOM     91  C64 UNL A   1      47.249  30.129  26.278  1.00  0.00    +0.000 C 
ATOM     92  C65 UNL A   1      40.166  26.522  28.955  1.00  0.00    +0.000 C 
ATOM     93  C66 UNL A   1      39.798  27.643  29.565  1.00  0.00    +0.000 C 
ATOM    125  H30 UNL A   1      43.591  24.106  25.691  1.00  0.00    +0.000 H 
ATOM    126  H31 UNL A   1      45.836  25.200  24.942  1.00  0.00    +0.000 H 
ATOM    127  H32 UNL A   1      43.821  27.888  27.366  1.00  0.00    +0.000 H 
ATOM    128  H33 UNL A   1      43.355  33.714  29.900  1.00  0.00    +0.000 H 
ENDROOT
BRANCH   37   36
ATOM     33  C25 UNL A   1      37.671  31.423  32.247  1.00  0.00    +0.000 C 
ATOM     34  C26 UNL A   1      37.698  31.654  30.870  1.00  0.00    +0.000 C 
ATOM     35  C27 UNL A   1      38.696  31.080  30.089  1.00  0.00    +0.000 C 
ATOM     36  C28 UNL A   1      39.747  30.368  30.690  1.00  0.00    +0.000 C 
ATOM    135  H40 UNL A   1      40.529  29.691  32.536  1.00  0.00    +0.000 H 
ATOM    136  H41 UNL A   1      38.698  30.557  33.878  1.00  0.00    +0.000 H 
ATOM    123  H28 UNL A   1      36.979  32.251  30.432  1.00  0.00    +0.000 H 
ATOM    124  H29 UNL A   1      38.663  31.178  29.063  1.00  0.00    +0.000 H 
ATOM     94  C67 UNL A   1      39.752  30.196  32.081  1.00  0.00    +0.000 C 
ATOM     95  C68 UNL A   1      38.705  30.707  32.857  1.00  0.00    +0.000 C 
BRANCH   33    2
ATOM      1  O1  UNL A   1      36.783  32.217  34.266  1.00  0.00    +0.000 O 
ATOM      2  C1  UNL A   1      36.575  31.961  33.088  1.00  0.00    +0.000 C 
BRANCH    2    3
ATOM      3  N1  UNL A   1      35.326  32.156  32.545  1.00  0.00    +0.000 N 
ATOM     96  H1  UNL A   1      34.964  31.398  32.032  1.00  0.00    +0.000 H 
BRANCH    3    4
ATOM     97  H2  UNL A   1      34.540  33.737  33.608  1.00  0.00    +0.000 H 
ATOM     98  H3  UNL A   1      33.470  33.011  32.399  1.00  0.00    +0.000 H 
ATOM      4  C2  UNL A   1      34.468  33.325  32.623  1.00  0.00    +0.000 C 
BRANCH    4    5
ATOM     99  H4  UNL A   1      35.788  34.123  31.178  1.00  0.00    +0.000 H 
ATOM    100  H5  UNL A   1      34.890  35.318  32.163  1.00  0.00    +0.000 H 
ATOM      5  C3  UNL A   1      34.852  34.398  31.617  1.00  0.00    +0.000 C 
BRANCH    5    6
ATOM    102  H7  UNL A   1      32.971  34.073  30.771  1.00  0.00    +0.000 H 
ATOM    101  H6  UNL A   1      33.695  35.672  30.384  1.00  0.00    +0.000 H 
ATOM      6  C4  UNL A   1      33.846  34.618  30.486  1.00  0.00    +0.000 C 
BRANCH    6    7
ATOM    103  H8  UNL A   1      35.101  34.615  28.779  1.00  0.00    +0.000 H 
ATOM      7  C5  UNL A   1      34.245  34.067  29.113  1.00  0.00    +0.000 C 
ATOM    104  H9  UNL A   1      33.375  34.183  28.501  1.00  0.00    +0.000 H 
BRANCH    7    8
ATOM    105  H10 UNL A   1      34.044  32.074  29.815  1.00  0.00    +0.000 H 
ATOM    106  H11 UNL A   1      35.655  32.519  29.156  1.00  0.00    +0.000 H 
ATOM      8  C6  UNL A   1      34.593  32.574  29.043  1.00  0.00    +0.000 C 
BRANCH    8    9
ATOM      9  C7  UNL A   1      34.280  31.878  27.721  1.00  0.00    +0.000 C 
ATOM    107  H12 UNL A   1      35.138  31.949  27.086  1.00  0.00    +0.000 H 
ATOM    108  H13 UNL A   1      33.427  32.367  27.296  1.00  0.00    +0.000 H 
BRANCH    9   10
ATOM     10  N2  UNL A   1      33.941  30.483  27.883  1.00  0.00    +0.000 N 
ATOM    109  H14 UNL A   1      33.924  30.151  28.810  1.00  0.00    +0.000 H 
BRANCH   10   11
ATOM     11  C8  UNL A   1      33.642  29.565  26.920  1.00  0.00    +0.000 C 
ATOM     12  O2  UNL A   1      34.571  28.893  26.470  1.00  0.00    +0.000 O 
BRANCH   11   13
ATOM     13  C9  UNL A   1      32.183  29.429  26.428  1.00  0.00    +0.000 C 
ATOM     14  C10 UNL A   1      32.073  29.550  24.913  1.00  0.00    +0.000 C 
ATOM    110  H15 UNL A   1      31.649  30.237  26.884  1.00  0.00    +0.000 H 
ATOM    111  H16 UNL A   1      33.046  29.538  24.470  1.00  0.00    +0.000 H 
ATOM     15  C11 UNL A   1      31.261  28.342  24.442  1.00  0.00    +0.000 C 
ATOM    112  H17 UNL A   1      31.603  30.468  24.631  1.00  0.00    +0.000 H 
ATOM    118  H23 UNL A   1      30.351  26.912  25.648  1.00  0.00    +0.000 H 
ATOM     24  C18 UNL A   1      31.310  27.387  25.667  1.00  0.00    +0.000 C 
ATOM     32  O4  UNL A   1      31.599  28.189  26.828  1.00  0.00    +0.000 O 
BRANCH   15   16
ATOM    113  H18 UNL A   1      32.565  28.391  22.938  1.00  0.00    +0.000 H 
ATOM     16  O3  UNL A   1      31.969  27.738  23.338  1.00  0.00    +0.000 O 
ENDBRANCH   15   16
BRANCH   15   17
ATOM     17  C12 UNL A   1      29.927  28.836  23.843  1.00  0.00    +0.000 C 
ATOM     18  C13 UNL A   1      29.834  30.245  23.649  1.00  0.00    +0.000 C 
ATOM     19  C14 UNL A   1      28.721  30.863  23.078  1.00  0.00    +0.000 C 
ATOM    114  H19 UNL A   1      30.627  30.836  23.946  1.00  0.00    +0.000 H 
ATOM     21  C16 UNL A   1      27.687  28.716  22.864  1.00  0.00    +0.000 C 
ATOM     22  C17 UNL A   1      28.789  28.092  23.480  1.00  0.00    +0.000 C 
ATOM     23 Cl1  UNL A   1      28.547  26.414  23.804  1.00  0.00    +0.000 Cl
ATOM    115  H20 UNL A   1      28.695  31.889  22.968  1.00  0.00    +0.000 H 
ATOM     20  C15 UNL A   1      27.652  30.092  22.659  1.00  0.00    +0.000 C 
ATOM    117  H22 UNL A   1      26.886  28.140  22.559  1.00  0.00    +0.000 H 
ATOM    116  H21 UNL A   1      26.838  30.531  22.200  1.00  0.00    +0.000 H 
ENDBRANCH   15   17
BRANCH   24   25
ATOM    122  H27 UNL A   1      32.477  22.920  26.433  1.00  0.00    +0.000 H 
ATOM    121  H26 UNL A   1      34.817  23.301  25.928  1.00  0.00    +0.000 H 
ATOM    119  H24 UNL A   1      33.951  27.299  24.994  1.00  0.00    +0.000 H 
ATOM    120  H25 UNL A   1      35.541  25.489  25.179  1.00  0.00    +0.000 H 
ATOM     25  C19 UNL A   1      32.275  26.201  25.663  1.00  0.00    +0.000 C 
ATOM     26  C20 UNL A   1      33.629  26.375  25.323  1.00  0.00    +0.000 C 
ATOM     27  C21 UNL A   1      34.550  25.328  25.420  1.00  0.00    +0.000 C 
ATOM     28  C22 UNL A   1      34.135  24.070  25.839  1.00  0.00    +0.000 C 
ATOM     29  C23 UNL A   1      32.794  23.857  26.140  1.00  0.00    +0.000 C 
ATOM     30  C24 UNL A   1      31.869  24.906  26.049  1.00  0.00    +0.000 C 
ATOM     31 Cl2  UNL A   1      30.225  24.506  26.417  1.00  0.00    +0.000 Cl
ENDBRANCH   24   25
ENDBRANCH   11   13
ENDBRANCH   10   11
ENDBRANCH    9   10
ENDBRANCH    8    9
ENDBRANCH    7    8
ENDBRANCH    6    7
ENDBRANCH    5    6
ENDBRANCH    4    5
ENDBRANCH    3    4
ENDBRANCH    2    3
ENDBRANCH   33    2
ENDBRANCH   37   36
BRANCH   41   42
ATOM     42  C33 UNL A   1      41.375  24.394  27.414  1.00  0.00    +0.000 C 
ATOM     43  C34 UNL A   1      40.225  24.191  26.639  1.00  0.00    +0.000 C 
ATOM     44  F1  UNL A   1      39.621  25.230  26.042  1.00  0.00    +0.000 F 
ATOM     45  C35 UNL A   1      39.684  22.918  26.481  1.00  0.00    +0.000 C 
ATOM     46  F2  UNL A   1      38.573  22.748  25.750  1.00  0.00    +0.000 F 
ATOM     47  C36 UNL A   1      40.293  21.822  27.077  1.00  0.00    +0.000 C 
ATOM     48  F3  UNL A   1      39.783  20.594  26.907  1.00  0.00    +0.000 F 
ATOM     49  C37 UNL A   1      41.433  22.000  27.846  1.00  0.00    +0.000 C 
ATOM     50  F4  UNL A   1      42.031  20.942  28.411  1.00  0.00    +0.000 F 
ATOM     51  C38 UNL A   1      41.963  23.275  28.022  1.00  0.00    +0.000 C 
ATOM     52  F5  UNL A   1      43.070  23.416  28.768  1.00  0.00    +0.000 F 
ENDBRANCH   41   42
BRANCH   58   59
ATOM     65  F8  UNL A   1      50.783  26.516  22.894  1.00  0.00    +0.000 F 
ATOM     66  C48 UNL A   1      49.675  26.597  24.978  1.00  0.00    +0.000 C 
ATOM     67  F9  UNL A   1      50.732  26.031  25.577  1.00  0.00    +0.000 F 
ATOM     68  C49 UNL A   1      48.545  26.921  25.725  1.00  0.00    +0.000 C 
ATOM     69  F10 UNL A   1      48.538  26.647  27.039  1.00  0.00    +0.000 F 
ATOM     59  C44 UNL A   1      47.435  27.528  25.123  1.00  0.00    +0.000 C 
ATOM     60  C45 UNL A   1      47.494  27.797  23.747  1.00  0.00    +0.000 C 
ATOM     61  F6  UNL A   1      46.447  28.359  23.124  1.00  0.00    +0.000 F 
ATOM     62  C46 UNL A   1      48.613  27.446  22.999  1.00  0.00    +0.000 C 
ATOM     63  F7  UNL A   1      48.629  27.666  21.677  1.00  0.00    +0.000 F 
ATOM     64  C47 UNL A   1      49.705  26.852  23.615  1.00  0.00    +0.000 C 
ENDBRANCH   58   59
BRANCH   73   74
ATOM     74  C53 UNL A   1      45.687  33.334  28.535  1.00  0.00    +0.000 C 
ATOM     75  C54 UNL A   1      45.434  34.419  27.687  1.00  0.00    +0.000 C 
ATOM     76  F11 UNL A   1      44.588  34.280  26.656  1.00  0.00    +0.000 F 
ATOM     77  C55 UNL A   1      46.081  35.641  27.871  1.00  0.00    +0.000 C 
ATOM     78  F12 UNL A   1      45.856  36.649  27.017  1.00  0.00    +0.000 F 
ATOM     79  C56 UNL A   1      46.967  35.808  28.924  1.00  0.00    +0.000 C 
ATOM     80  F13 UNL A   1      47.585  36.983  29.102  1.00  0.00    +0.000 F 
ATOM     81  C57 UNL A   1      47.218  34.753  29.788  1.00  0.00    +0.000 C 
ATOM     82  F14 UNL A   1      48.061  34.915  30.817  1.00  0.00    +0.000 F 
ATOM     83  C58 UNL A   1      46.596  33.524  29.586  1.00  0.00    +0.000 C 
ATOM     84  F15 UNL A   1      46.869  32.516  30.429  1.00  0.00    +0.000 F 
ENDBRANCH   73   74
TORSDOF 18
ENDMDL
MODEL 2
REMARK VINA RESULT:     -11.9      4.038     10.220
ROOT
ATOM    129  H34 UNL A   1      42.979  24.199  26.429  1.00  0.00    +0.000 H 
ATOM    130  H35 UNL A   1      45.183  27.670  27.044  1.00  0.00    +0.000 H 
ATOM    131  H36 UNL A   1      42.007  30.943  29.153  1.00  0.00    +0.000 H 
ATOM    132  H37 UNL A   1      43.954  32.605  29.182  1.00  0.00    +0.000 H 
ATOM    133  H38 UNL A   1      50.121  25.612  25.406  1.00  0.00    +0.000 H 
ATOM    134  H39 UNL A   1      48.137  24.015  25.129  1.00  0.00    +0.000 H 
ATOM     37  C29 UNL A   1      45.664  25.081  26.083  1.00  0.00    +0.000 C 
ATOM     38  C30 UNL A   1      47.003  25.758  26.033  1.00  0.00    +0.000 C 
ATOM     39  N3  UNL A   1      47.323  26.972  26.404  1.00  0.00    +0.000 N 
ATOM     40  C31 UNL A   1      48.686  27.097  26.173  1.00  0.00    +0.000 C 
ATOM     41  C32 UNL A   1      49.478  28.176  26.380  1.00  0.00    +0.000 C 
ATOM     53  C39 UNL A   1      49.012  29.443  26.883  1.00  0.00    +0.000 C 
ATOM     54  C40 UNL A   1      49.727  30.615  27.062  1.00  0.00    +0.000 C 
ATOM     55  C41 UNL A   1      48.874  31.569  27.628  1.00  0.00    +0.000 C 
ATOM     56  C42 UNL A   1      47.617  31.005  27.761  1.00  0.00    +0.000 C 
ATOM     57  N4  UNL A   1      47.715  29.701  27.298  1.00  0.00    +0.000 N 
ATOM     58  C43 UNL A   1      46.416  31.607  28.280  1.00  0.00    +0.000 C 
ATOM     70  C50 UNL A   1      45.201  31.007  28.324  1.00  0.00    +0.000 C 
ATOM     71  N5  UNL A   1      44.845  29.730  27.919  1.00  0.00    +0.000 N 
ATOM     72  C51 UNL A   1      43.570  29.609  28.197  1.00  0.00    +0.000 C 
ATOM     73  C52 UNL A   1      42.660  28.437  27.968  1.00  0.00    +0.000 C 
ATOM     85  C59 UNL A   1      43.164  27.319  27.415  1.00  0.00    +0.000 C 
ATOM     86  C60 UNL A   1      42.406  26.104  27.143  1.00  0.00    +0.000 C 
ATOM     87  C61 UNL A   1      43.241  25.168  26.671  1.00  0.00    +0.000 C 
ATOM     88  C62 UNL A   1      44.586  25.738  26.552  1.00  0.00    +0.000 C 
ATOM     89  N6  UNL A   1      44.442  27.023  27.009  1.00  0.00    +0.000 N 
ATOM     90  C63 UNL A   1      42.973  30.797  28.820  1.00  0.00    +0.000 C 
ATOM     91  C64 UNL A   1      44.001  31.633  28.841  1.00  0.00    +0.000 C 
ATOM     92  C65 UNL A   1      49.141  25.827  25.644  1.00  0.00    +0.000 C 
ATOM     93  C66 UNL A   1      48.132  24.975  25.507  1.00  0.00    +0.000 C 
ATOM    125  H30 UNL A   1      50.720  30.761  26.818  1.00  0.00    +0.000 H 
ATOM    126  H31 UNL A   1      49.138  32.528  27.900  1.00  0.00    +0.000 H 
ATOM    127  H32 UNL A   1      46.972  29.055  27.266  1.00  0.00    +0.000 H 
ATOM    128  H33 UNL A   1      41.391  25.983  27.291  1.00  0.00    +0.000 H 
ENDROOT
BRANCH   37   36
ATOM     33  C25 UNL A   1      44.928  21.080  24.741  1.00  0.00    +0.000 C 
ATOM     34  C26 UNL A   1      44.641  22.169  23.915  1.00  0.00    +0.000 C 
ATOM     35  C27 UNL A   1      44.972  23.458  24.323  1.00  0.00    +0.000 C 
ATOM     36  C28 UNL A   1      45.482  23.685  25.613  1.00  0.00    +0.000 C 
ATOM    135  H40 UNL A   1      46.062  22.750  27.420  1.00  0.00    +0.000 H 
ATOM    136  H41 UNL A   1      45.635  20.488  26.642  1.00  0.00    +0.000 H 
ATOM    123  H28 UNL A   1      44.183  22.019  23.002  1.00  0.00    +0.000 H 
ATOM    124  H29 UNL A   1      44.842  24.250  23.676  1.00  0.00    +0.000 H 
ATOM     94  C67 UNL A   1      45.706  22.593  26.464  1.00  0.00    +0.000 C 
ATOM     95  C68 UNL A   1      45.445  21.291  26.022  1.00  0.00    +0.000 C 
BRANCH   33    2
ATOM      1  O1  UNL A   1      45.411  19.150  23.501  1.00  0.00    +0.000 O 
ATOM      2  C1  UNL A   1      44.654  19.693  24.294  1.00  0.00    +0.000 C 
BRANCH    2    3
ATOM      3  N1  UNL A   1      43.545  19.029  24.762  1.00  0.00    +0.000 N 
ATOM     96  H1  UNL A   1      42.773  19.011  24.152  1.00  0.00    +0.000 H 
BRANCH    3    4
ATOM     97  H2  UNL A   1      44.306  18.241  26.508  1.00  0.00    +0.000 H 
ATOM     98  H3  UNL A   1      42.905  17.401  25.829  1.00  0.00    +0.000 H 
ATOM      4  C2  UNL A   1      43.354  18.350  26.032  1.00  0.00    +0.000 C 
BRANCH    4    5
ATOM     99  H4  UNL A   1      43.030  19.659  27.659  1.00  0.00    +0.000 H 
ATOM    100  H5  UNL A   1      41.804  18.374  27.432  1.00  0.00    +0.000 H 
ATOM      5  C3  UNL A   1      42.427  19.110  26.967  1.00  0.00    +0.000 C 
BRANCH    5    6
ATOM    102  H7  UNL A   1      41.622  19.947  25.232  1.00  0.00    +0.000 H 
ATOM    101  H6  UNL A   1      40.487  19.886  26.625  1.00  0.00    +0.000 H 
ATOM      6  C4  UNL A   1      41.478  20.095  26.282  1.00  0.00    +0.000 C 
BRANCH    6    7
ATOM    103  H8  UNL A   1      41.617  22.096  25.601  1.00  0.00    +0.000 H 
ATOM      7  C5  UNL A   1      41.756  21.581  26.529  1.00  0.00    +0.000 C 
ATOM    104  H9  UNL A   1      42.753  21.620  26.917  1.00  0.00    +0.000 H 
BRANCH    7    8
ATOM    105  H10 UNL A   1      41.521  22.915  28.164  1.00  0.00    +0.000 H 
ATOM    106  H11 UNL A   1      40.423  21.494  28.142  1.00  0.00    +0.000 H 
ATOM      8  C6  UNL A   1      40.885  22.279  27.583  1.00  0.00    +0.000 C 
BRANCH    8    9
ATOM      9  C7  UNL A   1      39.740  23.132  27.042  1.00  0.00    +0.000 C 
ATOM    107  H12 UNL A   1      40.150  23.904  26.425  1.00  0.00    +0.000 H 
ATOM    108  H13 UNL A   1      39.214  23.532  27.884  1.00  0.00    +0.000 H 
BRANCH    9   10
ATOM     10  N2  UNL A   1      38.791  22.373  26.261  1.00  0.00    +0.000 N 
ATOM    109  H14 UNL A   1      38.927  21.398  26.251  1.00  0.00    +0.000 H 
BRANCH   10   11
ATOM     11  C8  UNL A   1      37.730  22.830  25.536  1.00  0.00    +0.000 C 
ATOM     12  O2  UNL A   1      37.476  24.035  25.601  1.00  0.00    +0.000 O 
BRANCH   11   13
ATOM     13  C9  UNL A   1      36.894  21.834  24.701  1.00  0.00    +0.000 C 
ATOM     14  C10 UNL A   1      35.873  21.087  25.549  1.00  0.00    +0.000 C 
ATOM    110  H15 UNL A   1      37.598  21.133  24.301  1.00  0.00    +0.000 H 
ATOM    111  H16 UNL A   1      35.818  21.517  26.526  1.00  0.00    +0.000 H 
ATOM     15  C11 UNL A   1      34.529  21.229  24.831  1.00  0.00    +0.000 C 
ATOM    112  H17 UNL A   1      36.144  20.059  25.666  1.00  0.00    +0.000 H 
ATOM    118  H23 UNL A   1      34.199  22.124  22.983  1.00  0.00    +0.000 H 
ATOM     24  C18 UNL A   1      34.785  22.395  23.836  1.00  0.00    +0.000 C 
ATOM     32  O4  UNL A   1      36.208  22.481  23.629  1.00  0.00    +0.000 O 
BRANCH   15   16
ATOM    113  H18 UNL A   1      32.693  21.236  25.598  1.00  0.00    +0.000 H 
ATOM     16  O3  UNL A   1      33.549  21.642  25.807  1.00  0.00    +0.000 O 
ENDBRANCH   15   16
BRANCH   15   17
ATOM     17  C12 UNL A   1      34.064  19.836  24.356  1.00  0.00    +0.000 C 
ATOM     18  C13 UNL A   1      34.885  18.747  24.773  1.00  0.00    +0.000 C 
ATOM     19  C14 UNL A   1      34.592  17.416  24.474  1.00  0.00    +0.000 C 
ATOM    114  H19 UNL A   1      35.736  18.954  25.320  1.00  0.00    +0.000 H 
ATOM     21  C16 UNL A   1      32.642  18.148  23.298  1.00  0.00    +0.000 C 
ATOM     22  C17 UNL A   1      32.956  19.497  23.558  1.00  0.00    +0.000 C 
ATOM     23 Cl1  UNL A   1      31.928  20.620  22.745  1.00  0.00    +0.000 Cl
ATOM    115  H20 UNL A   1      35.223  16.662  24.789  1.00  0.00    +0.000 H 
ATOM     20  C15 UNL A   1      33.450  17.112  23.756  1.00  0.00    +0.000 C 
ATOM    117  H22 UNL A   1      31.794  17.923  22.754  1.00  0.00    +0.000 H 
ATOM    116  H21 UNL A   1      33.200  16.130  23.560  1.00  0.00    +0.000 H 
ENDBRANCH   15   17
BRANCH   24   25
ATOM    122  H27 UNL A   1      32.665  26.440  22.814  1.00  0.00    +0.000 H 
ATOM    121  H26 UNL A   1      33.259  27.447  24.938  1.00  0.00    +0.000 H 
ATOM    119  H24 UNL A   1      35.039  23.840  26.134  1.00  0.00    +0.000 H 
ATOM    120  H25 UNL A   1      34.421  26.128  26.606  1.00  0.00    +0.000 H 
ATOM     25  C19 UNL A   1      34.272  23.797  24.166  1.00  0.00    +0.000 C 
ATOM     26  C20 UNL A   1      34.552  24.392  25.410  1.00  0.00    +0.000 C 
ATOM     27  C21 UNL A   1      34.188  25.712  25.690  1.00  0.00    +0.000 C 
ATOM     28  C22 UNL A   1      33.514  26.467  24.739  1.00  0.00    +0.000 C 
ATOM     29  C23 UNL A   1      33.184  25.891  23.516  1.00  0.00    +0.000 C 
ATOM     30  C24 UNL A   1      33.552  24.569  23.231  1.00  0.00    +0.000 C 
ATOM     31 Cl2  UNL A   1      33.056  23.957  21.688  1.00  0.00    +0.000 Cl
ENDBRANCH   24   25
ENDBRANCH   11   13
ENDBRANCH   10   11
ENDBRANCH    9   10
ENDBRANCH    8    9
ENDBRANCH    7    8
ENDBRANCH    6    7
ENDBRANCH    5    6
ENDBRANCH    4    5
ENDBRANCH    3    4
ENDBRANCH    2    3
ENDBRANCH   33    2
ENDBRANCH   37   36
BRANCH   41   42
ATOM     42  C33 UNL A   1      50.942  28.049  26.073  1.00  0.00    +0.000 C 
ATOM     43  C34 UNL A   1      51.442  28.247  24.779  1.00  0.00    +0.000 C 
ATOM     44  F1  UNL A   1      50.601  28.459  23.755  1.00  0.00    +0.000 F 
ATOM     45  C35 UNL A   1      52.812  28.221  24.529  1.00  0.00    +0.000 C 
ATOM     46  F2  UNL A   1      53.268  28.395  23.281  1.00  0.00    +0.000 F 
ATOM     47  C36 UNL A   1      53.707  28.017  25.570  1.00  0.00    +0.000 C 
ATOM     48  F3  UNL A   1      55.026  28.011  25.331  1.00  0.00    +0.000 F 
ATOM     49  C37 UNL A   1      53.234  27.820  26.858  1.00  0.00    +0.000 C 
ATOM     50  F4  UNL A   1      54.097  27.636  27.867  1.00  0.00    +0.000 F 
ATOM     51  C38 UNL A   1      51.864  27.825  27.107  1.00  0.00    +0.000 C 
ATOM     52  F5  UNL A   1      51.436  27.637  28.365  1.00  0.00    +0.000 F 
ENDBRANCH   41   42
BRANCH   58   59
ATOM     65  F8  UNL A   1      46.719  36.886  30.260  1.00  0.00    +0.000 F 
ATOM     66  C48 UNL A   1      46.861  34.558  30.636  1.00  0.00    +0.000 C 
ATOM     67  F9  UNL A   1      47.138  34.772  31.930  1.00  0.00    +0.000 F 
ATOM     68  C49 UNL A   1      46.803  33.257  30.144  1.00  0.00    +0.000 C 
ATOM     69  F10 UNL A   1      47.039  32.237  30.983  1.00  0.00    +0.000 F 
ATOM     59  C44 UNL A   1      46.498  33.010  28.799  1.00  0.00    +0.000 C 
ATOM     60  C45 UNL A   1      46.255  34.111  27.963  1.00  0.00    +0.000 C 
ATOM     61  F6  UNL A   1      45.979  33.925  26.664  1.00  0.00    +0.000 F 
ATOM     62  C46 UNL A   1      46.342  35.411  28.452  1.00  0.00    +0.000 C 
ATOM     63  F7  UNL A   1      46.156  36.449  27.626  1.00  0.00    +0.000 F 
ATOM     64  C47 UNL A   1      46.638  35.633  29.790  1.00  0.00    +0.000 C 
ENDBRANCH   58   59
BRANCH   73   74
ATOM     74  C53 UNL A   1      41.228  28.489  28.359  1.00  0.00    +0.000 C 
ATOM     75  C54 UNL A   1      40.806  28.051  29.620  1.00  0.00    +0.000 C 
ATOM     76  F11 UNL A   1      41.699  27.557  30.491  1.00  0.00    +0.000 F 
ATOM     77  C55 UNL A   1      39.459  28.082  29.977  1.00  0.00    +0.000 C 
ATOM     78  F12 UNL A   1      39.076  27.613  31.173  1.00  0.00    +0.000 F 
ATOM     79  C56 UNL A   1      38.515  28.580  29.093  1.00  0.00    +0.000 C 
ATOM     80  F13 UNL A   1      37.221  28.613  29.439  1.00  0.00    +0.000 F 
ATOM     81  C57 UNL A   1      38.913  29.038  27.846  1.00  0.00    +0.000 C 
ATOM     82  F14 UNL A   1      38.006  29.536  26.994  1.00  0.00    +0.000 F 
ATOM     83  C58 UNL A   1      40.253  28.979  27.477  1.00  0.00    +0.000 C 
ATOM     84  F15 UNL A   1      40.608  29.415  26.258  1.00  0.00    +0.000 F 
ENDBRANCH   73   74
TORSDOF 18
ENDMDL
MODEL 3
REMARK VINA RESULT:     -11.8      5.436     11.105
ROOT
ATOM    129  H34 UNL A   1      40.713  27.454  27.458  1.00  0.00    +0.000 H 
ATOM    130  H35 UNL A   1      40.945  29.059  31.286  1.00  0.00    +0.000 H 
ATOM    131  H36 UNL A   1      36.940  32.058  31.750  1.00  0.00    +0.000 H 
ATOM    132  H37 UNL A   1      37.773  32.578  34.114  1.00  0.00    +0.000 H 
ATOM    133  H38 UNL A   1      45.388  26.104  32.970  1.00  0.00    +0.000 H 
ATOM    134  H39 UNL A   1      44.724  25.761  30.519  1.00  0.00    +0.000 H 
ATOM     37  C29 UNL A   1      42.387  27.210  29.749  1.00  0.00    +0.000 C 
ATOM     38  C30 UNL A   1      43.086  27.225  31.077  1.00  0.00    +0.000 C 
ATOM     39  N3  UNL A   1      42.784  27.903  32.156  1.00  0.00    +0.000 N 
ATOM     40  C31 UNL A   1      43.727  27.545  33.110  1.00  0.00    +0.000 C 
ATOM     41  C32 UNL A   1      43.848  27.993  34.382  1.00  0.00    +0.000 C 
ATOM     53  C39 UNL A   1      42.984  28.978  34.983  1.00  0.00    +0.000 C 
ATOM     54  C40 UNL A   1      43.070  29.545  36.244  1.00  0.00    +0.000 C 
ATOM     55  C41 UNL A   1      41.983  30.410  36.411  1.00  0.00    +0.000 C 
ATOM     56  C42 UNL A   1      41.245  30.416  35.239  1.00  0.00    +0.000 C 
ATOM     57  N4  UNL A   1      41.873  29.536  34.370  1.00  0.00    +0.000 N 
ATOM     58  C43 UNL A   1      40.052  31.163  34.936  1.00  0.00    +0.000 C 
ATOM     70  C50 UNL A   1      39.417  31.163  33.739  1.00  0.00    +0.000 C 
ATOM     71  N5  UNL A   1      39.734  30.464  32.585  1.00  0.00    +0.000 N 
ATOM     72  C51 UNL A   1      38.804  30.768  31.714  1.00  0.00    +0.000 C 
ATOM     73  C52 UNL A   1      38.648  30.303  30.294  1.00  0.00    +0.000 C 
ATOM     85  C59 UNL A   1      39.550  29.444  29.788  1.00  0.00    +0.000 C 
ATOM     86  C60 UNL A   1      39.522  28.901  28.435  1.00  0.00    +0.000 C 
ATOM     87  C61 UNL A   1      40.520  28.017  28.303  1.00  0.00    +0.000 C 
ATOM     88  C62 UNL A   1      41.295  27.973  29.546  1.00  0.00    +0.000 C 
ATOM     89  N6  UNL A   1      40.649  28.860  30.368  1.00  0.00    +0.000 N 
ATOM     90  C63 UNL A   1      37.781  31.691  32.223  1.00  0.00    +0.000 C 
ATOM     91  C64 UNL A   1      38.222  31.929  33.449  1.00  0.00    +0.000 C 
ATOM     92  C65 UNL A   1      44.605  26.573  32.489  1.00  0.00    +0.000 C 
ATOM     93  C66 UNL A   1      44.271  26.366  31.221  1.00  0.00    +0.000 C 
ATOM    125  H30 UNL A   1      43.809  29.361  36.940  1.00  0.00    +0.000 H 
ATOM    126  H31 UNL A   1      41.768  30.951  37.263  1.00  0.00    +0.000 H 
ATOM    127  H32 UNL A   1      41.573  29.337  33.453  1.00  0.00    +0.000 H 
ATOM    128  H33 UNL A   1      38.844  29.156  27.700  1.00  0.00    +0.000 H 
ENDROOT
BRANCH   37   36
ATOM     33  C25 UNL A   1      43.924  24.697  26.640  1.00  0.00    +0.000 C 
ATOM     34  C26 UNL A   1      43.093  24.170  27.631  1.00  0.00    +0.000 C 
ATOM     35  C27 UNL A   1      42.524  25.013  28.581  1.00  0.00    +0.000 C 
ATOM     36  C28 UNL A   1      42.874  26.373  28.624  1.00  0.00    +0.000 C 
ATOM    135  H40 UNL A   1      44.041  27.877  27.700  1.00  0.00    +0.000 H 
ATOM    136  H41 UNL A   1      44.905  26.435  25.946  1.00  0.00    +0.000 H 
ATOM    123  H28 UNL A   1      42.902  23.156  27.661  1.00  0.00    +0.000 H 
ATOM    124  H29 UNL A   1      41.841  24.637  29.256  1.00  0.00    +0.000 H 
ATOM     94  C67 UNL A   1      43.762  26.884  27.666  1.00  0.00    +0.000 C 
ATOM     95  C68 UNL A   1      44.272  26.050  26.664  1.00  0.00    +0.000 C 
BRANCH   33    2
ATOM      1  O1  UNL A   1      44.473  24.216  24.412  1.00  0.00    +0.000 O 
ATOM      2  C1  UNL A   1      44.480  23.830  25.573  1.00  0.00    +0.000 C 
BRANCH    2    3
ATOM      3  N1  UNL A   1      44.987  22.592  25.891  1.00  0.00    +0.000 N 
ATOM     96  H1  UNL A   1      45.838  22.597  26.384  1.00  0.00    +0.000 H 
BRANCH    3    4
ATOM     97  H2  UNL A   1      44.752  20.600  26.365  1.00  0.00    +0.000 H 
ATOM     98  H3  UNL A   1      44.805  20.981  24.638  1.00  0.00    +0.000 H 
ATOM      4  C2  UNL A   1      44.440  21.278  25.599  1.00  0.00    +0.000 C 
BRANCH    4    5
ATOM     99  H4  UNL A   1      42.630  21.104  24.522  1.00  0.00    +0.000 H 
ATOM    100  H5  UNL A   1      42.609  22.232  25.913  1.00  0.00    +0.000 H 
ATOM      5  C3  UNL A   1      42.921  21.279  25.537  1.00  0.00    +0.000 C 
BRANCH    5    6
ATOM    102  H7  UNL A   1      42.185  19.346  25.816  1.00  0.00    +0.000 H 
ATOM    101  H6  UNL A   1      42.810  20.127  27.309  1.00  0.00    +0.000 H 
ATOM      6  C4  UNL A   1      42.234  20.232  26.414  1.00  0.00    +0.000 C 
BRANCH    6    7
ATOM    103  H8  UNL A   1      40.431  19.706  27.393  1.00  0.00    +0.000 H 
ATOM      7  C5  UNL A   1      40.788  20.535  26.819  1.00  0.00    +0.000 C 
ATOM    104  H9  UNL A   1      40.267  20.700  25.899  1.00  0.00    +0.000 H 
BRANCH    7    8
ATOM    105  H10 UNL A   1      41.508  22.267  27.814  1.00  0.00    +0.000 H 
ATOM    106  H11 UNL A   1      40.065  21.484  28.541  1.00  0.00    +0.000 H 
ATOM      8  C6  UNL A   1      40.556  21.807  27.647  1.00  0.00    +0.000 C 
BRANCH    8    9
ATOM      9  C7  UNL A   1      39.635  22.851  27.021  1.00  0.00    +0.000 C 
ATOM    107  H12 UNL A   1      40.237  23.627  26.597  1.00  0.00    +0.000 H 
ATOM    108  H13 UNL A   1      38.997  23.221  27.798  1.00  0.00    +0.000 H 
BRANCH    9   10
ATOM     10  N2  UNL A   1      38.786  22.307  25.987  1.00  0.00    +0.000 N 
ATOM    109  H14 UNL A   1      39.106  21.480  25.560  1.00  0.00    +0.000 H 
BRANCH   10   11
ATOM     11  C8  UNL A   1      37.597  22.790  25.524  1.00  0.00    +0.000 C 
ATOM     12  O2  UNL A   1      37.287  23.938  25.848  1.00  0.00    +0.000 O 
BRANCH   11   13
ATOM     13  C9  UNL A   1      36.697  21.885  24.652  1.00  0.00    +0.000 C 
ATOM     14  C10 UNL A   1      35.647  21.152  25.476  1.00  0.00    +0.000 C 
ATOM    110  H15 UNL A   1      37.356  21.169  24.206  1.00  0.00    +0.000 H 
ATOM    111  H16 UNL A   1      35.628  21.534  26.475  1.00  0.00    +0.000 H 
ATOM     15  C11 UNL A   1      34.304  21.404  24.788  1.00  0.00    +0.000 C 
ATOM    112  H17 UNL A   1      35.862  20.106  25.537  1.00  0.00    +0.000 H 
ATOM    118  H23 UNL A   1      34.001  22.410  22.992  1.00  0.00    +0.000 H 
ATOM     24  C18 UNL A   1      34.611  22.604  23.850  1.00  0.00    +0.000 C 
ATOM     32  O4  UNL A   1      36.034  22.624  23.625  1.00  0.00    +0.000 O 
BRANCH   15   16
ATOM    113  H18 UNL A   1      33.819  21.921  26.647  1.00  0.00    +0.000 H 
ATOM     16  O3  UNL A   1      33.360  21.818  25.798  1.00  0.00    +0.000 O 
ENDBRANCH   15   16
BRANCH   15   17
ATOM     17  C12 UNL A   1      33.757  20.065  24.250  1.00  0.00    +0.000 C 
ATOM     18  C13 UNL A   1      34.401  18.899  24.757  1.00  0.00    +0.000 C 
ATOM     19  C14 UNL A   1      34.009  17.603  24.415  1.00  0.00    +0.000 C 
ATOM    114  H19 UNL A   1      35.195  19.017  25.406  1.00  0.00    +0.000 H 
ATOM     21  C16 UNL A   1      32.306  18.530  23.012  1.00  0.00    +0.000 C 
ATOM     22  C17 UNL A   1      32.726  19.839  23.319  1.00  0.00    +0.000 C 
ATOM     23 Cl1  UNL A   1      31.931  21.059  22.393  1.00  0.00    +0.000 Cl
ATOM    115  H20 UNL A   1      34.513  16.789  24.800  1.00  0.00    +0.000 H 
ATOM     20  C15 UNL A   1      32.939  17.417  23.559  1.00  0.00    +0.000 C 
ATOM    117  H22 UNL A   1      31.513  18.392  22.367  1.00  0.00    +0.000 H 
ATOM    116  H21 UNL A   1      32.613  16.465  23.328  1.00  0.00    +0.000 H 
ENDBRANCH   15   17
BRANCH   24   25
ATOM    122  H27 UNL A   1      32.794  26.841  23.042  1.00  0.00    +0.000 H 
ATOM    121  H26 UNL A   1      33.384  27.665  25.244  1.00  0.00    +0.000 H 
ATOM    119  H24 UNL A   1      34.886  23.877  26.245  1.00  0.00    +0.000 H 
ATOM    120  H25 UNL A   1      34.404  26.165  26.852  1.00  0.00    +0.000 H 
ATOM     25  C19 UNL A   1      34.181  24.013  24.259  1.00  0.00    +0.000 C 
ATOM     26  C20 UNL A   1      34.460  24.506  25.546  1.00  0.00    +0.000 C 
ATOM     27  C21 UNL A   1      34.174  25.827  25.904  1.00  0.00    +0.000 C 
ATOM     28  C22 UNL A   1      33.580  26.685  24.988  1.00  0.00    +0.000 C 
ATOM     29  C23 UNL A   1      33.253  26.213  23.720  1.00  0.00    +0.000 C 
ATOM     30  C24 UNL A   1      33.543  24.891  23.357  1.00  0.00    +0.000 C 
ATOM     31 Cl2  UNL A   1      33.057  24.415  21.765  1.00  0.00    +0.000 Cl
ENDBRANCH   24   25
ENDBRANCH   11   13
ENDBRANCH   10   11
ENDBRANCH    9   10
ENDBRANCH    8    9
ENDBRANCH    7    8
ENDBRANCH    6    7
ENDBRANCH    5    6
ENDBRANCH    4    5
ENDBRANCH    3    4
ENDBRANCH    2    3
ENDBRANCH   33    2
ENDBRANCH   37   36
BRANCH   41   42
ATOM     42  C33 UNL A   1      44.947  27.426  35.232  1.00  0.00    +0.000 C 
ATOM     43  C34 UNL A   1      46.197  28.051  35.331  1.00  0.00    +0.000 C 
ATOM     44  F1  UNL A   1      46.475  29.128  34.581  1.00  0.00    +0.000 F 
ATOM     45  C35 UNL A   1      47.174  27.565  36.197  1.00  0.00    +0.000 C 
ATOM     46  F2  UNL A   1      48.370  28.168  36.264  1.00  0.00    +0.000 F 
ATOM     47  C36 UNL A   1      46.911  26.460  36.995  1.00  0.00    +0.000 C 
ATOM     48  F3  UNL A   1      47.845  26.007  37.843  1.00  0.00    +0.000 F 
ATOM     49  C37 UNL A   1      45.680  25.828  36.914  1.00  0.00    +0.000 C 
ATOM     50  F4  UNL A   1      45.420  24.768  37.693  1.00  0.00    +0.000 F 
ATOM     51  C38 UNL A   1      44.711  26.299  36.034  1.00  0.00    +0.000 C 
ATOM     52  F5  UNL A   1      43.526  25.668  35.981  1.00  0.00    +0.000 F 
ENDBRANCH   41   42
BRANCH   58   59
ATOM     65  F8  UNL A   1      37.826  34.400  38.992  1.00  0.00    +0.000 F 
ATOM     66  C48 UNL A   1      37.862  32.357  37.806  1.00  0.00    +0.000 C 
ATOM     67  F9  UNL A   1      36.852  31.891  38.554  1.00  0.00    +0.000 F 
ATOM     68  C49 UNL A   1      38.423  31.553  36.818  1.00  0.00    +0.000 C 
ATOM     69  F10 UNL A   1      37.940  30.313  36.641  1.00  0.00    +0.000 F 
ATOM     59  C44 UNL A   1      39.468  32.026  36.013  1.00  0.00    +0.000 C 
ATOM     60  C45 UNL A   1      39.934  33.331  36.234  1.00  0.00    +0.000 C 
ATOM     61  F6  UNL A   1      40.946  33.820  35.502  1.00  0.00    +0.000 F 
ATOM     62  C46 UNL A   1      39.390  34.121  37.242  1.00  0.00    +0.000 C 
ATOM     63  F7  UNL A   1      39.883  35.347  37.470  1.00  0.00    +0.000 F 
ATOM     64  C47 UNL A   1      38.350  33.637  38.023  1.00  0.00    +0.000 C 
ENDBRANCH   58   59
BRANCH   73   74
ATOM     74  C53 UNL A   1      37.510  30.762  29.458  1.00  0.00    +0.000 C 
ATOM     75  C54 UNL A   1      37.477  32.058  28.929  1.00  0.00    +0.000 C 
ATOM     76  F11 UNL A   1      38.475  32.914  29.191  1.00  0.00    +0.000 F 
ATOM     77  C55 UNL A   1      36.397  32.492  28.161  1.00  0.00    +0.000 C 
ATOM     78  F12 UNL A   1      36.367  33.752  27.706  1.00  0.00    +0.000 F 
ATOM     79  C56 UNL A   1      35.348  31.630  27.882  1.00  0.00    +0.000 C 
ATOM     80  F13 UNL A   1      34.313  32.047  27.141  1.00  0.00    +0.000 F 
ATOM     81  C57 UNL A   1      35.369  30.335  28.379  1.00  0.00    +0.000 C 
ATOM     82  F14 UNL A   1      34.366  29.493  28.099  1.00  0.00    +0.000 F 
ATOM     83  C58 UNL A   1      36.432  29.910  29.172  1.00  0.00    +0.000 C 
ATOM     84  F15 UNL A   1      36.420  28.657  29.652  1.00  0.00    +0.000 F 
ENDBRANCH   73   74
TORSDOF 18
ENDMDL
MODEL 4
REMARK VINA RESULT:     -11.8      4.916      8.153
ROOT
ATOM    129  H34 UNL A   1      38.865  31.015  30.900  1.00  0.00    +0.000 H 
ATOM    130  H35 UNL A   1      42.300  28.677  30.773  1.00  0.00    +0.000 H 
ATOM    131  H36 UNL A   1      45.388  30.606  34.236  1.00  0.00    +0.000 H 
ATOM    132  H37 UNL A   1      47.059  28.788  33.561  1.00  0.00    +0.000 H 
ATOM    133  H38 UNL A   1      40.404  24.923  27.083  1.00  0.00    +0.000 H 
ATOM    134  H39 UNL A   1      38.816  26.877  27.553  1.00  0.00    +0.000 H 
ATOM     37  C29 UNL A   1      39.790  28.700  29.523  1.00  0.00    +0.000 C 
ATOM     38  C30 UNL A   1      40.480  27.490  28.965  1.00  0.00    +0.000 C 
ATOM     39  N3  UNL A   1      41.667  27.016  29.250  1.00  0.00    +0.000 N 
ATOM     40  C31 UNL A   1      41.819  25.872  28.479  1.00  0.00    +0.000 C 
ATOM     41  C32 UNL A   1      42.887  25.042  28.409  1.00  0.00    +0.000 C 
ATOM     53  C39 UNL A   1      44.110  25.226  29.147  1.00  0.00    +0.000 C 
ATOM     54  C40 UNL A   1      45.273  24.475  29.090  1.00  0.00    +0.000 C 
ATOM     55  C41 UNL A   1      46.176  24.992  30.024  1.00  0.00    +0.000 C 
ATOM     56  C42 UNL A   1      45.594  26.091  30.633  1.00  0.00    +0.000 C 
ATOM     57  N4  UNL A   1      44.328  26.226  30.083  1.00  0.00    +0.000 N 
ATOM     58  C43 UNL A   1      46.148  26.951  31.646  1.00  0.00    +0.000 C 
ATOM     70  C50 UNL A   1      45.537  28.050  32.153  1.00  0.00    +0.000 C 
ATOM     71  N5  UNL A   1      44.290  28.572  31.848  1.00  0.00    +0.000 N 
ATOM     72  C51 UNL A   1      44.139  29.616  32.624  1.00  0.00    +0.000 C 
ATOM     73  C52 UNL A   1      42.978  30.566  32.717  1.00  0.00    +0.000 C 
ATOM     85  C59 UNL A   1      41.907  30.364  31.930  1.00  0.00    +0.000 C 
ATOM     86  C60 UNL A   1      40.709  31.194  31.917  1.00  0.00    +0.000 C 
ATOM     87  C61 UNL A   1      39.816  30.654  31.076  1.00  0.00    +0.000 C 
ATOM     88  C62 UNL A   1      40.404  29.469  30.444  1.00  0.00    +0.000 C 
ATOM     89  N6  UNL A   1      41.651  29.380  31.007  1.00  0.00    +0.000 N 
ATOM     90  C63 UNL A   1      45.274  29.871  33.520  1.00  0.00    +0.000 C 
ATOM     91  C64 UNL A   1      46.114  28.910  33.166  1.00  0.00    +0.000 C 
ATOM     92  C65 UNL A   1      40.594  25.709  27.723  1.00  0.00    +0.000 C 
ATOM     93  C66 UNL A   1      39.746  26.702  27.963  1.00  0.00    +0.000 C 
ATOM    125  H30 UNL A   1      45.444  23.672  28.464  1.00  0.00    +0.000 H 
ATOM    126  H31 UNL A   1      47.116  24.617  30.227  1.00  0.00    +0.000 H 
ATOM    127  H32 UNL A   1      43.680  26.928  30.321  1.00  0.00    +0.000 H 
ATOM    128  H33 UNL A   1      40.570  32.056  32.467  1.00  0.00    +0.000 H 
ENDROOT
BRANCH   37   36
ATOM     33  C25 UNL A   1      35.925  30.041  28.254  1.00  0.00    +0.000 C 
ATOM     34  C26 UNL A   1      37.032  30.167  27.411  1.00  0.00    +0.000 C 
ATOM     35  C27 UNL A   1      38.262  29.643  27.796  1.00  0.00    +0.000 C 
ATOM     36  C28 UNL A   1      38.430  29.094  29.078  1.00  0.00    +0.000 C 
ATOM    135  H40 UNL A   1      37.448  28.648  30.898  1.00  0.00    +0.000 H 
ATOM    136  H41 UNL A   1      35.264  29.416  30.162  1.00  0.00    +0.000 H 
ATOM    123  H28 UNL A   1      36.937  30.649  26.503  1.00  0.00    +0.000 H 
ATOM    124  H29 UNL A   1      39.054  29.657  27.136  1.00  0.00    +0.000 H 
ATOM     94  C67 UNL A   1      37.331  29.031  29.947  1.00  0.00    +0.000 C 
ATOM     95  C68 UNL A   1      36.076  29.487  29.529  1.00  0.00    +0.000 C 
BRANCH   33    2
ATOM      1  O1  UNL A   1      33.880  29.814  27.131  1.00  0.00    +0.000 O 
ATOM      2  C1  UNL A   1      34.588  30.523  27.833  1.00  0.00    +0.000 C 
BRANCH    2    3
ATOM      3  N1  UNL A   1      34.156  31.770  28.220  1.00  0.00    +0.000 N 
ATOM     96  H1  UNL A   1      34.664  32.186  28.952  1.00  0.00    +0.000 H 
BRANCH    3    4
ATOM     97  H2  UNL A   1      32.172  32.328  28.259  1.00  0.00    +0.000 H 
ATOM     98  H3  UNL A   1      32.937  32.308  26.664  1.00  0.00    +0.000 H 
ATOM      4  C2  UNL A   1      33.053  32.558  27.698  1.00  0.00    +0.000 C 
BRANCH    4    5
ATOM     99  H4  UNL A   1      32.505  34.559  27.298  1.00  0.00    +0.000 H 
ATOM    100  H5  UNL A   1      34.262  34.219  27.323  1.00  0.00    +0.000 H 
ATOM      5  C3  UNL A   1      33.311  34.054  27.786  1.00  0.00    +0.000 C 
BRANCH    5    6
ATOM    102  H7  UNL A   1      32.549  34.280  29.716  1.00  0.00    +0.000 H 
ATOM    101  H6  UNL A   1      34.344  34.247  29.624  1.00  0.00    +0.000 H 
ATOM      6  C4  UNL A   1      33.429  34.610  29.205  1.00  0.00    +0.000 C 
BRANCH    6    7
ATOM    103  H8  UNL A   1      32.731  36.522  28.619  1.00  0.00    +0.000 H 
ATOM      7  C5  UNL A   1      33.429  36.137  29.333  1.00  0.00    +0.000 C 
ATOM    104  H9  UNL A   1      34.444  36.432  29.169  1.00  0.00    +0.000 H 
BRANCH    7    8
ATOM    105  H10 UNL A   1      32.317  37.474  30.550  1.00  0.00    +0.000 H 
ATOM    106  H11 UNL A   1      33.971  37.075  31.125  1.00  0.00    +0.000 H 
ATOM      8  C6  UNL A   1      33.056  36.715  30.705  1.00  0.00    +0.000 C 
BRANCH    8    9
ATOM      9  C7  UNL A   1      32.498  35.718  31.719  1.00  0.00    +0.000 C 
ATOM    107  H12 UNL A   1      32.364  34.775  31.232  1.00  0.00    +0.000 H 
ATOM    108  H13 UNL A   1      31.573  36.116  32.081  1.00  0.00    +0.000 H 
BRANCH    9   10
ATOM     10  N2  UNL A   1      33.364  35.529  32.859  1.00  0.00    +0.000 N 
ATOM    109  H14 UNL A   1      33.332  36.237  33.543  1.00  0.00    +0.000 H 
BRANCH   10   11
ATOM     11  C8  UNL A   1      34.220  34.499  33.114  1.00  0.00    +0.000 C 
ATOM     12  O2  UNL A   1      33.941  33.399  32.632  1.00  0.00    +0.000 O 
BRANCH   11   13
ATOM     13  C9  UNL A   1      35.464  34.744  33.998  1.00  0.00    +0.000 C 
ATOM     14  C10 UNL A   1      36.022  33.451  34.578  1.00  0.00    +0.000 C 
ATOM    110  H15 UNL A   1      35.128  35.371  34.799  1.00  0.00    +0.000 H 
ATOM    111  H16 UNL A   1      35.546  32.607  34.126  1.00  0.00    +0.000 H 
ATOM     15  C11 UNL A   1      37.518  33.447  34.263  1.00  0.00    +0.000 C 
ATOM    112  H17 UNL A   1      35.847  33.391  35.632  1.00  0.00    +0.000 H 
ATOM    118  H23 UNL A   1      38.601  34.980  33.365  1.00  0.00    +0.000 H 
ATOM     24  C18 UNL A   1      37.648  34.538  33.163  1.00  0.00    +0.000 C 
ATOM     32  O4  UNL A   1      36.505  35.407  33.282  1.00  0.00    +0.000 O 
BRANCH   15   16
ATOM    113  H18 UNL A   1      37.302  32.002  32.910  1.00  0.00    +0.000 H 
ATOM     16  O3  UNL A   1      37.847  32.159  33.698  1.00  0.00    +0.000 O 
ENDBRANCH   15   16
BRANCH   15   17
ATOM     17  C12 UNL A   1      38.311  33.521  35.585  1.00  0.00    +0.000 C 
ATOM     18  C13 UNL A   1      38.995  34.750  35.813  1.00  0.00    +0.000 C 
ATOM     19  C14 UNL A   1      39.724  35.012  36.975  1.00  0.00    +0.000 C 
ATOM    114  H19 UNL A   1      38.951  35.482  35.086  1.00  0.00    +0.000 H 
ATOM     21  C16 UNL A   1      39.165  32.826  37.771  1.00  0.00    +0.000 C 
ATOM     22  C17 UNL A   1      38.464  32.540  36.582  1.00  0.00    +0.000 C 
ATOM     23 Cl1  UNL A   1      37.931  30.903  36.465  1.00  0.00    +0.000 Cl
ATOM    115  H20 UNL A   1      40.212  35.914  37.090  1.00  0.00    +0.000 H 
ATOM     20  C15 UNL A   1      39.787  34.054  37.971  1.00  0.00    +0.000 C 
ATOM    117  H22 UNL A   1      39.218  32.108  38.510  1.00  0.00    +0.000 H 
ATOM    116  H21 UNL A   1      40.290  34.248  38.851  1.00  0.00    +0.000 H 
ENDBRANCH   15   17
BRANCH   24   25
ATOM    122  H27 UNL A   1      39.962  34.010  29.130  1.00  0.00    +0.000 H 
ATOM    121  H26 UNL A   1      37.971  33.349  27.915  1.00  0.00    +0.000 H 
ATOM    119  H24 UNL A   1      35.749  33.563  31.467  1.00  0.00    +0.000 H 
ATOM    120  H25 UNL A   1      35.872  33.099  29.099  1.00  0.00    +0.000 H 
ATOM     25  C19 UNL A   1      37.772  34.122  31.697  1.00  0.00    +0.000 C 
ATOM     26  C20 UNL A   1      36.648  33.683  30.975  1.00  0.00    +0.000 C 
ATOM     27  C21 UNL A   1      36.718  33.404  29.607  1.00  0.00    +0.000 C 
ATOM     28  C22 UNL A   1      37.922  33.538  28.928  1.00  0.00    +0.000 C 
ATOM     29  C23 UNL A   1      39.061  33.929  29.625  1.00  0.00    +0.000 C 
ATOM     30  C24 UNL A   1      38.993  34.213  30.996  1.00  0.00    +0.000 C 
ATOM     31 Cl2  UNL A   1      40.485  34.657  31.756  1.00  0.00    +0.000 Cl
ENDBRANCH   24   25
ENDBRANCH   11   13
ENDBRANCH   10   11
ENDBRANCH    9   10
ENDBRANCH    8    9
ENDBRANCH    7    8
ENDBRANCH    6    7
ENDBRANCH    5    6
ENDBRANCH    4    5
ENDBRANCH    3    4
ENDBRANCH    2    3
ENDBRANCH   33    2
ENDBRANCH   37   36
BRANCH   41   42
ATOM     42  C33 UNL A   1      42.794  23.843  27.511  1.00  0.00    +0.000 C 
ATOM     43  C34 UNL A   1      43.191  23.898  26.168  1.00  0.00    +0.000 C 
ATOM     44  F1  UNL A   1      43.573  25.064  25.624  1.00  0.00    +0.000 F 
ATOM     45  C35 UNL A   1      43.189  22.755  25.373  1.00  0.00    +0.000 C 
ATOM     46  F2  UNL A   1      43.556  22.833  24.086  1.00  0.00    +0.000 F 
ATOM     47  C36 UNL A   1      42.811  21.533  25.911  1.00  0.00    +0.000 C 
ATOM     48  F3  UNL A   1      42.829  20.429  25.150  1.00  0.00    +0.000 F 
ATOM     49  C37 UNL A   1      42.416  21.455  27.237  1.00  0.00    +0.000 C 
ATOM     50  F4  UNL A   1      42.063  20.273  27.763  1.00  0.00    +0.000 F 
ATOM     51  C38 UNL A   1      42.397  22.601  28.028  1.00  0.00    +0.000 C 
ATOM     52  F5  UNL A   1      42.015  22.494  29.310  1.00  0.00    +0.000 F 
ENDBRANCH   41   42
BRANCH   58   59
ATOM     65  F8  UNL A   1      51.273  25.728  33.673  1.00  0.00    +0.000 F 
ATOM     66  C48 UNL A   1      48.930  25.443  33.755  1.00  0.00    +0.000 C 
ATOM     67  F9  UNL A   1      49.056  24.595  34.785  1.00  0.00    +0.000 F 
ATOM     68  C49 UNL A   1      47.668  25.731  33.243  1.00  0.00    +0.000 C 
ATOM     69  F10 UNL A   1      46.596  25.140  33.793  1.00  0.00    +0.000 F 
ATOM     59  C44 UNL A   1      47.511  26.628  32.178  1.00  0.00    +0.000 C 
ATOM     60  C45 UNL A   1      48.663  27.224  31.641  1.00  0.00    +0.000 C 
ATOM     61  F6  UNL A   1      48.564  28.073  30.607  1.00  0.00    +0.000 F 
ATOM     62  C46 UNL A   1      49.925  26.911  32.136  1.00  0.00    +0.000 C 
ATOM     63  F7  UNL A   1      51.015  27.452  31.575  1.00  0.00    +0.000 F 
ATOM     64  C47 UNL A   1      50.057  26.026  33.196  1.00  0.00    +0.000 C 
ENDBRANCH   58   59
BRANCH   73   74
ATOM     74  C53 UNL A   1      42.992  31.702  33.674  1.00  0.00    +0.000 C 
ATOM     75  C54 UNL A   1      43.330  32.995  33.257  1.00  0.00    +0.000 C 
ATOM     76  F11 UNL A   1      43.667  33.220  31.978  1.00  0.00    +0.000 F 
ATOM     77  C55 UNL A   1      43.362  34.055  34.161  1.00  0.00    +0.000 C 
ATOM     78  F12 UNL A   1      43.735  35.274  33.746  1.00  0.00    +0.000 F 
ATOM     79  C56 UNL A   1      43.026  33.848  35.490  1.00  0.00    +0.000 C 
ATOM     80  F13 UNL A   1      43.053  34.869  36.358  1.00  0.00    +0.000 F 
ATOM     81  C57 UNL A   1      42.668  32.580  35.921  1.00  0.00    +0.000 C 
ATOM     82  F14 UNL A   1      42.327  32.378  37.201  1.00  0.00    +0.000 F 
ATOM     83  C58 UNL A   1      42.666  31.514  35.025  1.00  0.00    +0.000 C 
ATOM     84  F15 UNL A   1      42.330  30.294  35.473  1.00  0.00    +0.000 F 
ENDBRANCH   73   74
TORSDOF 18
ENDMDL
MODEL 5
REMARK VINA RESULT:     -11.7     36.822     41.823
ROOT
ATOM    129  H34 UNL A   1      12.250  52.716   6.601  1.00  0.00    +0.000 H 
ATOM    130  H35 UNL A   1      14.649  51.677   3.368  1.00  0.00    +0.000 H 
ATOM    131  H36 UNL A   1      13.625  46.853   2.409  1.00  0.00    +0.000 H 
ATOM    132  H37 UNL A   1      15.337  47.008   0.512  1.00  0.00    +0.000 H 
ATOM    133  H38 UNL A   1      16.741  56.782   2.435  1.00  0.00    +0.000 H 
ATOM    134  H39 UNL A   1      15.229  56.591   4.494  1.00  0.00    +0.000 H 
ATOM     37  C29 UNL A   1      14.105  53.990   4.857  1.00  0.00    +0.000 C 
ATOM     38  C30 UNL A   1      15.074  54.438   3.801  1.00  0.00    +0.000 C 
ATOM     39  N3  UNL A   1      15.614  53.741   2.832  1.00  0.00    +0.000 N 
ATOM     40  C31 UNL A   1      16.416  54.626   2.125  1.00  0.00    +0.000 C 
ATOM     41  C32 UNL A   1      17.195  54.374   1.046  1.00  0.00    +0.000 C 
ATOM     53  C39 UNL A   1      17.341  53.078   0.432  1.00  0.00    +0.000 C 
ATOM     54  C40 UNL A   1      18.161  52.711  -0.622  1.00  0.00    +0.000 C 
ATOM     55  C41 UNL A   1      17.928  51.363  -0.911  1.00  0.00    +0.000 C 
ATOM     56  C42 UNL A   1      16.995  50.878  -0.010  1.00  0.00    +0.000 C 
ATOM     57  N4  UNL A   1      16.647  51.940   0.811  1.00  0.00    +0.000 N 
ATOM     58  C43 UNL A   1      16.456  49.546   0.092  1.00  0.00    +0.000 C 
ATOM     70  C50 UNL A   1      15.587  49.129   1.044  1.00  0.00    +0.000 C 
ATOM     71  N5  UNL A   1      15.022  49.851   2.084  1.00  0.00    +0.000 N 
ATOM     72  C51 UNL A   1      14.225  49.018   2.706  1.00  0.00    +0.000 C 
ATOM     73  C52 UNL A   1      13.360  49.258   3.911  1.00  0.00    +0.000 C 
ATOM     85  C59 UNL A   1      13.347  50.481   4.470  1.00  0.00    +0.000 C 
ATOM     86  C60 UNL A   1      12.554  50.863   5.632  1.00  0.00    +0.000 C 
ATOM     87  C61 UNL A   1      12.722  52.172   5.861  1.00  0.00    +0.000 C 
ATOM     88  C62 UNL A   1      13.684  52.711   4.895  1.00  0.00    +0.000 C 
ATOM     89  N6  UNL A   1      14.007  51.632   4.114  1.00  0.00    +0.000 N 
ATOM     90  C63 UNL A   1      14.186  47.671   2.124  1.00  0.00    +0.000 C 
ATOM     91  C64 UNL A   1      15.062  47.782   1.136  1.00  0.00    +0.000 C 
ATOM     92  C65 UNL A   1      16.281  55.919   2.763  1.00  0.00    +0.000 C 
ATOM     93  C66 UNL A   1      15.488  55.849   3.825  1.00  0.00    +0.000 C 
ATOM    125  H30 UNL A   1      18.831  53.328  -1.110  1.00  0.00    +0.000 H 
ATOM    126  H31 UNL A   1      18.373  50.822  -1.669  1.00  0.00    +0.000 H 
ATOM    127  H32 UNL A   1      16.002  51.892   1.554  1.00  0.00    +0.000 H 
ATOM    128  H33 UNL A   1      11.959  50.228   6.187  1.00  0.00    +0.000 H 
ENDROOT
BRANCH   37   36
ATOM     33  C25 UNL A   1      12.586  56.523   7.959  1.00  0.00    +0.000 C 
ATOM     34  C26 UNL A   1      13.805  55.861   8.117  1.00  0.00    +0.000 C 
ATOM     35  C27 UNL A   1      14.334  55.118   7.067  1.00  0.00    +0.000 C 
ATOM     36  C28 UNL A   1      13.593  54.926   5.889  1.00  0.00    +0.000 C 
ATOM    135  H40 UNL A   1      11.777  55.389   4.907  1.00  0.00    +0.000 H 
ATOM    136  H41 UNL A   1      10.930  56.819   6.679  1.00  0.00    +0.000 H 
ATOM    123  H28 UNL A   1      14.315  55.924   9.013  1.00  0.00    +0.000 H 
ATOM    124  H29 UNL A   1      15.275  54.705   7.154  1.00  0.00    +0.000 H 
ATOM     94  C67 UNL A   1      12.338  55.538   5.760  1.00  0.00    +0.000 C 
ATOM     95  C68 UNL A   1      11.843  56.350   6.787  1.00  0.00    +0.000 C 
BRANCH   33    2
ATOM      1  O1  UNL A   1      12.227  58.592   9.002  1.00  0.00    +0.000 O 
ATOM      2  C1  UNL A   1      12.040  57.383   9.036  1.00  0.00    +0.000 C 
BRANCH    2    3
ATOM      3  N1  UNL A   1      11.340  56.817  10.076  1.00  0.00    +0.000 N 
ATOM     96  H1  UNL A   1      11.472  57.239  10.955  1.00  0.00    +0.000 H 
BRANCH    3    4
ATOM     97  H2  UNL A   1      10.275  55.389   9.039  1.00  0.00    +0.000 H 
ATOM     98  H3  UNL A   1       9.518  55.992  10.521  1.00  0.00    +0.000 H 
ATOM      4  C2  UNL A   1      10.431  55.684  10.056  1.00  0.00    +0.000 C 
BRANCH    4    5
ATOM     99  H4  UNL A   1      10.134  53.925  11.188  1.00  0.00    +0.000 H 
ATOM    100  H5  UNL A   1      11.575  54.897  11.616  1.00  0.00    +0.000 H 
ATOM      5  C3  UNL A   1      10.968  54.492  10.833  1.00  0.00    +0.000 C 
BRANCH    5    6
ATOM    102  H7  UNL A   1      11.402  52.594  10.081  1.00  0.00    +0.000 H 
ATOM    101  H6  UNL A   1      11.971  53.952   9.049  1.00  0.00    +0.000 H 
ATOM      6  C4  UNL A   1      11.875  53.553  10.037  1.00  0.00    +0.000 C 
BRANCH    6    7
ATOM    103  H8  UNL A   1      13.982  53.637   9.841  1.00  0.00    +0.000 H 
ATOM      7  C5  UNL A   1      13.285  53.342  10.598  1.00  0.00    +0.000 C 
ATOM    104  H9  UNL A   1      13.329  52.307  10.866  1.00  0.00    +0.000 H 
BRANCH    7    8
ATOM    105  H10 UNL A   1      12.890  54.857  12.030  1.00  0.00    +0.000 H 
ATOM    106  H11 UNL A   1      14.622  54.498  11.721  1.00  0.00    +0.000 H 
ATOM      8  C6  UNL A   1      13.639  54.108  11.880  1.00  0.00    +0.000 C 
BRANCH    8    9
ATOM      9  C7  UNL A   1      13.727  53.270  13.154  1.00  0.00    +0.000 C 
ATOM    107  H12 UNL A   1      13.484  53.893  13.989  1.00  0.00    +0.000 H 
ATOM    108  H13 UNL A   1      14.725  52.889  13.217  1.00  0.00    +0.000 H 
BRANCH    9   10
ATOM     10  N2  UNL A   1      12.831  52.137  13.147  1.00  0.00    +0.000 N 
ATOM    109  H14 UNL A   1      11.934  52.302  12.775  1.00  0.00    +0.000 H 
BRANCH   10   11
ATOM     11  C8  UNL A   1      13.065  50.868  13.587  1.00  0.00    +0.000 C 
ATOM     12  O2  UNL A   1      13.725  50.740  14.621  1.00  0.00    +0.000 O 
BRANCH   11   13
ATOM     13  C9  UNL A   1      12.527  49.669  12.774  1.00  0.00    +0.000 C 
ATOM     14  C10 UNL A   1      11.855  50.107  11.479  1.00  0.00    +0.000 C 
ATOM    110  H15 UNL A   1      11.800  49.198  13.403  1.00  0.00    +0.000 H 
ATOM    111  H16 UNL A   1      12.034  51.147  11.303  1.00  0.00    +0.000 H 
ATOM     15  C11 UNL A   1      12.477  49.266  10.363  1.00  0.00    +0.000 C 
ATOM    112  H17 UNL A   1      10.795  49.968  11.525  1.00  0.00    +0.000 H 
ATOM    118  H23 UNL A   1      13.848  47.719  10.595  1.00  0.00    +0.000 H 
ATOM     24  C18 UNL A   1      13.758  48.692  11.030  1.00  0.00    +0.000 C 
ATOM     32  O4  UNL A   1      13.558  48.734  12.456  1.00  0.00    +0.000 O 
BRANCH   15   16
ATOM    113  H18 UNL A   1      13.218  50.978   9.670  1.00  0.00    +0.000 H 
ATOM     16  O3  UNL A   1      12.856  50.160   9.295  1.00  0.00    +0.000 O 
ENDBRANCH   15   16
BRANCH   15   17
ATOM     17  C12 UNL A   1      11.391  48.352   9.758  1.00  0.00    +0.000 C 
ATOM     18  C13 UNL A   1      10.456  49.005   8.903  1.00  0.00    +0.000 C 
ATOM     19  C14 UNL A   1       9.435  48.329   8.233  1.00  0.00    +0.000 C 
ATOM    114  H19 UNL A   1      10.538  50.026   8.773  1.00  0.00    +0.000 H 
ATOM     21  C16 UNL A   1      10.183  46.288   9.235  1.00  0.00    +0.000 C 
ATOM     22  C17 UNL A   1      11.188  46.972   9.947  1.00  0.00    +0.000 C 
ATOM     23 Cl1  UNL A   1      12.028  45.985  11.086  1.00  0.00    +0.000 Cl
ATOM    115  H20 UNL A   1       8.775  48.847   7.633  1.00  0.00    +0.000 H 
ATOM     20  C15 UNL A   1       9.314  46.959   8.379  1.00  0.00    +0.000 C 
ATOM    117  H22 UNL A   1      10.088  45.268   9.351  1.00  0.00    +0.000 H 
ATOM    116  H21 UNL A   1       8.587  46.440   7.861  1.00  0.00    +0.000 H 
ENDBRANCH   15   17
BRANCH   24   25
ATOM    122  H27 UNL A   1      17.933  48.868   8.922  1.00  0.00    +0.000 H 
ATOM    121  H26 UNL A   1      18.659  50.785  10.216  1.00  0.00    +0.000 H 
ATOM    119  H24 UNL A   1      14.904  50.931  12.082  1.00  0.00    +0.000 H 
ATOM    120  H25 UNL A   1      17.125  51.830  11.774  1.00  0.00    +0.000 H 
ATOM     25  C19 UNL A   1      15.117  49.325  10.728  1.00  0.00    +0.000 C 
ATOM     26  C20 UNL A   1      15.548  50.469  11.422  1.00  0.00    +0.000 C 
ATOM     27  C21 UNL A   1      16.830  50.998  11.239  1.00  0.00    +0.000 C 
ATOM     28  C22 UNL A   1      17.707  50.406  10.340  1.00  0.00    +0.000 C 
ATOM     29  C23 UNL A   1      17.293  49.299   9.607  1.00  0.00    +0.000 C 
ATOM     30  C24 UNL A   1      16.010  48.764   9.791  1.00  0.00    +0.000 C 
ATOM     31 Cl2  UNL A   1      15.602  47.406   8.796  1.00  0.00    +0.000 Cl
ENDBRANCH   24   25
ENDBRANCH   11   13
ENDBRANCH   10   11
ENDBRANCH    9   10
ENDBRANCH    8    9
ENDBRANCH    7    8
ENDBRANCH    6    7
ENDBRANCH    5    6
ENDBRANCH    4    5
ENDBRANCH    3    4
ENDBRANCH    2    3
ENDBRANCH   33    2
ENDBRANCH   37   36
BRANCH   41   42
ATOM     42  C33 UNL A   1      17.954  55.517   0.438  1.00  0.00    +0.000 C 
ATOM     43  C34 UNL A   1      19.209  55.907   0.925  1.00  0.00    +0.000 C 
ATOM     44  F1  UNL A   1      19.720  55.325   2.021  1.00  0.00    +0.000 F 
ATOM     45  C35 UNL A   1      19.943  56.907   0.291  1.00  0.00    +0.000 C 
ATOM     46  F2  UNL A   1      21.134  57.277   0.783  1.00  0.00    +0.000 F 
ATOM     47  C36 UNL A   1      19.447  57.519  -0.852  1.00  0.00    +0.000 C 
ATOM     48  F3  UNL A   1      20.164  58.466  -1.472  1.00  0.00    +0.000 F 
ATOM     49  C37 UNL A   1      18.209  57.146  -1.351  1.00  0.00    +0.000 C 
ATOM     50  F4  UNL A   1      17.733  57.727  -2.462  1.00  0.00    +0.000 F 
ATOM     51  C38 UNL A   1      17.464  56.163  -0.707  1.00  0.00    +0.000 C 
ATOM     52  F5  UNL A   1      16.270  55.820  -1.216  1.00  0.00    +0.000 F 
ENDBRANCH   41   42
BRANCH   58   59
ATOM     65  F8  UNL A   1      18.086  45.710  -3.717  1.00  0.00    +0.000 F 
ATOM     66  C48 UNL A   1      16.540  47.352  -3.013  1.00  0.00    +0.000 C 
ATOM     67  F9  UNL A   1      15.802  47.147  -4.113  1.00  0.00    +0.000 F 
ATOM     68  C49 UNL A   1      16.148  48.310  -2.082  1.00  0.00    +0.000 C 
ATOM     69  F10 UNL A   1      15.034  49.021  -2.315  1.00  0.00    +0.000 F 
ATOM     59  C44 UNL A   1      16.896  48.529  -0.917  1.00  0.00    +0.000 C 
ATOM     60  C45 UNL A   1      18.051  47.757  -0.718  1.00  0.00    +0.000 C 
ATOM     61  F6  UNL A   1      18.809  47.945   0.373  1.00  0.00    +0.000 F 
ATOM     62  C46 UNL A   1      18.455  46.821  -1.664  1.00  0.00    +0.000 C 
ATOM     63  F7  UNL A   1      19.588  46.129  -1.479  1.00  0.00    +0.000 F 
ATOM     64  C47 UNL A   1      17.696  46.614  -2.808  1.00  0.00    +0.000 C 
ENDBRANCH   58   59
BRANCH   73   74
ATOM     74  C53 UNL A   1      12.512  48.177   4.474  1.00  0.00    +0.000 C 
ATOM     75  C54 UNL A   1      12.967  47.377   5.530  1.00  0.00    +0.000 C 
ATOM     76  F11 UNL A   1      14.194  47.570   6.036  1.00  0.00    +0.000 F 
ATOM     77  C55 UNL A   1      12.177  46.349   6.043  1.00  0.00    +0.000 C 
ATOM     78  F12 UNL A   1      12.654  45.568   7.021  1.00  0.00    +0.000 F 
ATOM     79  C56 UNL A   1      10.909  46.123   5.532  1.00  0.00    +0.000 C 
ATOM     80  F13 UNL A   1      10.149  45.137   6.028  1.00  0.00    +0.000 F 
ATOM     81  C57 UNL A   1      10.430  46.916   4.499  1.00  0.00    +0.000 C 
ATOM     82  F14 UNL A   1       9.198  46.713   4.013  1.00  0.00    +0.000 F 
ATOM     83  C58 UNL A   1      11.230  47.923   3.966  1.00  0.00    +0.000 C 
ATOM     84  F15 UNL A   1      10.747  48.665   2.958  1.00  0.00    +0.000 F 
ENDBRANCH   73   74
TORSDOF 18
ENDMDL
MODEL 6
REMARK VINA RESULT:     -11.7     36.813     41.900
ROOT
ATOM    129  H34 UNL A   1      12.523  52.957   6.363  1.00  0.00    +0.000 H 
ATOM    130  H35 UNL A   1      14.868  51.771   3.141  1.00  0.00    +0.000 H 
ATOM    131  H36 UNL A   1      13.724  46.946   2.329  1.00  0.00    +0.000 H 
ATOM    132  H37 UNL A   1      15.421  47.008   0.414  1.00  0.00    +0.000 H 
ATOM    133  H38 UNL A   1      17.068  56.797   2.044  1.00  0.00    +0.000 H 
ATOM    134  H39 UNL A   1      15.571  56.700   4.121  1.00  0.00    +0.000 H 
ATOM     37  C29 UNL A   1      14.391  54.138   4.567  1.00  0.00    +0.000 C 
ATOM     38  C30 UNL A   1      15.359  54.533   3.491  1.00  0.00    +0.000 C 
ATOM     39  N3  UNL A   1      15.874  53.796   2.538  1.00  0.00    +0.000 N 
ATOM     40  C31 UNL A   1      16.690  54.641   1.798  1.00  0.00    +0.000 C 
ATOM     41  C32 UNL A   1      17.453  54.340   0.720  1.00  0.00    +0.000 C 
ATOM     53  C39 UNL A   1      17.564  53.025   0.143  1.00  0.00    +0.000 C 
ATOM     54  C40 UNL A   1      18.365  52.609  -0.908  1.00  0.00    +0.000 C 
ATOM     55  C41 UNL A   1      18.098  51.259  -1.156  1.00  0.00    +0.000 C 
ATOM     56  C42 UNL A   1      17.163  50.821  -0.233  1.00  0.00    +0.000 C 
ATOM     57  N4  UNL A   1      16.847  51.914   0.560  1.00  0.00    +0.000 N 
ATOM     58  C43 UNL A   1      16.595  49.507  -0.089  1.00  0.00    +0.000 C 
ATOM     70  C50 UNL A   1      15.725  49.137   0.883  1.00  0.00    +0.000 C 
ATOM     71  N5  UNL A   1      15.186  49.901   1.906  1.00  0.00    +0.000 N 
ATOM     72  C51 UNL A   1      14.376  49.105   2.559  1.00  0.00    +0.000 C 
ATOM     73  C52 UNL A   1      13.529  49.399   3.764  1.00  0.00    +0.000 C 
ATOM     85  C59 UNL A   1      13.549  50.637   4.288  1.00  0.00    +0.000 C 
ATOM     86  C60 UNL A   1      12.775  51.070   5.445  1.00  0.00    +0.000 C 
ATOM     87  C61 UNL A   1      12.976  52.381   5.635  1.00  0.00    +0.000 C 
ATOM     88  C62 UNL A   1      13.940  52.870   4.646  1.00  0.00    +0.000 C 
ATOM     89  N6  UNL A   1      14.232  51.762   3.893  1.00  0.00    +0.000 N 
ATOM     90  C63 UNL A   1      14.301  47.743   2.016  1.00  0.00    +0.000 C 
ATOM     91  C64 UNL A   1      15.170  47.805   1.018  1.00  0.00    +0.000 C 
ATOM     92  C65 UNL A   1      16.591  55.955   2.401  1.00  0.00    +0.000 C 
ATOM     93  C66 UNL A   1      15.806  55.934   3.471  1.00  0.00    +0.000 C 
ATOM    125  H30 UNL A   1      19.044  53.196  -1.419  1.00  0.00    +0.000 H 
ATOM    126  H31 UNL A   1      18.524  50.687  -1.902  1.00  0.00    +0.000 H 
ATOM    127  H32 UNL A   1      16.208  51.903   1.310  1.00  0.00    +0.000 H 
ATOM    128  H33 UNL A   1      12.171  50.466   6.023  1.00  0.00    +0.000 H 
ENDROOT
BRANCH   37   36
ATOM     33  C25 UNL A   1      12.952  56.792   7.606  1.00  0.00    +0.000 C 
ATOM     34  C26 UNL A   1      14.137  56.077   7.792  1.00  0.00    +0.000 C 
ATOM     35  C27 UNL A   1      14.644  55.291   6.761  1.00  0.00    +0.000 C 
ATOM     36  C28 UNL A   1      13.910  55.114   5.576  1.00  0.00    +0.000 C 
ATOM    135  H40 UNL A   1      12.130  55.644   4.563  1.00  0.00    +0.000 H 
ATOM    136  H41 UNL A   1      11.328  57.143   6.299  1.00  0.00    +0.000 H 
ATOM    123  H28 UNL A   1      14.637  56.131   8.693  1.00  0.00    +0.000 H 
ATOM    124  H29 UNL A   1      15.563  54.836   6.868  1.00  0.00    +0.000 H 
ATOM     94  C67 UNL A   1      12.687  55.782   5.421  1.00  0.00    +0.000 C 
ATOM     95  C68 UNL A   1      12.217  56.633   6.427  1.00  0.00    +0.000 C 
BRANCH   33    2
ATOM      1  O1  UNL A   1      12.690  58.890   8.617  1.00  0.00    +0.000 O 
ATOM      2  C1  UNL A   1      12.434  57.695   8.661  1.00  0.00    +0.000 C 
BRANCH    2    3
ATOM      3  N1  UNL A   1      11.680  57.183   9.691  1.00  0.00    +0.000 N 
ATOM     96  H1  UNL A   1      11.833  57.593  10.573  1.00  0.00    +0.000 H 
BRANCH    3    4
ATOM     97  H2  UNL A   1      10.474  55.886   8.637  1.00  0.00    +0.000 H 
ATOM     98  H3  UNL A   1       9.820  56.473  10.174  1.00  0.00    +0.000 H 
ATOM      4  C2  UNL A   1      10.689  56.121   9.658  1.00  0.00    +0.000 C 
BRANCH    4    5
ATOM     99  H4  UNL A   1      10.303  54.340  10.728  1.00  0.00    +0.000 H 
ATOM    100  H5  UNL A   1      11.831  55.181  11.132  1.00  0.00    +0.000 H 
ATOM      5  C3  UNL A   1      11.164  54.859  10.360  1.00  0.00    +0.000 C 
BRANCH    5    6
ATOM    102  H7  UNL A   1      11.349  53.020   9.389  1.00  0.00    +0.000 H 
ATOM    101  H6  UNL A   1      12.175  54.385   8.562  1.00  0.00    +0.000 H 
ATOM      6  C4  UNL A   1      11.962  53.891   9.487  1.00  0.00    +0.000 C 
BRANCH    6    7
ATOM    103  H8  UNL A   1      13.994  53.332   9.266  1.00  0.00    +0.000 H 
ATOM      7  C5  UNL A   1      13.290  53.394  10.070  1.00  0.00    +0.000 C 
ATOM    104  H9  UNL A   1      13.059  52.459  10.536  1.00  0.00    +0.000 H 
BRANCH    7    8
ATOM    105  H10 UNL A   1      13.455  55.215  11.147  1.00  0.00    +0.000 H 
ATOM    106  H11 UNL A   1      14.970  54.268  10.964  1.00  0.00    +0.000 H 
ATOM      8  C6  UNL A   1      13.921  54.252  11.175  1.00  0.00    +0.000 C 
BRANCH    8    9
ATOM      9  C7  UNL A   1      13.791  53.709  12.596  1.00  0.00    +0.000 C 
ATOM    107  H12 UNL A   1      13.519  54.515  13.246  1.00  0.00    +0.000 H 
ATOM    108  H13 UNL A   1      14.737  53.284  12.862  1.00  0.00    +0.000 H 
BRANCH    9   10
ATOM     10  N2  UNL A   1      12.799  52.666  12.713  1.00  0.00    +0.000 N 
ATOM    109  H14 UNL A   1      11.920  52.865  12.318  1.00  0.00    +0.000 H 
BRANCH   10   11
ATOM     11  C8  UNL A   1      12.922  51.441  13.300  1.00  0.00    +0.000 C 
ATOM     12  O2  UNL A   1      13.492  51.391  14.392  1.00  0.00    +0.000 O 
BRANCH   11   13
ATOM     13  C9  UNL A   1      12.374  50.192  12.573  1.00  0.00    +0.000 C 
ATOM     14  C10 UNL A   1      11.820  50.525  11.194  1.00  0.00    +0.000 C 
ATOM    110  H15 UNL A   1      11.580  49.825  13.191  1.00  0.00    +0.000 H 
ATOM    111  H16 UNL A   1      12.069  51.530  10.928  1.00  0.00    +0.000 H 
ATOM     15  C11 UNL A   1      12.470  49.542  10.219  1.00  0.00    +0.000 C 
ATOM    112  H17 UNL A   1      10.753  50.444  11.175  1.00  0.00    +0.000 H 
ATOM    118  H23 UNL A   1      13.732  47.962  10.707  1.00  0.00    +0.000 H 
ATOM     24  C18 UNL A   1      13.667  48.979  11.035  1.00  0.00    +0.000 C 
ATOM     32  O4  UNL A   1      13.370  49.179  12.430  1.00  0.00    +0.000 O 
BRANCH   15   16
ATOM    113  H18 UNL A   1      13.067  49.716   8.328  1.00  0.00    +0.000 H 
ATOM     16  O3  UNL A   1      12.972  50.300   9.097  1.00  0.00    +0.000 O 
ENDBRANCH   15   16
BRANCH   15   17
ATOM     17  C12 UNL A   1      11.379  48.624   9.629  1.00  0.00    +0.000 C 
ATOM     18  C13 UNL A   1      11.485  47.248   9.986  1.00  0.00    +0.000 C 
ATOM     19  C14 UNL A   1      10.562  46.283   9.581  1.00  0.00    +0.000 C 
ATOM    114  H19 UNL A   1      12.283  46.952  10.571  1.00  0.00    +0.000 H 
ATOM     21  C16 UNL A   1       9.356  47.984   8.407  1.00  0.00    +0.000 C 
ATOM     22  C17 UNL A   1      10.309  48.954   8.776  1.00  0.00    +0.000 C 
ATOM     23 Cl1  UNL A   1      10.069  50.487   8.020  1.00  0.00    +0.000 Cl
ATOM    115  H20 UNL A   1      10.688  45.296   9.857  1.00  0.00    +0.000 H 
ATOM     20  C15 UNL A   1       9.477  46.657   8.810  1.00  0.00    +0.000 C 
ATOM    117  H22 UNL A   1       8.552  48.262   7.825  1.00  0.00    +0.000 H 
ATOM    116  H21 UNL A   1       8.766  45.961   8.535  1.00  0.00    +0.000 H 
ENDBRANCH   15   17
BRANCH   24   25
ATOM    122  H27 UNL A   1      17.952  48.771   9.164  1.00  0.00    +0.000 H 
ATOM    121  H26 UNL A   1      18.727  50.720  10.379  1.00  0.00    +0.000 H 
ATOM    119  H24 UNL A   1      14.893  51.209  12.013  1.00  0.00    +0.000 H 
ATOM    120  H25 UNL A   1      17.180  51.952  11.780  1.00  0.00    +0.000 H 
ATOM     25  C19 UNL A   1      15.077  49.509  10.773  1.00  0.00    +0.000 C 
ATOM     26  C20 UNL A   1      15.542  50.668  11.420  1.00  0.00    +0.000 C 
ATOM     27  C21 UNL A   1      16.862  51.107  11.280  1.00  0.00    +0.000 C 
ATOM     28  C22 UNL A   1      17.747  50.408  10.470  1.00  0.00    +0.000 C 
ATOM     29  C23 UNL A   1      17.304  49.282   9.782  1.00  0.00    +0.000 C 
ATOM     30  C24 UNL A   1      15.982  48.837   9.925  1.00  0.00    +0.000 C 
ATOM     31 Cl2  UNL A   1      15.543  47.445   8.992  1.00  0.00    +0.000 Cl
ENDBRANCH   24   25
ENDBRANCH   11   13
ENDBRANCH   10   11
ENDBRANCH    9   10
ENDBRANCH    8    9
ENDBRANCH    7    8
ENDBRANCH    6    7
ENDBRANCH    5    6
ENDBRANCH    4    5
ENDBRANCH    3    4
ENDBRANCH    2    3
ENDBRANCH   33    2
ENDBRANCH   37   36
BRANCH   41   42
ATOM     42  C33 UNL A   1      18.232  55.448   0.074  1.00  0.00    +0.000 C 
ATOM     43  C34 UNL A   1      17.749  56.127  -1.053  1.00  0.00    +0.000 C 
ATOM     44  F1  UNL A   1      16.612  55.730  -1.644  1.00  0.00    +0.000 F 
ATOM     45  C35 UNL A   1      18.438  57.215  -1.583  1.00  0.00    +0.000 C 
ATOM     46  F2  UNL A   1      17.967  57.839  -2.672  1.00  0.00    +0.000 F 
ATOM     47  C36 UNL A   1      19.610  57.657  -0.986  1.00  0.00    +0.000 C 
ATOM     48  F3  UNL A   1      20.261  58.717  -1.486  1.00  0.00    +0.000 F 
ATOM     49  C37 UNL A   1      20.105  57.001   0.130  1.00  0.00    +0.000 C 
ATOM     50  F4  UNL A   1      21.231  57.434   0.716  1.00  0.00    +0.000 F 
ATOM     51  C38 UNL A   1      19.430  55.900   0.649  1.00  0.00    +0.000 C 
ATOM     52  F5  UNL A   1      19.931  55.288   1.734  1.00  0.00    +0.000 F 
ENDBRANCH   41   42
BRANCH   58   59
ATOM     65  F8  UNL A   1      18.152  45.530  -3.783  1.00  0.00    +0.000 F 
ATOM     66  C48 UNL A   1      18.500  46.658  -1.736  1.00  0.00    +0.000 C 
ATOM     67  F9  UNL A   1      19.569  45.891  -1.481  1.00  0.00    +0.000 F 
ATOM     68  C49 UNL A   1      18.106  47.626  -0.818  1.00  0.00    +0.000 C 
ATOM     69  F10 UNL A   1      18.806  47.764   0.318  1.00  0.00    +0.000 F 
ATOM     59  C44 UNL A   1      17.001  48.451  -1.071  1.00  0.00    +0.000 C 
ATOM     60  C45 UNL A   1      16.304  48.270  -2.276  1.00  0.00    +0.000 C 
ATOM     61  F6  UNL A   1      15.228  49.022  -2.554  1.00  0.00    +0.000 F 
ATOM     62  C46 UNL A   1      16.684  47.281  -3.179  1.00  0.00    +0.000 C 
ATOM     63  F7  UNL A   1      15.975  47.092  -4.300  1.00  0.00    +0.000 F 
ATOM     64  C47 UNL A   1      17.785  46.480  -2.912  1.00  0.00    +0.000 C 
ENDBRANCH   58   59
BRANCH   73   74
ATOM     74  C53 UNL A   1      12.661  48.354   4.365  1.00  0.00    +0.000 C 
ATOM     75  C54 UNL A   1      11.386  48.089   3.851  1.00  0.00    +0.000 C 
ATOM     76  F11 UNL A   1      10.922  48.797   2.811  1.00  0.00    +0.000 F 
ATOM     77  C55 UNL A   1      10.565  47.122   4.431  1.00  0.00    +0.000 C 
ATOM     78  F12 UNL A   1       9.331  46.921   3.950  1.00  0.00    +0.000 F 
ATOM     79  C56 UNL A   1      11.017  46.382   5.513  1.00  0.00    +0.000 C 
ATOM     80  F13 UNL A   1      10.229  45.451   6.067  1.00  0.00    +0.000 F 
ATOM     81  C57 UNL A   1      12.284  46.614   6.026  1.00  0.00    +0.000 C 
ATOM     82  F14 UNL A   1      12.731  45.891   7.061  1.00  0.00    +0.000 F 
ATOM     83  C58 UNL A   1      13.092  47.601   5.467  1.00  0.00    +0.000 C 
ATOM     84  F15 UNL A   1      14.308  47.814   5.993  1.00  0.00    +0.000 F 
ENDBRANCH   73   74
TORSDOF 18
ENDMDL
MODEL 7
REMARK VINA RESULT:     -11.6      3.154      8.092
ROOT
ATOM    129  H34 UNL A   1      42.945  24.475  25.999  1.00  0.00    +0.000 H 
ATOM    130  H35 UNL A   1      43.265  28.163  27.891  1.00  0.00    +0.000 H 
ATOM    131  H36 UNL A   1      47.903  29.810  26.884  1.00  0.00    +0.000 H 
ATOM    132  H37 UNL A   1      47.321  31.883  28.269  1.00  0.00    +0.000 H 
ATOM    133  H38 UNL A   1      37.960  28.465  29.643  1.00  0.00    +0.000 H 
ATOM    134  H39 UNL A   1      38.594  26.271  28.482  1.00  0.00    +0.000 H 
ATOM     37  C29 UNL A   1      41.280  26.219  27.513  1.00  0.00    +0.000 C 
ATOM     38  C30 UNL A   1      40.599  27.309  28.288  1.00  0.00    +0.000 C 
ATOM     39  N3  UNL A   1      41.085  28.457  28.691  1.00  0.00    +0.000 N 
ATOM     40  C31 UNL A   1      40.046  29.106  29.342  1.00  0.00    +0.000 C 
ATOM     41  C32 UNL A   1      40.060  30.317  29.949  1.00  0.00    +0.000 C 
ATOM     53  C39 UNL A   1      41.219  31.168  30.039  1.00  0.00    +0.000 C 
ATOM     54  C40 UNL A   1      41.349  32.382  30.693  1.00  0.00    +0.000 C 
ATOM     55  C41 UNL A   1      42.639  32.871  30.461  1.00  0.00    +0.000 C 
ATOM     56  C42 UNL A   1      43.327  31.942  29.698  1.00  0.00    +0.000 C 
ATOM     57  N4  UNL A   1      42.446  30.901  29.450  1.00  0.00    +0.000 N 
ATOM     58  C43 UNL A   1      44.686  32.002  29.226  1.00  0.00    +0.000 C 
ATOM     70  C50 UNL A   1      45.313  31.022  28.531  1.00  0.00    +0.000 C 
ATOM     71  N5  UNL A   1      44.816  29.796  28.114  1.00  0.00    +0.000 N 
ATOM     72  C51 UNL A   1      45.790  29.222  27.453  1.00  0.00    +0.000 C 
ATOM     73  C52 UNL A   1      45.814  27.878  26.782  1.00  0.00    +0.000 C 
ATOM     85  C59 UNL A   1      44.709  27.112  26.818  1.00  0.00    +0.000 C 
ATOM     86  C60 UNL A   1      44.582  25.795  26.206  1.00  0.00    +0.000 C 
ATOM     87  C61 UNL A   1      43.324  25.363  26.366  1.00  0.00    +0.000 C 
ATOM     88  C62 UNL A   1      42.570  26.349  27.145  1.00  0.00    +0.000 C 
ATOM     89  N6  UNL A   1      43.476  27.351  27.376  1.00  0.00    +0.000 N 
ATOM     90  C63 UNL A   1      47.016  30.025  27.366  1.00  0.00    +0.000 C 
ATOM     91  C64 UNL A   1      46.684  31.096  28.072  1.00  0.00    +0.000 C 
ATOM     92  C65 UNL A   1      38.892  28.233  29.268  1.00  0.00    +0.000 C 
ATOM     93  C66 UNL A   1      39.192  27.094  28.655  1.00  0.00    +0.000 C 
ATOM    125  H30 UNL A   1      40.619  32.846  31.257  1.00  0.00    +0.000 H 
ATOM    126  H31 UNL A   1      43.013  33.772  30.799  1.00  0.00    +0.000 H 
ATOM    127  H32 UNL A   1      42.660  30.091  28.932  1.00  0.00    +0.000 H 
ATOM    128  H33 UNL A   1      45.337  25.281  25.726  1.00  0.00    +0.000 H 
ENDROOT
BRANCH   37   36
ATOM     33  C25 UNL A   1      39.368  22.589  26.281  1.00  0.00    +0.000 C 
ATOM     34  C26 UNL A   1      40.618  22.556  26.904  1.00  0.00    +0.000 C 
ATOM     35  C27 UNL A   1      41.186  23.732  27.384  1.00  0.00    +0.000 C 
ATOM     36  C28 UNL A   1      40.569  24.970  27.141  1.00  0.00    +0.000 C 
ATOM    135  H40 UNL A   1      38.893  25.910  26.254  1.00  0.00    +0.000 H 
ATOM    136  H41 UNL A   1      37.825  23.841  25.560  1.00  0.00    +0.000 H 
ATOM    123  H28 UNL A   1      41.120  21.661  27.007  1.00  0.00    +0.000 H 
ATOM    124  H29 UNL A   1      42.065  23.694  27.923  1.00  0.00    +0.000 H 
ATOM     94  C67 UNL A   1      39.346  25.005  26.455  1.00  0.00    +0.000 C 
ATOM     95  C68 UNL A   1      38.738  23.814  26.041  1.00  0.00    +0.000 C 
BRANCH   33    2
ATOM      1  O1  UNL A   1      39.219  20.258  26.086  1.00  0.00    +0.000 O 
ATOM      2  C1  UNL A   1      38.709  21.340  25.830  1.00  0.00    +0.000 C 
BRANCH    2    3
ATOM      3  N1  UNL A   1      37.537  21.404  25.113  1.00  0.00    +0.000 N 
ATOM     96  H1  UNL A   1      37.425  22.207  24.555  1.00  0.00    +0.000 H 
BRANCH    3    4
ATOM     97  H2  UNL A   1      36.449  19.878  25.970  1.00  0.00    +0.000 H 
ATOM     98  H3  UNL A   1      36.587  19.832  24.206  1.00  0.00    +0.000 H 
ATOM      4  C2  UNL A   1      36.442  20.451  25.066  1.00  0.00    +0.000 C 
BRANCH    4    5
ATOM     99  H4  UNL A   1      34.471  20.805  25.742  1.00  0.00    +0.000 H 
ATOM    100  H5  UNL A   1      34.709  20.840  23.967  1.00  0.00    +0.000 H 
ATOM      5  C3  UNL A   1      35.087  21.126  24.927  1.00  0.00    +0.000 C 
BRANCH    5    6
ATOM    102  H7  UNL A   1      36.138  22.921  24.744  1.00  0.00    +0.000 H 
ATOM    101  H6  UNL A   1      34.430  22.998  24.188  1.00  0.00    +0.000 H 
ATOM      6  C4  UNL A   1      35.119  22.655  24.931  1.00  0.00    +0.000 C 
BRANCH    6    7
ATOM    103  H8  UNL A   1      33.978  24.043  26.055  1.00  0.00    +0.000 H 
ATOM      7  C5  UNL A   1      34.754  23.333  26.256  1.00  0.00    +0.000 C 
ATOM    104  H9  UNL A   1      35.667  23.759  26.615  1.00  0.00    +0.000 H 
BRANCH    7    8
ATOM    105  H10 UNL A   1      34.896  22.580  28.235  1.00  0.00    +0.000 H 
ATOM    106  H11 UNL A   1      34.305  21.425  26.994  1.00  0.00    +0.000 H 
ATOM      8  C6  UNL A   1      34.264  22.418  27.387  1.00  0.00    +0.000 C 
BRANCH    8    9
ATOM      9  C7  UNL A   1      32.819  22.627  27.835  1.00  0.00    +0.000 C 
ATOM    107  H12 UNL A   1      32.781  23.477  28.483  1.00  0.00    +0.000 H 
ATOM    108  H13 UNL A   1      32.506  21.732  28.332  1.00  0.00    +0.000 H 
BRANCH    9   10
ATOM     10  N2  UNL A   1      31.913  22.848  26.732  1.00  0.00    +0.000 N 
ATOM    109  H14 UNL A   1      32.234  22.555  25.848  1.00  0.00    +0.000 H 
BRANCH   10   11
ATOM     11  C8  UNL A   1      30.670  23.410  26.754  1.00  0.00    +0.000 C 
ATOM     12  O2  UNL A   1      29.739  22.710  27.157  1.00  0.00    +0.000 O 
BRANCH   11   13
ATOM     13  C9  UNL A   1      30.483  24.862  26.258  1.00  0.00    +0.000 C 
ATOM     14  C10 UNL A   1      31.721  25.716  26.496  1.00  0.00    +0.000 C 
ATOM    110  H15 UNL A   1      29.669  25.258  26.829  1.00  0.00    +0.000 H 
ATOM    111  H16 UNL A   1      32.540  25.102  26.807  1.00  0.00    +0.000 H 
ATOM     15  C11 UNL A   1      32.044  26.390  25.161  1.00  0.00    +0.000 C 
ATOM    112  H17 UNL A   1      31.552  26.439  27.266  1.00  0.00    +0.000 H 
ATOM    118  H23 UNL A   1      30.916  26.288  23.416  1.00  0.00    +0.000 H 
ATOM     24  C18 UNL A   1      31.217  25.560  24.140  1.00  0.00    +0.000 C 
ATOM     32  O4  UNL A   1      30.156  24.912  24.869  1.00  0.00    +0.000 O 
BRANCH   15   16
ATOM    113  H18 UNL A   1      33.724  26.776  24.166  1.00  0.00    +0.000 H 
ATOM     16  O3  UNL A   1      33.451  26.202  24.900  1.00  0.00    +0.000 O 
ENDBRANCH   15   16
BRANCH   15   17
ATOM     17  C12 UNL A   1      31.862  27.915  25.312  1.00  0.00    +0.000 C 
ATOM     18  C13 UNL A   1      30.969  28.515  24.376  1.00  0.00    +0.000 C 
ATOM     19  C14 UNL A   1      30.650  29.874  24.391  1.00  0.00    +0.000 C 
ATOM    114  H19 UNL A   1      30.540  27.917  23.652  1.00  0.00    +0.000 H 
ATOM     21  C16 UNL A   1      32.106  30.155  26.269  1.00  0.00    +0.000 C 
ATOM     22  C17 UNL A   1      32.466  28.793  26.231  1.00  0.00    +0.000 C 
ATOM     23 Cl1  UNL A   1      33.736  28.378  27.323  1.00  0.00    +0.000 Cl
ATOM    115  H20 UNL A   1      30.007  30.264  23.685  1.00  0.00    +0.000 H 
ATOM     20  C15 UNL A   1      31.201  30.693  25.359  1.00  0.00    +0.000 C 
ATOM    117  H22 UNL A   1      32.524  30.767  26.987  1.00  0.00    +0.000 H 
ATOM    116  H21 UNL A   1      30.945  31.692  25.407  1.00  0.00    +0.000 H 
ENDBRANCH   15   17
BRANCH   24   25
ATOM    122  H27 UNL A   1      33.800  24.126  20.510  1.00  0.00    +0.000 H 
ATOM    121  H26 UNL A   1      33.408  21.781  20.981  1.00  0.00    +0.000 H 
ATOM    119  H24 UNL A   1      31.223  22.846  24.401  1.00  0.00    +0.000 H 
ATOM    120  H25 UNL A   1      32.141  21.148  22.948  1.00  0.00    +0.000 H 
ATOM     25  C19 UNL A   1      31.914  24.501  23.286  1.00  0.00    +0.000 C 
ATOM     26  C20 UNL A   1      31.752  23.131  23.562  1.00  0.00    +0.000 C 
ATOM     27  C21 UNL A   1      32.290  22.146  22.729  1.00  0.00    +0.000 C 
ATOM     28  C22 UNL A   1      33.024  22.506  21.606  1.00  0.00    +0.000 C 
ATOM     29  C23 UNL A   1      33.239  23.854  21.331  1.00  0.00    +0.000 C 
ATOM     30  C24 UNL A   1      32.696  24.843  22.163  1.00  0.00    +0.000 C 
ATOM     31 Cl2  UNL A   1      33.061  26.481  21.733  1.00  0.00    +0.000 Cl
ENDBRANCH   24   25
ENDBRANCH   11   13
ENDBRANCH   10   11
ENDBRANCH    9   10
ENDBRANCH    8    9
ENDBRANCH    7    8
ENDBRANCH    6    7
ENDBRANCH    5    6
ENDBRANCH    4    5
ENDBRANCH    3    4
ENDBRANCH    2    3
ENDBRANCH   33    2
ENDBRANCH   37   36
BRANCH   41   42
ATOM     42  C33 UNL A   1      38.786  30.815  30.566  1.00  0.00    +0.000 C 
ATOM     43  C34 UNL A   1      37.764  31.378  29.789  1.00  0.00    +0.000 C 
ATOM     44  F1  UNL A   1      37.947  31.576  28.474  1.00  0.00    +0.000 F 
ATOM     45  C35 UNL A   1      36.550  31.748  30.362  1.00  0.00    +0.000 C 
ATOM     46  F2  UNL A   1      35.593  32.300  29.603  1.00  0.00    +0.000 F 
ATOM     47  C36 UNL A   1      36.328  31.543  31.716  1.00  0.00    +0.000 C 
ATOM     48  F3  UNL A   1      35.151  31.882  32.262  1.00  0.00    +0.000 F 
ATOM     49  C37 UNL A   1      37.324  30.987  32.503  1.00  0.00    +0.000 C 
ATOM     50  F4  UNL A   1      37.106  30.776  33.809  1.00  0.00    +0.000 F 
ATOM     51  C38 UNL A   1      38.546  30.636  31.936  1.00  0.00    +0.000 C 
ATOM     52  F5  UNL A   1      39.490  30.095  32.723  1.00  0.00    +0.000 F 
ENDBRANCH   41   42
BRANCH   58   59
ATOM     65  F8  UNL A   1      47.698  36.629  30.410  1.00  0.00    +0.000 F 
ATOM     66  C48 UNL A   1      46.982  34.458  31.004  1.00  0.00    +0.000 C 
ATOM     67  F9  UNL A   1      47.696  34.518  32.136  1.00  0.00    +0.000 F 
ATOM     68  C49 UNL A   1      46.253  33.310  30.703  1.00  0.00    +0.000 C 
ATOM     69  F10 UNL A   1      46.291  32.277  31.558  1.00  0.00    +0.000 F 
ATOM     59  C44 UNL A   1      45.485  33.232  29.533  1.00  0.00    +0.000 C 
ATOM     60  C45 UNL A   1      45.476  34.341  28.674  1.00  0.00    +0.000 C 
ATOM     61  F6  UNL A   1      44.772  34.305  27.532  1.00  0.00    +0.000 F 
ATOM     62  C46 UNL A   1      46.228  35.475  28.963  1.00  0.00    +0.000 C 
ATOM     63  F7  UNL A   1      46.244  36.504  28.105  1.00  0.00    +0.000 F 
ATOM     64  C47 UNL A   1      46.976  35.535  30.131  1.00  0.00    +0.000 C 
ENDBRANCH   58   59
BRANCH   73   74
ATOM     74  C53 UNL A   1      47.025  27.398  26.069  1.00  0.00    +0.000 C 
ATOM     75  C54 UNL A   1      47.198  27.632  24.699  1.00  0.00    +0.000 C 
ATOM     76  F11 UNL A   1      46.253  28.284  24.006  1.00  0.00    +0.000 F 
ATOM     77  C55 UNL A   1      48.326  27.162  24.028  1.00  0.00    +0.000 C 
ATOM     78  F12 UNL A   1      48.445  27.359  22.708  1.00  0.00    +0.000 F 
ATOM     79  C56 UNL A   1      49.314  26.478  24.719  1.00  0.00    +0.000 C 
ATOM     80  F13 UNL A   1      50.399  26.030  24.073  1.00  0.00    +0.000 F 
ATOM     81  C57 UNL A   1      49.173  26.252  26.080  1.00  0.00    +0.000 C 
ATOM     82  F14 UNL A   1      50.132  25.606  26.755  1.00  0.00    +0.000 F 
ATOM     83  C58 UNL A   1      48.032  26.694  26.745  1.00  0.00    +0.000 C 
ATOM     84  F15 UNL A   1      47.915  26.449  28.059  1.00  0.00    +0.000 F 
ENDBRANCH   73   74
TORSDOF 18
ENDMDL
MODEL 8
REMARK VINA RESULT:     -11.6     39.210     44.550
ROOT
ATOM    129  H34 UNL A   1      28.837 -13.890  28.581  1.00  0.00    +0.000 H 
ATOM    130  H35 UNL A   1      26.416 -12.753  31.764  1.00  0.00    +0.000 H 
ATOM    131  H36 UNL A   1      22.488 -10.387  29.709  1.00  0.00    +0.000 H 
ATOM    132  H37 UNL A   1      21.613 -10.057  32.092  1.00  0.00    +0.000 H 
ATOM    133  H38 UNL A   1      29.378 -15.283  35.780  1.00  0.00    +0.000 H 
ATOM    134  H39 UNL A   1      30.405 -15.406  33.436  1.00  0.00    +0.000 H 
ATOM     37  C29 UNL A   1      28.796 -14.193  31.412  1.00  0.00    +0.000 C 
ATOM     38  C30 UNL A   1      28.534 -14.250  32.889  1.00  0.00    +0.000 C 
ATOM     39  N3  UNL A   1      27.526 -13.755  33.564  1.00  0.00    +0.000 N 
ATOM     40  C31 UNL A   1      27.746 -14.101  34.890  1.00  0.00    +0.000 C 
ATOM     41  C32 UNL A   1      26.991 -13.801  35.973  1.00  0.00    +0.000 C 
ATOM     53  C39 UNL A   1      25.781 -13.020  35.930  1.00  0.00    +0.000 C 
ATOM     54  C40 UNL A   1      24.984 -12.606  36.984  1.00  0.00    +0.000 C 
ATOM     55  C41 UNL A   1      23.884 -11.919  36.460  1.00  0.00    +0.000 C 
ATOM     56  C42 UNL A   1      24.018 -11.866  35.083  1.00  0.00    +0.000 C 
ATOM     57  N4  UNL A   1      25.188 -12.542  34.772  1.00  0.00    +0.000 N 
ATOM     58  C43 UNL A   1      23.141 -11.250  34.121  1.00  0.00    +0.000 C 
ATOM     70  C50 UNL A   1      23.370 -11.187  32.787  1.00  0.00    +0.000 C 
ATOM     71  N5  UNL A   1      24.440 -11.690  32.063  1.00  0.00    +0.000 N 
ATOM     72  C51 UNL A   1      24.188 -11.406  30.809  1.00  0.00    +0.000 C 
ATOM     73  C52 UNL A   1      25.009 -11.709  29.588  1.00  0.00    +0.000 C 
ATOM     85  C59 UNL A   1      26.169 -12.373  29.731  1.00  0.00    +0.000 C 
ATOM     86  C60 UNL A   1      27.062 -12.744  28.640  1.00  0.00    +0.000 C 
ATOM     87  C61 UNL A   1      28.075 -13.466  29.136  1.00  0.00    +0.000 C 
ATOM     88  C62 UNL A   1      27.934 -13.560  30.592  1.00  0.00    +0.000 C 
ATOM     89  N6  UNL A   1      26.777 -12.874  30.856  1.00  0.00    +0.000 N 
ATOM     90  C63 UNL A   1      22.921 -10.696  30.594  1.00  0.00    +0.000 C 
ATOM     91  C64 UNL A   1      22.480 -10.554  31.835  1.00  0.00    +0.000 C 
ATOM     92  C65 UNL A   1      28.977 -14.865  34.926  1.00  0.00    +0.000 C 
ATOM     93  C66 UNL A   1      29.521 -14.956  33.719  1.00  0.00    +0.000 C 
ATOM    125  H30 UNL A   1      25.170 -12.776  37.986  1.00  0.00    +0.000 H 
ATOM    126  H31 UNL A   1      23.105 -11.520  37.007  1.00  0.00    +0.000 H 
ATOM    127  H32 UNL A   1      25.545 -12.664  33.862  1.00  0.00    +0.000 H 
ATOM    128  H33 UNL A   1      26.934 -12.492  27.647  1.00  0.00    +0.000 H 
ENDROOT
BRANCH   37   36
ATOM     33  C25 UNL A   1      32.268 -15.843  29.523  1.00  0.00    +0.000 C 
ATOM     34  C26 UNL A   1      32.320 -14.584  30.126  1.00  0.00    +0.000 C 
ATOM     35  C27 UNL A   1      31.214 -14.099  30.818  1.00  0.00    +0.000 C 
ATOM     36  C28 UNL A   1      30.004 -14.813  30.813  1.00  0.00    +0.000 C 
ATOM    135  H40 UNL A   1      29.049 -16.570  30.122  1.00  0.00    +0.000 H 
ATOM    136  H41 UNL A   1      31.028 -17.488  29.053  1.00  0.00    +0.000 H 
ATOM    123  H28 UNL A   1      33.177 -14.014  30.059  1.00  0.00    +0.000 H 
ATOM    124  H29 UNL A   1      31.284 -13.211  31.338  1.00  0.00    +0.000 H 
ATOM     94  C67 UNL A   1      29.937 -16.046  30.148  1.00  0.00    +0.000 C 
ATOM     95  C68 UNL A   1      31.073 -16.569  29.519  1.00  0.00    +0.000 C 
BRANCH   33    2
ATOM      1  O1  UNL A   1      34.360 -16.901  29.513  1.00  0.00    +0.000 O 
ATOM      2  C1  UNL A   1      33.458 -16.412  28.847  1.00  0.00    +0.000 C 
BRANCH    2    3
ATOM      3  N1  UNL A   1      33.549 -16.376  27.475  1.00  0.00    +0.000 N 
ATOM     96  H1  UNL A   1      34.258 -16.934  27.082  1.00  0.00    +0.000 H 
BRANCH    3    4
ATOM     97  H2  UNL A   1      31.779 -16.086  26.460  1.00  0.00    +0.000 H 
ATOM     98  H3  UNL A   1      33.252 -15.645  25.584  1.00  0.00    +0.000 H 
ATOM      4  C2  UNL A   1      32.743 -15.628  26.525  1.00  0.00    +0.000 C 
BRANCH    4    5
ATOM     99  H4  UNL A   1      32.291 -14.147  27.963  1.00  0.00    +0.000 H 
ATOM    100  H5  UNL A   1      31.817 -13.773  26.278  1.00  0.00    +0.000 H 
ATOM      5  C3  UNL A   1      32.566 -14.173  26.930  1.00  0.00    +0.000 C 
BRANCH    5    6
ATOM    102  H7  UNL A   1      34.591 -13.794  27.266  1.00  0.00    +0.000 H 
ATOM    101  H6  UNL A   1      33.969 -13.179  25.696  1.00  0.00    +0.000 H 
ATOM      6  C4  UNL A   1      33.802 -13.293  26.746  1.00  0.00    +0.000 C 
BRANCH    6    7
ATOM    103  H8  UNL A   1      34.055 -11.968  28.380  1.00  0.00    +0.000 H 
ATOM      7  C5  UNL A   1      33.730 -11.892  27.363  1.00  0.00    +0.000 C 
ATOM    104  H9  UNL A   1      32.713 -11.583  27.241  1.00  0.00    +0.000 H 
BRANCH    7    8
ATOM    105  H10 UNL A   1      34.462 -10.910  25.630  1.00  0.00    +0.000 H 
ATOM    106  H11 UNL A   1      35.566 -10.936  27.046  1.00  0.00    +0.000 H 
ATOM      8  C6  UNL A   1      34.568 -10.797  26.689  1.00  0.00    +0.000 C 
BRANCH    8    9
ATOM      9  C7  UNL A   1      34.196  -9.359  27.045  1.00  0.00    +0.000 C 
ATOM    107  H12 UNL A   1      34.586  -8.709  26.291  1.00  0.00    +0.000 H 
ATOM    108  H13 UNL A   1      34.616  -9.151  28.008  1.00  0.00    +0.000 H 
BRANCH    9   10
ATOM     10  N2  UNL A   1      32.770  -9.152  27.141  1.00  0.00    +0.000 N 
ATOM    109  H14 UNL A   1      32.226  -9.582  26.442  1.00  0.00    +0.000 H 
BRANCH   10   11
ATOM     11  C8  UNL A   1      32.077  -8.438  28.074  1.00  0.00    +0.000 C 
ATOM     12  O2  UNL A   1      32.334  -7.237  28.173  1.00  0.00    +0.000 O 
BRANCH   11   13
ATOM     13  C9  UNL A   1      31.041  -9.158  28.967  1.00  0.00    +0.000 C 
ATOM     14  C10 UNL A   1      30.167  -8.179  29.739  1.00  0.00    +0.000 C 
ATOM    110  H15 UNL A   1      31.613  -9.739  29.661  1.00  0.00    +0.000 H 
ATOM    111  H16 UNL A   1      30.328  -7.182  29.386  1.00  0.00    +0.000 H 
ATOM     15  C11 UNL A   1      28.718  -8.601  29.487  1.00  0.00    +0.000 C 
ATOM    112  H17 UNL A   1      30.399  -8.191  30.783  1.00  0.00    +0.000 H 
ATOM    118  H23 UNL A   1      28.081 -10.279  28.434  1.00  0.00    +0.000 H 
ATOM     24  C18 UNL A   1      28.837  -9.542  28.256  1.00  0.00    +0.000 C 
ATOM     32  O4  UNL A   1      30.194 -10.023  28.209  1.00  0.00    +0.000 O 
BRANCH   15   16
ATOM    113  H18 UNL A   1      28.329  -6.652  29.585  1.00  0.00    +0.000 H 
ATOM     16  O3  UNL A   1      27.972  -7.423  29.116  1.00  0.00    +0.000 O 
ENDBRANCH   15   16
BRANCH   15   17
ATOM     17  C12 UNL A   1      28.094  -9.071  30.818  1.00  0.00    +0.000 C 
ATOM     18  C13 UNL A   1      28.888  -9.984  31.572  1.00  0.00    +0.000 C 
ATOM     19  C14 UNL A   1      28.502 -10.479  32.819  1.00  0.00    +0.000 C 
ATOM    114  H19 UNL A   1      29.790 -10.295  31.177  1.00  0.00    +0.000 H 
ATOM     21  C16 UNL A   1      26.483  -9.206  32.656  1.00  0.00    +0.000 C 
ATOM     22  C17 UNL A   1      26.847  -8.738  31.378  1.00  0.00    +0.000 C 
ATOM     23 Cl1  UNL A   1      25.605  -7.836  30.588  1.00  0.00    +0.000 Cl
ATOM    115  H20 UNL A   1      29.107 -11.147  33.322  1.00  0.00    +0.000 H 
ATOM     20  C15 UNL A   1      27.306 -10.067  33.376  1.00  0.00    +0.000 C 
ATOM    117  H22 UNL A   1      25.586  -8.904  33.068  1.00  0.00    +0.000 H 
ATOM    116  H21 UNL A   1      27.025 -10.394  34.314  1.00  0.00    +0.000 H 
ENDBRANCH   15   17
BRANCH   24   25
ATOM    122  H27 UNL A   1      27.818 -10.037  23.715  1.00  0.00    +0.000 H 
ATOM    121  H26 UNL A   1      27.865  -7.648  23.303  1.00  0.00    +0.000 H 
ATOM    119  H24 UNL A   1      28.581  -6.972  27.382  1.00  0.00    +0.000 H 
ATOM    120  H25 UNL A   1      28.218  -6.120  25.151  1.00  0.00    +0.000 H 
ATOM     25  C19 UNL A   1      28.476  -9.018  26.866  1.00  0.00    +0.000 C 
ATOM     26  C20 UNL A   1      28.441  -7.636  26.604  1.00  0.00    +0.000 C 
ATOM     27  C21 UNL A   1      28.222  -7.139  25.316  1.00  0.00    +0.000 C 
ATOM     28  C22 UNL A   1      28.010  -8.013  24.258  1.00  0.00    +0.000 C 
ATOM     29  C23 UNL A   1      27.995  -9.384  24.494  1.00  0.00    +0.000 C 
ATOM     30  C24 UNL A   1      28.220  -9.885  25.784  1.00  0.00    +0.000 C 
ATOM     31 Cl2  UNL A   1      28.143 -11.607  25.954  1.00  0.00    +0.000 Cl
ENDBRANCH   24   25
ENDBRANCH   11   13
ENDBRANCH   10   11
ENDBRANCH    9   10
ENDBRANCH    8    9
ENDBRANCH    7    8
ENDBRANCH    6    7
ENDBRANCH    5    6
ENDBRANCH    4    5
ENDBRANCH    3    4
ENDBRANCH    2    3
ENDBRANCH   33    2
ENDBRANCH   37   36
BRANCH   41   42
ATOM     42  C33 UNL A   1      27.432 -14.319  37.310  1.00  0.00    +0.000 C 
ATOM     43  C34 UNL A   1      28.465 -13.706  38.032  1.00  0.00    +0.000 C 
ATOM     44  F1  UNL A   1      29.157 -12.691  37.492  1.00  0.00    +0.000 F 
ATOM     45  C35 UNL A   1      28.799 -14.140  39.313  1.00  0.00    +0.000 C 
ATOM     46  F2  UNL A   1      29.802 -13.551  39.979  1.00  0.00    +0.000 F 
ATOM     47  C36 UNL A   1      28.094 -15.179  39.903  1.00  0.00    +0.000 C 
ATOM     48  F3  UNL A   1      28.404 -15.582  41.144  1.00  0.00    +0.000 F 
ATOM     49  C37 UNL A   1      27.068 -15.799  39.207  1.00  0.00    +0.000 C 
ATOM     50  F4  UNL A   1      26.376 -16.795  39.781  1.00  0.00    +0.000 F 
ATOM     51  C38 UNL A   1      26.746 -15.381  37.919  1.00  0.00    +0.000 C 
ATOM     52  F5  UNL A   1      25.744 -15.997  37.272  1.00  0.00    +0.000 F 
ENDBRANCH   41   42
BRANCH   58   59
ATOM     65  F8  UNL A   1      18.410  -8.827  36.029  1.00  0.00    +0.000 F 
ATOM     66  C48 UNL A   1      20.744  -8.737  35.671  1.00  0.00    +0.000 C 
ATOM     67  F9  UNL A   1      20.793  -7.515  36.219  1.00  0.00    +0.000 F 
ATOM     68  C49 UNL A   1      21.907  -9.327  35.184  1.00  0.00    +0.000 C 
ATOM     69  F10 UNL A   1      23.061  -8.648  35.268  1.00  0.00    +0.000 F 
ATOM     59  C44 UNL A   1      21.882 -10.611  34.623  1.00  0.00    +0.000 C 
ATOM     60  C45 UNL A   1      20.650 -11.282  34.563  1.00  0.00    +0.000 C 
ATOM     61  F6  UNL A   1      20.573 -12.504  34.016  1.00  0.00    +0.000 F 
ATOM     62  C46 UNL A   1      19.485 -10.677  35.024  1.00  0.00    +0.000 C 
ATOM     63  F7  UNL A   1      18.311 -11.314  34.911  1.00  0.00    +0.000 F 
ATOM     64  C47 UNL A   1      19.533  -9.408  35.583  1.00  0.00    +0.000 C 
ENDBRANCH   58   59
BRANCH   73   74
ATOM     74  C53 UNL A   1      24.548 -11.305  28.235  1.00  0.00    +0.000 C 
ATOM     75  C54 UNL A   1      24.976 -10.105  27.653  1.00  0.00    +0.000 C 
ATOM     76  F11 UNL A   1      25.801  -9.290  28.328  1.00  0.00    +0.000 F 
ATOM     77  C55 UNL A   1      24.526  -9.717  26.392  1.00  0.00    +0.000 C 
ATOM     78  F12 UNL A   1      24.914  -8.542  25.878  1.00  0.00    +0.000 F 
ATOM     79  C56 UNL A   1      23.666 -10.537  25.677  1.00  0.00    +0.000 C 
ATOM     80  F13 UNL A   1      23.237 -10.165  24.463  1.00  0.00    +0.000 F 
ATOM     81  C57 UNL A   1      23.245 -11.739  26.225  1.00  0.00    +0.000 C 
ATOM     82  F14 UNL A   1      22.427 -12.542  25.531  1.00  0.00    +0.000 F 
ATOM     83  C58 UNL A   1      23.669 -12.112  27.497  1.00  0.00    +0.000 C 
ATOM     84  F15 UNL A   1      23.234 -13.274  28.009  1.00  0.00    +0.000 F 
ENDBRANCH   73   74
TORSDOF 18
ENDMDL
MODEL 9
REMARK VINA RESULT:     -11.5     39.400     44.924
ROOT
ATOM    129  H34 UNL A   1      26.497 -13.548  28.115  1.00  0.00    +0.000 H 
ATOM    130  H35 UNL A   1      26.213 -13.492  32.262  1.00  0.00    +0.000 H 
ATOM    131  H36 UNL A   1      30.164 -16.109  33.931  1.00  0.00    +0.000 H 
ATOM    132  H37 UNL A   1      29.307 -15.634  36.296  1.00  0.00    +0.000 H 
ATOM    133  H38 UNL A   1      21.809 -10.055  32.573  1.00  0.00    +0.000 H 
ATOM    134  H39 UNL A   1      22.495 -10.725  30.197  1.00  0.00    +0.000 H 
ATOM     37  C29 UNL A   1      24.813 -12.390  30.097  1.00  0.00    +0.000 C 
ATOM     38  C30 UNL A   1      24.104 -11.866  31.312  1.00  0.00    +0.000 C 
ATOM     39  N3  UNL A   1      24.387 -12.062  32.576  1.00  0.00    +0.000 N 
ATOM     40  C31 UNL A   1      23.444 -11.342  33.296  1.00  0.00    +0.000 C 
ATOM     41  C32 UNL A   1      23.308 -11.245  34.640  1.00  0.00    +0.000 C 
ATOM     53  C39 UNL A   1      24.151 -11.920  35.594  1.00  0.00    +0.000 C 
ATOM     54  C40 UNL A   1      24.048 -11.937  36.975  1.00  0.00    +0.000 C 
ATOM     55  C41 UNL A   1      25.118 -12.678  37.487  1.00  0.00    +0.000 C 
ATOM     56  C42 UNL A   1      25.864 -13.159  36.424  1.00  0.00    +0.000 C 
ATOM     57  N4  UNL A   1      25.257 -12.690  35.268  1.00  0.00    +0.000 N 
ATOM     58  C43 UNL A   1      27.046 -13.980  36.458  1.00  0.00    +0.000 C 
ATOM     70  C50 UNL A   1      27.690 -14.464  35.368  1.00  0.00    +0.000 C 
ATOM     71  N5  UNL A   1      27.391 -14.279  34.027  1.00  0.00    +0.000 N 
ATOM     72  C51 UNL A   1      28.323 -14.916  33.362  1.00  0.00    +0.000 C 
ATOM     73  C52 UNL A   1      28.495 -15.057  31.876  1.00  0.00    +0.000 C 
ATOM     85  C59 UNL A   1      27.612 -14.459  31.058  1.00  0.00    +0.000 C 
ATOM     86  C60 UNL A   1      27.657 -14.501  29.602  1.00  0.00    +0.000 C 
ATOM     87  C61 UNL A   1      26.675 -13.730  29.115  1.00  0.00    +0.000 C 
ATOM     88  C62 UNL A   1      25.893 -13.185  30.228  1.00  0.00    +0.000 C 
ATOM     89  N6  UNL A   1      26.518 -13.679  31.344  1.00  0.00    +0.000 N 
ATOM     90  C63 UNL A   1      29.327 -15.573  34.208  1.00  0.00    +0.000 C 
ATOM     91  C64 UNL A   1      28.873 -15.298  35.422  1.00  0.00    +0.000 C 
ATOM     92  C65 UNL A   1      22.587 -10.687  32.329  1.00  0.00    +0.000 C 
ATOM     93  C66 UNL A   1      22.933 -11.006  31.088  1.00  0.00    +0.000 C 
ATOM    125  H30 UNL A   1      23.307 -11.482  37.532  1.00  0.00    +0.000 H 
ATOM    126  H31 UNL A   1      25.319 -12.837  38.486  1.00  0.00    +0.000 H 
ATOM    127  H32 UNL A   1      25.566 -12.876  34.352  1.00  0.00    +0.000 H 
ATOM    128  H33 UNL A   1      28.336 -15.035  29.037  1.00  0.00    +0.000 H 
ENDROOT
BRANCH   37   36
ATOM     33  C25 UNL A   1      23.588 -11.611  26.067  1.00  0.00    +0.000 C 
ATOM     34  C26 UNL A   1      23.135 -12.749  26.738  1.00  0.00    +0.000 C 
ATOM     35  C27 UNL A   1      23.463 -12.943  28.077  1.00  0.00    +0.000 C 
ATOM     36  C28 UNL A   1      24.347 -12.065  28.726  1.00  0.00    +0.000 C 
ATOM    135  H40 UNL A   1      25.518 -10.319  28.488  1.00  0.00    +0.000 H 
ATOM    136  H41 UNL A   1      24.815  -9.895  26.201  1.00  0.00    +0.000 H 
ATOM    123  H28 UNL A   1      22.558 -13.446  26.242  1.00  0.00    +0.000 H 
ATOM    124  H29 UNL A   1      23.054 -13.735  28.595  1.00  0.00    +0.000 H 
ATOM     94  C67 UNL A   1      24.853 -10.960  28.027  1.00  0.00    +0.000 C 
ATOM     95  C68 UNL A   1      24.461 -10.723  26.704  1.00  0.00    +0.000 C 
BRANCH   33    2
ATOM      1  O1  UNL A   1      22.094 -11.715  24.263  1.00  0.00    +0.000 O 
ATOM      2  C1  UNL A   1      23.189 -11.344  24.664  1.00  0.00    +0.000 C 
BRANCH    2    3
ATOM      3  N1  UNL A   1      24.056 -10.695  23.817  1.00  0.00    +0.000 N 
ATOM     96  H1  UNL A   1      23.818  -9.766  23.598  1.00  0.00    +0.000 H 
BRANCH    3    4
ATOM     97  H2  UNL A   1      26.019 -11.308  23.958  1.00  0.00    +0.000 H 
ATOM     98  H3  UNL A   1      25.574 -10.481  22.458  1.00  0.00    +0.000 H 
ATOM      4  C2  UNL A   1      25.274 -11.191  23.199  1.00  0.00    +0.000 C 
BRANCH    4    5
ATOM     99  H4  UNL A   1      25.478 -12.454  21.517  1.00  0.00    +0.000 H 
ATOM    100  H5  UNL A   1      24.018 -12.716  22.520  1.00  0.00    +0.000 H 
ATOM      5  C3  UNL A   1      25.072 -12.529  22.504  1.00  0.00    +0.000 C 
BRANCH    5    6
ATOM    102  H7  UNL A   1      24.928 -14.407  23.403  1.00  0.00    +0.000 H 
ATOM    101  H6  UNL A   1      26.476 -14.112  22.539  1.00  0.00    +0.000 H 
ATOM      6  C4  UNL A   1      25.725 -13.726  23.196  1.00  0.00    +0.000 C 
BRANCH    6    7
ATOM    103  H8  UNL A   1      26.009 -14.158  25.250  1.00  0.00    +0.000 H 
ATOM      7  C5  UNL A   1      26.387 -13.444  24.549  1.00  0.00    +0.000 C 
ATOM    104  H9  UNL A   1      26.145 -12.426  24.773  1.00  0.00    +0.000 H 
BRANCH    7    8
ATOM    105  H10 UNL A   1      28.301 -12.792  23.903  1.00  0.00    +0.000 H 
ATOM    106  H11 UNL A   1      28.170 -14.525  24.353  1.00  0.00    +0.000 H 
ATOM      8  C6  UNL A   1      27.920 -13.514  24.595  1.00  0.00    +0.000 C 
BRANCH    8    9
ATOM      9  C7  UNL A   1      28.559 -13.243  25.955  1.00  0.00    +0.000 C 
ATOM    107  H12 UNL A   1      29.205 -14.060  26.198  1.00  0.00    +0.000 H 
ATOM    108  H13 UNL A   1      27.764 -13.138  26.666  1.00  0.00    +0.000 H 
BRANCH    9   10
ATOM     10  N2  UNL A   1      29.328 -12.021  25.984  1.00  0.00    +0.000 N 
ATOM    109  H14 UNL A   1      30.305 -12.130  26.044  1.00  0.00    +0.000 H 
BRANCH   10   11
ATOM     11  C8  UNL A   1      28.879 -10.734  25.937  1.00  0.00    +0.000 C 
ATOM     12  O2  UNL A   1      28.947 -10.149  24.854  1.00  0.00    +0.000 O 
BRANCH   11   13
ATOM     13  C9  UNL A   1      28.338 -10.070  27.224  1.00  0.00    +0.000 C 
ATOM     14  C10 UNL A   1      28.548 -10.943  28.454  1.00  0.00    +0.000 C 
ATOM    110  H15 UNL A   1      27.287  -9.942  27.061  1.00  0.00    +0.000 H 
ATOM    111  H16 UNL A   1      29.180 -11.773  28.216  1.00  0.00    +0.000 H 
ATOM     15  C11 UNL A   1      29.216 -10.054  29.505  1.00  0.00    +0.000 C 
ATOM    112  H17 UNL A   1      27.621 -11.339  28.813  1.00  0.00    +0.000 H 
ATOM    118  H23 UNL A   1      29.605  -8.018  29.340  1.00  0.00    +0.000 H 
ATOM     24  C18 UNL A   1      29.721  -8.844  28.671  1.00  0.00    +0.000 C 
ATOM     32  O4  UNL A   1      28.940  -8.798  27.461  1.00  0.00    +0.000 O 
BRANCH   15   16
ATOM    113  H18 UNL A   1      31.067 -10.150  30.230  1.00  0.00    +0.000 H 
ATOM     16  O3  UNL A   1      30.349 -10.773  30.037  1.00  0.00    +0.000 O 
ENDBRANCH   15   16
BRANCH   15   17
ATOM     17  C12 UNL A   1      28.254  -9.879  30.699  1.00  0.00    +0.000 C 
ATOM     18  C13 UNL A   1      28.531 -10.705  31.828  1.00  0.00    +0.000 C 
ATOM     19  C14 UNL A   1      27.794 -10.649  33.012  1.00  0.00    +0.000 C 
ATOM    114  H19 UNL A   1      29.313 -11.376  31.766  1.00  0.00    +0.000 H 
ATOM     21  C16 UNL A   1      26.424  -8.949  32.032  1.00  0.00    +0.000 C 
ATOM     22  C17 UNL A   1      27.136  -9.032  30.820  1.00  0.00    +0.000 C 
ATOM     23 Cl1  UNL A   1      26.450  -8.095  29.544  1.00  0.00    +0.000 Cl
ATOM    115  H20 UNL A   1      28.026 -11.274  33.798  1.00  0.00    +0.000 H 
ATOM     20  C15 UNL A   1      26.751  -9.747  33.124  1.00  0.00    +0.000 C 
ATOM    117  H22 UNL A   1      25.641  -8.282  32.112  1.00  0.00    +0.000 H 
ATOM    116  H21 UNL A   1      26.222  -9.667  34.007  1.00  0.00    +0.000 H 
ENDBRANCH   15   17
BRANCH   24   25
ATOM    122  H27 UNL A   1      34.076  -7.174  29.053  1.00  0.00    +0.000 H 
ATOM    121  H26 UNL A   1      34.846  -8.343  27.073  1.00  0.00    +0.000 H 
ATOM    119  H24 UNL A   1      31.063 -10.112  26.664  1.00  0.00    +0.000 H 
ATOM    120  H25 UNL A   1      33.338  -9.835  25.900  1.00  0.00    +0.000 H 
ATOM     25  C19 UNL A   1      31.197  -8.759  28.280  1.00  0.00    +0.000 C 
ATOM     26  C20 UNL A   1      31.690  -9.466  27.169  1.00  0.00    +0.000 C 
ATOM     27  C21 UNL A   1      33.009  -9.315  26.730  1.00  0.00    +0.000 C 
ATOM     28  C22 UNL A   1      33.877  -8.468  27.406  1.00  0.00    +0.000 C 
ATOM     29  C23 UNL A   1      33.430  -7.789  28.535  1.00  0.00    +0.000 C 
ATOM     30  C24 UNL A   1      32.107  -7.934  28.974  1.00  0.00    +0.000 C 
ATOM     31 Cl2  UNL A   1      31.682  -7.063  30.410  1.00  0.00    +0.000 Cl
ENDBRANCH   24   25
ENDBRANCH   11   13
ENDBRANCH   10   11
ENDBRANCH    9   10
ENDBRANCH    8    9
ENDBRANCH    7    8
ENDBRANCH    6    7
ENDBRANCH    5    6
ENDBRANCH    4    5
ENDBRANCH    3    4
ENDBRANCH    2    3
ENDBRANCH   33    2
ENDBRANCH   37   36
BRANCH   41   42
ATOM     42  C33 UNL A   1      22.213 -10.373  35.180  1.00  0.00    +0.000 C 
ATOM     43  C34 UNL A   1      22.415  -9.008  35.429  1.00  0.00    +0.000 C 
ATOM     44  F1  UNL A   1      23.635  -8.469  35.283  1.00  0.00    +0.000 F 
ATOM     45  C35 UNL A   1      21.364  -8.191  35.838  1.00  0.00    +0.000 C 
ATOM     46  F2  UNL A   1      21.583  -6.892  36.088  1.00  0.00    +0.000 F 
ATOM     47  C36 UNL A   1      20.089  -8.718  35.986  1.00  0.00    +0.000 C 
ATOM     48  F3  UNL A   1      19.074  -7.926  36.361  1.00  0.00    +0.000 F 
ATOM     49  C37 UNL A   1      19.866 -10.064  35.743  1.00  0.00    +0.000 C 
ATOM     50  F4  UNL A   1      18.632 -10.572  35.873  1.00  0.00    +0.000 F 
ATOM     51  C38 UNL A   1      20.919 -10.887  35.354  1.00  0.00    +0.000 C 
ATOM     52  F5  UNL A   1      20.672 -12.186  35.122  1.00  0.00    +0.000 F 
ENDBRANCH   41   42
BRANCH   58   59
ATOM     65  F8  UNL A   1      29.192 -15.365  41.494  1.00  0.00    +0.000 F 
ATOM     66  C48 UNL A   1      29.301 -14.074  39.519  1.00  0.00    +0.000 C 
ATOM     67  F9  UNL A   1      30.414 -13.471  39.959  1.00  0.00    +0.000 F 
ATOM     68  C49 UNL A   1      28.762 -13.720  38.285  1.00  0.00    +0.000 C 
ATOM     69  F10 UNL A   1      29.370 -12.767  37.563  1.00  0.00    +0.000 F 
ATOM     59  C44 UNL A   1      27.609 -14.350  37.797  1.00  0.00    +0.000 C 
ATOM     60  C45 UNL A   1      27.014 -15.344  38.588  1.00  0.00    +0.000 C 
ATOM     61  F6  UNL A   1      25.897 -15.960  38.172  1.00  0.00    +0.000 F 
ATOM     62  C46 UNL A   1      27.539 -15.674  39.834  1.00  0.00    +0.000 C 
ATOM     63  F7  UNL A   1      26.926 -16.591  40.596  1.00  0.00    +0.000 F 
ATOM     64  C47 UNL A   1      28.686 -15.044  40.295  1.00  0.00    +0.000 C 
ENDBRANCH   58   59
BRANCH   73   74
ATOM     74  C53 UNL A   1      29.631 -15.825  31.305  1.00  0.00    +0.000 C 
ATOM     75  C54 UNL A   1      30.834 -15.193  30.968  1.00  0.00    +0.000 C 
ATOM     76  F11 UNL A   1      30.967 -13.870  31.141  1.00  0.00    +0.000 F 
ATOM     77  C55 UNL A   1      31.892 -15.912  30.412  1.00  0.00    +0.000 C 
ATOM     78  F12 UNL A   1      33.015 -15.276  30.054  1.00  0.00    +0.000 F 
ATOM     79  C56 UNL A   1      31.777 -17.280  30.215  1.00  0.00    +0.000 C 
ATOM     80  F13 UNL A   1      32.795 -17.971  29.685  1.00  0.00    +0.000 F 
ATOM     81  C57 UNL A   1      30.602 -17.930  30.561  1.00  0.00    +0.000 C 
ATOM     82  F14 UNL A   1      30.492 -19.254  30.387  1.00  0.00    +0.000 F 
ATOM     83  C58 UNL A   1      29.534 -17.207  31.086  1.00  0.00    +0.000 C 
ATOM     84  F15 UNL A   1      28.404 -17.860  31.398  1.00  0.00    +0.000 F 
ENDBRANCH   73   74
TORSDOF 18
ENDMDL
MODEL 10
REMARK VINA RESULT:     -11.5      1.214      7.758
ROOT
ATOM    129  H34 UNL A   1      38.803  28.810  29.994  1.00  0.00    +0.000 H 
ATOM    130  H35 UNL A   1      42.705  29.121  28.594  1.00  0.00    +0.000 H 
ATOM    131  H36 UNL A   1      43.722  24.711  26.412  1.00  0.00    +0.000 H 
ATOM    132  H37 UNL A   1      46.044  25.657  25.894  1.00  0.00    +0.000 H 
ATOM    133  H38 UNL A   1      43.451  34.506  29.915  1.00  0.00    +0.000 H 
ATOM    134  H39 UNL A   1      41.217  33.505  30.671  1.00  0.00    +0.000 H 
ATOM     37  C29 UNL A   1      40.849  30.787  29.873  1.00  0.00    +0.000 C 
ATOM     38  C30 UNL A   1      42.052  31.658  29.657  1.00  0.00    +0.000 C 
ATOM     39  N3  UNL A   1      43.185  31.362  29.068  1.00  0.00    +0.000 N 
ATOM     40  C31 UNL A   1      43.952  32.518  29.110  1.00  0.00    +0.000 C 
ATOM     41  C32 UNL A   1      45.210  32.708  28.647  1.00  0.00    +0.000 C 
ATOM     53  C39 UNL A   1      46.008  31.687  28.016  1.00  0.00    +0.000 C 
ATOM     54  C40 UNL A   1      47.319  31.767  27.576  1.00  0.00    +0.000 C 
ATOM     55  C41 UNL A   1      47.657  30.548  26.979  1.00  0.00    +0.000 C 
ATOM     56  C42 UNL A   1      46.572  29.694  27.086  1.00  0.00    +0.000 C 
ATOM     57  N4  UNL A   1      45.569  30.404  27.728  1.00  0.00    +0.000 N 
ATOM     58  C43 UNL A   1      46.456  28.332  26.632  1.00  0.00    +0.000 C 
ATOM     70  C50 UNL A   1      45.378  27.536  26.827  1.00  0.00    +0.000 C 
ATOM     71  N5  UNL A   1      44.181  27.830  27.463  1.00  0.00    +0.000 N 
ATOM     72  C51 UNL A   1      43.448  26.749  27.364  1.00  0.00    +0.000 C 
ATOM     73  C52 UNL A   1      42.059  26.498  27.878  1.00  0.00    +0.000 C 
ATOM     85  C59 UNL A   1      41.417  27.485  28.529  1.00  0.00    +0.000 C 
ATOM     86  C60 UNL A   1      40.068  27.390  29.073  1.00  0.00    +0.000 C 
ATOM     87  C61 UNL A   1      39.720  28.582  29.577  1.00  0.00    +0.000 C 
ATOM     88  C62 UNL A   1      40.846  29.510  29.444  1.00  0.00    +0.000 C 
ATOM     89  N6  UNL A   1      41.813  28.768  28.817  1.00  0.00    +0.000 N 
ATOM     90  C63 UNL A   1      44.095  25.645  26.643  1.00  0.00    +0.000 C 
ATOM     91  C64 UNL A   1      45.283  26.164  26.371  1.00  0.00    +0.000 C 
ATOM     92  C65 UNL A   1      43.151  33.530  29.767  1.00  0.00    +0.000 C 
ATOM     93  C66 UNL A   1      41.980  33.039  30.155  1.00  0.00    +0.000 C 
ATOM    125  H30 UNL A   1      47.940  32.586  27.672  1.00  0.00    +0.000 H 
ATOM    126  H31 UNL A   1      48.560  30.324  26.533  1.00  0.00    +0.000 H 
ATOM    127  H32 UNL A   1      44.677  30.049  27.948  1.00  0.00    +0.000 H 
ATOM    128  H33 UNL A   1      39.477  26.544  29.069  1.00  0.00    +0.000 H 
ENDROOT
BRANCH   37   36
ATOM     33  C25 UNL A   1      37.286  32.048  31.889  1.00  0.00    +0.000 C 
ATOM     34  C26 UNL A   1      38.263  31.317  32.568  1.00  0.00    +0.000 C 
ATOM     35  C27 UNL A   1      39.458  30.995  31.930  1.00  0.00    +0.000 C 
ATOM     36  C28 UNL A   1      39.640  31.294  30.569  1.00  0.00    +0.000 C 
ATOM    135  H40 UNL A   1      38.741  32.177  28.870  1.00  0.00    +0.000 H 
ATOM    136  H41 UNL A   1      36.725  32.880  30.029  1.00  0.00    +0.000 H 
ATOM    123  H28 UNL A   1      38.100  31.015  33.541  1.00  0.00    +0.000 H 
ATOM    124  H29 UNL A   1      40.213  30.534  32.460  1.00  0.00    +0.000 H 
ATOM     94  C67 UNL A   1      38.626  31.969  29.874  1.00  0.00    +0.000 C 
ATOM     95  C68 UNL A   1      37.458  32.361  30.537  1.00  0.00    +0.000 C 
BRANCH   33    2
ATOM      1  O1  UNL A   1      35.970  32.424  33.792  1.00  0.00    +0.000 O 
ATOM      2  C1  UNL A   1      36.039  32.469  32.572  1.00  0.00    +0.000 C 
BRANCH    2    3
ATOM      3  N1  UNL A   1      34.961  32.893  31.830  1.00  0.00    +0.000 N 
ATOM     96  H1  UNL A   1      34.334  32.188  31.552  1.00  0.00    +0.000 H 
BRANCH    3    4
ATOM     97  H2  UNL A   1      35.515  34.824  31.370  1.00  0.00    +0.000 H 
ATOM     98  H3  UNL A   1      33.914  34.633  32.100  1.00  0.00    +0.000 H 
ATOM      4  C2  UNL A   1      34.621  34.238  31.400  1.00  0.00    +0.000 C 
BRANCH    4    5
ATOM     99  H4  UNL A   1      33.274  35.075  30.003  1.00  0.00    +0.000 H 
ATOM    100  H5  UNL A   1      33.520  33.305  29.891  1.00  0.00    +0.000 H 
ATOM      5  C3  UNL A   1      33.973  34.265  30.025  1.00  0.00    +0.000 C 
BRANCH    5    6
ATOM    102  H7  UNL A   1      34.481  35.163  28.210  1.00  0.00    +0.000 H 
ATOM    101  H6  UNL A   1      35.884  34.750  29.255  1.00  0.00    +0.000 H 
ATOM      6  C4  UNL A   1      34.941  34.444  28.854  1.00  0.00    +0.000 C 
BRANCH    6    7
ATOM    103  H8  UNL A   1      36.239  33.075  27.890  1.00  0.00    +0.000 H 
ATOM      7  C5  UNL A   1      35.181  33.206  27.984  1.00  0.00    +0.000 C 
ATOM    104  H9  UNL A   1      34.673  33.407  27.064  1.00  0.00    +0.000 H 
BRANCH    7    8
ATOM    105  H10 UNL A   1      33.527  31.983  28.506  1.00  0.00    +0.000 H 
ATOM    106  H11 UNL A   1      35.031  31.719  29.451  1.00  0.00    +0.000 H 
ATOM      8  C6  UNL A   1      34.593  31.882  28.490  1.00  0.00    +0.000 C 
BRANCH    8    9
ATOM      9  C7  UNL A   1      34.933  30.643  27.664  1.00  0.00    +0.000 C 
ATOM    107  H12 UNL A   1      35.314  29.889  28.321  1.00  0.00    +0.000 H 
ATOM    108  H13 UNL A   1      35.656  30.936  26.932  1.00  0.00    +0.000 H 
BRANCH    9   10
ATOM     10  N2  UNL A   1      33.794  30.106  26.956  1.00  0.00    +0.000 N 
ATOM    109  H14 UNL A   1      33.345  30.724  26.335  1.00  0.00    +0.000 H 
BRANCH   10   11
ATOM     11  C8  UNL A   1      33.259  28.854  27.035  1.00  0.00    +0.000 C 
ATOM     12  O2  UNL A   1      32.295  28.696  27.786  1.00  0.00    +0.000 O 
BRANCH   11   13
ATOM     13  C9  UNL A   1      33.889  27.705  26.216  1.00  0.00    +0.000 C 
ATOM     14  C10 UNL A   1      33.183  26.376  26.450  1.00  0.00    +0.000 C 
ATOM    110  H15 UNL A   1      34.901  27.629  26.558  1.00  0.00    +0.000 H 
ATOM    111  H16 UNL A   1      32.283  26.528  27.008  1.00  0.00    +0.000 H 
ATOM     15  C11 UNL A   1      32.860  25.809  25.067  1.00  0.00    +0.000 C 
ATOM    112  H17 UNL A   1      33.798  25.703  27.012  1.00  0.00    +0.000 H 
ATOM    118  H23 UNL A   1      33.421  26.616  23.234  1.00  0.00    +0.000 H 
ATOM     24  C18 UNL A   1      33.030  27.040  24.135  1.00  0.00    +0.000 C 
ATOM     32  O4  UNL A   1      33.882  27.982  24.815  1.00  0.00    +0.000 O 
BRANCH   15   16
ATOM    113  H18 UNL A   1      30.949  26.037  24.559  1.00  0.00    +0.000 H 
ATOM     16  O3  UNL A   1      31.475  25.401  25.070  1.00  0.00    +0.000 O 
ENDBRANCH   15   16
BRANCH   15   17
ATOM     17  C12 UNL A   1      33.663  24.507  24.857  1.00  0.00    +0.000 C 
ATOM     18  C13 UNL A   1      34.414  24.448  23.647  1.00  0.00    +0.000 C 
ATOM     19  C14 UNL A   1      35.233  23.368  23.312  1.00  0.00    +0.000 C 
ATOM    114  H19 UNL A   1      34.350  25.239  22.987  1.00  0.00    +0.000 H 
ATOM     21  C16 UNL A   1      34.602  22.304  25.361  1.00  0.00    +0.000 C 
ATOM     22  C17 UNL A   1      33.740  23.371  25.683  1.00  0.00    +0.000 C 
ATOM     23 Cl1  UNL A   1      32.774  23.086  27.084  1.00  0.00    +0.000 Cl
ATOM    115  H20 UNL A   1      35.751  23.366  22.420  1.00  0.00    +0.000 H 
ATOM     20  C15 UNL A   1      35.349  22.302  24.186  1.00  0.00    +0.000 C 
ATOM    117  H22 UNL A   1      34.681  21.505  26.009  1.00  0.00    +0.000 H 
ATOM    116  H21 UNL A   1      35.980  21.514  23.970  1.00  0.00    +0.000 H 
ENDBRANCH   15   17
BRANCH   24   25
ATOM    122  H27 UNL A   1      29.659  28.014  21.038  1.00  0.00    +0.000 H 
ATOM    121  H26 UNL A   1      28.858  29.922  22.303  1.00  0.00    +0.000 H 
ATOM    119  H24 UNL A   1      31.677  29.101  25.300  1.00  0.00    +0.000 H 
ATOM    120  H25 UNL A   1      29.855  30.440  24.450  1.00  0.00    +0.000 H 
ATOM     25  C19 UNL A   1      31.794  27.794  23.644  1.00  0.00    +0.000 C 
ATOM     26  C20 UNL A   1      31.269  28.873  24.380  1.00  0.00    +0.000 C 
ATOM     27  C21 UNL A   1      30.208  29.644  23.895  1.00  0.00    +0.000 C 
ATOM     28  C22 UNL A   1      29.630  29.343  22.670  1.00  0.00    +0.000 C 
ATOM     29  C23 UNL A   1      30.098  28.255  21.940  1.00  0.00    +0.000 C 
ATOM     30  C24 UNL A   1      31.165  27.483  22.421  1.00  0.00    +0.000 C 
ATOM     31 Cl2  UNL A   1      31.634  26.137  21.437  1.00  0.00    +0.000 Cl
ENDBRANCH   24   25
ENDBRANCH   11   13
ENDBRANCH   10   11
ENDBRANCH    9   10
ENDBRANCH    8    9
ENDBRANCH    7    8
ENDBRANCH    6    7
ENDBRANCH    5    6
ENDBRANCH    4    5
ENDBRANCH    3    4
ENDBRANCH    2    3
ENDBRANCH   33    2
ENDBRANCH   37   36
BRANCH   41   42
ATOM     42  C33 UNL A   1      45.818  34.072  28.789  1.00  0.00    +0.000 C 
ATOM     43  C34 UNL A   1      46.605  34.415  29.898  1.00  0.00    +0.000 C 
ATOM     44  F1  UNL A   1      46.750  33.553  30.915  1.00  0.00    +0.000 F 
ATOM     45  C35 UNL A   1      47.240  35.652  29.969  1.00  0.00    +0.000 C 
ATOM     46  F2  UNL A   1      47.974  35.967  31.047  1.00  0.00    +0.000 F 
ATOM     47  C36 UNL A   1      47.119  36.560  28.926  1.00  0.00    +0.000 C 
ATOM     48  F3  UNL A   1      47.749  37.742  28.988  1.00  0.00    +0.000 F 
ATOM     49  C37 UNL A   1      46.348  36.240  27.820  1.00  0.00    +0.000 C 
ATOM     50  F4  UNL A   1      46.240  37.111  26.805  1.00  0.00    +0.000 F 
ATOM     51  C38 UNL A   1      45.695  35.013  27.756  1.00  0.00    +0.000 C 
ATOM     52  F5  UNL A   1      44.959  34.730  26.669  1.00  0.00    +0.000 F 
ENDBRANCH   41   42
BRANCH   58   59
ATOM     65  F8  UNL A   1      50.848  26.076  23.892  1.00  0.00    +0.000 F 
ATOM     66  C48 UNL A   1      49.779  26.623  25.927  1.00  0.00    +0.000 C 
ATOM     67  F9  UNL A   1      50.800  26.098  26.618  1.00  0.00    +0.000 F 
ATOM     68  C49 UNL A   1      48.688  27.163  26.602  1.00  0.00    +0.000 C 
ATOM     69  F10 UNL A   1      48.679  27.137  27.943  1.00  0.00    +0.000 F 
ATOM     59  C44 UNL A   1      47.617  27.732  25.899  1.00  0.00    +0.000 C 
ATOM     60  C45 UNL A   1      47.677  27.739  24.497  1.00  0.00    +0.000 C 
ATOM     61  F6  UNL A   1      46.666  28.255  23.781  1.00  0.00    +0.000 F 
ATOM     62  C46 UNL A   1      48.755  27.172  23.825  1.00  0.00    +0.000 C 
ATOM     63  F7  UNL A   1      48.768  27.144  22.485  1.00  0.00    +0.000 F 
ATOM     64  C47 UNL A   1      49.809  26.620  24.540  1.00  0.00    +0.000 C 
ENDBRANCH   58   59
BRANCH   73   74
ATOM     74  C53 UNL A   1      41.384  25.193  27.660  1.00  0.00    +0.000 C 
ATOM     75  C54 UNL A   1      41.785  24.046  28.356  1.00  0.00    +0.000 C 
ATOM     76  F11 UNL A   1      42.807  24.112  29.223  1.00  0.00    +0.000 F 
ATOM     77  C55 UNL A   1      41.165  22.818  28.134  1.00  0.00    +0.000 C 
ATOM     78  F12 UNL A   1      41.599  21.727  28.779  1.00  0.00    +0.000 F 
ATOM     79  C56 UNL A   1      40.112  22.721  27.237  1.00  0.00    +0.000 C 
ATOM     80  F13 UNL A   1      39.514  21.541  27.028  1.00  0.00    +0.000 F 
ATOM     81  C57 UNL A   1      39.685  23.848  26.551  1.00  0.00    +0.000 C 
ATOM     82  F14 UNL A   1      38.658  23.763  25.695  1.00  0.00    +0.000 F 
ATOM     83  C58 UNL A   1      40.325  25.069  26.749  1.00  0.00    +0.000 C 
ATOM     84  F15 UNL A   1      39.901  26.140  26.061  1.00  0.00    +0.000 F 
ENDBRANCH   73   74
TORSDOF 18
ENDMDL
