MODEL 1
REMARK VINA RESULT:      -7.5      0.000      0.000
ROOT
ATOM    145  H40 UNL A   1      24.022  60.085  -2.351  1.00  0.00    +0.000 H 
ATOM    146  H41 UNL A   1      24.481  58.571  -4.424  1.00  0.00    +0.000 H 
ATOM    147  H42 UNL A   1      21.233  57.022  -2.376  1.00  0.00    +0.000 H 
ATOM    148  H43 UNL A   1      16.794  52.493  -1.727  1.00  0.00    +0.000 H 
ATOM    149  H44 UNL A   1      16.241  54.062   0.191  1.00  0.00    +0.000 H 
ATOM    150  H45 UNL A   1      19.516  55.634  -1.828  1.00  0.00    +0.000 H 
ATOM    151  H46 UNL A   1      20.330  52.565  -5.717  1.00  0.00    +0.000 H 
ATOM    152  H47 UNL A   1      22.329  54.055  -6.301  1.00  0.00    +0.000 H 
ATOM    153  H48 UNL A   1      20.274  60.061   1.500  1.00  0.00    +0.000 H 
ATOM    154  H49 UNL A   1      18.435  58.444   2.251  1.00  0.00    +0.000 H 
ATOM     47  C34 UNL A   1      18.039  56.252   0.469  1.00  0.00    +0.000 C 
ATOM     48  C35 UNL A   1      19.068  57.339   0.376  1.00  0.00    +0.000 C 
ATOM     49  N6  UNL A   1      20.003  57.512  -0.525  1.00  0.00    +0.000 N 
ATOM     50  C36 UNL A   1      20.667  58.677  -0.167  1.00  0.00    +0.000 C 
ATOM     51  C37 UNL A   1      21.726  59.264  -0.776  1.00  0.00    +0.000 C 
ATOM     63  C44 UNL A   1      22.380  58.744  -1.950  1.00  0.00    +0.000 C 
ATOM     64  C45 UNL A   1      23.481  59.248  -2.620  1.00  0.00    +0.000 C 
ATOM     65  C46 UNL A   1      23.735  58.428  -3.726  1.00  0.00    +0.000 C 
ATOM     66  C47 UNL A   1      22.816  57.392  -3.723  1.00  0.00    +0.000 C 
ATOM     67  N7  UNL A   1      21.988  57.600  -2.631  1.00  0.00    +0.000 N 
ATOM     68  C48 UNL A   1      22.700  56.294  -4.647  1.00  0.00    +0.000 C 
ATOM     80  C55 UNL A   1      21.783  55.299  -4.568  1.00  0.00    +0.000 C 
ATOM     81  N8  UNL A   1      20.778  55.113  -3.631  1.00  0.00    +0.000 N 
ATOM     82  C56 UNL A   1      20.142  54.028  -3.996  1.00  0.00    +0.000 C 
ATOM     83  C57 UNL A   1      18.970  53.355  -3.345  1.00  0.00    +0.000 C 
ATOM     95  C64 UNL A   1      18.434  53.903  -2.240  1.00  0.00    +0.000 C 
ATOM     96  C65 UNL A   1      17.298  53.363  -1.500  1.00  0.00    +0.000 C 
ATOM     97  C66 UNL A   1      17.017  54.184  -0.478  1.00  0.00    +0.000 C 
ATOM     98  C67 UNL A   1      17.988  55.280  -0.461  1.00  0.00    +0.000 C 
ATOM     99  N9  UNL A   1      18.777  55.044  -1.557  1.00  0.00    +0.000 N 
ATOM    100  C68 UNL A   1      20.667  53.403  -5.218  1.00  0.00    +0.000 C 
ATOM    101  C69 UNL A   1      21.686  54.200  -5.507  1.00  0.00    +0.000 C 
ATOM    102  C70 UNL A   1      20.017  59.183   1.023  1.00  0.00    +0.000 C 
ATOM    103  C71 UNL A   1      19.045  58.371   1.422  1.00  0.00    +0.000 C 
ENDROOT
BRANCH   47   46
ATOM    104  C72 UNL A   1      15.846  56.885   1.530  1.00  0.00    +0.000 C 
ATOM    105  C73 UNL A   1      14.938  56.797   2.588  1.00  0.00    +0.000 C 
ATOM     43  C30 UNL A   1      15.237  55.996   3.694  1.00  0.00    +0.000 C 
ATOM     44  C31 UNL A   1      16.421  55.254   3.727  1.00  0.00    +0.000 C 
ATOM     45  C32 UNL A   1      17.357  55.400   2.708  1.00  0.00    +0.000 C 
ATOM     46  C33 UNL A   1      17.071  56.203   1.593  1.00  0.00    +0.000 C 
ATOM    143  H38 UNL A   1      16.602  54.601   4.505  1.00  0.00    +0.000 H 
ATOM    144  H39 UNL A   1      18.266  54.916   2.773  1.00  0.00    +0.000 H 
ATOM    155  H50 UNL A   1      15.616  57.453   0.700  1.00  0.00    +0.000 H 
ATOM    156  H51 UNL A   1      14.050  57.322   2.552  1.00  0.00    +0.000 H 
BRANCH   43    2
ATOM      1  O1  UNL A   1      13.220  55.328   4.689  1.00  0.00    +0.000 O 
ATOM      2  C1  UNL A   1      14.278  55.934   4.818  1.00  0.00    +0.000 C 
BRANCH    2    3
ATOM    106  H1  UNL A   1      15.402  57.107   5.998  1.00  0.00    +0.000 H 
ATOM      3  N1  UNL A   1      14.578  56.568   5.997  1.00  0.00    +0.000 N 
BRANCH    3    4
ATOM    108  H3  UNL A   1      14.003  57.475   7.747  1.00  0.00    +0.000 H 
ATOM    107  H2  UNL A   1      12.796  56.407   7.028  1.00  0.00    +0.000 H 
ATOM      4  C2  UNL A   1      13.835  56.546   7.245  1.00  0.00    +0.000 C 
BRANCH    4    5
ATOM    109  H4  UNL A   1      14.259  55.778   9.172  1.00  0.00    +0.000 H 
ATOM      5  C3  UNL A   1      14.298  55.424   8.163  1.00  0.00    +0.000 C 
ATOM    110  H5  UNL A   1      15.288  55.163   7.852  1.00  0.00    +0.000 H 
BRANCH    5    6
ATOM      6  C4  UNL A   1      13.460  54.148   8.070  1.00  0.00    +0.000 C 
ATOM    111  H6  UNL A   1      13.987  53.449   7.454  1.00  0.00    +0.000 H 
ATOM    112  H7  UNL A   1      12.514  54.441   7.667  1.00  0.00    +0.000 H 
BRANCH    6    7
ATOM    113  H8  UNL A   1      13.424  52.435   9.325  1.00  0.00    +0.000 H 
ATOM    114  H9  UNL A   1      12.122  53.632   9.602  1.00  0.00    +0.000 H 
ATOM      7  C5  UNL A   1      13.162  53.469   9.411  1.00  0.00    +0.000 C 
BRANCH    7    8
ATOM    115  H10 UNL A   1      13.226  54.640  11.190  1.00  0.00    +0.000 H 
ATOM    116  H11 UNL A   1      14.726  54.625  10.233  1.00  0.00    +0.000 H 
ATOM      8  C6  UNL A   1      13.912  54.049  10.620  1.00  0.00    +0.000 C 
BRANCH    8    9
ATOM      9  C7  UNL A   1      14.515  52.988  11.540  1.00  0.00    +0.000 C 
ATOM    117  H12 UNL A   1      13.731  52.516  12.094  1.00  0.00    +0.000 H 
ATOM    118  H13 UNL A   1      15.206  53.463  12.205  1.00  0.00    +0.000 H 
BRANCH    9   10
ATOM     10  N2  UNL A   1      15.223  51.986  10.771  1.00  0.00    +0.000 N 
ATOM    119  H14 UNL A   1      14.962  51.902   9.826  1.00  0.00    +0.000 H 
BRANCH   10   11
ATOM     11  C8  UNL A   1      16.207  51.146  11.200  1.00  0.00    +0.000 C 
ATOM     12  O2  UNL A   1      16.182  50.778  12.376  1.00  0.00    +0.000 O 
BRANCH   11   13
ATOM     13  C9  UNL A   1      17.317  50.677  10.248  1.00  0.00    +0.000 C 
ATOM    120  H15 UNL A   1      18.252  50.828  10.747  1.00  0.00    +0.000 H 
BRANCH   13   14
ATOM    121  H16 UNL A   1      17.594  52.545   9.234  1.00  0.00    +0.000 H 
ATOM    122  H17 UNL A   1      16.421  51.482   8.480  1.00  0.00    +0.000 H 
ATOM     14  C10 UNL A   1      17.370  51.531   8.972  1.00  0.00    +0.000 C 
BRANCH   14   15
ATOM    123  H18 UNL A   1      18.013  50.328   7.540  1.00  0.00    +0.000 H 
ATOM     15  O3  UNL A   1      18.381  51.038   8.088  1.00  0.00    +0.000 O 
ENDBRANCH   14   15
ENDBRANCH   13   14
BRANCH   13   16
ATOM    124  H19 UNL A   1      18.061  48.740  10.187  1.00  0.00    +0.000 H 
ATOM     16  N3  UNL A   1      17.239  49.241   9.978  1.00  0.00    +0.000 N 
BRANCH   16   17
ATOM     17  C11 UNL A   1      16.223  48.481   9.486  1.00  0.00    +0.000 C 
ATOM     18  O4  UNL A   1      15.666  47.772  10.335  1.00  0.00    +0.000 O 
BRANCH   17   19
ATOM     19  C12 UNL A   1      15.601  48.664   8.072  1.00  0.00    +0.000 C 
ATOM    125  H20 UNL A   1      16.362  49.169   7.513  1.00  0.00    +0.000 H 
BRANCH   19   20
ATOM     20  C13 UNL A   1      14.306  49.507   8.186  1.00  0.00    +0.000 C 
ATOM    126  H21 UNL A   1      14.102  49.943   7.230  1.00  0.00    +0.000 H 
ATOM    127  H22 UNL A   1      14.482  50.243   8.943  1.00  0.00    +0.000 H 
BRANCH   20   21
ATOM     21  S1  UNL A   1      12.839  48.550   8.708  1.00  0.00    +0.000 S 
ATOM    128  H23 UNL A   1      11.984  49.363   9.387  1.00  0.00    +0.000 H 
ENDBRANCH   20   21
ENDBRANCH   19   20
BRANCH   19   22
ATOM    129  H24 UNL A   1      15.594  46.632   7.760  1.00  0.00    +0.000 H 
ATOM     22  N4  UNL A   1      15.363  47.456   7.273  1.00  0.00    +0.000 N 
BRANCH   22   23
ATOM     23  C14 UNL A   1      14.900  47.207   6.021  1.00  0.00    +0.000 C 
ATOM     24  O5  UNL A   1      13.849  46.562   6.036  1.00  0.00    +0.000 O 
BRANCH   23   25
ATOM     25  C15 UNL A   1      15.484  47.780   4.695  1.00  0.00    +0.000 C 
ATOM    130  H25 UNL A   1      16.108  47.010   4.293  1.00  0.00    +0.000 H 
BRANCH   25   26
ATOM     26  C16 UNL A   1      16.331  49.071   4.925  1.00  0.00    +0.000 C 
ATOM    131  H26 UNL A   1      17.096  48.800   5.622  1.00  0.00    +0.000 H 
ATOM    132  H27 UNL A   1      15.574  49.774   5.203  1.00  0.00    +0.000 H 
BRANCH   26   27
ATOM    133  H28 UNL A   1      16.322  51.752   4.225  1.00  0.00    +0.000 H 
ATOM    134  H29 UNL A   1      17.208  52.800   2.237  1.00  0.00    +0.000 H 
ATOM    135  H30 UNL A   1      18.425  51.488   0.604  1.00  0.00    +0.000 H 
ATOM    136  H31 UNL A   1      18.791  49.123   1.001  1.00  0.00    +0.000 H 
ATOM    137  H32 UNL A   1      17.920  48.073   3.000  1.00  0.00    +0.000 H 
ATOM     27  C17 UNL A   1      17.034  49.817   3.801  1.00  0.00    +0.000 C 
ATOM     28  C18 UNL A   1      16.848  51.181   3.545  1.00  0.00    +0.000 C 
ATOM     29  C19 UNL A   1      17.357  51.790   2.393  1.00  0.00    +0.000 C 
ATOM     30  C20 UNL A   1      18.058  51.042   1.459  1.00  0.00    +0.000 C 
ATOM     31  C21 UNL A   1      18.264  49.685   1.687  1.00  0.00    +0.000 C 
ATOM     32  C22 UNL A   1      17.758  49.080   2.844  1.00  0.00    +0.000 C 
ENDBRANCH   26   27
ENDBRANCH   25   26
BRANCH   25   33
ATOM     33  N5  UNL A   1      14.398  48.137   3.766  1.00  0.00    +0.000 N 
ATOM    138  H33 UNL A   1      13.754  48.779   4.142  1.00  0.00    +0.000 H 
BRANCH   33   34
ATOM     34  C23 UNL A   1      14.104  47.757   2.484  1.00  0.00    +0.000 C 
ATOM     35  O6  UNL A   1      13.576  46.656   2.331  1.00  0.00    +0.000 O 
BRANCH   34   36
ATOM     36  C24 UNL A   1      14.452  48.556   1.277  1.00  0.00    +0.000 C 
ATOM     37  C25 UNL A   1      15.237  47.923   0.296  1.00  0.00    +0.000 C 
ATOM     38  C26 UNL A   1      15.713  48.636  -0.808  1.00  0.00    +0.000 C 
ATOM     39  C27 UNL A   1      15.412  49.985  -0.931  1.00  0.00    +0.000 C 
ATOM     40  F1  UNL A   1      15.882  50.676  -1.976  1.00  0.00    +0.000 F 
ATOM     41  C28 UNL A   1      14.646  50.633   0.031  1.00  0.00    +0.000 C 
ATOM     42  C29 UNL A   1      14.173  49.920   1.138  1.00  0.00    +0.000 C 
ATOM    139  H34 UNL A   1      15.463  46.921   0.392  1.00  0.00    +0.000 H 
ATOM    140  H35 UNL A   1      16.284  48.162  -1.526  1.00  0.00    +0.000 H 
ATOM    141  H36 UNL A   1      14.429  51.636  -0.072  1.00  0.00    +0.000 H 
ATOM    142  H37 UNL A   1      13.614  50.404   1.857  1.00  0.00    +0.000 H 
ENDBRANCH   34   36
ENDBRANCH   33   34
ENDBRANCH   25   33
ENDBRANCH   23   25
ENDBRANCH   22   23
ENDBRANCH   19   22
ENDBRANCH   17   19
ENDBRANCH   16   17
ENDBRANCH   13   16
ENDBRANCH   11   13
ENDBRANCH   10   11
ENDBRANCH    9   10
ENDBRANCH    8    9
ENDBRANCH    7    8
ENDBRANCH    6    7
ENDBRANCH    5    6
ENDBRANCH    4    5
ENDBRANCH    3    4
ENDBRANCH    2    3
ENDBRANCH   43    2
ENDBRANCH   47   46
BRANCH   51   52
ATOM     52  C38 UNL A   1      22.240  60.546  -0.192  1.00  0.00    +0.000 C 
ATOM     53  C39 UNL A   1      23.211  60.556   0.819  1.00  0.00    +0.000 C 
ATOM     54  F2  UNL A   1      23.664  59.402   1.332  1.00  0.00    +0.000 F 
ATOM     55  C40 UNL A   1      23.702  61.756   1.329  1.00  0.00    +0.000 C 
ATOM     56  F3  UNL A   1      24.604  61.742   2.320  1.00  0.00    +0.000 F 
ATOM     57  C41 UNL A   1      23.252  62.965   0.822  1.00  0.00    +0.000 C 
ATOM     58  F4  UNL A   1      23.730  64.118   1.309  1.00  0.00    +0.000 F 
ATOM     59  C42 UNL A   1      22.300  62.979  -0.188  1.00  0.00    +0.000 C 
ATOM     60  F5  UNL A   1      21.871  64.146  -0.686  1.00  0.00    +0.000 F 
ATOM     61  C43 UNL A   1      21.792  61.781  -0.685  1.00  0.00    +0.000 C 
ATOM     62  F6  UNL A   1      20.866  61.827  -1.654  1.00  0.00    +0.000 F 
ENDBRANCH   51   52
BRANCH   68   69
ATOM     69  C49 UNL A   1      23.675  56.225  -5.782  1.00  0.00    +0.000 C 
ATOM     70  C50 UNL A   1      23.416  56.856  -7.007  1.00  0.00    +0.000 C 
ATOM     71  F7  UNL A   1      22.260  57.510  -7.198  1.00  0.00    +0.000 F 
ATOM     72  C51 UNL A   1      24.328  56.780  -8.056  1.00  0.00    +0.000 C 
ATOM     73  F8  UNL A   1      24.041  57.352  -9.233  1.00  0.00    +0.000 F 
ATOM     74  C52 UNL A   1      25.524  56.099  -7.890  1.00  0.00    +0.000 C 
ATOM     75  F9  UNL A   1      26.400  56.026  -8.901  1.00  0.00    +0.000 F 
ATOM     76  C53 UNL A   1      25.808  55.484  -6.680  1.00  0.00    +0.000 C 
ATOM     77  F10 UNL A   1      26.967  54.830  -6.516  1.00  0.00    +0.000 F 
ATOM     78  C54 UNL A   1      24.889  55.537  -5.637  1.00  0.00    +0.000 C 
ATOM     79  F11 UNL A   1      25.182  54.920  -4.482  1.00  0.00    +0.000 F 
ENDBRANCH   68   69
BRANCH   83   84
ATOM     84  C58 UNL A   1      18.401  52.098  -3.890  1.00  0.00    +0.000 C 
ATOM     85  C59 UNL A   1      18.827  50.850  -3.414  1.00  0.00    +0.000 C 
ATOM     86  F12 UNL A   1      19.795  50.782  -2.488  1.00  0.00    +0.000 F 
ATOM     87  C60 UNL A   1      18.279  49.669  -3.908  1.00  0.00    +0.000 C 
ATOM     88  F13 UNL A   1      18.725  48.488  -3.459  1.00  0.00    +0.000 F 
ATOM     89  C61 UNL A   1      17.277  49.714  -4.867  1.00  0.00    +0.000 C 
ATOM     90  F14 UNL A   1      16.742  48.578  -5.333  1.00  0.00    +0.000 F 
ATOM     91  C62 UNL A   1      16.835  50.938  -5.345  1.00  0.00    +0.000 C 
ATOM     92  F15 UNL A   1      15.857  50.986  -6.261  1.00  0.00    +0.000 F 
ATOM     93  C63 UNL A   1      17.401  52.118  -4.872  1.00  0.00    +0.000 C 
ATOM     94  F16 UNL A   1      16.956  53.289  -5.353  1.00  0.00    +0.000 F 
ENDBRANCH   83   84
TORSDOF 30
ENDMDL
MODEL 2
REMARK VINA RESULT:      -7.3      6.845     16.205
ROOT
ATOM    145  H40 UNL A   1      15.269  47.057   0.409  1.00  0.00    +0.000 H 
ATOM    146  H41 UNL A   1      13.550  46.667   2.331  1.00  0.00    +0.000 H 
ATOM    147  H42 UNL A   1      14.944  50.557   2.602  1.00  0.00    +0.000 H 
ATOM    148  H43 UNL A   1      15.051  56.159   5.643  1.00  0.00    +0.000 H 
ATOM    149  H44 UNL A   1      16.592  56.591   3.672  1.00  0.00    +0.000 H 
ATOM    150  H45 UNL A   1      15.230  52.675   3.381  1.00  0.00    +0.000 H 
ATOM    151  H46 UNL A   1      12.021  52.054   7.192  1.00  0.00    +0.000 H 
ATOM    152  H47 UNL A   1      11.754  49.635   6.395  1.00  0.00    +0.000 H 
ATOM    153  H48 UNL A   1      18.110  51.320  -1.215  1.00  0.00    +0.000 H 
ATOM    154  H49 UNL A   1      18.590  53.658  -0.287  1.00  0.00    +0.000 H 
ATOM     47  C34 UNL A   1      17.030  54.323   2.007  1.00  0.00    +0.000 C 
ATOM     48  C35 UNL A   1      17.056  53.024   1.257  1.00  0.00    +0.000 C 
ATOM     49  N6  UNL A   1      16.386  51.924   1.493  1.00  0.00    +0.000 N 
ATOM     50  C36 UNL A   1      16.753  51.032   0.495  1.00  0.00    +0.000 C 
ATOM     51  C37 UNL A   1      16.346  49.752   0.318  1.00  0.00    +0.000 C 
ATOM     63  C44 UNL A   1      15.425  49.064   1.187  1.00  0.00    +0.000 C 
ATOM     64  C45 UNL A   1      14.979  47.756   1.112  1.00  0.00    +0.000 C 
ATOM     65  C46 UNL A   1      14.066  47.543   2.151  1.00  0.00    +0.000 C 
ATOM     66  C47 UNL A   1      13.972  48.706   2.897  1.00  0.00    +0.000 C 
ATOM     67  N7  UNL A   1      14.808  49.632   2.293  1.00  0.00    +0.000 N 
ATOM     68  C48 UNL A   1      13.179  48.956   4.073  1.00  0.00    +0.000 C 
ATOM     80  C55 UNL A   1      13.156  50.119   4.767  1.00  0.00    +0.000 C 
ATOM     81  N8  UNL A   1      13.846  51.296   4.519  1.00  0.00    +0.000 N 
ATOM     82  C56 UNL A   1      13.469  52.137   5.450  1.00  0.00    +0.000 C 
ATOM     83  C57 UNL A   1      13.901  53.557   5.671  1.00  0.00    +0.000 C 
ATOM     95  C64 UNL A   1      14.778  54.113   4.818  1.00  0.00    +0.000 C 
ATOM     96  C65 UNL A   1      15.289  55.477   4.906  1.00  0.00    +0.000 C 
ATOM     97  C66 UNL A   1      16.115  55.699   3.875  1.00  0.00    +0.000 C 
ATOM     98  C67 UNL A   1      16.232  54.474   3.081  1.00  0.00    +0.000 C 
ATOM     99  N9  UNL A   1      15.387  53.592   3.702  1.00  0.00    +0.000 N 
ATOM    100  C68 UNL A   1      12.485  51.591   6.394  1.00  0.00    +0.000 C 
ATOM    101  C69 UNL A   1      12.353  50.349   5.951  1.00  0.00    +0.000 C 
ATOM    102  C70 UNL A   1      17.691  51.724  -0.364  1.00  0.00    +0.000 C 
ATOM    103  C71 UNL A   1      17.942  52.948   0.087  1.00  0.00    +0.000 C 
ENDROOT
BRANCH   47   46
ATOM    104  C72 UNL A   1      19.187  55.613   2.128  1.00  0.00    +0.000 C 
ATOM    105  C73 UNL A   1      19.992  56.676   1.711  1.00  0.00    +0.000 C 
ATOM     43  C30 UNL A   1      19.520  57.565   0.742  1.00  0.00    +0.000 C 
ATOM     44  C31 UNL A   1      18.262  57.373   0.162  1.00  0.00    +0.000 C 
ATOM     45  C32 UNL A   1      17.433  56.360   0.631  1.00  0.00    +0.000 C 
ATOM     46  C33 UNL A   1      17.893  55.461   1.605  1.00  0.00    +0.000 C 
ATOM    143  H38 UNL A   1      17.950  57.981  -0.610  1.00  0.00    +0.000 H 
ATOM    144  H39 UNL A   1      16.474  56.269   0.260  1.00  0.00    +0.000 H 
ATOM    155  H50 UNL A   1      19.544  54.939   2.822  1.00  0.00    +0.000 H 
ATOM    156  H51 UNL A   1      20.933  56.803   2.116  1.00  0.00    +0.000 H 
BRANCH   43    2
ATOM      1  O1  UNL A   1      19.926  59.843   0.352  1.00  0.00    +0.000 O 
ATOM      2  C1  UNL A   1      20.373  58.701   0.329  1.00  0.00    +0.000 C 
BRANCH    2    3
ATOM    106  H1  UNL A   1      22.046  57.602   0.183  1.00  0.00    +0.000 H 
ATOM      3  N1  UNL A   1      21.658  58.464  -0.090  1.00  0.00    +0.000 N 
BRANCH    3    4
ATOM    108  H3  UNL A   1      22.315  59.136  -1.915  1.00  0.00    +0.000 H 
ATOM    107  H2  UNL A   1      22.317  60.345  -0.629  1.00  0.00    +0.000 H 
ATOM      4  C2  UNL A   1      22.519  59.325  -0.882  1.00  0.00    +0.000 C 
BRANCH    4    5
ATOM    109  H4  UNL A   1      24.464  58.861  -1.577  1.00  0.00    +0.000 H 
ATOM      5  C3  UNL A   1      23.992  59.040  -0.633  1.00  0.00    +0.000 C 
ATOM    110  H5  UNL A   1      24.035  58.194   0.020  1.00  0.00    +0.000 H 
BRANCH    5    6
ATOM      6  C4  UNL A   1      24.743  60.173   0.070  1.00  0.00    +0.000 C 
ATOM    111  H6  UNL A   1      25.390  60.636  -0.646  1.00  0.00    +0.000 H 
ATOM    112  H7  UNL A   1      25.266  59.722   0.886  1.00  0.00    +0.000 H 
BRANCH    6    7
ATOM    113  H8  UNL A   1      22.891  61.202   0.213  1.00  0.00    +0.000 H 
ATOM    114  H9  UNL A   1      24.356  62.188   0.507  1.00  0.00    +0.000 H 
ATOM      7  C5  UNL A   1      23.852  61.261   0.680  1.00  0.00    +0.000 C 
BRANCH    7    8
ATOM    115  H10 UNL A   1      23.832  60.154   2.500  1.00  0.00    +0.000 H 
ATOM    116  H11 UNL A   1      22.645  61.476   2.399  1.00  0.00    +0.000 H 
ATOM      8  C6  UNL A   1      23.648  61.164   2.199  1.00  0.00    +0.000 C 
BRANCH    8    9
ATOM      9  C7  UNL A   1      24.568  62.082   3.006  1.00  0.00    +0.000 C 
ATOM    117  H12 UNL A   1      25.575  61.954   2.669  1.00  0.00    +0.000 H 
ATOM    118  H13 UNL A   1      24.487  61.825   4.041  1.00  0.00    +0.000 H 
BRANCH    9   10
ATOM     10  N2  UNL A   1      24.183  63.467   2.837  1.00  0.00    +0.000 N 
ATOM    119  H14 UNL A   1      24.150  63.798   1.911  1.00  0.00    +0.000 H 
BRANCH   10   11
ATOM     11  C8  UNL A   1      23.861  64.368   3.808  1.00  0.00    +0.000 C 
ATOM     12  O2  UNL A   1      24.659  64.532   4.733  1.00  0.00    +0.000 O 
BRANCH   11   13
ATOM     13  C9  UNL A   1      22.542  65.152   3.754  1.00  0.00    +0.000 C 
ATOM    120  H15 UNL A   1      22.431  65.656   4.692  1.00  0.00    +0.000 H 
BRANCH   13   14
ATOM    121  H16 UNL A   1      21.409  63.433   4.350  1.00  0.00    +0.000 H 
ATOM    122  H17 UNL A   1      21.315  63.801   2.638  1.00  0.00    +0.000 H 
ATOM     14  C10 UNL A   1      21.330  64.217   3.624  1.00  0.00    +0.000 C 
BRANCH   14   15
ATOM    123  H18 UNL A   1      20.296  65.895   3.782  1.00  0.00    +0.000 H 
ATOM     15  O3  UNL A   1      20.118  64.944   3.843  1.00  0.00    +0.000 O 
ENDBRANCH   14   15
ENDBRANCH   13   14
BRANCH   13   16
ATOM    124  H19 UNL A   1      21.818  66.181   2.102  1.00  0.00    +0.000 H 
ATOM     16  N3  UNL A   1      22.569  66.206   2.738  1.00  0.00    +0.000 N 
BRANCH   16   17
ATOM     17  C11 UNL A   1      23.458  67.214   2.525  1.00  0.00    +0.000 C 
ATOM     18  O4  UNL A   1      23.320  68.179   3.289  1.00  0.00    +0.000 O 
BRANCH   17   19
ATOM     19  C12 UNL A   1      24.717  67.091   1.619  1.00  0.00    +0.000 C 
ATOM    125  H20 UNL A   1      24.946  68.102   1.348  1.00  0.00    +0.000 H 
BRANCH   19   20
ATOM     20  C13 UNL A   1      24.378  66.219   0.384  1.00  0.00    +0.000 C 
ATOM    126  H21 UNL A   1      23.313  66.174   0.286  1.00  0.00    +0.000 H 
ATOM    127  H22 UNL A   1      24.816  65.257   0.555  1.00  0.00    +0.000 H 
BRANCH   20   21
ATOM     21  S1  UNL A   1      25.076  66.847  -1.184  1.00  0.00    +0.000 S 
ATOM    128  H23 UNL A   1      24.343  66.373  -2.229  1.00  0.00    +0.000 H 
ENDBRANCH   20   21
ENDBRANCH   19   20
BRANCH   19   22
ATOM    129  H24 UNL A   1      25.807  66.182   3.107  1.00  0.00    +0.000 H 
ATOM     22  N4  UNL A   1      25.963  66.637   2.248  1.00  0.00    +0.000 N 
BRANCH   22   23
ATOM     23  C14 UNL A   1      27.281  66.696   1.924  1.00  0.00    +0.000 C 
ATOM     24  O5  UNL A   1      27.743  67.830   2.072  1.00  0.00    +0.000 O 
BRANCH   23   25
ATOM     25  C15 UNL A   1      28.194  65.487   1.566  1.00  0.00    +0.000 C 
ATOM    130  H25 UNL A   1      28.690  65.754   0.656  1.00  0.00    +0.000 H 
BRANCH   25   26
ATOM     26  C16 UNL A   1      27.384  64.170   1.351  1.00  0.00    +0.000 C 
ATOM    131  H26 UNL A   1      26.352  64.446   1.414  1.00  0.00    +0.000 H 
ATOM    132  H27 UNL A   1      27.816  63.532   2.093  1.00  0.00    +0.000 H 
BRANCH   26   27
ATOM    133  H28 UNL A   1      25.846  64.048  -0.951  1.00  0.00    +0.000 H 
ATOM    134  H29 UNL A   1      25.928  62.429  -2.742  1.00  0.00    +0.000 H 
ATOM    135  H30 UNL A   1      27.621  60.696  -2.744  1.00  0.00    +0.000 H 
ATOM    136  H31 UNL A   1      29.266  60.627  -0.963  1.00  0.00    +0.000 H 
ATOM    137  H32 UNL A   1      29.199  62.259   0.823  1.00  0.00    +0.000 H 
ATOM     27  C17 UNL A   1      27.511  63.308   0.104  1.00  0.00    +0.000 C 
ATOM     28  C18 UNL A   1      26.581  63.324  -0.944  1.00  0.00    +0.000 C 
ATOM     29  C19 UNL A   1      26.623  62.385  -1.980  1.00  0.00    +0.000 C 
ATOM     30  C20 UNL A   1      27.595  61.395  -1.986  1.00  0.00    +0.000 C 
ATOM     31  C21 UNL A   1      28.535  61.355  -0.962  1.00  0.00    +0.000 C 
ATOM     32  C22 UNL A   1      28.494  62.301   0.071  1.00  0.00    +0.000 C 
ENDBRANCH   26   27
ENDBRANCH   25   26
BRANCH   25   33
ATOM     33  N5  UNL A   1      29.156  65.228   2.651  1.00  0.00    +0.000 N 
ATOM    138  H33 UNL A   1      28.732  65.103   3.530  1.00  0.00    +0.000 H 
BRANCH   33   34
ATOM     34  C23 UNL A   1      30.521  65.126   2.683  1.00  0.00    +0.000 C 
ATOM     35  O6  UNL A   1      31.166  66.161   2.521  1.00  0.00    +0.000 O 
BRANCH   34   36
ATOM     36  C24 UNL A   1      31.257  63.840   2.826  1.00  0.00    +0.000 C 
ATOM     37  C25 UNL A   1      32.587  63.811   2.369  1.00  0.00    +0.000 C 
ATOM     38  C26 UNL A   1      33.311  62.616   2.349  1.00  0.00    +0.000 C 
ATOM     39  C27 UNL A   1      32.705  61.445   2.781  1.00  0.00    +0.000 C 
ATOM     40  F1  UNL A   1      33.387  60.293   2.745  1.00  0.00    +0.000 F 
ATOM     41  C28 UNL A   1      31.389  61.448   3.228  1.00  0.00    +0.000 C 
ATOM     42  C29 UNL A   1      30.663  62.643   3.244  1.00  0.00    +0.000 C 
ATOM    139  H34 UNL A   1      33.034  64.683   2.044  1.00  0.00    +0.000 H 
ATOM    140  H35 UNL A   1      34.288  62.604   2.016  1.00  0.00    +0.000 H 
ATOM    141  H36 UNL A   1      30.950  60.571   3.547  1.00  0.00    +0.000 H 
ATOM    142  H37 UNL A   1      29.683  62.643   3.565  1.00  0.00    +0.000 H 
ENDBRANCH   34   36
ENDBRANCH   33   34
ENDBRANCH   25   33
ENDBRANCH   23   25
ENDBRANCH   22   23
ENDBRANCH   19   22
ENDBRANCH   17   19
ENDBRANCH   16   17
ENDBRANCH   13   16
ENDBRANCH   11   13
ENDBRANCH   10   11
ENDBRANCH    9   10
ENDBRANCH    8    9
ENDBRANCH    7    8
ENDBRANCH    6    7
ENDBRANCH    5    6
ENDBRANCH    4    5
ENDBRANCH    3    4
ENDBRANCH    2    3
ENDBRANCH   43    2
ENDBRANCH   47   46
BRANCH   51   52
ATOM     52  C38 UNL A   1      16.882  49.010  -0.870  1.00  0.00    +0.000 C 
ATOM     53  C39 UNL A   1      16.218  49.022  -2.104  1.00  0.00    +0.000 C 
ATOM     54  F2  UNL A   1      15.043  49.657  -2.234  1.00  0.00    +0.000 F 
ATOM     55  C40 UNL A   1      16.745  48.354  -3.207  1.00  0.00    +0.000 C 
ATOM     56  F3  UNL A   1      16.075  48.348  -4.369  1.00  0.00    +0.000 F 
ATOM     57  C41 UNL A   1      17.955  47.685  -3.105  1.00  0.00    +0.000 C 
ATOM     58  F4  UNL A   1      18.464  47.050  -4.169  1.00  0.00    +0.000 F 
ATOM     59  C42 UNL A   1      18.636  47.672  -1.896  1.00  0.00    +0.000 C 
ATOM     60  F5  UNL A   1      19.811  47.034  -1.798  1.00  0.00    +0.000 F 
ATOM     61  C43 UNL A   1      18.101  48.320  -0.786  1.00  0.00    +0.000 C 
ATOM     62  F6  UNL A   1      18.778  48.281   0.371  1.00  0.00    +0.000 F 
ENDBRANCH   51   52
BRANCH   68   69
ATOM     69  C49 UNL A   1      12.321  47.842   4.591  1.00  0.00    +0.000 C 
ATOM     70  C50 UNL A   1      11.068  47.564   4.026  1.00  0.00    +0.000 C 
ATOM     71  F7  UNL A   1      10.596  48.322   3.024  1.00  0.00    +0.000 F 
ATOM     72  C51 UNL A   1      10.277  46.530   4.519  1.00  0.00    +0.000 C 
ATOM     73  F8  UNL A   1       9.063  46.309   3.995  1.00  0.00    +0.000 F 
ATOM     74  C52 UNL A   1      10.735  45.741   5.563  1.00  0.00    +0.000 C 
ATOM     75  F9  UNL A   1       9.972  44.747   6.037  1.00  0.00    +0.000 F 
ATOM     76  C53 UNL A   1      11.979  45.988   6.123  1.00  0.00    +0.000 C 
ATOM     77  F10 UNL A   1      12.426  45.221   7.128  1.00  0.00    +0.000 F 
ATOM     78  C54 UNL A   1      12.763  47.035   5.649  1.00  0.00    +0.000 C 
ATOM     79  F11 UNL A   1      13.957  47.262   6.218  1.00  0.00    +0.000 F 
ENDBRANCH   68   69
BRANCH   83   84
ATOM     84  C58 UNL A   1      13.387  54.350   6.815  1.00  0.00    +0.000 C 
ATOM     85  C59 UNL A   1      13.984  54.259   8.079  1.00  0.00    +0.000 C 
ATOM     86  F12 UNL A   1      15.004  53.412   8.279  1.00  0.00    +0.000 F 
ATOM     87  C60 UNL A   1      13.517  55.020   9.149  1.00  0.00    +0.000 C 
ATOM     88  F13 UNL A   1      14.085  54.893  10.355  1.00  0.00    +0.000 F 
ATOM     89  C61 UNL A   1      12.462  55.903   8.967  1.00  0.00    +0.000 C 
ATOM     90  F14 UNL A   1      12.022  56.643   9.993  1.00  0.00    +0.000 F 
ATOM     91  C62 UNL A   1      11.863  56.015   7.722  1.00  0.00    +0.000 C 
ATOM     92  F15 UNL A   1      10.853  56.877   7.539  1.00  0.00    +0.000 F 
ATOM     93  C63 UNL A   1      12.311  55.235   6.659  1.00  0.00    +0.000 C 
ATOM     94  F16 UNL A   1      11.712  55.361   5.465  1.00  0.00    +0.000 F 
ENDBRANCH   83   84
TORSDOF 30
ENDMDL
MODEL 3
REMARK VINA RESULT:      -7.2     25.599     33.552
ROOT
ATOM    145  H40 UNL A   1      17.457  15.165   9.333  1.00  0.00    +0.000 H 
ATOM    146  H41 UNL A   1      19.670  15.018   7.961  1.00  0.00    +0.000 H 
ATOM    147  H42 UNL A   1      17.735  18.533   6.937  1.00  0.00    +0.000 H 
ATOM    148  H43 UNL A   1      17.461  23.826   3.395  1.00  0.00    +0.000 H 
ATOM    149  H44 UNL A   1      15.396  24.053   4.855  1.00  0.00    +0.000 H 
ATOM    150  H45 UNL A   1      17.299  20.506   5.893  1.00  0.00    +0.000 H 
ATOM    151  H46 UNL A   1      21.471  20.323   3.105  1.00  0.00    +0.000 H 
ATOM    152  H47 UNL A   1      21.937  18.053   4.194  1.00  0.00    +0.000 H 
ATOM    153  H48 UNL A   1      13.578  18.863   9.727  1.00  0.00    +0.000 H 
ATOM    154  H49 UNL A   1      12.960  21.006   8.467  1.00  0.00    +0.000 H 
ATOM     47  C34 UNL A   1      14.935  21.839   6.585  1.00  0.00    +0.000 C 
ATOM     48  C35 UNL A   1      14.939  20.604   7.437  1.00  0.00    +0.000 C 
ATOM     49  N6  UNL A   1      15.831  19.647   7.495  1.00  0.00    +0.000 N 
ATOM     50  C36 UNL A   1      15.373  18.757   8.456  1.00  0.00    +0.000 C 
ATOM     51  C37 UNL A   1      15.937  17.594   8.864  1.00  0.00    +0.000 C 
ATOM     63  C44 UNL A   1      17.164  17.055   8.334  1.00  0.00    +0.000 C 
ATOM     64  C45 UNL A   1      17.797  15.868   8.657  1.00  0.00    +0.000 C 
ATOM     65  C46 UNL A   1      18.978  15.782   7.911  1.00  0.00    +0.000 C 
ATOM     66  C47 UNL A   1      19.062  16.898   7.094  1.00  0.00    +0.000 C 
ATOM     67  N7  UNL A   1      17.944  17.672   7.366  1.00  0.00    +0.000 N 
ATOM     68  C48 UNL A   1      20.084  17.234   6.138  1.00  0.00    +0.000 C 
ATOM     80  C55 UNL A   1      20.087  18.340   5.353  1.00  0.00    +0.000 C 
ATOM     81  N8  UNL A   1      19.159  19.368   5.294  1.00  0.00    +0.000 N 
ATOM     82  C56 UNL A   1      19.617  20.214   4.405  1.00  0.00    +0.000 C 
ATOM     83  C57 UNL A   1      19.017  21.506   3.933  1.00  0.00    +0.000 C 
ATOM     95  C64 UNL A   1      17.859  21.924   4.473  1.00  0.00    +0.000 C 
ATOM     96  C65 UNL A   1      17.159  23.152   4.115  1.00  0.00    +0.000 C 
ATOM     97  C66 UNL A   1      16.060  23.263   4.875  1.00  0.00    +0.000 C 
ATOM     98  C67 UNL A   1      15.952  22.085   5.738  1.00  0.00    +0.000 C 
ATOM     99  N9  UNL A   1      17.075  21.355   5.447  1.00  0.00    +0.000 N 
ATOM    100  C68 UNL A   1      20.899  19.823   3.803  1.00  0.00    +0.000 C 
ATOM    101  C69 UNL A   1      21.125  18.658   4.393  1.00  0.00    +0.000 C 
ATOM    102  C70 UNL A   1      14.132  19.296   8.972  1.00  0.00    +0.000 C 
ATOM    103  C71 UNL A   1      13.799  20.418   8.346  1.00  0.00    +0.000 C 
ENDROOT
BRANCH   47   46
ATOM    104  C72 UNL A   1      13.787  23.852   7.564  1.00  0.00    +0.000 C 
ATOM    105  C73 UNL A   1      12.731  24.767   7.569  1.00  0.00    +0.000 C 
ATOM     43  C30 UNL A   1      11.715  24.656   6.615  1.00  0.00    +0.000 C 
ATOM     44  C31 UNL A   1      11.772  23.660   5.637  1.00  0.00    +0.000 C 
ATOM     45  C32 UNL A   1      12.783  22.706   5.679  1.00  0.00    +0.000 C 
ATOM     46  C33 UNL A   1      13.809  22.803   6.633  1.00  0.00    +0.000 C 
ATOM    143  H38 UNL A   1      11.066  23.630   4.885  1.00  0.00    +0.000 H 
ATOM    144  H39 UNL A   1      12.780  21.924   5.007  1.00  0.00    +0.000 H 
ATOM    155  H50 UNL A   1      14.553  23.948   8.249  1.00  0.00    +0.000 H 
ATOM    156  H51 UNL A   1      12.702  25.521   8.273  1.00  0.00    +0.000 H 
BRANCH   43    2
ATOM      1  O1  UNL A   1      10.229  26.101   7.715  1.00  0.00    +0.000 O 
ATOM      2  C1  UNL A   1      10.589  25.615   6.648  1.00  0.00    +0.000 C 
BRANCH    2    3
ATOM    106  H1  UNL A   1       9.003  25.670   5.419  1.00  0.00    +0.000 H 
ATOM      3  N1  UNL A   1       9.946  25.943   5.481  1.00  0.00    +0.000 N 
BRANCH    3    4
ATOM    108  H3  UNL A   1      11.535  26.761   4.470  1.00  0.00    +0.000 H 
ATOM    107  H2  UNL A   1      10.277  26.065   3.447  1.00  0.00    +0.000 H 
ATOM      4  C2  UNL A   1      10.482  26.641   4.325  1.00  0.00    +0.000 C 
BRANCH    4    5
ATOM    109  H4  UNL A   1       9.645  28.409   5.134  1.00  0.00    +0.000 H 
ATOM      5  C3  UNL A   1       9.868  28.023   4.161  1.00  0.00    +0.000 C 
ATOM    110  H5  UNL A   1       8.997  27.902   3.553  1.00  0.00    +0.000 H 
BRANCH    5    6
ATOM      6  C4  UNL A   1      10.767  29.030   3.441  1.00  0.00    +0.000 C 
ATOM    111  H6  UNL A   1      11.647  28.515   3.116  1.00  0.00    +0.000 H 
ATOM    112  H7  UNL A   1      10.967  29.809   4.146  1.00  0.00    +0.000 H 
BRANCH    6    7
ATOM    113  H8  UNL A   1      10.461  30.727   2.201  1.00  0.00    +0.000 H 
ATOM    114  H9  UNL A   1       9.077  29.599   2.336  1.00  0.00    +0.000 H 
ATOM      7  C5  UNL A   1      10.135  29.708   2.221  1.00  0.00    +0.000 C 
BRANCH    7    8
ATOM    115  H10 UNL A   1       9.818  29.471   0.127  1.00  0.00    +0.000 H 
ATOM    116  H11 UNL A   1      10.379  28.015   0.983  1.00  0.00    +0.000 H 
ATOM      8  C6  UNL A   1      10.482  29.073   0.866  1.00  0.00    +0.000 C 
BRANCH    8    9
ATOM      9  C7  UNL A   1      11.919  29.331   0.413  1.00  0.00    +0.000 C 
ATOM    117  H12 UNL A   1      12.573  28.646   0.909  1.00  0.00    +0.000 H 
ATOM    118  H13 UNL A   1      12.181  30.339   0.659  1.00  0.00    +0.000 H 
BRANCH    9   10
ATOM     10  N2  UNL A   1      12.044  29.154  -1.019  1.00  0.00    +0.000 N 
ATOM    119  H14 UNL A   1      11.314  29.524  -1.566  1.00  0.00    +0.000 H 
BRANCH   10   11
ATOM     11  C8  UNL A   1      13.051  28.537  -1.699  1.00  0.00    +0.000 C 
ATOM     12  O2  UNL A   1      14.211  28.776  -1.357  1.00  0.00    +0.000 O 
BRANCH   11   13
ATOM     13  C9  UNL A   1      12.751  27.578  -2.859  1.00  0.00    +0.000 C 
ATOM    120  H15 UNL A   1      11.687  27.480  -2.926  1.00  0.00    +0.000 H 
BRANCH   13   14
ATOM    121  H16 UNL A   1      13.435  26.041  -1.530  1.00  0.00    +0.000 H 
ATOM    122  H17 UNL A   1      14.226  26.047  -3.095  1.00  0.00    +0.000 H 
ATOM     14  C10 UNL A   1      13.293  26.167  -2.584  1.00  0.00    +0.000 C 
BRANCH   14   15
ATOM    123  H18 UNL A   1      12.239  24.507  -2.374  1.00  0.00    +0.000 H 
ATOM     15  O3  UNL A   1      12.371  25.181  -3.058  1.00  0.00    +0.000 O 
ENDBRANCH   14   15
ENDBRANCH   13   14
BRANCH   13   16
ATOM    124  H19 UNL A   1      14.105  28.459  -4.161  1.00  0.00    +0.000 H 
ATOM     16  N3  UNL A   1      13.181  28.121  -4.148  1.00  0.00    +0.000 N 
BRANCH   16   17
ATOM     17  C11 UNL A   1      12.519  28.237  -5.331  1.00  0.00    +0.000 C 
ATOM     18  O4  UNL A   1      12.487  27.193  -5.996  1.00  0.00    +0.000 O 
BRANCH   17   19
ATOM     19  C12 UNL A   1      11.630  29.453  -5.719  1.00  0.00    +0.000 C 
ATOM    125  H20 UNL A   1      10.737  29.012  -6.113  1.00  0.00    +0.000 H 
BRANCH   19   20
ATOM     20  C13 UNL A   1      12.369  30.314  -6.774  1.00  0.00    +0.000 C 
ATOM    126  H21 UNL A   1      13.395  30.399  -6.480  1.00  0.00    +0.000 H 
ATOM    127  H22 UNL A   1      11.871  31.260  -6.806  1.00  0.00    +0.000 H 
BRANCH   20   21
ATOM     21  S1  UNL A   1      12.310  29.628  -8.468  1.00  0.00    +0.000 S 
ATOM    128  H23 UNL A   1      11.015  29.406  -8.822  1.00  0.00    +0.000 H 
ENDBRANCH   20   21
ENDBRANCH   19   20
BRANCH   19   22
ATOM    129  H24 UNL A   1      10.293  29.935  -4.233  1.00  0.00    +0.000 H 
ATOM     22  N4  UNL A   1      11.119  30.295  -4.631  1.00  0.00    +0.000 N 
BRANCH   22   23
ATOM     23  C14 UNL A   1      11.517  31.453  -4.043  1.00  0.00    +0.000 C 
ATOM     24  O5  UNL A   1      12.690  31.401  -3.665  1.00  0.00    +0.000 O 
BRANCH   23   25
ATOM     25  C15 UNL A   1      10.699  32.777  -3.977  1.00  0.00    +0.000 C 
ATOM    130  H25 UNL A   1      11.397  33.562  -4.178  1.00  0.00    +0.000 H 
BRANCH   25   26
ATOM     26  C16 UNL A   1      10.047  33.006  -2.577  1.00  0.00    +0.000 C 
ATOM    131  H26 UNL A   1       9.331  32.221  -2.455  1.00  0.00    +0.000 H 
ATOM    132  H27 UNL A   1       9.723  34.022  -2.659  1.00  0.00    +0.000 H 
BRANCH   26   27
ATOM    133  H28 UNL A   1       9.392  32.229   0.001  1.00  0.00    +0.000 H 
ATOM    134  H29 UNL A   1      10.599  32.628   2.055  1.00  0.00    +0.000 H 
ATOM    135  H30 UNL A   1      12.762  33.718   2.007  1.00  0.00    +0.000 H 
ATOM    136  H31 UNL A   1      13.733  34.360  -0.121  1.00  0.00    +0.000 H 
ATOM    137  H32 UNL A   1      12.535  33.946  -2.182  1.00  0.00    +0.000 H 
ATOM     27  C17 UNL A   1      10.845  33.049  -1.283  1.00  0.00    +0.000 C 
ATOM     28  C18 UNL A   1      10.318  32.684  -0.038  1.00  0.00    +0.000 C 
ATOM     29  C19 UNL A   1      11.012  32.916   1.153  1.00  0.00    +0.000 C 
ATOM     30  C20 UNL A   1      12.253  33.535   1.129  1.00  0.00    +0.000 C 
ATOM     31  C21 UNL A   1      12.807  33.906  -0.092  1.00  0.00    +0.000 C 
ATOM     32  C22 UNL A   1      12.111  33.666  -1.284  1.00  0.00    +0.000 C 
ENDBRANCH   26   27
ENDBRANCH   25   26
BRANCH   25   33
ATOM     33  N5  UNL A   1       9.605  32.758  -4.963  1.00  0.00    +0.000 N 
ATOM    138  H33 UNL A   1       9.033  31.960  -4.899  1.00  0.00    +0.000 H 
BRANCH   33   34
ATOM     34  C23 UNL A   1       9.224  33.626  -5.951  1.00  0.00    +0.000 C 
ATOM     35  O6  UNL A   1       9.806  33.538  -7.032  1.00  0.00    +0.000 O 
BRANCH   34   36
ATOM     36  C24 UNL A   1       8.214  34.705  -5.768  1.00  0.00    +0.000 C 
ATOM     37  C25 UNL A   1       7.636  35.242  -6.932  1.00  0.00    +0.000 C 
ATOM     38  C26 UNL A   1       6.773  36.339  -6.861  1.00  0.00    +0.000 C 
ATOM     39  C27 UNL A   1       6.493  36.907  -5.626  1.00  0.00    +0.000 C 
ATOM     40  F1  UNL A   1       5.683  37.971  -5.554  1.00  0.00    +0.000 F 
ATOM     41  C28 UNL A   1       7.060  36.399  -4.464  1.00  0.00    +0.000 C 
ATOM     42  C29 UNL A   1       7.927  35.303  -4.535  1.00  0.00    +0.000 C 
ATOM    139  H34 UNL A   1       7.849  34.821  -7.849  1.00  0.00    +0.000 H 
ATOM    140  H35 UNL A   1       6.349  36.725  -7.719  1.00  0.00    +0.000 H 
ATOM    141  H36 UNL A   1       6.844  36.830  -3.552  1.00  0.00    +0.000 H 
ATOM    142  H37 UNL A   1       8.357  34.933  -3.674  1.00  0.00    +0.000 H 
ENDBRANCH   34   36
ENDBRANCH   33   34
ENDBRANCH   25   33
ENDBRANCH   23   25
ENDBRANCH   22   23
ENDBRANCH   19   22
ENDBRANCH   17   19
ENDBRANCH   16   17
ENDBRANCH   13   16
ENDBRANCH   11   13
ENDBRANCH   10   11
ENDBRANCH    9   10
ENDBRANCH    8    9
ENDBRANCH    7    8
ENDBRANCH    6    7
ENDBRANCH    5    6
ENDBRANCH    4    5
ENDBRANCH    3    4
ENDBRANCH    2    3
ENDBRANCH   43    2
ENDBRANCH   47   46
BRANCH   51   52
ATOM     52  C38 UNL A   1      15.241  16.827   9.950  1.00  0.00    +0.000 C 
ATOM     53  C39 UNL A   1      14.439  15.714   9.664  1.00  0.00    +0.000 C 
ATOM     54  F2  UNL A   1      14.227  15.342   8.393  1.00  0.00    +0.000 F 
ATOM     55  C40 UNL A   1      13.825  14.993  10.685  1.00  0.00    +0.000 C 
ATOM     56  F3  UNL A   1      13.033  13.953  10.387  1.00  0.00    +0.000 F 
ATOM     57  C41 UNL A   1      14.022  15.354  12.010  1.00  0.00    +0.000 C 
ATOM     58  F4  UNL A   1      13.436  14.655  12.991  1.00  0.00    +0.000 F 
ATOM     59  C42 UNL A   1      14.822  16.445  12.316  1.00  0.00    +0.000 C 
ATOM     60  F5  UNL A   1      15.021  16.790  13.595  1.00  0.00    +0.000 F 
ATOM     61  C43 UNL A   1      15.420  17.181  11.295  1.00  0.00    +0.000 C 
ATOM     62  F6  UNL A   1      16.181  18.236  11.623  1.00  0.00    +0.000 F 
ENDBRANCH   51   52
BRANCH   68   69
ATOM     69  C49 UNL A   1      21.232  16.286   5.974  1.00  0.00    +0.000 C 
ATOM     70  C50 UNL A   1      21.200  15.259   5.020  1.00  0.00    +0.000 C 
ATOM     71  F7  UNL A   1      20.113  15.084   4.254  1.00  0.00    +0.000 F 
ATOM     72  C51 UNL A   1      22.271  14.382   4.880  1.00  0.00    +0.000 C 
ATOM     73  F8  UNL A   1      22.202  13.379   3.993  1.00  0.00    +0.000 F 
ATOM     74  C52 UNL A   1      23.401  14.532   5.669  1.00  0.00    +0.000 C 
ATOM     75  F9  UNL A   1      24.432  13.686   5.534  1.00  0.00    +0.000 F 
ATOM     76  C53 UNL A   1      23.461  15.553   6.606  1.00  0.00    +0.000 C 
ATOM     77  F10 UNL A   1      24.556  15.703   7.364  1.00  0.00    +0.000 F 
ATOM     78  C54 UNL A   1      22.383  16.418   6.765  1.00  0.00    +0.000 C 
ATOM     79  F11 UNL A   1      22.460  17.388   7.689  1.00  0.00    +0.000 F 
ENDBRANCH   68   69
BRANCH   83   84
ATOM     84  C58 UNL A   1      19.671  22.321   2.880  1.00  0.00    +0.000 C 
ATOM     85  C59 UNL A   1      19.461  22.044   1.522  1.00  0.00    +0.000 C 
ATOM     86  F12 UNL A   1      18.699  21.002   1.162  1.00  0.00    +0.000 F 
ATOM     87  C60 UNL A   1      20.056  22.822   0.532  1.00  0.00    +0.000 C 
ATOM     88  F13 UNL A   1      19.864  22.518  -0.759  1.00  0.00    +0.000 F 
ATOM     89  C61 UNL A   1      20.851  23.905   0.880  1.00  0.00    +0.000 C 
ATOM     90  F14 UNL A   1      21.412  24.660  -0.074  1.00  0.00    +0.000 F 
ATOM     91  C62 UNL A   1      21.064  24.202   2.217  1.00  0.00    +0.000 C 
ATOM     92  F15 UNL A   1      21.819  25.256   2.557  1.00  0.00    +0.000 F 
ATOM     93  C63 UNL A   1      20.492  23.409   3.208  1.00  0.00    +0.000 C 
ATOM     94  F16 UNL A   1      20.717  23.717   4.494  1.00  0.00    +0.000 F 
ENDBRANCH   83   84
TORSDOF 30
ENDMDL
MODEL 4
REMARK VINA RESULT:      -7.1      5.053     11.666
ROOT
ATOM    145  H40 UNL A   1      13.419  46.852   2.932  1.00  0.00    +0.000 H 
ATOM    146  H41 UNL A   1      15.039  46.952   0.891  1.00  0.00    +0.000 H 
ATOM    147  H42 UNL A   1      14.905  50.708   2.630  1.00  0.00    +0.000 H 
ATOM    148  H43 UNL A   1      16.661  56.836   2.621  1.00  0.00    +0.000 H 
ATOM    149  H44 UNL A   1      15.220  56.696   4.706  1.00  0.00    +0.000 H 
ATOM    150  H45 UNL A   1      15.315  52.918   2.976  1.00  0.00    +0.000 H 
ATOM    151  H46 UNL A   1      18.385  53.299  -0.978  1.00  0.00    +0.000 H 
ATOM    152  H47 UNL A   1      17.864  50.836  -1.449  1.00  0.00    +0.000 H 
ATOM    153  H48 UNL A   1      11.919  50.428   6.653  1.00  0.00    +0.000 H 
ATOM    154  H49 UNL A   1      12.219  52.949   6.992  1.00  0.00    +0.000 H 
ATOM     47  C34 UNL A   1      14.028  54.146   5.139  1.00  0.00    +0.000 C 
ATOM     48  C35 UNL A   1      13.570  52.719   5.186  1.00  0.00    +0.000 C 
ATOM     49  N6  UNL A   1      13.887  51.727   4.392  1.00  0.00    +0.000 N 
ATOM     50  C36 UNL A   1      13.215  50.616   4.882  1.00  0.00    +0.000 C 
ATOM     51  C37 UNL A   1      13.205  49.353   4.392  1.00  0.00    +0.000 C 
ATOM     63  C44 UNL A   1      13.919  48.932   3.213  1.00  0.00    +0.000 C 
ATOM     64  C45 UNL A   1      13.944  47.684   2.617  1.00  0.00    +0.000 C 
ATOM     65  C46 UNL A   1      14.804  47.740   1.514  1.00  0.00    +0.000 C 
ATOM     66  C47 UNL A   1      15.285  49.034   1.400  1.00  0.00    +0.000 C 
ATOM     67  N7  UNL A   1      14.737  49.754   2.451  1.00  0.00    +0.000 N 
ATOM     68  C48 UNL A   1      16.178  49.574   0.408  1.00  0.00    +0.000 C 
ATOM     80  C55 UNL A   1      16.590  50.864   0.347  1.00  0.00    +0.000 C 
ATOM     81  N8  UNL A   1      16.276  51.919   1.189  1.00  0.00    +0.000 N 
ATOM     82  C56 UNL A   1      16.938  52.953   0.732  1.00  0.00    +0.000 C 
ATOM     83  C57 UNL A   1      16.970  54.360   1.252  1.00  0.00    +0.000 C 
ATOM     95  C64 UNL A   1      16.258  54.666   2.351  1.00  0.00    +0.000 C 
ATOM     96  C65 UNL A   1      16.189  55.987   2.968  1.00  0.00    +0.000 C 
ATOM     97  C66 UNL A   1      15.415  55.916   4.060  1.00  0.00    +0.000 C 
ATOM     98  C67 UNL A   1      14.890  54.555   4.188  1.00  0.00    +0.000 C 
ATOM     99  N9  UNL A   1      15.461  53.877   3.143  1.00  0.00    +0.000 N 
ATOM    100  C68 UNL A   1      17.760  52.668  -0.451  1.00  0.00    +0.000 C 
ATOM    101  C69 UNL A   1      17.486  51.389  -0.663  1.00  0.00    +0.000 C 
ATOM    102  C70 UNL A   1      12.486  51.050   6.056  1.00  0.00    +0.000 C 
ATOM    103  C71 UNL A   1      12.641  52.351   6.264  1.00  0.00    +0.000 C 
ENDROOT
BRANCH   47   46
ATOM    104  C72 UNL A   1      14.203  55.385   7.322  1.00  0.00    +0.000 C 
ATOM    105  C73 UNL A   1      13.731  56.355   8.211  1.00  0.00    +0.000 C 
ATOM     43  C30 UNL A   1      12.608  57.116   7.874  1.00  0.00    +0.000 C 
ATOM     44  C31 UNL A   1      11.980  56.936   6.638  1.00  0.00    +0.000 C 
ATOM     45  C32 UNL A   1      12.404  55.920   5.788  1.00  0.00    +0.000 C 
ATOM     46  C33 UNL A   1      13.529  55.147   6.115  1.00  0.00    +0.000 C 
ATOM    143  H38 UNL A   1      11.203  57.553   6.357  1.00  0.00    +0.000 H 
ATOM    144  H39 UNL A   1      11.890  55.734   4.913  1.00  0.00    +0.000 H 
ATOM    155  H50 UNL A   1      15.048  54.841   7.556  1.00  0.00    +0.000 H 
ATOM    156  H51 UNL A   1      14.211  56.509   9.111  1.00  0.00    +0.000 H 
BRANCH   43    2
ATOM      1  O1  UNL A   1      12.653  59.213   8.924  1.00  0.00    +0.000 O 
ATOM      2  C1  UNL A   1      12.103  58.120   8.835  1.00  0.00    +0.000 C 
BRANCH    2    3
ATOM    106  H1  UNL A   1      10.469  58.575   9.908  1.00  0.00    +0.000 H 
ATOM      3  N1  UNL A   1      11.029  57.814   9.631  1.00  0.00    +0.000 N 
BRANCH    3    4
ATOM    108  H3  UNL A   1       9.752  56.208   9.559  1.00  0.00    +0.000 H 
ATOM    107  H2  UNL A   1      11.419  55.818   9.989  1.00  0.00    +0.000 H 
ATOM      4  C2  UNL A   1      10.612  56.510  10.117  1.00  0.00    +0.000 C 
BRANCH    4    5
ATOM    109  H4  UNL A   1       9.208  56.238  11.679  1.00  0.00    +0.000 H 
ATOM      5  C3  UNL A   1      10.229  56.548  11.590  1.00  0.00    +0.000 C 
ATOM    110  H5  UNL A   1      10.387  57.553  11.922  1.00  0.00    +0.000 H 
BRANCH    5    6
ATOM      6  C4  UNL A   1      11.083  55.651  12.487  1.00  0.00    +0.000 C 
ATOM    111  H6  UNL A   1      10.452  54.883  12.884  1.00  0.00    +0.000 H 
ATOM    112  H7  UNL A   1      11.499  56.288  13.237  1.00  0.00    +0.000 H 
BRANCH    6    7
ATOM    113  H8  UNL A   1      12.860  55.741  11.327  1.00  0.00    +0.000 H 
ATOM    114  H9  UNL A   1      11.849  54.282  11.093  1.00  0.00    +0.000 H 
ATOM      7  C5  UNL A   1      12.269  54.977  11.789  1.00  0.00    +0.000 C 
BRANCH    7    8
ATOM    115  H10 UNL A   1      12.659  53.281  13.018  1.00  0.00    +0.000 H 
ATOM    116  H11 UNL A   1      13.453  54.790  13.528  1.00  0.00    +0.000 H 
ATOM      8  C6  UNL A   1      13.189  54.157  12.707  1.00  0.00    +0.000 C 
BRANCH    8    9
ATOM      9  C7  UNL A   1      14.495  53.720  12.043  1.00  0.00    +0.000 C 
ATOM    117  H12 UNL A   1      15.227  53.529  12.799  1.00  0.00    +0.000 H 
ATOM    118  H13 UNL A   1      14.828  54.502  11.393  1.00  0.00    +0.000 H 
BRANCH    9   10
ATOM     10  N2  UNL A   1      14.295  52.518  11.261  1.00  0.00    +0.000 N 
ATOM    119  H14 UNL A   1      13.470  52.483  10.725  1.00  0.00    +0.000 H 
BRANCH   10   11
ATOM     11  C8  UNL A   1      15.112  51.431  11.179  1.00  0.00    +0.000 C 
ATOM     12  O2  UNL A   1      16.323  51.604  11.325  1.00  0.00    +0.000 O 
BRANCH   11   13
ATOM     13  C9  UNL A   1      14.542  50.031  10.906  1.00  0.00    +0.000 C 
ATOM    120  H15 UNL A   1      15.245  49.320  11.286  1.00  0.00    +0.000 H 
BRANCH   13   14
ATOM    121  H16 UNL A   1      14.996  48.882   9.155  1.00  0.00    +0.000 H 
ATOM    122  H17 UNL A   1      14.788  50.597   8.857  1.00  0.00    +0.000 H 
ATOM     14  C10 UNL A   1      14.421  49.751   9.400  1.00  0.00    +0.000 C 
BRANCH   14   15
ATOM    123  H18 UNL A   1      12.791  50.152   8.354  1.00  0.00    +0.000 H 
ATOM     15  O3  UNL A   1      13.052  49.526   9.047  1.00  0.00    +0.000 O 
ENDBRANCH   14   15
ENDBRANCH   13   14
BRANCH   13   16
ATOM    124  H19 UNL A   1      12.478  49.960  11.121  1.00  0.00    +0.000 H 
ATOM     16  N3  UNL A   1      13.298  49.791  11.639  1.00  0.00    +0.000 N 
BRANCH   16   17
ATOM     17  C11 UNL A   1      13.084  49.375  12.917  1.00  0.00    +0.000 C 
ATOM     18  O4  UNL A   1      13.404  50.204  13.779  1.00  0.00    +0.000 O 
BRANCH   17   19
ATOM     19  C12 UNL A   1      12.257  48.113  13.297  1.00  0.00    +0.000 C 
ATOM    125  H20 UNL A   1      12.580  47.876  14.290  1.00  0.00    +0.000 H 
BRANCH   19   20
ATOM     20  C13 UNL A   1      12.569  46.973  12.295  1.00  0.00    +0.000 C 
ATOM    126  H21 UNL A   1      13.614  47.003  12.067  1.00  0.00    +0.000 H 
ATOM    127  H22 UNL A   1      11.956  47.142  11.434  1.00  0.00    +0.000 H 
BRANCH   20   21
ATOM     21  S1  UNL A   1      12.161  45.303  12.916  1.00  0.00    +0.000 S 
ATOM    128  H23 UNL A   1      13.309  44.601  13.118  1.00  0.00    +0.000 H 
ENDBRANCH   20   21
ENDBRANCH   19   20
BRANCH   19   22
ATOM    129  H24 UNL A   1      10.396  47.520  13.939  1.00  0.00    +0.000 H 
ATOM     22  N4  UNL A   1      10.808  48.276  13.460  1.00  0.00    +0.000 N 
BRANCH   22   23
ATOM     23  C14 UNL A   1       9.900  49.222  13.105  1.00  0.00    +0.000 C 
ATOM     24  O5  UNL A   1       9.165  48.839  12.191  1.00  0.00    +0.000 O 
BRANCH   23   25
ATOM     25  C15 UNL A   1       9.653  50.576  13.834  1.00  0.00    +0.000 C 
ATOM    130  H25 UNL A   1       8.590  50.697  13.875  1.00  0.00    +0.000 H 
BRANCH   25   26
ATOM     26  C16 UNL A   1      10.285  51.786  13.077  1.00  0.00    +0.000 C 
ATOM    131  H26 UNL A   1      11.340  51.609  13.071  1.00  0.00    +0.000 H 
ATOM    132  H27 UNL A   1       9.882  52.612  13.624  1.00  0.00    +0.000 H 
BRANCH   26   27
ATOM    133  H28 UNL A   1      11.621  51.396  10.681  1.00  0.00    +0.000 H 
ATOM    134  H29 UNL A   1      11.116  52.307   8.501  1.00  0.00    +0.000 H 
ATOM    135  H30 UNL A   1       9.124  53.646   8.169  1.00  0.00    +0.000 H 
ATOM    136  H31 UNL A   1       7.613  54.025  10.029  1.00  0.00    +0.000 H 
ATOM    137  H32 UNL A   1       8.106  53.099  12.209  1.00  0.00    +0.000 H 
ATOM     27  C17 UNL A   1       9.916  52.161  11.650  1.00  0.00    +0.000 C 
ATOM     28  C18 UNL A   1      10.762  51.955  10.553  1.00  0.00    +0.000 C 
ATOM     29  C19 UNL A   1      10.475  52.484   9.291  1.00  0.00    +0.000 C 
ATOM     30  C20 UNL A   1       9.332  53.246   9.097  1.00  0.00    +0.000 C 
ATOM     31  C21 UNL A   1       8.469  53.466  10.166  1.00  0.00    +0.000 C 
ATOM     32  C22 UNL A   1       8.757  52.929  11.427  1.00  0.00    +0.000 C 
ENDBRANCH   26   27
ENDBRANCH   25   26
BRANCH   25   33
ATOM     33  N5  UNL A   1      10.248  50.553  15.182  1.00  0.00    +0.000 N 
ATOM    138  H33 UNL A   1      11.204  50.785  15.192  1.00  0.00    +0.000 H 
BRANCH   33   34
ATOM     34  C23 UNL A   1       9.739  50.274  16.422  1.00  0.00    +0.000 C 
ATOM     35  O6  UNL A   1       8.818  49.459  16.481  1.00  0.00    +0.000 O 
BRANCH   34   36
ATOM     36  C24 UNL A   1      10.180  50.946  17.674  1.00  0.00    +0.000 C 
ATOM     37  C25 UNL A   1       9.445  50.669  18.841  1.00  0.00    +0.000 C 
ATOM     38  C26 UNL A   1       9.711  51.350  20.032  1.00  0.00    +0.000 C 
ATOM     39  C27 UNL A   1      10.706  52.316  20.058  1.00  0.00    +0.000 C 
ATOM     40  F1  UNL A   1      10.951  52.985  21.192  1.00  0.00    +0.000 F 
ATOM     41  C28 UNL A   1      11.439  52.613  18.915  1.00  0.00    +0.000 C 
ATOM     42  C29 UNL A   1      11.170  51.934  17.722  1.00  0.00    +0.000 C 
ATOM    139  H34 UNL A   1       8.702  49.953  18.818  1.00  0.00    +0.000 H 
ATOM    140  H35 UNL A   1       9.170  51.136  20.886  1.00  0.00    +0.000 H 
ATOM    141  H36 UNL A   1      12.177  53.333  18.947  1.00  0.00    +0.000 H 
ATOM    142  H37 UNL A   1      11.706  52.163  16.871  1.00  0.00    +0.000 H 
ENDBRANCH   34   36
ENDBRANCH   33   34
ENDBRANCH   25   33
ENDBRANCH   23   25
ENDBRANCH   22   23
ENDBRANCH   19   22
ENDBRANCH   17   19
ENDBRANCH   16   17
ENDBRANCH   13   16
ENDBRANCH   11   13
ENDBRANCH   10   11
ENDBRANCH    9   10
ENDBRANCH    8    9
ENDBRANCH    7    8
ENDBRANCH    6    7
ENDBRANCH    5    6
ENDBRANCH    4    5
ENDBRANCH    3    4
ENDBRANCH    2    3
ENDBRANCH   43    2
ENDBRANCH   47   46
BRANCH   51   52
ATOM     52  C38 UNL A   1      12.406  48.324   5.137  1.00  0.00    +0.000 C 
ATOM     53  C39 UNL A   1      11.085  48.021   4.780  1.00  0.00    +0.000 C 
ATOM     54  F2  UNL A   1      10.480  48.694   3.790  1.00  0.00    +0.000 F 
ATOM     55  C40 UNL A   1      10.367  47.041   5.461  1.00  0.00    +0.000 C 
ATOM     56  F3  UNL A   1       9.093  46.792   5.127  1.00  0.00    +0.000 F 
ATOM     57  C41 UNL A   1      10.963  46.329   6.492  1.00  0.00    +0.000 C 
ATOM     58  F4  UNL A   1      10.273  45.382   7.141  1.00  0.00    +0.000 F 
ATOM     59  C42 UNL A   1      12.274  46.604   6.853  1.00  0.00    +0.000 C 
ATOM     60  F5  UNL A   1      12.854  45.911   7.842  1.00  0.00    +0.000 F 
ATOM     61  C43 UNL A   1      12.987  47.599   6.188  1.00  0.00    +0.000 C 
ATOM     62  F6  UNL A   1      14.250  47.848   6.566  1.00  0.00    +0.000 F 
ENDBRANCH   51   52
BRANCH   68   69
ATOM     69  C49 UNL A   1      16.685  48.652  -0.657  1.00  0.00    +0.000 C 
ATOM     70  C50 UNL A   1      15.931  48.382  -1.808  1.00  0.00    +0.000 C 
ATOM     71  F7  UNL A   1      14.712  48.923  -1.959  1.00  0.00    +0.000 F 
ATOM     72  C51 UNL A   1      16.411  47.519  -2.790  1.00  0.00    +0.000 C 
ATOM     73  F8  UNL A   1      15.655  47.239  -3.860  1.00  0.00    +0.000 F 
ATOM     74  C52 UNL A   1      17.661  46.935  -2.651  1.00  0.00    +0.000 C 
ATOM     75  F9  UNL A   1      18.121  46.105  -3.597  1.00  0.00    +0.000 F 
ATOM     76  C53 UNL A   1      18.431  47.204  -1.530  1.00  0.00    +0.000 C 
ATOM     77  F10 UNL A   1      19.643  46.646  -1.399  1.00  0.00    +0.000 F 
ATOM     78  C54 UNL A   1      17.945  48.048  -0.536  1.00  0.00    +0.000 C 
ATOM     79  F11 UNL A   1      18.703  48.279   0.547  1.00  0.00    +0.000 F 
ENDBRANCH   68   69
BRANCH   83   84
ATOM     84  C58 UNL A   1      17.760  55.416   0.573  1.00  0.00    +0.000 C 
ATOM     85  C59 UNL A   1      19.020  55.794   1.057  1.00  0.00    +0.000 C 
ATOM     86  F12 UNL A   1      19.505  55.231   2.173  1.00  0.00    +0.000 F 
ATOM     87  C60 UNL A   1      19.774  56.769   0.408  1.00  0.00    +0.000 C 
ATOM     88  F13 UNL A   1      20.963  57.134   0.907  1.00  0.00    +0.000 F 
ATOM     89  C61 UNL A   1      19.293  57.367  -0.748  1.00  0.00    +0.000 C 
ATOM     90  F14 UNL A   1      20.025  58.296  -1.378  1.00  0.00    +0.000 F 
ATOM     91  C62 UNL A   1      18.053  57.002  -1.248  1.00  0.00    +0.000 C 
ATOM     92  F15 UNL A   1      17.592  57.566  -2.373  1.00  0.00    +0.000 F 
ATOM     93  C63 UNL A   1      17.287  56.046  -0.586  1.00  0.00    +0.000 C 
ATOM     94  F16 UNL A   1      16.089  55.713  -1.090  1.00  0.00    +0.000 F 
ENDBRANCH   83   84
TORSDOF 30
ENDMDL
MODEL 5
REMARK VINA RESULT:      -7.1     64.190     70.289
ROOT
ATOM    145  H40 UNL A   1      45.003  18.300  54.281  1.00  0.00    +0.000 H 
ATOM    146  H41 UNL A   1      42.609  17.624  53.497  1.00  0.00    +0.000 H 
ATOM    147  H42 UNL A   1      45.313  16.434  50.596  1.00  0.00    +0.000 H 
ATOM    148  H43 UNL A   1      46.464  13.830  44.892  1.00  0.00    +0.000 H 
ATOM    149  H44 UNL A   1      48.807  14.333  45.733  1.00  0.00    +0.000 H 
ATOM    150  H45 UNL A   1      46.120  15.559  48.658  1.00  0.00    +0.000 H 
ATOM    151  H46 UNL A   1      41.571  14.281  46.961  1.00  0.00    +0.000 H 
ATOM    152  H47 UNL A   1      40.627  15.348  49.089  1.00  0.00    +0.000 H 
ATOM    153  H48 UNL A   1      49.916  17.592  52.222  1.00  0.00    +0.000 H 
ATOM    154  H49 UNL A   1      50.861  16.767  49.990  1.00  0.00    +0.000 H 
ATOM     47  C34 UNL A   1      48.889  15.664  48.249  1.00  0.00    +0.000 C 
ATOM     48  C35 UNL A   1      48.679  16.297  49.592  1.00  0.00    +0.000 C 
ATOM     49  N6  UNL A   1      47.561  16.489  50.246  1.00  0.00    +0.000 N 
ATOM     50  C36 UNL A   1      47.918  17.088  51.446  1.00  0.00    +0.000 C 
ATOM     51  C37 UNL A   1      47.112  17.501  52.454  1.00  0.00    +0.000 C 
ATOM     63  C44 UNL A   1      45.676  17.391  52.444  1.00  0.00    +0.000 C 
ATOM     64  C45 UNL A   1      44.770  17.811  53.402  1.00  0.00    +0.000 C 
ATOM     65  C46 UNL A   1      43.484  17.460  52.976  1.00  0.00    +0.000 C 
ATOM     66  C47 UNL A   1      43.585  16.855  51.734  1.00  0.00    +0.000 C 
ATOM     67  N7  UNL A   1      44.935  16.815  51.421  1.00  0.00    +0.000 N 
ATOM     68  C48 UNL A   1      42.530  16.349  50.895  1.00  0.00    +0.000 C 
ATOM     80  C55 UNL A   1      42.704  15.786  49.674  1.00  0.00    +0.000 C 
ATOM     81  N8  UNL A   1      43.882  15.562  48.978  1.00  0.00    +0.000 N 
ATOM     82  C56 UNL A   1      43.533  14.971  47.862  1.00  0.00    +0.000 C 
ATOM     83  C57 UNL A   1      44.399  14.504  46.730  1.00  0.00    +0.000 C 
ATOM     95  C64 UNL A   1      45.731  14.663  46.818  1.00  0.00    +0.000 C 
ATOM     96  C65 UNL A   1      46.696  14.261  45.800  1.00  0.00    +0.000 C 
ATOM     97  C66 UNL A   1      47.932  14.542  46.238  1.00  0.00    +0.000 C 
ATOM     98  C67 UNL A   1      47.841  15.192  47.547  1.00  0.00    +0.000 C 
ATOM     99  N9  UNL A   1      46.499  15.202  47.822  1.00  0.00    +0.000 N 
ATOM    100  C68 UNL A   1      42.088  14.743  47.726  1.00  0.00    +0.000 C 
ATOM    101  C69 UNL A   1      41.627  15.287  48.843  1.00  0.00    +0.000 C 
ATOM    102  C70 UNL A   1      49.361  17.212  51.441  1.00  0.00    +0.000 C 
ATOM    103  C71 UNL A   1      49.877  16.773  50.299  1.00  0.00    +0.000 C 
ENDROOT
BRANCH   47   46
ATOM    104  C72 UNL A   1      51.080  14.472  47.921  1.00  0.00    +0.000 C 
ATOM    105  C73 UNL A   1      52.338  14.384  47.318  1.00  0.00    +0.000 C 
ATOM     43  C30 UNL A   1      52.742  15.367  46.411  1.00  0.00    +0.000 C 
ATOM     44  C31 UNL A   1      51.879  16.415  46.077  1.00  0.00    +0.000 C 
ATOM     45  C32 UNL A   1      50.660  16.542  46.733  1.00  0.00    +0.000 C 
ATOM     46  C33 UNL A   1      50.242  15.563  47.648  1.00  0.00    +0.000 C 
ATOM    143  H38 UNL A   1      52.147  17.094  45.347  1.00  0.00    +0.000 H 
ATOM    144  H39 UNL A   1      50.059  17.360  46.546  1.00  0.00    +0.000 H 
ATOM    155  H50 UNL A   1      50.768  13.733  48.569  1.00  0.00    +0.000 H 
ATOM    156  H51 UNL A   1      52.965  13.595  47.541  1.00  0.00    +0.000 H 
BRANCH   43    2
ATOM      1  O1  UNL A   1      54.226  14.750  44.702  1.00  0.00    +0.000 O 
ATOM      2  C1  UNL A   1      54.087  15.276  45.801  1.00  0.00    +0.000 C 
BRANCH    2    3
ATOM    106  H1  UNL A   1      55.478  16.665  46.203  1.00  0.00    +0.000 H 
ATOM      3  N1  UNL A   1      55.171  15.772  46.479  1.00  0.00    +0.000 N 
BRANCH    3    4
ATOM    108  H3  UNL A   1      55.684  14.103  47.560  1.00  0.00    +0.000 H 
ATOM    107  H2  UNL A   1      56.970  15.298  47.376  1.00  0.00    +0.000 H 
ATOM      4  C2  UNL A   1      55.925  15.145  47.551  1.00  0.00    +0.000 C 
BRANCH    4    5
ATOM    109  H4  UNL A   1      54.499  15.756  48.991  1.00  0.00    +0.000 H 
ATOM      5  C3  UNL A   1      55.566  15.724  48.912  1.00  0.00    +0.000 C 
ATOM    110  H5  UNL A   1      56.015  16.693  48.961  1.00  0.00    +0.000 H 
BRANCH    5    6
ATOM      6  C4  UNL A   1      56.111  14.927  50.099  1.00  0.00    +0.000 C 
ATOM    111  H6  UNL A   1      56.950  15.459  50.497  1.00  0.00    +0.000 H 
ATOM    112  H7  UNL A   1      56.363  13.960  49.719  1.00  0.00    +0.000 H 
BRANCH    6    7
ATOM    113  H8  UNL A   1      54.989  15.617  51.765  1.00  0.00    +0.000 H 
ATOM    114  H9  UNL A   1      55.524  13.910  51.837  1.00  0.00    +0.000 H 
ATOM      7  C5  UNL A   1      55.112  14.694  51.237  1.00  0.00    +0.000 C 
BRANCH    7    8
ATOM    115  H10 UNL A   1      53.420  14.779  49.945  1.00  0.00    +0.000 H 
ATOM    116  H11 UNL A   1      53.068  14.343  51.635  1.00  0.00    +0.000 H 
ATOM      8  C6  UNL A   1      53.722  14.208  50.799  1.00  0.00    +0.000 C 
BRANCH    8    9
ATOM      9  C7  UNL A   1      53.673  12.725  50.430  1.00  0.00    +0.000 C 
ATOM    117  H12 UNL A   1      54.666  12.327  50.446  1.00  0.00    +0.000 H 
ATOM    118  H13 UNL A   1      53.249  12.628  49.453  1.00  0.00    +0.000 H 
BRANCH    9   10
ATOM     10  N2  UNL A   1      52.853  11.991  51.370  1.00  0.00    +0.000 N 
ATOM    119  H14 UNL A   1      51.879  12.068  51.246  1.00  0.00    +0.000 H 
BRANCH   10   11
ATOM     11  C8  UNL A   1      53.266  11.207  52.405  1.00  0.00    +0.000 C 
ATOM     12  O2  UNL A   1      54.382  11.422  52.884  1.00  0.00    +0.000 O 
BRANCH   11   13
ATOM     13  C9  UNL A   1      52.373  10.087  52.955  1.00  0.00    +0.000 C 
ATOM    120  H15 UNL A   1      52.145  10.329  53.972  1.00  0.00    +0.000 H 
BRANCH   13   14
ATOM    121  H16 UNL A   1      53.952   8.778  52.332  1.00  0.00    +0.000 H 
ATOM    122  H17 UNL A   1      52.438   7.965  52.682  1.00  0.00    +0.000 H 
ATOM     14  C10 UNL A   1      53.110   8.739  52.992  1.00  0.00    +0.000 C 
BRANCH   14   15
ATOM    123  H18 UNL A   1      53.331   9.198  54.903  1.00  0.00    +0.000 H 
ATOM     15  O3  UNL A   1      53.564   8.459  54.321  1.00  0.00    +0.000 O 
ENDBRANCH   14   15
ENDBRANCH   13   14
BRANCH   13   16
ATOM    124  H19 UNL A   1      50.446  10.726  52.521  1.00  0.00    +0.000 H 
ATOM     16  N3  UNL A   1      51.084  10.021  52.265  1.00  0.00    +0.000 N 
BRANCH   16   17
ATOM     17  C11 UNL A   1      50.619   9.150  51.328  1.00  0.00    +0.000 C 
ATOM     18  O4  UNL A   1      51.328   9.071  50.316  1.00  0.00    +0.000 O 
BRANCH   17   19
ATOM     19  C12 UNL A   1      49.478   8.123  51.581  1.00  0.00    +0.000 C 
ATOM    125  H20 UNL A   1      49.083   8.398  52.538  1.00  0.00    +0.000 H 
BRANCH   19   20
ATOM     20  C13 UNL A   1      50.068   6.690  51.585  1.00  0.00    +0.000 C 
ATOM    126  H21 UNL A   1      51.025   6.722  52.062  1.00  0.00    +0.000 H 
ATOM    127  H22 UNL A   1      50.129   6.378  50.563  1.00  0.00    +0.000 H 
BRANCH   20   21
ATOM     21  S1  UNL A   1      49.031   5.461  52.453  1.00  0.00    +0.000 S 
ATOM    128  H23 UNL A   1      47.744   5.903  52.498  1.00  0.00    +0.000 H 
ENDBRANCH   20   21
ENDBRANCH   19   20
BRANCH   19   22
ATOM    129  H24 UNL A   1      48.484   7.884  49.798  1.00  0.00    +0.000 H 
ATOM     22  N4  UNL A   1      48.297   8.194  50.713  1.00  0.00    +0.000 N 
BRANCH   22   23
ATOM     23  C14 UNL A   1      47.007   8.588  50.875  1.00  0.00    +0.000 C 
ATOM     24  O5  UNL A   1      46.778   8.962  52.028  1.00  0.00    +0.000 O 
BRANCH   23   25
ATOM     25  C15 UNL A   1      45.943   8.735  49.747  1.00  0.00    +0.000 C 
ATOM    130  H25 UNL A   1      45.134   9.286  50.178  1.00  0.00    +0.000 H 
BRANCH   25   26
ATOM     26  C16 UNL A   1      45.420   7.356  49.236  1.00  0.00    +0.000 C 
ATOM    131  H26 UNL A   1      46.279   6.833  48.871  1.00  0.00    +0.000 H 
ATOM    132  H27 UNL A   1      44.648   7.659  48.560  1.00  0.00    +0.000 H 
BRANCH   26   27
ATOM    133  H28 UNL A   1      46.178   4.903  50.279  1.00  0.00    +0.000 H 
ATOM    134  H29 UNL A   1      44.820   3.253  51.406  1.00  0.00    +0.000 H 
ATOM    135  H30 UNL A   1      42.492   3.716  51.895  1.00  0.00    +0.000 H 
ATOM    136  H31 UNL A   1      41.546   5.866  51.290  1.00  0.00    +0.000 H 
ATOM    137  H32 UNL A   1      42.908   7.527  50.177  1.00  0.00    +0.000 H 
ATOM     27  C17 UNL A   1      44.674   6.368  50.120  1.00  0.00    +0.000 C 
ATOM     28  C18 UNL A   1      45.191   5.120  50.490  1.00  0.00    +0.000 C 
ATOM     29  C19 UNL A   1      44.407   4.162  51.140  1.00  0.00    +0.000 C 
ATOM     30  C20 UNL A   1      43.075   4.426  51.425  1.00  0.00    +0.000 C 
ATOM     31  C21 UNL A   1      42.533   5.658  51.075  1.00  0.00    +0.000 C 
ATOM     32  C22 UNL A   1      43.324   6.618  50.430  1.00  0.00    +0.000 C 
ENDBRANCH   26   27
ENDBRANCH   25   26
BRANCH   25   33
ATOM     33  N5  UNL A   1      46.517   9.435  48.584  1.00  0.00    +0.000 N 
ATOM    138  H33 UNL A   1      46.792   8.830  47.858  1.00  0.00    +0.000 H 
BRANCH   33   34
ATOM     34  C23 UNL A   1      46.745  10.757  48.310  1.00  0.00    +0.000 C 
ATOM     35  O6  UNL A   1      46.350  11.182  47.226  1.00  0.00    +0.000 O 
BRANCH   34   36
ATOM     36  C24 UNL A   1      47.501  11.675  49.206  1.00  0.00    +0.000 C 
ATOM     37  C25 UNL A   1      48.902  11.665  49.096  1.00  0.00    +0.000 C 
ATOM     38  C26 UNL A   1      49.695  12.402  49.981  1.00  0.00    +0.000 C 
ATOM     39  C27 UNL A   1      49.088  13.144  50.984  1.00  0.00    +0.000 C 
ATOM     40  F1  UNL A   1      49.842  13.835  51.847  1.00  0.00    +0.000 F 
ATOM     41  C28 UNL A   1      47.705  13.161  51.118  1.00  0.00    +0.000 C 
ATOM     42  C29 UNL A   1      46.912  12.421  50.234  1.00  0.00    +0.000 C 
ATOM    139  H34 UNL A   1      49.352  11.109  48.352  1.00  0.00    +0.000 H 
ATOM    140  H35 UNL A   1      50.723  12.393  49.890  1.00  0.00    +0.000 H 
ATOM    141  H36 UNL A   1      47.264  13.717  51.867  1.00  0.00    +0.000 H 
ATOM    142  H37 UNL A   1      45.886  12.425  50.341  1.00  0.00    +0.000 H 
ENDBRANCH   34   36
ENDBRANCH   33   34
ENDBRANCH   25   33
ENDBRANCH   23   25
ENDBRANCH   22   23
ENDBRANCH   19   22
ENDBRANCH   17   19
ENDBRANCH   16   17
ENDBRANCH   13   16
ENDBRANCH   11   13
ENDBRANCH   10   11
ENDBRANCH    9   10
ENDBRANCH    8    9
ENDBRANCH    7    8
ENDBRANCH    6    7
ENDBRANCH    5    6
ENDBRANCH    4    5
ENDBRANCH    3    4
ENDBRANCH    2    3
ENDBRANCH   43    2
ENDBRANCH   47   46
BRANCH   51   52
ATOM     52  C38 UNL A   1      47.765  18.100  53.664  1.00  0.00    +0.000 C 
ATOM     53  C39 UNL A   1      48.012  19.477  53.760  1.00  0.00    +0.000 C 
ATOM     54  F2  UNL A   1      47.720  20.289  52.733  1.00  0.00    +0.000 F 
ATOM     55  C40 UNL A   1      48.590  20.022  54.904  1.00  0.00    +0.000 C 
ATOM     56  F3  UNL A   1      48.851  21.336  54.960  1.00  0.00    +0.000 F 
ATOM     57  C41 UNL A   1      48.908  19.209  55.981  1.00  0.00    +0.000 C 
ATOM     58  F4  UNL A   1      49.457  19.736  57.083  1.00  0.00    +0.000 F 
ATOM     59  C42 UNL A   1      48.660  17.845  55.913  1.00  0.00    +0.000 C 
ATOM     60  F5  UNL A   1      48.957  17.059  56.956  1.00  0.00    +0.000 F 
ATOM     61  C43 UNL A   1      48.102  17.294  54.762  1.00  0.00    +0.000 C 
ATOM     62  F6  UNL A   1      47.883  15.971  54.722  1.00  0.00    +0.000 F 
ENDBRANCH   51   52
BRANCH   68   69
ATOM     69  C49 UNL A   1      41.121  16.464  51.391  1.00  0.00    +0.000 C 
ATOM     70  C50 UNL A   1      40.545  15.466  52.190  1.00  0.00    +0.000 C 
ATOM     71  F7  UNL A   1      41.242  14.362  52.497  1.00  0.00    +0.000 F 
ATOM     72  C51 UNL A   1      39.233  15.582  52.641  1.00  0.00    +0.000 C 
ATOM     73  F8  UNL A   1      38.687  14.596  53.366  1.00  0.00    +0.000 F 
ATOM     74  C52 UNL A   1      38.487  16.707  52.326  1.00  0.00    +0.000 C 
ATOM     75  F9  UNL A   1      37.224  16.817  52.761  1.00  0.00    +0.000 F 
ATOM     76  C53 UNL A   1      39.044  17.714  51.553  1.00  0.00    +0.000 C 
ATOM     77  F10 UNL A   1      38.325  18.805  51.254  1.00  0.00    +0.000 F 
ATOM     78  C54 UNL A   1      40.347  17.591  51.080  1.00  0.00    +0.000 C 
ATOM     79  F11 UNL A   1      40.857  18.573  50.322  1.00  0.00    +0.000 F 
ENDBRANCH   68   69
BRANCH   83   84
ATOM     84  C58 UNL A   1      43.815  13.881  45.517  1.00  0.00    +0.000 C 
ATOM     85  C59 UNL A   1      43.433  12.533  45.514  1.00  0.00    +0.000 C 
ATOM     86  F12 UNL A   1      43.638  11.776  46.601  1.00  0.00    +0.000 F 
ATOM     87  C60 UNL A   1      42.863  11.952  44.383  1.00  0.00    +0.000 C 
ATOM     88  F13 UNL A   1      42.535  10.653  44.395  1.00  0.00    +0.000 F 
ATOM     89  C61 UNL A   1      42.642  12.714  43.245  1.00  0.00    +0.000 C 
ATOM     90  F14 UNL A   1      42.083  12.157  42.162  1.00  0.00    +0.000 F 
ATOM     91  C62 UNL A   1      43.004  14.052  43.230  1.00  0.00    +0.000 C 
ATOM     92  F15 UNL A   1      42.778  14.795  42.137  1.00  0.00    +0.000 F 
ATOM     93  C63 UNL A   1      43.598  14.627  44.350  1.00  0.00    +0.000 C 
ATOM     94  F16 UNL A   1      43.941  15.923  44.308  1.00  0.00    +0.000 F 
ENDBRANCH   83   84
TORSDOF 30
ENDMDL
MODEL 6
REMARK VINA RESULT:      -7.0      4.187     10.771
ROOT
ATOM    145  H40 UNL A   1      18.212  50.712  -2.186  1.00  0.00    +0.000 H 
ATOM    146  H41 UNL A   1      18.787  53.243  -1.928  1.00  0.00    +0.000 H 
ATOM    147  H42 UNL A   1      16.196  52.180   1.122  1.00  0.00    +0.000 H 
ATOM    148  H43 UNL A   1      12.696  53.833   6.188  1.00  0.00    +0.000 H 
ATOM    149  H44 UNL A   1      12.274  51.333   6.038  1.00  0.00    +0.000 H 
ATOM    150  H45 UNL A   1      14.857  52.368   2.951  1.00  0.00    +0.000 H 
ATOM    151  H46 UNL A   1      15.784  57.269   3.526  1.00  0.00    +0.000 H 
ATOM    152  H47 UNL A   1      17.221  57.107   1.412  1.00  0.00    +0.000 H 
ATOM    153  H48 UNL A   1      15.259  47.269   0.695  1.00  0.00    +0.000 H 
ATOM    154  H49 UNL A   1      13.615  47.462   2.650  1.00  0.00    +0.000 H 
ATOM     47  C34 UNL A   1      13.517  50.065   3.813  1.00  0.00    +0.000 C 
ATOM     48  C35 UNL A   1      14.310  49.619   2.620  1.00  0.00    +0.000 C 
ATOM     49  N6  UNL A   1      15.111  50.319   1.856  1.00  0.00    +0.000 N 
ATOM     50  C36 UNL A   1      15.611  49.432   0.913  1.00  0.00    +0.000 C 
ATOM     51  C37 UNL A   1      16.465  49.682  -0.109  1.00  0.00    +0.000 C 
ATOM     63  C44 UNL A   1      17.016  50.979  -0.410  1.00  0.00    +0.000 C 
ATOM     64  C45 UNL A   1      17.861  51.339  -1.444  1.00  0.00    +0.000 C 
ATOM     65  C46 UNL A   1      18.160  52.701  -1.314  1.00  0.00    +0.000 C 
ATOM     66  C47 UNL A   1      17.470  53.197  -0.220  1.00  0.00    +0.000 C 
ATOM     67  N7  UNL A   1      16.775  52.129   0.327  1.00  0.00    +0.000 N 
ATOM     68  C48 UNL A   1      17.445  54.543   0.289  1.00  0.00    +0.000 C 
ATOM     80  C55 UNL A   1      16.724  54.963   1.357  1.00  0.00    +0.000 C 
ATOM     81  N8  UNL A   1      15.887  54.230   2.184  1.00  0.00    +0.000 N 
ATOM     82  C56 UNL A   1      15.444  55.072   3.085  1.00  0.00    +0.000 C 
ATOM     83  C57 UNL A   1      14.501  54.826   4.225  1.00  0.00    +0.000 C 
ATOM     95  C64 UNL A   1      14.023  53.585   4.421  1.00  0.00    +0.000 C 
ATOM     96  C65 UNL A   1      13.100  53.197   5.483  1.00  0.00    +0.000 C 
ATOM     97  C66 UNL A   1      12.865  51.880   5.394  1.00  0.00    +0.000 C 
ATOM     98  C67 UNL A   1      13.580  51.342   4.234  1.00  0.00    +0.000 C 
ATOM     99  N9  UNL A   1      14.259  52.421   3.731  1.00  0.00    +0.000 N 
ATOM    100  C68 UNL A   1      15.960  56.439   2.938  1.00  0.00    +0.000 C 
ATOM    101  C69 UNL A   1      16.711  56.324   1.851  1.00  0.00    +0.000 C 
ATOM    102  C70 UNL A   1      15.040  48.135   1.211  1.00  0.00    +0.000 C 
ATOM    103  C71 UNL A   1      14.197  48.206   2.235  1.00  0.00    +0.000 C 
ENDROOT
BRANCH   47   46
ATOM    104  C72 UNL A   1      11.269  49.010   4.215  1.00  0.00    +0.000 C 
ATOM    105  C73 UNL A   1      10.459  48.096   4.895  1.00  0.00    +0.000 C 
ATOM     43  C30 UNL A   1      11.018  47.269   5.874  1.00  0.00    +0.000 C 
ATOM     44  C31 UNL A   1      12.387  47.327   6.148  1.00  0.00    +0.000 C 
ATOM     45  C32 UNL A   1      13.177  48.288   5.525  1.00  0.00    +0.000 C 
ATOM     46  C33 UNL A   1      12.629  49.126   4.541  1.00  0.00    +0.000 C 
ATOM    143  H38 UNL A   1      12.812  46.661   6.811  1.00  0.00    +0.000 H 
ATOM    144  H39 UNL A   1      14.170  48.385   5.786  1.00  0.00    +0.000 H 
ATOM    155  H50 UNL A   1      10.865  49.601   3.473  1.00  0.00    +0.000 H 
ATOM    156  H51 UNL A   1       9.453  48.031   4.674  1.00  0.00    +0.000 H 
BRANCH   43    2
ATOM      1  O1  UNL A   1      10.066  45.156   6.241  1.00  0.00    +0.000 O 
ATOM      2  C1  UNL A   1      10.144  46.325   6.604  1.00  0.00    +0.000 C 
BRANCH    2    3
ATOM    106  H1  UNL A   1       9.704  46.439   8.559  1.00  0.00    +0.000 H 
ATOM      3  N1  UNL A   1       9.416  46.771   7.678  1.00  0.00    +0.000 N 
BRANCH    3    4
ATOM    108  H3  UNL A   1       7.886  47.714   6.684  1.00  0.00    +0.000 H 
ATOM    107  H2  UNL A   1       7.540  47.296   8.364  1.00  0.00    +0.000 H 
ATOM      4  C2  UNL A   1       8.274  47.669   7.680  1.00  0.00    +0.000 C 
BRANCH    4    5
ATOM    109  H4  UNL A   1       7.849  49.500   8.653  1.00  0.00    +0.000 H 
ATOM      5  C3  UNL A   1       8.662  49.080   8.099  1.00  0.00    +0.000 C 
ATOM    110  H5  UNL A   1       8.873  49.619   7.199  1.00  0.00    +0.000 H 
BRANCH    5    6
ATOM      6  C4  UNL A   1       9.922  49.157   8.962  1.00  0.00    +0.000 C 
ATOM    111  H6  UNL A   1      10.687  48.582   8.483  1.00  0.00    +0.000 H 
ATOM    112  H7  UNL A   1       9.648  48.781   9.925  1.00  0.00    +0.000 H 
BRANCH    6    7
ATOM    113  H8  UNL A   1      10.196  50.872  10.185  1.00  0.00    +0.000 H 
ATOM    114  H9  UNL A   1      10.033  51.184   8.429  1.00  0.00    +0.000 H 
ATOM      7  C5  UNL A   1      10.464  50.572   9.193  1.00  0.00    +0.000 C 
BRANCH    7    8
ATOM    115  H10 UNL A   1      12.360  51.220   9.918  1.00  0.00    +0.000 H 
ATOM    116  H11 UNL A   1      12.160  51.275   8.150  1.00  0.00    +0.000 H 
ATOM      8  C6  UNL A   1      11.986  50.721   9.048  1.00  0.00    +0.000 C 
BRANCH    8    9
ATOM      9  C7  UNL A   1      12.726  49.391   8.901  1.00  0.00    +0.000 C 
ATOM    117  H12 UNL A   1      13.540  49.516   8.218  1.00  0.00    +0.000 H 
ATOM    118  H13 UNL A   1      12.042  48.656   8.532  1.00  0.00    +0.000 H 
BRANCH    9   10
ATOM     10  N2  UNL A   1      13.242  48.948  10.179  1.00  0.00    +0.000 N 
ATOM    119  H14 UNL A   1      13.268  49.624  10.893  1.00  0.00    +0.000 H 
BRANCH   10   11
ATOM     11  C8  UNL A   1      13.695  47.706  10.511  1.00  0.00    +0.000 C 
ATOM     12  O2  UNL A   1      14.840  47.398  10.172  1.00  0.00    +0.000 O 
BRANCH   11   13
ATOM     13  C9  UNL A   1      12.806  46.718  11.280  1.00  0.00    +0.000 C 
ATOM    120  H15 UNL A   1      13.409  45.867  11.522  1.00  0.00    +0.000 H 
BRANCH   13   14
ATOM    121  H16 UNL A   1      11.067  47.019  10.064  1.00  0.00    +0.000 H 
ATOM    122  H17 UNL A   1      11.049  45.532  10.992  1.00  0.00    +0.000 H 
ATOM     14  C10 UNL A   1      11.655  46.193  10.408  1.00  0.00    +0.000 C 
BRANCH   14   15
ATOM    123  H18 UNL A   1      11.439  45.119   8.761  1.00  0.00    +0.000 H 
ATOM     15  O3  UNL A   1      12.174  45.480   9.281  1.00  0.00    +0.000 O 
ENDBRANCH   14   15
ENDBRANCH   13   14
BRANCH   13   16
ATOM    124  H19 UNL A   1      12.603  46.722  13.346  1.00  0.00    +0.000 H 
ATOM     16  N3  UNL A   1      12.357  47.264  12.561  1.00  0.00    +0.000 N 
BRANCH   16   17
ATOM     17  C11 UNL A   1      11.658  48.394  12.852  1.00  0.00    +0.000 C 
ATOM     18  O4  UNL A   1      10.433  48.280  12.709  1.00  0.00    +0.000 O 
BRANCH   17   19
ATOM     19  C12 UNL A   1      12.262  49.635  13.570  1.00  0.00    +0.000 C 
ATOM    125  H20 UNL A   1      13.248  49.325  13.846  1.00  0.00    +0.000 H 
BRANCH   19   20
ATOM     20  C13 UNL A   1      11.394  49.986  14.805  1.00  0.00    +0.000 C 
ATOM    126  H21 UNL A   1      10.424  50.281  14.462  1.00  0.00    +0.000 H 
ATOM    127  H22 UNL A   1      11.901  50.771  15.326  1.00  0.00    +0.000 H 
BRANCH   20   21
ATOM     21  S1  UNL A   1      11.193  48.608  15.989  1.00  0.00    +0.000 S 
ATOM    128  H23 UNL A   1      10.205  47.779  15.556  1.00  0.00    +0.000 H 
ENDBRANCH   20   21
ENDBRANCH   19   20
BRANCH   19   22
ATOM    129  H24 UNL A   1      13.250  50.702  12.117  1.00  0.00    +0.000 H 
ATOM     22  N4  UNL A   1      12.515  50.832  12.759  1.00  0.00    +0.000 N 
BRANCH   22   23
ATOM     23  C14 UNL A   1      11.975  52.076  12.685  1.00  0.00    +0.000 C 
ATOM     24  O5  UNL A   1      10.743  52.042  12.623  1.00  0.00    +0.000 O 
BRANCH   23   25
ATOM     25  C15 UNL A   1      12.745  53.421  12.829  1.00  0.00    +0.000 C 
ATOM    130  H25 UNL A   1      12.844  53.591  13.881  1.00  0.00    +0.000 H 
BRANCH   25   26
ATOM     26  C16 UNL A   1      11.983  54.618  12.178  1.00  0.00    +0.000 C 
ATOM    131  H26 UNL A   1      11.176  54.186  11.625  1.00  0.00    +0.000 H 
ATOM    132  H27 UNL A   1      12.777  55.121  11.667  1.00  0.00    +0.000 H 
BRANCH   26   27
ATOM    133  H28 UNL A   1      10.460  56.798  11.400  1.00  0.00    +0.000 H 
ATOM    134  H29 UNL A   1       9.809  58.729  12.697  1.00  0.00    +0.000 H 
ATOM    135  H30 UNL A   1      10.362  58.862  15.052  1.00  0.00    +0.000 H 
ATOM    136  H31 UNL A   1      11.532  57.021  16.112  1.00  0.00    +0.000 H 
ATOM    137  H32 UNL A   1      12.170  55.076  14.821  1.00  0.00    +0.000 H 
ATOM     27  C17 UNL A   1      11.376  55.757  12.984  1.00  0.00    +0.000 C 
ATOM     28  C18 UNL A   1      10.693  56.834  12.405  1.00  0.00    +0.000 C 
ATOM     29  C19 UNL A   1      10.318  57.955  13.152  1.00  0.00    +0.000 C 
ATOM     30  C20 UNL A   1      10.629  58.031  14.501  1.00  0.00    +0.000 C 
ATOM     31  C21 UNL A   1      11.303  56.976  15.107  1.00  0.00    +0.000 C 
ATOM     32  C22 UNL A   1      11.672  55.852  14.357  1.00  0.00    +0.000 C 
ENDBRANCH   26   27
ENDBRANCH   25   26
BRANCH   25   33
ATOM     33  N5  UNL A   1      14.059  53.337  12.167  1.00  0.00    +0.000 N 
ATOM    138  H33 UNL A   1      14.154  53.949  11.403  1.00  0.00    +0.000 H 
BRANCH   33   34
ATOM     34  C23 UNL A   1      15.174  52.578  12.402  1.00  0.00    +0.000 C 
ATOM     35  O6  UNL A   1      15.665  52.633  13.529  1.00  0.00    +0.000 O 
BRANCH   34   36
ATOM     36  C24 UNL A   1      15.859  51.760  11.363  1.00  0.00    +0.000 C 
ATOM     37  C25 UNL A   1      15.414  51.909  10.037  1.00  0.00    +0.000 C 
ATOM     38  C26 UNL A   1      15.914  51.092   9.019  1.00  0.00    +0.000 C 
ATOM     39  C27 UNL A   1      16.855  50.119   9.326  1.00  0.00    +0.000 C 
ATOM     40  F1  UNL A   1      17.323  49.321   8.358  1.00  0.00    +0.000 F 
ATOM     41  C28 UNL A   1      17.302  49.948  10.630  1.00  0.00    +0.000 C 
ATOM     42  C29 UNL A   1      16.799  50.763  11.650  1.00  0.00    +0.000 C 
ATOM    139  H34 UNL A   1      14.711  52.630   9.813  1.00  0.00    +0.000 H 
ATOM    140  H35 UNL A   1      15.586  51.211   8.048  1.00  0.00    +0.000 H 
ATOM    141  H36 UNL A   1      18.003  49.222  10.845  1.00  0.00    +0.000 H 
ATOM    142  H37 UNL A   1      17.123  50.629  12.620  1.00  0.00    +0.000 H 
ENDBRANCH   34   36
ENDBRANCH   33   34
ENDBRANCH   25   33
ENDBRANCH   23   25
ENDBRANCH   22   23
ENDBRANCH   19   22
ENDBRANCH   17   19
ENDBRANCH   16   17
ENDBRANCH   13   16
ENDBRANCH   11   13
ENDBRANCH   10   11
ENDBRANCH    9   10
ENDBRANCH    8    9
ENDBRANCH    7    8
ENDBRANCH    6    7
ENDBRANCH    5    6
ENDBRANCH    4    5
ENDBRANCH    3    4
ENDBRANCH    2    3
ENDBRANCH   43    2
ENDBRANCH   47   46
BRANCH   51   52
ATOM     52  C38 UNL A   1      16.871  48.525  -0.974  1.00  0.00    +0.000 C 
ATOM     53  C39 UNL A   1      16.124  48.152  -2.100  1.00  0.00    +0.000 C 
ATOM     54  F2  UNL A   1      14.983  48.794  -2.397  1.00  0.00    +0.000 F 
ATOM     55  C40 UNL A   1      16.530  47.096  -2.911  1.00  0.00    +0.000 C 
ATOM     56  F3  UNL A   1      15.782  46.734  -3.963  1.00  0.00    +0.000 F 
ATOM     57  C41 UNL A   1      17.703  46.411  -2.629  1.00  0.00    +0.000 C 
ATOM     58  F4  UNL A   1      18.096  45.400  -3.415  1.00  0.00    +0.000 F 
ATOM     59  C42 UNL A   1      18.464  46.771  -1.527  1.00  0.00    +0.000 C 
ATOM     60  F5  UNL A   1      19.602  46.117  -1.257  1.00  0.00    +0.000 F 
ATOM     61  C43 UNL A   1      18.048  47.813  -0.701  1.00  0.00    +0.000 C 
ATOM     62  F6  UNL A   1      18.801  48.132   0.362  1.00  0.00    +0.000 F 
ENDBRANCH   51   52
BRANCH   68   69
ATOM     69  C49 UNL A   1      18.264  55.578  -0.421  1.00  0.00    +0.000 C 
ATOM     70  C50 UNL A   1      19.539  55.940   0.038  1.00  0.00    +0.000 C 
ATOM     71  F7  UNL A   1      20.037  55.385   1.153  1.00  0.00    +0.000 F 
ATOM     72  C51 UNL A   1      20.289  56.906  -0.627  1.00  0.00    +0.000 C 
ATOM     73  F8  UNL A   1      21.486  57.270  -0.147  1.00  0.00    +0.000 F 
ATOM     74  C52 UNL A   1      19.791  57.504  -1.775  1.00  0.00    +0.000 C 
ATOM     75  F9  UNL A   1      20.514  58.435  -2.413  1.00  0.00    +0.000 F 
ATOM     76  C53 UNL A   1      18.541  57.147  -2.256  1.00  0.00    +0.000 C 
ATOM     77  F10 UNL A   1      18.061  57.720  -3.369  1.00  0.00    +0.000 F 
ATOM     78  C54 UNL A   1      17.778  56.199  -1.580  1.00  0.00    +0.000 C 
ATOM     79  F11 UNL A   1      16.565  55.882  -2.058  1.00  0.00    +0.000 F 
ENDBRANCH   68   69
BRANCH   83   84
ATOM     84  C58 UNL A   1      14.082  55.925   5.130  1.00  0.00    +0.000 C 
ATOM     85  C59 UNL A   1      14.952  56.420   6.110  1.00  0.00    +0.000 C 
ATOM     86  F12 UNL A   1      16.164  55.870   6.270  1.00  0.00    +0.000 F 
ATOM     87  C60 UNL A   1      14.569  57.467   6.946  1.00  0.00    +0.000 C 
ATOM     88  F13 UNL A   1      15.408  57.903   7.896  1.00  0.00    +0.000 F 
ATOM     89  C61 UNL A   1      13.319  58.052   6.802  1.00  0.00    +0.000 C 
ATOM     90  F14 UNL A   1      12.956  59.066   7.598  1.00  0.00    +0.000 F 
ATOM     91  C62 UNL A   1      12.446  57.582   5.833  1.00  0.00    +0.000 C 
ATOM     92  F15 UNL A   1      11.243  58.154   5.680  1.00  0.00    +0.000 F 
ATOM     93  C63 UNL A   1      12.818  56.519   5.014  1.00  0.00    +0.000 C 
ATOM     94  F16 UNL A   1      11.953  56.082   4.087  1.00  0.00    +0.000 F 
ENDBRANCH   83   84
TORSDOF 30
ENDMDL
MODEL 7
REMARK VINA RESULT:      -7.0     31.781     38.858
ROOT
ATOM    145  H40 UNL A   1      24.807  13.028   5.448  1.00  0.00    +0.000 H 
ATOM    146  H41 UNL A   1      25.667  15.384   6.165  1.00  0.00    +0.000 H 
ATOM    147  H42 UNL A   1      22.111  15.870   4.100  1.00  0.00    +0.000 H 
ATOM    148  H43 UNL A   1      17.686  19.721   1.603  1.00  0.00    +0.000 H 
ATOM    149  H44 UNL A   1      16.762  17.420   1.056  1.00  0.00    +0.000 H 
ATOM    150  H45 UNL A   1      20.339  16.895   3.107  1.00  0.00    +0.000 H 
ATOM    151  H46 UNL A   1      21.909  21.505   4.326  1.00  0.00    +0.000 H 
ATOM    152  H47 UNL A   1      23.963  20.384   5.366  1.00  0.00    +0.000 H 
ATOM    153  H48 UNL A   1      20.402  11.309   2.895  1.00  0.00    +0.000 H 
ATOM    154  H49 UNL A   1      18.474  12.419   1.625  1.00  0.00    +0.000 H 
ATOM     47  C34 UNL A   1      18.448  15.263   1.840  1.00  0.00    +0.000 C 
ATOM     48  C35 UNL A   1      19.463  14.308   2.395  1.00  0.00    +0.000 C 
ATOM     49  N6  UNL A   1      20.549  14.567   3.080  1.00  0.00    +0.000 N 
ATOM     50  C36 UNL A   1      21.119  13.336   3.372  1.00  0.00    +0.000 C 
ATOM     51  C37 UNL A   1      22.266  13.077   4.045  1.00  0.00    +0.000 C 
ATOM     63  C44 UNL A   1      23.135  14.088   4.590  1.00  0.00    +0.000 C 
ATOM     64  C45 UNL A   1      24.336  13.927   5.258  1.00  0.00    +0.000 C 
ATOM     65  C46 UNL A   1      24.805  15.192   5.632  1.00  0.00    +0.000 C 
ATOM     66  C47 UNL A   1      23.914  16.145   5.163  1.00  0.00    +0.000 C 
ATOM     67  N7  UNL A   1      22.893  15.454   4.529  1.00  0.00    +0.000 N 
ATOM     68  C48 UNL A   1      23.988  17.577   5.284  1.00  0.00    +0.000 C 
ATOM     80  C55 UNL A   1      23.085  18.452   4.778  1.00  0.00    +0.000 C 
ATOM     81  N8  UNL A   1      21.924  18.191   4.066  1.00  0.00    +0.000 N 
ATOM     82  C56 UNL A   1      21.382  19.359   3.822  1.00  0.00    +0.000 C 
ATOM     83  C57 UNL A   1      20.117  19.677   3.081  1.00  0.00    +0.000 C 
ATOM     95  C64 UNL A   1      19.376  18.668   2.592  1.00  0.00    +0.000 C 
ATOM     96  C65 UNL A   1      18.128  18.822   1.852  1.00  0.00    +0.000 C 
ATOM     97  C66 UNL A   1      17.649  17.607   1.549  1.00  0.00    +0.000 C 
ATOM     98  C67 UNL A   1      18.586  16.589   2.029  1.00  0.00    +0.000 C 
ATOM     99  N9  UNL A   1      19.569  17.309   2.656  1.00  0.00    +0.000 N 
ATOM    100  C68 UNL A   1      22.135  20.499   4.363  1.00  0.00    +0.000 C 
ATOM    101  C69 UNL A   1      23.180  19.892   4.908  1.00  0.00    +0.000 C 
ATOM    102  C70 UNL A   1      20.249  12.325   2.806  1.00  0.00    +0.000 C 
ATOM    103  C71 UNL A   1      19.231  12.876   2.157  1.00  0.00    +0.000 C 
ENDROOT
BRANCH   47   46
ATOM    104  C72 UNL A   1      17.313  14.769  -0.350  1.00  0.00    +0.000 C 
ATOM    105  C73 UNL A   1      16.219  14.281  -1.070  1.00  0.00    +0.000 C 
ATOM     43  C30 UNL A   1      15.113  13.768  -0.386  1.00  0.00    +0.000 C 
ATOM     44  C31 UNL A   1      15.115  13.706   1.011  1.00  0.00    +0.000 C 
ATOM     45  C32 UNL A   1      16.171  14.260   1.726  1.00  0.00    +0.000 C 
ATOM     46  C33 UNL A   1      17.287  14.781   1.052  1.00  0.00    +0.000 C 
ATOM    143  H38 UNL A   1      14.334  13.253   1.510  1.00  0.00    +0.000 H 
ATOM    144  H39 UNL A   1      16.134  14.288   2.757  1.00  0.00    +0.000 H 
ATOM    155  H50 UNL A   1      18.143  15.122  -0.852  1.00  0.00    +0.000 H 
ATOM    156  H51 UNL A   1      16.229  14.298  -2.101  1.00  0.00    +0.000 H 
BRANCH   43    2
ATOM      1  O1  UNL A   1      12.991  12.786  -0.578  1.00  0.00    +0.000 O 
ATOM      2  C1  UNL A   1      13.951  13.279  -1.160  1.00  0.00    +0.000 C 
BRANCH    2    3
ATOM    106  H1  UNL A   1      14.596  12.777  -2.993  1.00  0.00    +0.000 H 
ATOM      3  N1  UNL A   1      13.964  13.372  -2.528  1.00  0.00    +0.000 N 
BRANCH    3    4
ATOM    108  H3  UNL A   1      13.027  13.742  -4.318  1.00  0.00    +0.000 H 
ATOM    107  H2  UNL A   1      12.224  14.420  -2.900  1.00  0.00    +0.000 H 
ATOM      4  C2  UNL A   1      13.163  14.236  -3.379  1.00  0.00    +0.000 C 
BRANCH    4    5
ATOM    109  H4  UNL A   1      13.580  15.896  -4.625  1.00  0.00    +0.000 H 
ATOM      5  C3  UNL A   1      13.850  15.568  -3.642  1.00  0.00    +0.000 C 
ATOM    110  H5  UNL A   1      14.900  15.398  -3.535  1.00  0.00    +0.000 H 
BRANCH    5    6
ATOM      6  C4  UNL A   1      13.482  16.673  -2.651  1.00  0.00    +0.000 C 
ATOM    111  H6  UNL A   1      13.041  16.213  -1.790  1.00  0.00    +0.000 H 
ATOM    112  H7  UNL A   1      12.816  17.330  -3.169  1.00  0.00    +0.000 H 
BRANCH    6    7
ATOM    113  H8  UNL A   1      14.515  18.527  -2.563  1.00  0.00    +0.000 H 
ATOM    114  H9  UNL A   1      15.541  17.059  -2.540  1.00  0.00    +0.000 H 
ATOM      7  C5  UNL A   1      14.656  17.538  -2.178  1.00  0.00    +0.000 C 
BRANCH    7    8
ATOM    115  H10 UNL A   1      15.109  18.643  -0.415  1.00  0.00    +0.000 H 
ATOM    116  H11 UNL A   1      15.561  16.922  -0.373  1.00  0.00    +0.000 H 
ATOM      8  C6  UNL A   1      14.821  17.641  -0.655  1.00  0.00    +0.000 C 
BRANCH    8    9
ATOM      9  C7  UNL A   1      13.552  17.303   0.129  1.00  0.00    +0.000 C 
ATOM    117  H12 UNL A   1      13.012  16.539  -0.390  1.00  0.00    +0.000 H 
ATOM    118  H13 UNL A   1      12.956  18.187   0.214  1.00  0.00    +0.000 H 
BRANCH    9   10
ATOM     10  N2  UNL A   1      13.882  16.833   1.458  1.00  0.00    +0.000 N 
ATOM    119  H14 UNL A   1      14.818  16.568   1.604  1.00  0.00    +0.000 H 
BRANCH   10   11
ATOM     11  C8  UNL A   1      13.050  16.713   2.531  1.00  0.00    +0.000 C 
ATOM     12  O2  UNL A   1      12.170  15.851   2.487  1.00  0.00    +0.000 O 
BRANCH   11   13
ATOM     13  C9  UNL A   1      13.201  17.626   3.755  1.00  0.00    +0.000 C 
ATOM    120  H15 UNL A   1      13.163  17.004   4.626  1.00  0.00    +0.000 H 
BRANCH   13   14
ATOM    121  H16 UNL A   1      12.326  19.447   4.473  1.00  0.00    +0.000 H 
ATOM    122  H17 UNL A   1      11.202  18.108   4.346  1.00  0.00    +0.000 H 
ATOM     14  C10 UNL A   1      12.025  18.608   3.880  1.00  0.00    +0.000 C 
BRANCH   14   15
ATOM    123  H18 UNL A   1      11.846  20.004   2.491  1.00  0.00    +0.000 H 
ATOM     15  O3  UNL A   1      11.623  19.066   2.585  1.00  0.00    +0.000 O 
ENDBRANCH   14   15
ENDBRANCH   13   14
BRANCH   13   16
ATOM    124  H19 UNL A   1      15.272  17.670   3.886  1.00  0.00    +0.000 H 
ATOM     16  N3  UNL A   1      14.508  18.284   3.794  1.00  0.00    +0.000 N 
BRANCH   16   17
ATOM     17  C11 UNL A   1      14.845  19.600   3.724  1.00  0.00    +0.000 C 
ATOM     18  O4  UNL A   1      14.898  20.047   2.570  1.00  0.00    +0.000 O 
BRANCH   17   19
ATOM     19  C12 UNL A   1      14.886  20.558   4.949  1.00  0.00    +0.000 C 
ATOM    125  H20 UNL A   1      14.080  20.225   5.570  1.00  0.00    +0.000 H 
BRANCH   19   20
ATOM     20  C13 UNL A   1      14.687  22.017   4.467  1.00  0.00    +0.000 C 
ATOM    126  H21 UNL A   1      15.049  22.092   3.463  1.00  0.00    +0.000 H 
ATOM    127  H22 UNL A   1      15.226  22.644   5.147  1.00  0.00    +0.000 H 
BRANCH   20   21
ATOM     21  S1  UNL A   1      12.947  22.579   4.495  1.00  0.00    +0.000 S 
ATOM    128  H23 UNL A   1      12.896  23.910   4.217  1.00  0.00    +0.000 H 
ENDBRANCH   20   21
ENDBRANCH   19   20
BRANCH   19   22
ATOM    129  H24 UNL A   1      16.705  21.174   5.683  1.00  0.00    +0.000 H 
ATOM     22  N4  UNL A   1      16.043  20.463   5.846  1.00  0.00    +0.000 N 
BRANCH   22   23
ATOM     23  C14 UNL A   1      16.418  19.625   6.848  1.00  0.00    +0.000 C 
ATOM     24  O5  UNL A   1      16.196  20.106   7.961  1.00  0.00    +0.000 O 
BRANCH   23   25
ATOM     25  C15 UNL A   1      16.913  18.158   6.680  1.00  0.00    +0.000 C 
ATOM    130  H25 UNL A   1      17.228  18.070   5.661  1.00  0.00    +0.000 H 
BRANCH   25   26
ATOM     26  C16 UNL A   1      15.792  17.112   6.971  1.00  0.00    +0.000 C 
ATOM    131  H26 UNL A   1      14.938  17.434   6.413  1.00  0.00    +0.000 H 
ATOM    132  H27 UNL A   1      15.769  17.119   8.041  1.00  0.00    +0.000 H 
BRANCH   26   27
ATOM    133  H28 UNL A   1      15.561  15.674   4.614  1.00  0.00    +0.000 H 
ATOM    134  H29 UNL A   1      15.500  13.279   4.302  1.00  0.00    +0.000 H 
ATOM    135  H30 UNL A   1      15.813  11.794   6.191  1.00  0.00    +0.000 H 
ATOM    136  H31 UNL A   1      16.239  12.726   8.389  1.00  0.00    +0.000 H 
ATOM    137  H32 UNL A   1      16.319  15.124   8.702  1.00  0.00    +0.000 H 
ATOM     27  C17 UNL A   1      15.943  15.626   6.684  1.00  0.00    +0.000 C 
ATOM     28  C18 UNL A   1      15.708  15.055   5.427  1.00  0.00    +0.000 C 
ATOM     29  C19 UNL A   1      15.668  13.669   5.244  1.00  0.00    +0.000 C 
ATOM     30  C20 UNL A   1      15.853  12.816   6.322  1.00  0.00    +0.000 C 
ATOM     31  C21 UNL A   1      16.093  13.353   7.582  1.00  0.00    +0.000 C 
ATOM     32  C22 UNL A   1      16.138  14.741   7.761  1.00  0.00    +0.000 C 
ENDBRANCH   26   27
ENDBRANCH   25   26
BRANCH   25   33
ATOM     33  N5  UNL A   1      18.017  17.876   7.614  1.00  0.00    +0.000 N 
ATOM    138  H33 UNL A   1      17.729  17.807   8.553  1.00  0.00    +0.000 H 
BRANCH   33   34
ATOM     34  C23 UNL A   1      19.362  17.691   7.440  1.00  0.00    +0.000 C 
ATOM     35  O6  UNL A   1      20.006  18.636   6.985  1.00  0.00    +0.000 O 
BRANCH   34   36
ATOM     36  C24 UNL A   1      20.066  16.404   7.695  1.00  0.00    +0.000 C 
ATOM     37  C25 UNL A   1      21.406  16.481   8.115  1.00  0.00    +0.000 C 
ATOM     38  C26 UNL A   1      22.179  15.325   8.257  1.00  0.00    +0.000 C 
ATOM     39  C27 UNL A   1      21.616  14.089   7.974  1.00  0.00    +0.000 C 
ATOM     40  F1  UNL A   1      22.357  12.981   8.089  1.00  0.00    +0.000 F 
ATOM     41  C28 UNL A   1      20.296  13.990   7.549  1.00  0.00    +0.000 C 
ATOM     42  C29 UNL A   1      19.524  15.147   7.402  1.00  0.00    +0.000 C 
ATOM    139  H34 UNL A   1      21.824  17.402   8.321  1.00  0.00    +0.000 H 
ATOM    140  H35 UNL A   1      23.161  15.390   8.570  1.00  0.00    +0.000 H 
ATOM    141  H36 UNL A   1      19.888  13.065   7.341  1.00  0.00    +0.000 H 
ATOM    142  H37 UNL A   1      18.548  15.074   7.076  1.00  0.00    +0.000 H 
ENDBRANCH   34   36
ENDBRANCH   33   34
ENDBRANCH   25   33
ENDBRANCH   23   25
ENDBRANCH   22   23
ENDBRANCH   19   22
ENDBRANCH   17   19
ENDBRANCH   16   17
ENDBRANCH   13   16
ENDBRANCH   11   13
ENDBRANCH   10   11
ENDBRANCH    9   10
ENDBRANCH    8    9
ENDBRANCH    7    8
ENDBRANCH    6    7
ENDBRANCH    5    6
ENDBRANCH    4    5
ENDBRANCH    3    4
ENDBRANCH    2    3
ENDBRANCH   43    2
ENDBRANCH   47   46
BRANCH   51   52
ATOM     52  C38 UNL A   1      22.644  11.639   4.246  1.00  0.00    +0.000 C 
ATOM     53  C39 UNL A   1      23.641  11.028   3.473  1.00  0.00    +0.000 C 
ATOM     54  F2  UNL A   1      24.243  11.708   2.485  1.00  0.00    +0.000 F 
ATOM     55  C40 UNL A   1      24.004   9.701   3.692  1.00  0.00    +0.000 C 
ATOM     56  F3  UNL A   1      24.935   9.125   2.917  1.00  0.00    +0.000 F 
ATOM     57  C41 UNL A   1      23.398   8.970   4.703  1.00  0.00    +0.000 C 
ATOM     58  F4  UNL A   1      23.753   7.696   4.916  1.00  0.00    +0.000 F 
ATOM     59  C42 UNL A   1      22.418   9.559   5.488  1.00  0.00    +0.000 C 
ATOM     60  F5  UNL A   1      21.837   8.858   6.471  1.00  0.00    +0.000 F 
ATOM     61  C43 UNL A   1      22.038  10.879   5.257  1.00  0.00    +0.000 C 
ATOM     62  F6  UNL A   1      21.081  11.418   6.027  1.00  0.00    +0.000 F 
ENDBRANCH   51   52
BRANCH   68   69
ATOM     69  C49 UNL A   1      25.160  18.162   6.011  1.00  0.00    +0.000 C 
ATOM     70  C50 UNL A   1      25.098  18.453   7.382  1.00  0.00    +0.000 C 
ATOM     71  F7  UNL A   1      23.962  18.245   8.064  1.00  0.00    +0.000 F 
ATOM     72  C51 UNL A   1      26.192  19.001   8.045  1.00  0.00    +0.000 C 
ATOM     73  F8  UNL A   1      26.097  19.314   9.344  1.00  0.00    +0.000 F 
ATOM     74  C52 UNL A   1      27.374  19.239   7.359  1.00  0.00    +0.000 C 
ATOM     75  F9  UNL A   1      28.426  19.766   7.999  1.00  0.00    +0.000 F 
ATOM     76  C53 UNL A   1      27.462  18.939   6.008  1.00  0.00    +0.000 C 
ATOM     77  F10 UNL A   1      28.606  19.163   5.345  1.00  0.00    +0.000 F 
ATOM     78  C54 UNL A   1      26.363  18.414   5.336  1.00  0.00    +0.000 C 
ATOM     79  F11 UNL A   1      26.470  18.148   4.025  1.00  0.00    +0.000 F 
ENDBRANCH   68   69
BRANCH   83   84
ATOM     84  C58 UNL A   1      19.677  21.078   2.872  1.00  0.00    +0.000 C 
ATOM     85  C59 UNL A   1      19.913  21.732   1.656  1.00  0.00    +0.000 C 
ATOM     86  F12 UNL A   1      20.586  21.107   0.679  1.00  0.00    +0.000 F 
ATOM     87  C60 UNL A   1      19.481  23.040   1.449  1.00  0.00    +0.000 C 
ATOM     88  F13 UNL A   1      19.745  23.654   0.288  1.00  0.00    +0.000 F 
ATOM     89  C61 UNL A   1      18.783  23.709   2.445  1.00  0.00    +0.000 C 
ATOM     90  F14 UNL A   1      18.357  24.962   2.241  1.00  0.00    +0.000 F 
ATOM     91  C62 UNL A   1      18.531  23.077   3.653  1.00  0.00    +0.000 C 
ATOM     92  F15 UNL A   1      17.845  23.714   4.612  1.00  0.00    +0.000 F 
ATOM     93  C63 UNL A   1      18.986  21.779   3.870  1.00  0.00    +0.000 C 
ATOM     94  F16 UNL A   1      18.731  21.192   5.049  1.00  0.00    +0.000 F 
ENDBRANCH   83   84
TORSDOF 30
ENDMDL
MODEL 8
REMARK VINA RESULT:      -6.8     67.301     72.092
ROOT
ATOM    145  H40 UNL A   1      54.571  -2.804  11.589  1.00  0.00    +0.000 H 
ATOM    146  H41 UNL A   1      52.754  -4.100  12.938  1.00  0.00    +0.000 H 
ATOM    147  H42 UNL A   1      55.511  -2.561  15.616  1.00  0.00    +0.000 H 
ATOM    148  H43 UNL A   1      57.617  -1.961  21.604  1.00  0.00    +0.000 H 
ATOM    149  H44 UNL A   1      59.287  -0.556  20.307  1.00  0.00    +0.000 H 
ATOM    150  H45 UNL A   1      56.550  -2.102  17.588  1.00  0.00    +0.000 H 
ATOM    151  H46 UNL A   1      53.190  -4.642  20.320  1.00  0.00    +0.000 H 
ATOM    152  H47 UNL A   1      52.055  -5.255  18.108  1.00  0.00    +0.000 H 
ATOM    153  H48 UNL A   1      58.886   0.072  12.998  1.00  0.00    +0.000 H 
ATOM    154  H49 UNL A   1      60.181   0.482  15.169  1.00  0.00    +0.000 H 
ATOM     47  C34 UNL A   1      58.897  -0.578  17.486  1.00  0.00    +0.000 C 
ATOM     48  C35 UNL A   1      58.458  -0.695  16.056  1.00  0.00    +0.000 C 
ATOM     49  N6  UNL A   1      57.410  -1.308  15.565  1.00  0.00    +0.000 N 
ATOM     50  C36 UNL A   1      57.451  -1.093  14.194  1.00  0.00    +0.000 C 
ATOM     51  C37 UNL A   1      56.595  -1.544  13.246  1.00  0.00    +0.000 C 
ATOM     63  C44 UNL A   1      55.446  -2.372  13.513  1.00  0.00    +0.000 C 
ATOM     64  C45 UNL A   1      54.540  -2.907  12.616  1.00  0.00    +0.000 C 
ATOM     65  C46 UNL A   1      53.571  -3.614  13.339  1.00  0.00    +0.000 C 
ATOM     66  C47 UNL A   1      53.897  -3.551  14.684  1.00  0.00    +0.000 C 
ATOM     67  N7  UNL A   1      55.047  -2.783  14.777  1.00  0.00    +0.000 N 
ATOM     68  C48 UNL A   1      53.210  -4.145  15.801  1.00  0.00    +0.000 C 
ATOM     80  C55 UNL A   1      53.603  -4.059  17.096  1.00  0.00    +0.000 C 
ATOM     81  N8  UNL A   1      54.698  -3.400  17.631  1.00  0.00    +0.000 N 
ATOM     82  C56 UNL A   1      54.632  -3.586  18.926  1.00  0.00    +0.000 C 
ATOM     83  C57 UNL A   1      55.562  -3.101  20.000  1.00  0.00    +0.000 C 
ATOM     95  C64 UNL A   1      56.620  -2.347  19.655  1.00  0.00    +0.000 C 
ATOM     96  C65 UNL A   1      57.607  -1.807  20.584  1.00  0.00    +0.000 C 
ATOM     97  C66 UNL A   1      58.498  -1.079  19.896  1.00  0.00    +0.000 C 
ATOM     98  C67 UNL A   1      58.173  -1.145  18.470  1.00  0.00    +0.000 C 
ATOM     99  N9  UNL A   1      57.030  -1.900  18.422  1.00  0.00    +0.000 N 
ATOM    100  C68 UNL A   1      53.476  -4.380  19.363  1.00  0.00    +0.000 C 
ATOM    101  C69 UNL A   1      52.899  -4.669  18.206  1.00  0.00    +0.000 C 
ATOM    102  C70 UNL A   1      58.617  -0.276  13.931  1.00  0.00    +0.000 C 
ATOM    103  C71 UNL A   1      59.296  -0.034  15.046  1.00  0.00    +0.000 C 
ENDROOT
BRANCH   47   46
ATOM    104  C72 UNL A   1      61.372  -0.539  17.940  1.00  0.00    +0.000 C 
ATOM    105  C73 UNL A   1      62.538   0.163  18.256  1.00  0.00    +0.000 C 
ATOM     43  C30 UNL A   1      62.486   1.546  18.446  1.00  0.00    +0.000 C 
ATOM     44  C31 UNL A   1      61.280   2.235  18.283  1.00  0.00    +0.000 C 
ATOM     45  C32 UNL A   1      60.107   1.527  18.043  1.00  0.00    +0.000 C 
ATOM     46  C33 UNL A   1      60.145   0.137  17.852  1.00  0.00    +0.000 C 
ATOM    143  H38 UNL A   1      61.259   3.264  18.343  1.00  0.00    +0.000 H 
ATOM    144  H39 UNL A   1      59.205   2.026  18.004  1.00  0.00    +0.000 H 
ATOM    155  H50 UNL A   1      61.412  -1.556  17.772  1.00  0.00    +0.000 H 
ATOM    156  H51 UNL A   1      63.435  -0.340  18.348  1.00  0.00    +0.000 H 
BRANCH   43    2
ATOM      1  O1  UNL A   1      64.449   2.720  17.926  1.00  0.00    +0.000 O 
ATOM      2  C1  UNL A   1      63.723   2.272  18.807  1.00  0.00    +0.000 C 
BRANCH    2    3
ATOM    106  H1  UNL A   1      63.539   3.101  20.625  1.00  0.00    +0.000 H 
ATOM      3  N1  UNL A   1      64.055   2.426  20.129  1.00  0.00    +0.000 N 
BRANCH    3    4
ATOM    108  H3  UNL A   1      65.481   0.954  20.264  1.00  0.00    +0.000 H 
ATOM    107  H2  UNL A   1      65.827   2.417  21.190  1.00  0.00    +0.000 H 
ATOM      4  C2  UNL A   1      65.072   1.720  20.889  1.00  0.00    +0.000 C 
BRANCH    4    5
ATOM    109  H4  UNL A   1      64.497   1.771  22.926  1.00  0.00    +0.000 H 
ATOM      5  C3  UNL A   1      64.495   1.055  22.131  1.00  0.00    +0.000 C 
ATOM    110  H5  UNL A   1      65.110   0.205  22.337  1.00  0.00    +0.000 H 
BRANCH    5    6
ATOM      6  C4  UNL A   1      63.068   0.533  21.959  1.00  0.00    +0.000 C 
ATOM    111  H6  UNL A   1      62.623   1.047  21.133  1.00  0.00    +0.000 H 
ATOM    112  H7  UNL A   1      62.571   0.712  22.889  1.00  0.00    +0.000 H 
BRANCH    6    7
ATOM    113  H8  UNL A   1      63.592  -1.479  22.393  1.00  0.00    +0.000 H 
ATOM    114  H9  UNL A   1      63.238  -1.119  20.675  1.00  0.00    +0.000 H 
ATOM      7  C5  UNL A   1      62.956  -0.973  21.697  1.00  0.00    +0.000 C 
BRANCH    7    8
ATOM    115  H10 UNL A   1      60.896  -1.039  21.158  1.00  0.00    +0.000 H 
ATOM    116  H11 UNL A   1      61.252  -1.432  22.857  1.00  0.00    +0.000 H 
ATOM      8  C6  UNL A   1      61.542  -1.558  21.835  1.00  0.00    +0.000 C 
BRANCH    8    9
ATOM      9  C7  UNL A   1      61.459  -3.054  21.530  1.00  0.00    +0.000 C 
ATOM    117  H12 UNL A   1      60.825  -3.525  22.252  1.00  0.00    +0.000 H 
ATOM    118  H13 UNL A   1      62.444  -3.468  21.575  1.00  0.00    +0.000 H 
BRANCH    9   10
ATOM     10  N2  UNL A   1      60.919  -3.277  20.206  1.00  0.00    +0.000 N 
ATOM    119  H14 UNL A   1      60.184  -2.683  19.932  1.00  0.00    +0.000 H 
BRANCH   10   11
ATOM     11  C8  UNL A   1      61.308  -4.211  19.292  1.00  0.00    +0.000 C 
ATOM     12  O2  UNL A   1      62.500  -4.258  18.984  1.00  0.00    +0.000 O 
BRANCH   11   13
ATOM     13  C9  UNL A   1      60.290  -5.173  18.663  1.00  0.00    +0.000 C 
ATOM    120  H15 UNL A   1      60.842  -5.970  18.208  1.00  0.00    +0.000 H 
BRANCH   13   14
ATOM    121  H16 UNL A   1      58.732  -3.883  17.953  1.00  0.00    +0.000 H 
ATOM    122  H17 UNL A   1      59.059  -5.258  16.915  1.00  0.00    +0.000 H 
ATOM     14  C10 UNL A   1      59.498  -4.501  17.531  1.00  0.00    +0.000 C 
BRANCH   14   15
ATOM    123  H18 UNL A   1      59.980  -3.577  15.850  1.00  0.00    +0.000 H 
ATOM     15  O3  UNL A   1      60.367  -3.693  16.730  1.00  0.00    +0.000 O 
ENDBRANCH   14   15
ENDBRANCH   13   14
BRANCH   13   16
ATOM    124  H19 UNL A   1      58.607  -5.314  19.870  1.00  0.00    +0.000 H 
ATOM     16  N3  UNL A   1      59.436  -5.806  19.668  1.00  0.00    +0.000 N 
BRANCH   16   17
ATOM     17  C11 UNL A   1      59.593  -6.960  20.372  1.00  0.00    +0.000 C 
ATOM     18  O4  UNL A   1      59.755  -7.964  19.665  1.00  0.00    +0.000 O 
BRANCH   17   19
ATOM     19  C12 UNL A   1      59.841  -7.020  21.906  1.00  0.00    +0.000 C 
ATOM    125  H20 UNL A   1      59.825  -5.996  22.216  1.00  0.00    +0.000 H 
BRANCH   19   20
ATOM     20  C13 UNL A   1      61.211  -7.690  22.179  1.00  0.00    +0.000 C 
ATOM    126  H21 UNL A   1      61.525  -8.190  21.286  1.00  0.00    +0.000 H 
ATOM    127  H22 UNL A   1      61.069  -8.364  22.999  1.00  0.00    +0.000 H 
BRANCH   20   21
ATOM     21  S1  UNL A   1      62.525  -6.520  22.678  1.00  0.00    +0.000 S 
ATOM    128  H23 UNL A   1      62.473  -5.416  21.884  1.00  0.00    +0.000 H 
ENDBRANCH   20   21
ENDBRANCH   19   20
BRANCH   19   22
ATOM    129  H24 UNL A   1      58.583  -7.081  23.532  1.00  0.00    +0.000 H 
ATOM     22  N4  UNL A   1      58.795  -7.625  22.739  1.00  0.00    +0.000 N 
BRANCH   22   23
ATOM     23  C14 UNL A   1      58.050  -8.760  22.675  1.00  0.00    +0.000 C 
ATOM     24  O5  UNL A   1      58.418  -9.602  23.498  1.00  0.00    +0.000 O 
BRANCH   23   25
ATOM     25  C15 UNL A   1      56.771  -8.971  21.812  1.00  0.00    +0.000 C 
ATOM    130  H25 UNL A   1      56.600  -8.041  21.311  1.00  0.00    +0.000 H 
BRANCH   25   26
ATOM     26  C16 UNL A   1      55.523  -9.336  22.674  1.00  0.00    +0.000 C 
ATOM    131  H26 UNL A   1      55.889  -9.500  23.666  1.00  0.00    +0.000 H 
ATOM    132  H27 UNL A   1      55.108 -10.147  22.113  1.00  0.00    +0.000 H 
BRANCH   26   27
ATOM    133  H28 UNL A   1      54.133  -7.833  20.807  1.00  0.00    +0.000 H 
ATOM    134  H29 UNL A   1      52.427  -6.163  21.175  1.00  0.00    +0.000 H 
ATOM    135  H30 UNL A   1      51.608  -5.727  23.413  1.00  0.00    +0.000 H 
ATOM    136  H31 UNL A   1      52.476  -7.013  25.277  1.00  0.00    +0.000 H 
ATOM    137  H32 UNL A   1      54.171  -8.700  24.910  1.00  0.00    +0.000 H 
ATOM     27  C17 UNL A   1      54.314  -8.423  22.819  1.00  0.00    +0.000 C 
ATOM     28  C18 UNL A   1      53.786  -7.668  21.765  1.00  0.00    +0.000 C 
ATOM     29  C19 UNL A   1      52.802  -6.698  21.975  1.00  0.00    +0.000 C 
ATOM     30  C20 UNL A   1      52.327  -6.450  23.254  1.00  0.00    +0.000 C 
ATOM     31  C21 UNL A   1      52.828  -7.186  24.322  1.00  0.00    +0.000 C 
ATOM     32  C22 UNL A   1      53.811  -8.161  24.107  1.00  0.00    +0.000 C 
ENDBRANCH   26   27
ENDBRANCH   25   26
BRANCH   25   33
ATOM     33  N5  UNL A   1      56.971 -10.073  20.855  1.00  0.00    +0.000 N 
ATOM    138  H33 UNL A   1      57.207 -10.927  21.284  1.00  0.00    +0.000 H 
BRANCH   33   34
ATOM     34  C23 UNL A   1      56.894 -10.149  19.490  1.00  0.00    +0.000 C 
ATOM     35  O6  UNL A   1      57.124 -11.243  18.975  1.00  0.00    +0.000 O 
BRANCH   34   36
ATOM     36  C24 UNL A   1      56.626  -8.983  18.605  1.00  0.00    +0.000 C 
ATOM     37  C25 UNL A   1      56.979  -9.116  17.250  1.00  0.00    +0.000 C 
ATOM     38  C26 UNL A   1      56.879  -8.030  16.375  1.00  0.00    +0.000 C 
ATOM     39  C27 UNL A   1      56.431  -6.808  16.854  1.00  0.00    +0.000 C 
ATOM     40  F1  UNL A   1      56.352  -5.760  16.025  1.00  0.00    +0.000 F 
ATOM     41  C28 UNL A   1      56.085  -6.651  18.191  1.00  0.00    +0.000 C 
ATOM     42  C29 UNL A   1      56.190  -7.736  19.067  1.00  0.00    +0.000 C 
ATOM    139  H34 UNL A   1      57.316 -10.025  16.897  1.00  0.00    +0.000 H 
ATOM    140  H35 UNL A   1      57.136  -8.137  15.381  1.00  0.00    +0.000 H 
ATOM    141  H36 UNL A   1      55.753  -5.737  18.535  1.00  0.00    +0.000 H 
ATOM    142  H37 UNL A   1      55.943  -7.617  20.062  1.00  0.00    +0.000 H 
ENDBRANCH   34   36
ENDBRANCH   33   34
ENDBRANCH   25   33
ENDBRANCH   23   25
ENDBRANCH   22   23
ENDBRANCH   19   22
ENDBRANCH   17   19
ENDBRANCH   16   17
ENDBRANCH   13   16
ENDBRANCH   11   13
ENDBRANCH   10   11
ENDBRANCH    9   10
ENDBRANCH    8    9
ENDBRANCH    7    8
ENDBRANCH    6    7
ENDBRANCH    5    6
ENDBRANCH    4    5
ENDBRANCH    3    4
ENDBRANCH    2    3
ENDBRANCH   43    2
ENDBRANCH   47   46
BRANCH   51   52
ATOM     52  C38 UNL A   1      56.858  -1.141  11.825  1.00  0.00    +0.000 C 
ATOM     53  C39 UNL A   1      56.344   0.050  11.292  1.00  0.00    +0.000 C 
ATOM     54  F2  UNL A   1      55.549   0.835  12.035  1.00  0.00    +0.000 F 
ATOM     55  C40 UNL A   1      56.623   0.427   9.981  1.00  0.00    +0.000 C 
ATOM     56  F3  UNL A   1      56.093   1.552   9.481  1.00  0.00    +0.000 F 
ATOM     57  C41 UNL A   1      57.440  -0.365   9.186  1.00  0.00    +0.000 C 
ATOM     58  F4  UNL A   1      57.712   0.003   7.927  1.00  0.00    +0.000 F 
ATOM     59  C42 UNL A   1      57.968  -1.541   9.697  1.00  0.00    +0.000 C 
ATOM     60  F5  UNL A   1      58.765  -2.302   8.934  1.00  0.00    +0.000 F 
ATOM     61  C43 UNL A   1      57.674  -1.931  11.001  1.00  0.00    +0.000 C 
ATOM     62  F6  UNL A   1      58.193  -3.078  11.464  1.00  0.00    +0.000 F 
ENDBRANCH   51   52
BRANCH   68   69
ATOM     69  C49 UNL A   1      51.972  -4.941  15.523  1.00  0.00    +0.000 C 
ATOM     70  C50 UNL A   1      50.729  -4.317  15.340  1.00  0.00    +0.000 C 
ATOM     71  F7  UNL A   1      50.621  -2.984  15.450  1.00  0.00    +0.000 F 
ATOM     72  C51 UNL A   1      49.584  -5.067  15.087  1.00  0.00    +0.000 C 
ATOM     73  F8  UNL A   1      48.399  -4.455  14.960  1.00  0.00    +0.000 F 
ATOM     74  C52 UNL A   1      49.667  -6.447  14.983  1.00  0.00    +0.000 C 
ATOM     75  F9  UNL A   1      48.563  -7.168  14.740  1.00  0.00    +0.000 F 
ATOM     76  C53 UNL A   1      50.889  -7.082  15.141  1.00  0.00    +0.000 C 
ATOM     77  F10 UNL A   1      50.970  -8.416  15.034  1.00  0.00    +0.000 F 
ATOM     78  C54 UNL A   1      52.031  -6.338  15.418  1.00  0.00    +0.000 C 
ATOM     79  F11 UNL A   1      53.199  -6.979  15.582  1.00  0.00    +0.000 F 
ENDBRANCH   68   69
BRANCH   83   84
ATOM     84  C58 UNL A   1      55.341  -3.446  21.425  1.00  0.00    +0.000 C 
ATOM     85  C59 UNL A   1      55.939  -4.581  21.991  1.00  0.00    +0.000 C 
ATOM     86  F12 UNL A   1      56.683  -5.395  21.230  1.00  0.00    +0.000 F 
ATOM     87  C60 UNL A   1      55.752  -4.894  23.336  1.00  0.00    +0.000 C 
ATOM     88  F13 UNL A   1      56.309  -6.001  23.846  1.00  0.00    +0.000 F 
ATOM     89  C61 UNL A   1      54.984  -4.067  24.143  1.00  0.00    +0.000 C 
ATOM     90  F14 UNL A   1      54.814  -4.363  25.439  1.00  0.00    +0.000 F 
ATOM     91  C62 UNL A   1      54.391  -2.935  23.605  1.00  0.00    +0.000 C 
ATOM     92  F15 UNL A   1      53.662  -2.126  24.386  1.00  0.00    +0.000 F 
ATOM     93  C63 UNL A   1      54.556  -2.635  22.256  1.00  0.00    +0.000 C 
ATOM     94  F16 UNL A   1      53.969  -1.535  21.760  1.00  0.00    +0.000 F 
ENDBRANCH   83   84
TORSDOF 30
ENDMDL
MODEL 9
REMARK VINA RESULT:      -6.8     29.387     37.025
ROOT
ATOM    145  H40 UNL A   1      24.498  12.996   4.814  1.00  0.00    +0.000 H 
ATOM    146  H41 UNL A   1      24.391  14.753   6.738  1.00  0.00    +0.000 H 
ATOM    147  H42 UNL A   1      20.997  15.172   4.403  1.00  0.00    +0.000 H 
ATOM    148  H43 UNL A   1      15.565  18.245   3.101  1.00  0.00    +0.000 H 
ATOM    149  H44 UNL A   1      15.586  16.423   1.333  1.00  0.00    +0.000 H 
ATOM    150  H45 UNL A   1      19.014  15.986   3.642  1.00  0.00    +0.000 H 
ATOM    151  H46 UNL A   1      18.707  19.489   7.226  1.00  0.00    +0.000 H 
ATOM    152  H47 UNL A   1      20.985  18.656   8.046  1.00  0.00    +0.000 H 
ATOM    153  H48 UNL A   1      21.156  11.661   0.823  1.00  0.00    +0.000 H 
ATOM    154  H49 UNL A   1      19.009  12.642  -0.169  1.00  0.00    +0.000 H 
ATOM     47  C34 UNL A   1      17.918  14.790   1.359  1.00  0.00    +0.000 C 
ATOM     48  C35 UNL A   1      19.192  14.038   1.608  1.00  0.00    +0.000 C 
ATOM     49  N6  UNL A   1      20.074  14.206   2.561  1.00  0.00    +0.000 N 
ATOM     50  C36 UNL A   1      21.048  13.239   2.354  1.00  0.00    +0.000 C 
ATOM     51  C37 UNL A   1      22.181  13.019   3.065  1.00  0.00    +0.000 C 
ATOM     63  C44 UNL A   1      22.589  13.797   4.207  1.00  0.00    +0.000 C 
ATOM     64  C45 UNL A   1      23.735  13.674   4.972  1.00  0.00    +0.000 C 
ATOM     65  C46 UNL A   1      23.684  14.625   5.997  1.00  0.00    +0.000 C 
ATOM     66  C47 UNL A   1      22.524  15.367   5.848  1.00  0.00    +0.000 C 
ATOM     67  N7  UNL A   1      21.859  14.846   4.749  1.00  0.00    +0.000 N 
ATOM     68  C48 UNL A   1      22.055  16.468   6.649  1.00  0.00    +0.000 C 
ATOM     80  C55 UNL A   1      20.913  17.165   6.428  1.00  0.00    +0.000 C 
ATOM     81  N8  UNL A   1      19.963  16.986   5.435  1.00  0.00    +0.000 N 
ATOM     82  C56 UNL A   1      19.036  17.885   5.659  1.00  0.00    +0.000 C 
ATOM     83  C57 UNL A   1      17.775  18.153   4.891  1.00  0.00    +0.000 C 
ATOM     95  C64 UNL A   1      17.483  17.386   3.827  1.00  0.00    +0.000 C 
ATOM     96  C65 UNL A   1      16.298  17.528   2.987  1.00  0.00    +0.000 C 
ATOM     97  C66 UNL A   1      16.318  16.576   2.043  1.00  0.00    +0.000 C 
ATOM     98  C67 UNL A   1      17.546  15.789   2.181  1.00  0.00    +0.000 C 
ATOM     99  N9  UNL A   1      18.165  16.326   3.280  1.00  0.00    +0.000 N 
ATOM    100  C68 UNL A   1      19.289  18.733   6.831  1.00  0.00    +0.000 C 
ATOM    101  C69 UNL A   1      20.461  18.273   7.244  1.00  0.00    +0.000 C 
ATOM    102  C70 UNL A   1      20.641  12.473   1.195  1.00  0.00    +0.000 C 
ATOM    103  C71 UNL A   1      19.518  12.952   0.673  1.00  0.00    +0.000 C 
ENDROOT
BRANCH   47   46
ATOM    104  C72 UNL A   1      15.960  13.604   0.316  1.00  0.00    +0.000 C 
ATOM    105  C73 UNL A   1      15.141  13.348  -0.787  1.00  0.00    +0.000 C 
ATOM     43  C30 UNL A   1      15.391  13.993  -2.001  1.00  0.00    +0.000 C 
ATOM     44  C31 UNL A   1      16.432  14.921  -2.105  1.00  0.00    +0.000 C 
ATOM     45  C32 UNL A   1      17.291  15.119  -1.029  1.00  0.00    +0.000 C 
ATOM     46  C33 UNL A   1      17.053  14.475   0.196  1.00  0.00    +0.000 C 
ATOM    143  H38 UNL A   1      16.564  15.457  -2.976  1.00  0.00    +0.000 H 
ATOM    144  H39 UNL A   1      18.107  15.742  -1.132  1.00  0.00    +0.000 H 
ATOM    155  H50 UNL A   1      15.761  13.150   1.221  1.00  0.00    +0.000 H 
ATOM    156  H51 UNL A   1      14.355  12.685  -0.705  1.00  0.00    +0.000 H 
BRANCH   43    2
ATOM      1  O1  UNL A   1      15.042  13.438  -4.254  1.00  0.00    +0.000 O 
ATOM      2  C1  UNL A   1      14.533  13.693  -3.168  1.00  0.00    +0.000 C 
BRANCH    2    3
ATOM    106  H1  UNL A   1      12.730  12.834  -2.967  1.00  0.00    +0.000 H 
ATOM      3  N1  UNL A   1      13.169  13.713  -3.026  1.00  0.00    +0.000 N 
BRANCH    3    4
ATOM    108  H3  UNL A   1      11.333  14.580  -3.335  1.00  0.00    +0.000 H 
ATOM    107  H2  UNL A   1      12.218  15.184  -1.932  1.00  0.00    +0.000 H 
ATOM      4  C2  UNL A   1      12.290  14.868  -2.952  1.00  0.00    +0.000 C 
BRANCH    4    5
ATOM    109  H4  UNL A   1      12.036  16.309  -4.482  1.00  0.00    +0.000 H 
ATOM      5  C3  UNL A   1      12.804  16.028  -3.792  1.00  0.00    +0.000 C 
ATOM    110  H5  UNL A   1      13.693  15.685  -4.277  1.00  0.00    +0.000 H 
BRANCH    5    6
ATOM      6  C4  UNL A   1      13.196  17.265  -2.983  1.00  0.00    +0.000 C 
ATOM    111  H6  UNL A   1      13.157  17.009  -1.944  1.00  0.00    +0.000 H 
ATOM    112  H7  UNL A   1      12.505  18.033  -3.257  1.00  0.00    +0.000 H 
BRANCH    6    7
ATOM    113  H8  UNL A   1      15.128  17.084  -3.847  1.00  0.00    +0.000 H 
ATOM    114  H9  UNL A   1      15.037  18.035  -2.332  1.00  0.00    +0.000 H 
ATOM      7  C5  UNL A   1      14.594  17.819  -3.282  1.00  0.00    +0.000 C 
BRANCH    7    8
ATOM    115  H10 UNL A   1      13.611  19.457  -4.226  1.00  0.00    +0.000 H 
ATOM    116  H11 UNL A   1      15.132  18.938  -4.990  1.00  0.00    +0.000 H 
ATOM      8  C6  UNL A   1      14.620  19.136  -4.072  1.00  0.00    +0.000 C 
BRANCH    8    9
ATOM      9  C7  UNL A   1      15.382  20.262  -3.372  1.00  0.00    +0.000 C 
ATOM    117  H12 UNL A   1      16.090  20.684  -4.053  1.00  0.00    +0.000 H 
ATOM    118  H13 UNL A   1      15.884  19.857  -2.518  1.00  0.00    +0.000 H 
BRANCH    9   10
ATOM     10  N2  UNL A   1      14.472  21.298  -2.930  1.00  0.00    +0.000 N 
ATOM    119  H14 UNL A   1      13.688  20.995  -2.417  1.00  0.00    +0.000 H 
BRANCH   10   11
ATOM     11  C8  UNL A   1      14.572  22.641  -3.138  1.00  0.00    +0.000 C 
ATOM     12  O2  UNL A   1      14.463  23.057  -4.293  1.00  0.00    +0.000 O 
BRANCH   11   13
ATOM     13  C9  UNL A   1      14.818  23.607  -1.970  1.00  0.00    +0.000 C 
ATOM    120  H15 UNL A   1      15.579  24.294  -2.278  1.00  0.00    +0.000 H 
BRANCH   13   14
ATOM    121  H16 UNL A   1      15.846  21.967  -1.047  1.00  0.00    +0.000 H 
ATOM    122  H17 UNL A   1      14.568  22.660  -0.067  1.00  0.00    +0.000 H 
ATOM     14  C10 UNL A   1      15.374  22.877  -0.737  1.00  0.00    +0.000 C 
BRANCH   14   15
ATOM    123  H18 UNL A   1      17.104  23.831  -0.637  1.00  0.00    +0.000 H 
ATOM     15  O3  UNL A   1      16.333  23.700  -0.065  1.00  0.00    +0.000 O 
ENDBRANCH   14   15
ENDBRANCH   13   14
BRANCH   13   16
ATOM    124  H19 UNL A   1      12.795  23.923  -1.631  1.00  0.00    +0.000 H 
ATOM     16  N3  UNL A   1      13.642  24.424  -1.674  1.00  0.00    +0.000 N 
BRANCH   16   17
ATOM     17  C11 UNL A   1      13.519  25.761  -1.450  1.00  0.00    +0.000 C 
ATOM     18  O4  UNL A   1      13.283  26.055  -0.270  1.00  0.00    +0.000 O 
BRANCH   17   19
ATOM     19  C12 UNL A   1      13.914  26.859  -2.479  1.00  0.00    +0.000 C 
ATOM    125  H20 UNL A   1      13.380  27.728  -2.153  1.00  0.00    +0.000 H 
BRANCH   19   20
ATOM     20  C13 UNL A   1      13.484  26.410  -3.899  1.00  0.00    +0.000 C 
ATOM    126  H21 UNL A   1      13.514  25.341  -3.936  1.00  0.00    +0.000 H 
ATOM    127  H22 UNL A   1      14.167  26.864  -4.586  1.00  0.00    +0.000 H 
BRANCH   20   21
ATOM     21  S1  UNL A   1      11.807  26.958  -4.377  1.00  0.00    +0.000 S 
ATOM    128  H23 UNL A   1      11.631  26.766  -5.713  1.00  0.00    +0.000 H 
ENDBRANCH   20   21
ENDBRANCH   19   20
BRANCH   19   22
ATOM    129  H24 UNL A   1      15.944  26.587  -2.652  1.00  0.00    +0.000 H 
ATOM     22  N4  UNL A   1      15.307  27.318  -2.481  1.00  0.00    +0.000 N 
BRANCH   22   23
ATOM     23  C14 UNL A   1      15.926  28.514  -2.300  1.00  0.00    +0.000 C 
ATOM     24  O5  UNL A   1      17.136  28.448  -2.530  1.00  0.00    +0.000 O 
BRANCH   23   25
ATOM     25  C15 UNL A   1      15.227  29.874  -2.007  1.00  0.00    +0.000 C 
ATOM    130  H25 UNL A   1      16.015  30.593  -1.908  1.00  0.00    +0.000 H 
BRANCH   25   26
ATOM     26  C16 UNL A   1      14.384  29.842  -0.694  1.00  0.00    +0.000 C 
ATOM    131  H26 UNL A   1      14.873  29.143  -0.049  1.00  0.00    +0.000 H 
ATOM    132  H27 UNL A   1      13.407  29.631  -1.076  1.00  0.00    +0.000 H 
BRANCH   26   27
ATOM    133  H28 UNL A   1      15.982  32.021  -0.079  1.00  0.00    +0.000 H 
ATOM    134  H29 UNL A   1      15.591  33.777   1.533  1.00  0.00    +0.000 H 
ATOM    135  H30 UNL A   1      13.502  33.868   2.757  1.00  0.00    +0.000 H 
ATOM    136  H31 UNL A   1      11.785  32.213   2.318  1.00  0.00    +0.000 H 
ATOM    137  H32 UNL A   1      12.165  30.462   0.691  1.00  0.00    +0.000 H 
ATOM     27  C17 UNL A   1      14.115  31.076   0.154  1.00  0.00    +0.000 C 
ATOM     28  C18 UNL A   1      15.082  32.052   0.426  1.00  0.00    +0.000 C 
ATOM     29  C19 UNL A   1      14.861  33.068   1.361  1.00  0.00    +0.000 C 
ATOM     30  C20 UNL A   1      13.663  33.125   2.059  1.00  0.00    +0.000 C 
ATOM     31  C21 UNL A   1      12.681  32.173   1.808  1.00  0.00    +0.000 C 
ATOM     32  C22 UNL A   1      12.904  31.161   0.867  1.00  0.00    +0.000 C 
ENDBRANCH   26   27
ENDBRANCH   25   26
BRANCH   25   33
ATOM     33  N5  UNL A   1      14.306  30.228  -3.102  1.00  0.00    +0.000 N 
ATOM    138  H33 UNL A   1      14.103  29.475  -3.702  1.00  0.00    +0.000 H 
BRANCH   33   34
ATOM     34  C23 UNL A   1      13.676  31.392  -3.452  1.00  0.00    +0.000 C 
ATOM     35  O6  UNL A   1      14.132  32.011  -4.412  1.00  0.00    +0.000 O 
BRANCH   34   36
ATOM     36  C24 UNL A   1      12.534  31.980  -2.699  1.00  0.00    +0.000 C 
ATOM     37  C25 UNL A   1      11.321  31.269  -2.721  1.00  0.00    +0.000 C 
ATOM     38  C26 UNL A   1      10.166  31.808  -2.148  1.00  0.00    +0.000 C 
ATOM     39  C27 UNL A   1      10.219  33.062  -1.556  1.00  0.00    +0.000 C 
ATOM     40  F1  UNL A   1       9.111  33.591  -1.023  1.00  0.00    +0.000 F 
ATOM     41  C28 UNL A   1      11.404  33.786  -1.531  1.00  0.00    +0.000 C 
ATOM     42  C29 UNL A   1      12.560  33.249  -2.109  1.00  0.00    +0.000 C 
ATOM    139  H34 UNL A   1      11.283  30.339  -3.165  1.00  0.00    +0.000 H 
ATOM    140  H35 UNL A   1       9.280  31.277  -2.164  1.00  0.00    +0.000 H 
ATOM    141  H36 UNL A   1      11.432  34.717  -1.088  1.00  0.00    +0.000 H 
ATOM    142  H37 UNL A   1      13.437  33.791  -2.099  1.00  0.00    +0.000 H 
ENDBRANCH   34   36
ENDBRANCH   33   34
ENDBRANCH   25   33
ENDBRANCH   23   25
ENDBRANCH   22   23
ENDBRANCH   19   22
ENDBRANCH   17   19
ENDBRANCH   16   17
ENDBRANCH   13   16
ENDBRANCH   11   13
ENDBRANCH   10   11
ENDBRANCH    9   10
ENDBRANCH    8    9
ENDBRANCH    7    8
ENDBRANCH    6    7
ENDBRANCH    5    6
ENDBRANCH    4    5
ENDBRANCH    3    4
ENDBRANCH    2    3
ENDBRANCH   43    2
ENDBRANCH   47   46
BRANCH   51   52
ATOM     52  C38 UNL A   1      23.058  11.879   2.639  1.00  0.00    +0.000 C 
ATOM     53  C39 UNL A   1      22.802  10.563   3.046  1.00  0.00    +0.000 C 
ATOM     54  F2  UNL A   1      21.787  10.300   3.884  1.00  0.00    +0.000 F 
ATOM     55  C40 UNL A   1      23.607   9.510   2.617  1.00  0.00    +0.000 C 
ATOM     56  F3  UNL A   1      23.365   8.264   3.047  1.00  0.00    +0.000 F 
ATOM     57  C41 UNL A   1      24.665   9.750   1.753  1.00  0.00    +0.000 C 
ATOM     58  F4  UNL A   1      25.434   8.735   1.335  1.00  0.00    +0.000 F 
ATOM     59  C42 UNL A   1      24.929  11.043   1.327  1.00  0.00    +0.000 C 
ATOM     60  F5  UNL A   1      25.945  11.275   0.484  1.00  0.00    +0.000 F 
ATOM     61  C43 UNL A   1      24.139  12.100   1.772  1.00  0.00    +0.000 C 
ATOM     62  F6  UNL A   1      24.424  13.341   1.349  1.00  0.00    +0.000 F 
ENDBRANCH   51   52
BRANCH   68   69
ATOM     69  C49 UNL A   1      22.895  16.900   7.811  1.00  0.00    +0.000 C 
ATOM     70  C50 UNL A   1      22.737  16.322   9.080  1.00  0.00    +0.000 C 
ATOM     71  F7  UNL A   1      21.795  15.389   9.284  1.00  0.00    +0.000 F 
ATOM     72  C51 UNL A   1      23.521  16.735  10.154  1.00  0.00    +0.000 C 
ATOM     73  F8  UNL A   1      23.324  16.204  11.368  1.00  0.00    +0.000 F 
ATOM     74  C52 UNL A   1      24.492  17.709   9.972  1.00  0.00    +0.000 C 
ATOM     75  F9  UNL A   1      25.245  18.105  11.008  1.00  0.00    +0.000 F 
ATOM     76  C53 UNL A   1      24.677  18.278   8.722  1.00  0.00    +0.000 C 
ATOM     77  F10 UNL A   1      25.620  19.214   8.545  1.00  0.00    +0.000 F 
ATOM     78  C54 UNL A   1      23.880  17.885   7.651  1.00  0.00    +0.000 C 
ATOM     79  F11 UNL A   1      24.069  18.463   6.455  1.00  0.00    +0.000 F 
ENDBRANCH   68   69
BRANCH   83   84
ATOM     84  C58 UNL A   1      16.855  19.250   5.279  1.00  0.00    +0.000 C 
ATOM     85  C59 UNL A   1      16.957  20.517   4.688  1.00  0.00    +0.000 C 
ATOM     86  F12 UNL A   1      17.926  20.763   3.795  1.00  0.00    +0.000 F 
ATOM     87  C60 UNL A   1      16.080  21.542   5.034  1.00  0.00    +0.000 C 
ATOM     88  F13 UNL A   1      16.218  22.754   4.478  1.00  0.00    +0.000 F 
ATOM     89  C61 UNL A   1      15.069  21.313   5.957  1.00  0.00    +0.000 C 
ATOM     90  F14 UNL A   1      14.219  22.296   6.280  1.00  0.00    +0.000 F 
ATOM     91  C62 UNL A   1      14.945  20.064   6.547  1.00  0.00    +0.000 C 
ATOM     92  F15 UNL A   1      13.961  19.834   7.427  1.00  0.00    +0.000 F 
ATOM     93  C63 UNL A   1      15.837  19.047   6.222  1.00  0.00    +0.000 C 
ATOM     94  F16 UNL A   1      15.696  17.849   6.809  1.00  0.00    +0.000 F 
ENDBRANCH   83   84
TORSDOF 30
ENDMDL
MODEL 10
REMARK VINA RESULT:      -6.8      7.927     16.346
ROOT
ATOM    145  H40 UNL A   1      11.601  53.494   5.314  1.00  0.00    +0.000 H 
ATOM    146  H41 UNL A   1      11.102  50.956   4.976  1.00  0.00    +0.000 H 
ATOM    147  H42 UNL A   1      14.302  51.986   2.558  1.00  0.00    +0.000 H 
ATOM    148  H43 UNL A   1      18.608  50.357  -1.851  1.00  0.00    +0.000 H 
ATOM    149  H44 UNL A   1      19.203  52.782  -1.394  1.00  0.00    +0.000 H 
ATOM    150  H45 UNL A   1      15.977  51.790   1.032  1.00  0.00    +0.000 H 
ATOM    151  H46 UNL A   1      15.081  46.921   0.195  1.00  0.00    +0.000 H 
ATOM    152  H47 UNL A   1      13.127  47.138   1.836  1.00  0.00    +0.000 H 
ATOM    153  H48 UNL A   1      15.342  56.827   3.371  1.00  0.00    +0.000 H 
ATOM    154  H49 UNL A   1      17.133  56.700   1.545  1.00  0.00    +0.000 H 
ATOM     47  C34 UNL A   1      17.469  54.088   0.449  1.00  0.00    +0.000 C 
ATOM     48  C35 UNL A   1      16.471  54.533   1.477  1.00  0.00    +0.000 C 
ATOM     49  N6  UNL A   1      15.542  53.833   2.080  1.00  0.00    +0.000 N 
ATOM     50  C36 UNL A   1      14.912  54.709   2.953  1.00  0.00    +0.000 C 
ATOM     51  C37 UNL A   1      13.871  54.464   3.786  1.00  0.00    +0.000 C 
ATOM     63  C44 UNL A   1      13.204  53.192   3.902  1.00  0.00    +0.000 C 
ATOM     64  C45 UNL A   1      12.119  52.854   4.691  1.00  0.00    +0.000 C 
ATOM     65  C46 UNL A   1      11.843  51.495   4.500  1.00  0.00    +0.000 C 
ATOM     66  C47 UNL A   1      12.732  50.995   3.563  1.00  0.00    +0.000 C 
ATOM     67  N7  UNL A   1      13.564  52.045   3.207  1.00  0.00    +0.000 N 
ATOM     68  C48 UNL A   1      12.818  49.660   3.032  1.00  0.00    +0.000 C 
ATOM     80  C55 UNL A   1      13.706  49.246   2.094  1.00  0.00    +0.000 C 
ATOM     81  N8  UNL A   1      14.703  49.971   1.461  1.00  0.00    +0.000 N 
ATOM     82  C56 UNL A   1      15.308  49.127   0.662  1.00  0.00    +0.000 C 
ATOM     83  C57 UNL A   1      16.460  49.368  -0.269  1.00  0.00    +0.000 C 
ATOM     95  C64 UNL A   1      17.010  50.593  -0.324  1.00  0.00    +0.000 C 
ATOM     96  C65 UNL A   1      18.129  50.976  -1.180  1.00  0.00    +0.000 C 
ATOM     97  C66 UNL A   1      18.432  52.261  -0.949  1.00  0.00    +0.000 C 
ATOM     98  C67 UNL A   1      17.492  52.807   0.033  1.00  0.00    +0.000 C 
ATOM     99  N9  UNL A   1      16.699  51.740   0.365  1.00  0.00    +0.000 N 
ATOM    100  C68 UNL A   1      14.768  47.762   0.705  1.00  0.00    +0.000 C 
ATOM    101  C69 UNL A   1      13.773  47.898   1.570  1.00  0.00    +0.000 C 
ATOM    102  C70 UNL A   1      15.575  55.988   2.818  1.00  0.00    +0.000 C 
ATOM    103  C71 UNL A   1      16.522  55.943   1.888  1.00  0.00    +0.000 C 
ENDROOT
BRANCH   47   46
ATOM    104  C72 UNL A   1      18.203  55.611  -1.413  1.00  0.00    +0.000 C 
ATOM    105  C73 UNL A   1      19.111  56.531  -1.945  1.00  0.00    +0.000 C 
ATOM     43  C30 UNL A   1      20.229  56.913  -1.198  1.00  0.00    +0.000 C 
ATOM     44  C31 UNL A   1      20.421  56.407   0.091  1.00  0.00    +0.000 C 
ATOM     45  C32 UNL A   1      19.558  55.436   0.589  1.00  0.00    +0.000 C 
ATOM     46  C33 UNL A   1      18.433  55.042  -0.152  1.00  0.00    +0.000 C 
ATOM    143  H38 UNL A   1      21.201  56.751   0.672  1.00  0.00    +0.000 H 
ATOM    144  H39 UNL A   1      19.747  55.003   1.506  1.00  0.00    +0.000 H 
ATOM    155  H50 UNL A   1      17.362  55.349  -1.951  1.00  0.00    +0.000 H 
ATOM    156  H51 UNL A   1      18.955  56.928  -2.885  1.00  0.00    +0.000 H 
BRANCH   43    2
ATOM      1  O1  UNL A   1      21.179  58.094  -2.988  1.00  0.00    +0.000 O 
ATOM      2  C1  UNL A   1      21.195  57.867  -1.783  1.00  0.00    +0.000 C 
BRANCH    2    3
ATOM    106  H1  UNL A   1      21.742  59.035  -0.245  1.00  0.00    +0.000 H 
ATOM      3  N1  UNL A   1      22.113  58.483  -0.971  1.00  0.00    +0.000 N 
BRANCH    3    4
ATOM    108  H3  UNL A   1      23.886  57.547  -0.527  1.00  0.00    +0.000 H 
ATOM    107  H2  UNL A   1      23.856  58.396  -2.075  1.00  0.00    +0.000 H 
ATOM      4  C2  UNL A   1      23.563  58.425  -1.046  1.00  0.00    +0.000 C 
BRANCH    4    5
ATOM    109  H4  UNL A   1      24.589  59.326   0.572  1.00  0.00    +0.000 H 
ATOM      5  C3  UNL A   1      24.215  59.629  -0.384  1.00  0.00    +0.000 C 
ATOM    110  H5  UNL A   1      23.462  60.386  -0.313  1.00  0.00    +0.000 H 
BRANCH    5    6
ATOM      6  C4  UNL A   1      25.372  60.236  -1.180  1.00  0.00    +0.000 C 
ATOM    111  H6  UNL A   1      25.004  61.100  -1.693  1.00  0.00    +0.000 H 
ATOM    112  H7  UNL A   1      25.718  59.467  -1.837  1.00  0.00    +0.000 H 
BRANCH    6    7
ATOM    113  H8  UNL A   1      27.037  59.778   0.057  1.00  0.00    +0.000 H 
ATOM    114  H9  UNL A   1      26.207  61.325   0.408  1.00  0.00    +0.000 H 
ATOM      7  C5  UNL A   1      26.583  60.661  -0.342  1.00  0.00    +0.000 C 
BRANCH    7    8
ATOM    115  H10 UNL A   1      27.221  61.850  -1.991  1.00  0.00    +0.000 H 
ATOM    116  H11 UNL A   1      28.455  60.762  -1.313  1.00  0.00    +0.000 H 
ATOM      8  C6  UNL A   1      27.662  61.447  -1.103  1.00  0.00    +0.000 C 
BRANCH    8    9
ATOM      9  C7  UNL A   1      28.269  62.599  -0.301  1.00  0.00    +0.000 C 
ATOM    117  H12 UNL A   1      27.536  62.976   0.381  1.00  0.00    +0.000 H 
ATOM    118  H13 UNL A   1      28.574  63.367  -0.980  1.00  0.00    +0.000 H 
BRANCH    9   10
ATOM     10  N2  UNL A   1      29.425  62.149   0.445  1.00  0.00    +0.000 N 
ATOM    119  H14 UNL A   1      29.310  61.319   0.963  1.00  0.00    +0.000 H 
BRANCH   10   11
ATOM     11  C8  UNL A   1      30.653  62.736   0.516  1.00  0.00    +0.000 C 
ATOM     12  O2  UNL A   1      31.179  63.106  -0.535  1.00  0.00    +0.000 O 
BRANCH   11   13
ATOM     13  C9  UNL A   1      31.362  62.926   1.864  1.00  0.00    +0.000 C 
ATOM    120  H15 UNL A   1      32.416  62.928   1.674  1.00  0.00    +0.000 H 
BRANCH   13   14
ATOM    121  H16 UNL A   1      30.373  61.095   2.378  1.00  0.00    +0.000 H 
ATOM    122  H17 UNL A   1      30.740  62.125   3.748  1.00  0.00    +0.000 H 
ATOM     14  C10 UNL A   1      31.101  61.747   2.815  1.00  0.00    +0.000 C 
BRANCH   14   15
ATOM    123  H18 UNL A   1      32.109  60.073   3.120  1.00  0.00    +0.000 H 
ATOM     15  O3  UNL A   1      32.312  61.017   3.042  1.00  0.00    +0.000 O 
ENDBRANCH   14   15
ENDBRANCH   13   14
BRANCH   13   16
ATOM    124  H19 UNL A   1      31.747  64.552   3.096  1.00  0.00    +0.000 H 
ATOM     16  N3  UNL A   1      31.065  64.227   2.464  1.00  0.00    +0.000 N 
BRANCH   16   17
ATOM     17  C11 UNL A   1      30.006  65.064   2.296  1.00  0.00    +0.000 C 
ATOM     18  O4  UNL A   1      29.071  64.861   3.083  1.00  0.00    +0.000 O 
BRANCH   17   19
ATOM     19  C12 UNL A   1      30.036  66.345   1.413  1.00  0.00    +0.000 C 
ATOM    125  H20 UNL A   1      29.682  66.015   0.458  1.00  0.00    +0.000 H 
BRANCH   19   20
ATOM     20  C13 UNL A   1      31.487  66.885   1.342  1.00  0.00    +0.000 C 
ATOM    126  H21 UNL A   1      32.151  66.052   1.246  1.00  0.00    +0.000 H 
ATOM    127  H22 UNL A   1      31.654  67.442   2.241  1.00  0.00    +0.000 H 
BRANCH   20   21
ATOM     21  S1  UNL A   1      31.788  68.028  -0.053  1.00  0.00    +0.000 S 
ATOM    128  H23 UNL A   1      30.700  68.041  -0.871  1.00  0.00    +0.000 H 
ENDBRANCH   20   21
ENDBRANCH   19   20
BRANCH   19   22
ATOM    129  H24 UNL A   1      28.365  67.500   1.096  1.00  0.00    +0.000 H 
ATOM     22  N4  UNL A   1      29.098  67.423   1.749  1.00  0.00    +0.000 N 
BRANCH   22   23
ATOM     23  C14 UNL A   1      29.004  68.339   2.747  1.00  0.00    +0.000 C 
ATOM     24  O5  UNL A   1      29.596  69.386   2.472  1.00  0.00    +0.000 O 
BRANCH   23   25
ATOM     25  C15 UNL A   1      28.132  68.212   4.031  1.00  0.00    +0.000 C 
ATOM    130  H25 UNL A   1      28.702  67.617   4.714  1.00  0.00    +0.000 H 
BRANCH   25   26
ATOM     26  C16 UNL A   1      26.761  67.518   3.755  1.00  0.00    +0.000 C 
ATOM    131  H26 UNL A   1      26.929  66.852   2.935  1.00  0.00    +0.000 H 
ATOM    132  H27 UNL A   1      26.116  68.364   3.638  1.00  0.00    +0.000 H 
BRANCH   26   27
ATOM    133  H28 UNL A   1      24.209  67.801   4.798  1.00  0.00    +0.000 H 
ATOM    134  H29 UNL A   1      23.213  66.673   6.687  1.00  0.00    +0.000 H 
ATOM    135  H30 UNL A   1      24.428  64.927   7.847  1.00  0.00    +0.000 H 
ATOM    136  H31 UNL A   1      26.633  64.284   7.068  1.00  0.00    +0.000 H 
ATOM    137  H32 UNL A   1      27.628  65.399   5.164  1.00  0.00    +0.000 H 
ATOM     27  C17 UNL A   1      26.010  66.710   4.803  1.00  0.00    +0.000 C 
ATOM     28  C18 UNL A   1      24.736  67.052   5.274  1.00  0.00    +0.000 C 
ATOM     29  C19 UNL A   1      24.157  66.403   6.369  1.00  0.00    +0.000 C 
ATOM     30  C20 UNL A   1      24.849  65.400   7.032  1.00  0.00    +0.000 C 
ATOM     31  C21 UNL A   1      26.115  65.034   6.585  1.00  0.00    +0.000 C 
ATOM     32  C22 UNL A   1      26.688  65.682   5.484  1.00  0.00    +0.000 C 
ENDBRANCH   26   27
ENDBRANCH   25   26
BRANCH   25   33
ATOM     33  N5  UNL A   1      27.836  69.543   4.588  1.00  0.00    +0.000 N 
ATOM    138  H33 UNL A   1      27.528  70.191   3.914  1.00  0.00    +0.000 H 
BRANCH   33   34
ATOM     34  C23 UNL A   1      27.903  70.061   5.853  1.00  0.00    +0.000 C 
ATOM     35  O6  UNL A   1      28.496  71.130   5.993  1.00  0.00    +0.000 O 
BRANCH   34   36
ATOM     36  C24 UNL A   1      27.372  69.375   7.064  1.00  0.00    +0.000 C 
ATOM     37  C25 UNL A   1      28.164  68.354   7.618  1.00  0.00    +0.000 C 
ATOM     38  C26 UNL A   1      27.688  67.575   8.677  1.00  0.00    +0.000 C 
ATOM     39  C27 UNL A   1      26.416  67.811   9.179  1.00  0.00    +0.000 C 
ATOM     40  F1  UNL A   1      25.948  67.055  10.180  1.00  0.00    +0.000 F 
ATOM     41  C28 UNL A   1      25.613  68.809   8.641  1.00  0.00    +0.000 C 
ATOM     42  C29 UNL A   1      26.088  69.586   7.578  1.00  0.00    +0.000 C 
ATOM    139  H34 UNL A   1      29.107  68.177   7.240  1.00  0.00    +0.000 H 
ATOM    140  H35 UNL A   1      28.277  66.830   9.081  1.00  0.00    +0.000 H 
ATOM    141  H36 UNL A   1      24.669  68.975   9.023  1.00  0.00    +0.000 H 
ATOM    142  H37 UNL A   1      25.487  70.319   7.172  1.00  0.00    +0.000 H 
ENDBRANCH   34   36
ENDBRANCH   33   34
ENDBRANCH   25   33
ENDBRANCH   23   25
ENDBRANCH   22   23
ENDBRANCH   19   22
ENDBRANCH   17   19
ENDBRANCH   16   17
ENDBRANCH   13   16
ENDBRANCH   11   13
ENDBRANCH   10   11
ENDBRANCH    9   10
ENDBRANCH    8    9
ENDBRANCH    7    8
ENDBRANCH    6    7
ENDBRANCH    5    6
ENDBRANCH    4    5
ENDBRANCH    3    4
ENDBRANCH    2    3
ENDBRANCH   43    2
ENDBRANCH   47   46
BRANCH   51   52
ATOM     52  C38 UNL A   1      13.393  55.592   4.651  1.00  0.00    +0.000 C 
ATOM     53  C39 UNL A   1      13.961  55.845   5.907  1.00  0.00    +0.000 C 
ATOM     54  F2  UNL A   1      14.916  55.038   6.392  1.00  0.00    +0.000 F 
ATOM     55  C40 UNL A   1      13.528  56.916   6.686  1.00  0.00    +0.000 C 
ATOM     56  F3  UNL A   1      14.061  57.119   7.899  1.00  0.00    +0.000 F 
ATOM     57  C41 UNL A   1      12.540  57.767   6.214  1.00  0.00    +0.000 C 
ATOM     58  F4  UNL A   1      12.130  58.801   6.961  1.00  0.00    +0.000 F 
ATOM     59  C42 UNL A   1      11.973  57.542   4.968  1.00  0.00    +0.000 C 
ATOM     60  F5  UNL A   1      11.025  58.369   4.506  1.00  0.00    +0.000 F 
ATOM     61  C43 UNL A   1      12.389  56.459   4.196  1.00  0.00    +0.000 C 
ATOM     62  F6  UNL A   1      11.815  56.263   3.000  1.00  0.00    +0.000 F 
ENDBRANCH   51   52
BRANCH   68   69
ATOM     69  C49 UNL A   1      11.842  48.639   3.534  1.00  0.00    +0.000 C 
ATOM     70  C50 UNL A   1      12.098  47.895   4.695  1.00  0.00    +0.000 C 
ATOM     71  F7  UNL A   1      13.250  48.060   5.362  1.00  0.00    +0.000 F 
ATOM     72  C51 UNL A   1      11.186  46.946   5.149  1.00  0.00    +0.000 C 
ATOM     73  F8  UNL A   1      11.469  46.213   6.234  1.00  0.00    +0.000 F 
ATOM     74  C52 UNL A   1       9.994  46.746   4.469  1.00  0.00    +0.000 C 
ATOM     75  F9  UNL A   1       9.117  45.832   4.907  1.00  0.00    +0.000 F 
ATOM     76  C53 UNL A   1       9.713  47.486   3.330  1.00  0.00    +0.000 C 
ATOM     77  F10 UNL A   1       8.558  47.298   2.676  1.00  0.00    +0.000 F 
ATOM     78  C54 UNL A   1      10.633  48.418   2.859  1.00  0.00    +0.000 C 
ATOM     79  F11 UNL A   1      10.344  49.110   1.746  1.00  0.00    +0.000 F 
ENDBRANCH   68   69
BRANCH   83   84
ATOM     84  C58 UNL A   1      16.993  48.286  -1.132  1.00  0.00    +0.000 C 
ATOM     85  C59 UNL A   1      16.361  47.949  -2.337  1.00  0.00    +0.000 C 
ATOM     86  F12 UNL A   1      15.233  48.576  -2.699  1.00  0.00    +0.000 F 
ATOM     87  C60 UNL A   1      16.872  46.949  -3.160  1.00  0.00    +0.000 C 
ATOM     88  F13 UNL A   1      16.233  46.624  -4.292  1.00  0.00    +0.000 F 
ATOM     89  C61 UNL A   1      18.038  46.284  -2.806  1.00  0.00    +0.000 C 
ATOM     90  F14 UNL A   1      18.536  45.330  -3.604  1.00  0.00    +0.000 F 
ATOM     91  C62 UNL A   1      18.684  46.607  -1.623  1.00  0.00    +0.000 C 
ATOM     92  F15 UNL A   1      19.818  45.978  -1.285  1.00  0.00    +0.000 F 
ATOM     93  C63 UNL A   1      18.159  47.589  -0.787  1.00  0.00    +0.000 C 
ATOM     94  F16 UNL A   1      18.803  47.881   0.354  1.00  0.00    +0.000 F 
ENDBRANCH   83   84
TORSDOF 30
ENDMDL
