MODEL 1
REMARK VINA RESULT:      -7.2      0.000      0.000
ROOT
ATOM    129  H37 UNL A   1      32.577  38.807  46.126  1.00  0.00    +0.000 H 
ATOM    130  H38 UNL A   1      32.468  37.027  44.291  1.00  0.00    +0.000 H 
ATOM    131  H39 UNL A   1      23.498  33.993  47.654  1.00  0.00    +0.000 H 
ATOM    132  H40 UNL A   1      23.380  36.042  49.185  1.00  0.00    +0.000 H 
ATOM     31  C26 UNL A   1      25.759  37.614  49.182  1.00  0.00    +0.000 C 
ATOM     32  C27 UNL A   1      25.442  36.422  48.321  1.00  0.00    +0.000 C 
ATOM     33  N3  UNL A   1      26.173  35.853  47.395  1.00  0.00    +0.000 N 
ATOM     34  C28 UNL A   1      25.433  34.767  46.944  1.00  0.00    +0.000 C 
ATOM     35  C29 UNL A   1      25.735  33.893  45.955  1.00  0.00    +0.000 C 
ATOM     47  C36 UNL A   1      26.929  33.953  45.154  1.00  0.00    +0.000 C 
ATOM     48  C37 UNL A   1      27.289  33.157  44.080  1.00  0.00    +0.000 C 
ATOM     49  C38 UNL A   1      28.556  33.561  43.641  1.00  0.00    +0.000 C 
ATOM     50  C39 UNL A   1      28.966  34.634  44.414  1.00  0.00    +0.000 C 
ATOM     51  N4  UNL A   1      27.960  34.862  45.341  1.00  0.00    +0.000 N 
ATOM     52  C40 UNL A   1      30.183  35.396  44.317  1.00  0.00    +0.000 C 
ATOM     64  C47 UNL A   1      30.507  36.448  45.108  1.00  0.00    +0.000 C 
ATOM     65  N5  UNL A   1      29.779  37.016  46.145  1.00  0.00    +0.000 N 
ATOM     66  C48 UNL A   1      30.517  37.995  46.609  1.00  0.00    +0.000 C 
ATOM     67  C49 UNL A   1      30.216  38.966  47.716  1.00  0.00    +0.000 C 
ATOM     79  C56 UNL A   1      29.028  38.901  48.346  1.00  0.00    +0.000 C 
ATOM     80  C57 UNL A   1      28.594  39.780  49.428  1.00  0.00    +0.000 C 
ATOM     81  C58 UNL A   1      27.376  39.395  49.843  1.00  0.00    +0.000 C 
ATOM     82  C59 UNL A   1      26.932  38.259  49.036  1.00  0.00    +0.000 C 
ATOM     83  N6  UNL A   1      27.971  38.042  48.166  1.00  0.00    +0.000 N 
ATOM     84  C60 UNL A   1      31.812  38.143  45.931  1.00  0.00    +0.000 C 
ATOM     85  C61 UNL A   1      31.739  37.202  45.001  1.00  0.00    +0.000 C 
ATOM     86  C62 UNL A   1      24.217  34.730  47.727  1.00  0.00    +0.000 C 
ATOM     87  C63 UNL A   1      24.146  35.767  48.550  1.00  0.00    +0.000 C 
ATOM    123  H31 UNL A   1      26.722  32.398  43.672  1.00  0.00    +0.000 H 
ATOM    124  H32 UNL A   1      29.092  33.131  42.871  1.00  0.00    +0.000 H 
ATOM    125  H33 UNL A   1      27.975  35.567  46.028  1.00  0.00    +0.000 H 
ATOM    126  H34 UNL A   1      29.135  40.571  49.810  1.00  0.00    +0.000 H 
ATOM    127  H35 UNL A   1      26.840  39.831  50.610  1.00  0.00    +0.000 H 
ATOM    128  H36 UNL A   1      27.960  37.338  47.477  1.00  0.00    +0.000 H 
ENDROOT
BRANCH   31   30
ATOM    133  H41 UNL A   1      23.871  39.514  49.056  1.00  0.00    +0.000 H 
ATOM    134  H42 UNL A   1      22.362  40.270  50.795  1.00  0.00    +0.000 H 
ATOM     29  C24 UNL A   1      24.829  37.437  51.513  1.00  0.00    +0.000 C 
ATOM     88  C64 UNL A   1      23.890  39.063  49.984  1.00  0.00    +0.000 C 
ATOM     89  C65 UNL A   1      22.995  39.474  50.972  1.00  0.00    +0.000 C 
ATOM    122  H30 UNL A   1      25.533  36.716  51.730  1.00  0.00    +0.000 H 
ATOM     27  C22 UNL A   1      22.955  38.807  52.199  1.00  0.00    +0.000 C 
ATOM     28  C23 UNL A   1      23.891  37.807  52.480  1.00  0.00    +0.000 C 
ATOM    121  H29 UNL A   1      23.889  37.342  53.402  1.00  0.00    +0.000 H 
ATOM     30  C25 UNL A   1      24.817  38.043  50.246  1.00  0.00    +0.000 C 
BRANCH   27   25
ATOM     25  C21 UNL A   1      21.969  39.174  53.243  1.00  0.00    +0.000 C 
ATOM     26  O2  UNL A   1      22.219  38.945  54.419  1.00  0.00    +0.000 O 
BRANCH   25   24
ATOM    120  H28 UNL A   1      20.864  40.634  52.431  1.00  0.00    +0.000 H 
ATOM     24  N2  UNL A   1      20.781  39.772  52.899  1.00  0.00    +0.000 N 
BRANCH   24   23
ATOM    119  H27 UNL A   1      18.763  40.151  52.969  1.00  0.00    +0.000 H 
ATOM    118  H26 UNL A   1      19.340  38.948  54.127  1.00  0.00    +0.000 H 
ATOM     23  C20 UNL A   1      19.417  39.319  53.126  1.00  0.00    +0.000 C 
BRANCH   23   22
ATOM    116  H24 UNL A   1      19.488  37.305  52.469  1.00  0.00    +0.000 H 
ATOM    117  H25 UNL A   1      17.942  38.161  52.190  1.00  0.00    +0.000 H 
ATOM     22  C19 UNL A   1      19.011  38.211  52.157  1.00  0.00    +0.000 C 
BRANCH   22   21
ATOM    114  H22 UNL A   1      18.590  39.023  50.243  1.00  0.00    +0.000 H 
ATOM    115  H23 UNL A   1      20.320  38.978  50.714  1.00  0.00    +0.000 H 
ATOM     21  C18 UNL A   1      19.383  38.463  50.691  1.00  0.00    +0.000 C 
BRANCH   21   20
ATOM    113  H21 UNL A   1      19.868  37.561  48.859  1.00  0.00    +0.000 H 
ATOM     20  C17 UNL A   1      19.616  37.210  49.838  1.00  0.00    +0.000 C 
ATOM    112  H20 UNL A   1      18.724  36.620  49.865  1.00  0.00    +0.000 H 
BRANCH   20   19
ATOM     19  C16 UNL A   1      20.784  36.321  50.282  1.00  0.00    +0.000 C 
ATOM    110  H18 UNL A   1      21.697  36.843  50.087  1.00  0.00    +0.000 H 
ATOM    111  H19 UNL A   1      20.639  36.117  51.322  1.00  0.00    +0.000 H 
BRANCH   19   18
ATOM     18  C15 UNL A   1      20.841  34.969  49.569  1.00  0.00    +0.000 C 
ATOM    108  H16 UNL A   1      21.867  34.701  49.418  1.00  0.00    +0.000 H 
ATOM    109  H17 UNL A   1      20.341  34.249  50.183  1.00  0.00    +0.000 H 
BRANCH   18   17
ATOM     17  N1  UNL A   1      20.173  35.004  48.286  1.00  0.00    +0.000 N 
ATOM    107  H15 UNL A   1      19.237  35.305  48.321  1.00  0.00    +0.000 H 
BRANCH   17   15
ATOM     15  C14 UNL A   1      20.619  34.694  47.037  1.00  0.00    +0.000 C 
ATOM     16  O1  UNL A   1      21.108  33.567  46.891  1.00  0.00    +0.000 O 
BRANCH   15   13
ATOM     13  C12 UNL A   1      20.564  35.666  45.849  1.00  0.00    +0.000 C 
ATOM    103  H11 UNL A   1      19.648  36.207  45.963  1.00  0.00    +0.000 H 
BRANCH   13   12
ATOM    101  H9  UNL A   1      24.571  37.728  44.624  1.00  0.00    +0.000 H 
ATOM    102  H10 UNL A   1      22.833  36.085  44.322  1.00  0.00    +0.000 H 
ATOM    135  H43 UNL A   1      20.681  37.785  47.489  1.00  0.00    +0.000 H 
ATOM    136  H44 UNL A   1      22.339  39.524  47.682  1.00  0.00    +0.000 H 
ATOM      9  C8  UNL A   1      23.635  38.775  46.196  1.00  0.00    +0.000 C 
ATOM     10  C9  UNL A   1      23.737  37.759  45.232  1.00  0.00    +0.000 C 
ATOM     11  C10 UNL A   1      22.741  36.787  45.071  1.00  0.00    +0.000 C 
ATOM     12  C11 UNL A   1      21.623  36.755  45.908  1.00  0.00    +0.000 C 
ATOM     90  C66 UNL A   1      21.502  37.772  46.865  1.00  0.00    +0.000 C 
ATOM     91  C67 UNL A   1      22.476  38.772  46.990  1.00  0.00    +0.000 C 
BRANCH    9    8
ATOM     98  H6  UNL A   1      27.520  42.382  46.922  1.00  0.00    +0.000 H 
ATOM     99  H7  UNL A   1      27.919  40.426  45.548  1.00  0.00    +0.000 H 
ATOM      4  C3  UNL A   1      25.521  41.881  47.370  1.00  0.00    +0.000 C 
ATOM      5  C4  UNL A   1      26.768  41.692  46.776  1.00  0.00    +0.000 C 
ATOM      6  C5  UNL A   1      26.996  40.568  45.986  1.00  0.00    +0.000 C 
ATOM      7  C6  UNL A   1      25.976  39.632  45.785  1.00  0.00    +0.000 C 
ATOM      8  C7  UNL A   1      24.709  39.784  46.378  1.00  0.00    +0.000 C 
ATOM    137  H45 UNL A   1      23.586  41.085  47.606  1.00  0.00    +0.000 H 
ATOM    100  H8  UNL A   1      26.157  38.811  45.189  1.00  0.00    +0.000 H 
ATOM     92  C68 UNL A   1      24.507  40.934  47.166  1.00  0.00    +0.000 C 
BRANCH    4    3
ATOM      3  S1  UNL A   1      25.194  43.358  48.312  1.00  0.00    +0.000 S 
BRANCH    3    2
ATOM     97  H5  UNL A   1      24.495  41.598  49.751  1.00  0.00    +0.000 H 
ATOM      2  C2  UNL A   1      24.710  42.634  49.915  1.00  0.00    +0.000 C 
ATOM     96  H4  UNL A   1      23.854  43.161  50.284  1.00  0.00    +0.000 H 
BRANCH    2    1
ATOM      1  C1  UNL A   1      25.816  42.716  50.951  1.00  0.00    +0.000 C 
ATOM     93  H1  UNL A   1      26.050  43.743  51.144  1.00  0.00    +0.000 H 
ATOM     94  H2  UNL A   1      26.688  42.216  50.583  1.00  0.00    +0.000 H 
ATOM     95  H3  UNL A   1      25.493  42.248  51.857  1.00  0.00    +0.000 H 
ENDBRANCH    2    1
ENDBRANCH    3    2
ENDBRANCH    4    3
ENDBRANCH    9    8
ENDBRANCH   13   12
BRANCH   13   14
ATOM    105  H13 UNL A   1      21.319  34.847  44.023  1.00  0.00    +0.000 H 
ATOM    106  H14 UNL A   1      19.756  35.612  43.869  1.00  0.00    +0.000 H 
ATOM     14  C13 UNL A   1      20.367  34.992  44.490  1.00  0.00    +0.000 C 
ATOM    104  H12 UNL A   1      19.890  34.044  44.628  1.00  0.00    +0.000 H 
ENDBRANCH   13   14
ENDBRANCH   15   13
ENDBRANCH   17   15
ENDBRANCH   18   17
ENDBRANCH   19   18
ENDBRANCH   20   19
ENDBRANCH   21   20
ENDBRANCH   22   21
ENDBRANCH   23   22
ENDBRANCH   24   23
ENDBRANCH   25   24
ENDBRANCH   27   25
ENDBRANCH   31   30
BRANCH   35   36
ATOM     36  C30 UNL A   1      24.753  32.793  45.675  1.00  0.00    +0.000 C 
ATOM     37  C31 UNL A   1      23.751  32.932  44.704  1.00  0.00    +0.000 C 
ATOM     38  F1  UNL A   1      23.614  34.087  44.036  1.00  0.00    +0.000 F 
ATOM     39  C32 UNL A   1      22.861  31.895  44.438  1.00  0.00    +0.000 C 
ATOM     40  F2  UNL A   1      21.885  32.065  43.536  1.00  0.00    +0.000 F 
ATOM     41  C33 UNL A   1      22.976  30.689  45.113  1.00  0.00    +0.000 C 
ATOM     42  F3  UNL A   1      22.125  29.688  44.852  1.00  0.00    +0.000 F 
ATOM     43  C34 UNL A   1      23.971  30.522  46.065  1.00  0.00    +0.000 C 
ATOM     44  F4  UNL A   1      24.091  29.354  46.710  1.00  0.00    +0.000 F 
ATOM     45  C35 UNL A   1      24.846  31.568  46.352  1.00  0.00    +0.000 C 
ATOM     46  F5  UNL A   1      25.790  31.380  47.286  1.00  0.00    +0.000 F 
ENDBRANCH   35   36
BRANCH   52   53
ATOM     53  C41 UNL A   1      31.165  35.015  43.249  1.00  0.00    +0.000 C 
ATOM     54  C42 UNL A   1      32.063  33.954  43.424  1.00  0.00    +0.000 C 
ATOM     55  F6  UNL A   1      32.098  33.283  44.585  1.00  0.00    +0.000 F 
ATOM     56  C43 UNL A   1      32.958  33.602  42.416  1.00  0.00    +0.000 C 
ATOM     57  F7  UNL A   1      33.839  32.612  42.621  1.00  0.00    +0.000 F 
ATOM     58  C44 UNL A   1      32.949  34.282  41.207  1.00  0.00    +0.000 C 
ATOM     59  F8  UNL A   1      33.807  33.937  40.238  1.00  0.00    +0.000 F 
ATOM     60  C45 UNL A   1      32.057  35.324  41.008  1.00  0.00    +0.000 C 
ATOM     61  F9  UNL A   1      32.039  35.975  39.836  1.00  0.00    +0.000 F 
ATOM     62  C46 UNL A   1      31.178  35.696  42.022  1.00  0.00    +0.000 C 
ATOM     63  F10 UNL A   1      30.334  36.715  41.804  1.00  0.00    +0.000 F 
ENDBRANCH   52   53
BRANCH   67   68
ATOM     68  C50 UNL A   1      31.200  40.009  48.102  1.00  0.00    +0.000 C 
ATOM     69  C51 UNL A   1      32.125  39.778  49.129  1.00  0.00    +0.000 C 
ATOM     70  F11 UNL A   1      32.113  38.612  49.790  1.00  0.00    +0.000 F 
ATOM     71  C52 UNL A   1      33.040  40.758  49.506  1.00  0.00    +0.000 C 
ATOM     72  F12 UNL A   1      33.887  40.526  50.520  1.00  0.00    +0.000 F 
ATOM     73  C53 UNL A   1      33.067  41.977  48.846  1.00  0.00    +0.000 C 
ATOM     74  F13 UNL A   1      33.950  42.917  49.206  1.00  0.00    +0.000 F 
ATOM     75  C54 UNL A   1      32.172  42.222  47.815  1.00  0.00    +0.000 C 
ATOM     76  F14 UNL A   1      32.203  43.393  47.165  1.00  0.00    +0.000 F 
ATOM     77  C55 UNL A   1      31.240  41.252  47.454  1.00  0.00    +0.000 C 
ATOM     78  F15 UNL A   1      30.379  41.518  46.460  1.00  0.00    +0.000 F 
ENDBRANCH   67   68
TORSDOF 21
ENDMDL
MODEL 2
REMARK VINA RESULT:      -7.2     40.617     49.670
ROOT
ATOM    129  H37 UNL A   1      50.507  22.495  12.421  1.00  0.00    +0.000 H 
ATOM    130  H38 UNL A   1      50.839  23.059  14.894  1.00  0.00    +0.000 H 
ATOM    131  H39 UNL A   1      60.284  19.654  14.488  1.00  0.00    +0.000 H 
ATOM    132  H40 UNL A   1      60.123  19.515  11.937  1.00  0.00    +0.000 H 
ATOM     31  C26 UNL A   1      57.525  20.098  10.919  1.00  0.00    +0.000 C 
ATOM     32  C27 UNL A   1      58.000  20.200  12.342  1.00  0.00    +0.000 C 
ATOM     33  N3  UNL A   1      57.340  20.574  13.410  1.00  0.00    +0.000 N 
ATOM     34  C28 UNL A   1      58.228  20.441  14.469  1.00  0.00    +0.000 C 
ATOM     35  C29 UNL A   1      58.037  20.750  15.774  1.00  0.00    +0.000 C 
ATOM     47  C36 UNL A   1      56.823  21.310  16.307  1.00  0.00    +0.000 C 
ATOM     48  C37 UNL A   1      56.560  21.725  17.601  1.00  0.00    +0.000 C 
ATOM     49  C38 UNL A   1      55.232  22.163  17.659  1.00  0.00    +0.000 C 
ATOM     50  C39 UNL A   1      54.681  22.059  16.393  1.00  0.00    +0.000 C 
ATOM     51  N4  UNL A   1      55.667  21.531  15.574  1.00  0.00    +0.000 N 
ATOM     52  C40 UNL A   1      53.355  22.413  15.959  1.00  0.00    +0.000 C 
ATOM     64  C47 UNL A   1      52.893  22.293  14.691  1.00  0.00    +0.000 C 
ATOM     65  N5  UNL A   1      53.555  21.826  13.563  1.00  0.00    +0.000 N 
ATOM     66  C48 UNL A   1      52.686  21.890  12.584  1.00  0.00    +0.000 C 
ATOM     67  C49 UNL A   1      52.863  21.536  11.134  1.00  0.00    +0.000 C 
ATOM     79  C56 UNL A   1      54.066  21.115  10.700  1.00  0.00    +0.000 C 
ATOM     80  C57 UNL A   1      54.390  20.748   9.325  1.00  0.00    +0.000 C 
ATOM     81  C58 UNL A   1      55.666  20.334   9.271  1.00  0.00    +0.000 C 
ATOM     82  C59 UNL A   1      56.260  20.436  10.604  1.00  0.00    +0.000 C 
ATOM     83  N6  UNL A   1      55.240  20.919  11.386  1.00  0.00    +0.000 N 
ATOM     84  C60 UNL A   1      51.362  22.384  12.988  1.00  0.00    +0.000 C 
ATOM     85  C61 UNL A   1      51.553  22.650  14.272  1.00  0.00    +0.000 C 
ATOM     86  C62 UNL A   1      59.459  19.913  13.924  1.00  0.00    +0.000 C 
ATOM     87  C63 UNL A   1      59.391  19.803  12.604  1.00  0.00    +0.000 C 
ATOM    123  H31 UNL A   1      57.228  21.715  18.388  1.00  0.00    +0.000 H 
ATOM    124  H32 UNL A   1      54.746  22.504  18.503  1.00  0.00    +0.000 H 
ATOM    125  H33 UNL A   1      55.562  21.342  14.613  1.00  0.00    +0.000 H 
ATOM    126  H34 UNL A   1      53.742  20.799   8.524  1.00  0.00    +0.000 H 
ATOM    127  H35 UNL A   1      56.151  19.997   8.424  1.00  0.00    +0.000 H 
ATOM    128  H36 UNL A   1      55.341  21.108  12.347  1.00  0.00    +0.000 H 
ENDROOT
BRANCH   31   30
ATOM    133  H41 UNL A   1      58.983  21.459   9.126  1.00  0.00    +0.000 H 
ATOM    134  H42 UNL A   1      60.406  20.600   7.363  1.00  0.00    +0.000 H 
ATOM     29  C24 UNL A   1      58.603  18.176   9.706  1.00  0.00    +0.000 C 
ATOM     88  C64 UNL A   1      59.108  20.441   9.017  1.00  0.00    +0.000 C 
ATOM     89  C65 UNL A   1      59.957  19.949   8.026  1.00  0.00    +0.000 C 
ATOM    122  H30 UNL A   1      58.071  17.517  10.295  1.00  0.00    +0.000 H 
ATOM     27  C22 UNL A   1      60.199  18.577   7.932  1.00  0.00    +0.000 C 
ATOM     28  C23 UNL A   1      59.500  17.687   8.753  1.00  0.00    +0.000 C 
ATOM    121  H29 UNL A   1      59.647  16.670   8.657  1.00  0.00    +0.000 H 
ATOM     30  C25 UNL A   1      58.421  19.559   9.865  1.00  0.00    +0.000 C 
BRANCH   27   25
ATOM     25  C21 UNL A   1      61.149  18.029   6.935  1.00  0.00    +0.000 C 
ATOM     26  O2  UNL A   1      62.170  18.649   6.667  1.00  0.00    +0.000 O 
BRANCH   25   24
ATOM    120  H28 UNL A   1      61.392  16.059   6.666  1.00  0.00    +0.000 H 
ATOM     24  N2  UNL A   1      60.892  16.831   6.313  1.00  0.00    +0.000 N 
BRANCH   24   23
ATOM    119  H27 UNL A   1      60.588  16.356   4.338  1.00  0.00    +0.000 H 
ATOM    118  H26 UNL A   1      59.338  17.368   5.066  1.00  0.00    +0.000 H 
ATOM     23  C20 UNL A   1      59.993  16.535   5.209  1.00  0.00    +0.000 C 
BRANCH   23   22
ATOM    116  H24 UNL A   1      58.831  14.898   4.527  1.00  0.00    +0.000 H 
ATOM    117  H25 UNL A   1      59.783  14.611   6.014  1.00  0.00    +0.000 H 
ATOM     22  C19 UNL A   1      59.153  15.286   5.471  1.00  0.00    +0.000 C 
BRANCH   22   21
ATOM    114  H22 UNL A   1      57.752  14.625   6.921  1.00  0.00    +0.000 H 
ATOM    115  H23 UNL A   1      58.121  16.381   6.927  1.00  0.00    +0.000 H 
ATOM     21  C18 UNL A   1      57.912  15.511   6.342  1.00  0.00    +0.000 C 
BRANCH   21   20
ATOM    113  H21 UNL A   1      55.817  15.467   6.206  1.00  0.00    +0.000 H 
ATOM     20  C17 UNL A   1      56.614  15.819   5.584  1.00  0.00    +0.000 C 
ATOM    112  H20 UNL A   1      56.663  15.333   4.632  1.00  0.00    +0.000 H 
BRANCH   20   19
ATOM     19  C16 UNL A   1      56.333  17.307   5.341  1.00  0.00    +0.000 C 
ATOM    110  H18 UNL A   1      56.285  17.800   6.290  1.00  0.00    +0.000 H 
ATOM    111  H19 UNL A   1      57.128  17.675   4.727  1.00  0.00    +0.000 H 
BRANCH   19   18
ATOM     18  C15 UNL A   1      55.029  17.579   4.590  1.00  0.00    +0.000 C 
ATOM    108  H16 UNL A   1      54.980  18.620   4.348  1.00  0.00    +0.000 H 
ATOM    109  H17 UNL A   1      55.024  16.976   3.706  1.00  0.00    +0.000 H 
BRANCH   18   17
ATOM     17  N1  UNL A   1      53.867  17.227   5.378  1.00  0.00    +0.000 N 
ATOM    107  H15 UNL A   1      53.365  16.451   5.041  1.00  0.00    +0.000 H 
BRANCH   17   15
ATOM     15  C14 UNL A   1      53.351  17.786   6.508  1.00  0.00    +0.000 C 
ATOM     16  O1  UNL A   1      53.324  19.022   6.547  1.00  0.00    +0.000 O 
BRANCH   15   13
ATOM     13  C12 UNL A   1      52.841  16.969   7.704  1.00  0.00    +0.000 C 
ATOM    103  H11 UNL A   1      52.867  15.947   7.386  1.00  0.00    +0.000 H 
BRANCH   13   12
ATOM    101  H9  UNL A   1      56.940  16.349   9.852  1.00  0.00    +0.000 H 
ATOM    102  H10 UNL A   1      55.562  16.499   7.880  1.00  0.00    +0.000 H 
ATOM    135  H43 UNL A   1      52.277  17.546  10.262  1.00  0.00    +0.000 H 
ATOM    136  H44 UNL A   1      53.694  17.555  12.212  1.00  0.00    +0.000 H 
ATOM      9  C8  UNL A   1      55.448  16.918  11.228  1.00  0.00    +0.000 C 
ATOM     10  C9  UNL A   1      55.949  16.620   9.951  1.00  0.00    +0.000 C 
ATOM     11  C10 UNL A   1      55.144  16.682   8.805  1.00  0.00    +0.000 C 
ATOM     12  C11 UNL A   1      53.784  16.988   8.896  1.00  0.00    +0.000 C 
ATOM     90  C66 UNL A   1      53.275  17.301  10.164  1.00  0.00    +0.000 C 
ATOM     91  C67 UNL A   1      54.094  17.287  11.300  1.00  0.00    +0.000 C 
BRANCH    9    8
ATOM     98  H6  UNL A   1      58.564  16.634  15.569  1.00  0.00    +0.000 H 
ATOM     99  H7  UNL A   1      56.376  17.667  15.708  1.00  0.00    +0.000 H 
ATOM      4  C3  UNL A   1      58.403  16.152  13.522  1.00  0.00    +0.000 C 
ATOM      5  C4  UNL A   1      57.961  16.681  14.733  1.00  0.00    +0.000 C 
ATOM      6  C5  UNL A   1      56.703  17.273  14.813  1.00  0.00    +0.000 C 
ATOM      7  C6  UNL A   1      55.884  17.335  13.681  1.00  0.00    +0.000 C 
ATOM      8  C7  UNL A   1      56.301  16.822  12.439  1.00  0.00    +0.000 C 
ATOM    137  H45 UNL A   1      57.909  15.825  11.502  1.00  0.00    +0.000 H 
ATOM    100  H8  UNL A   1      54.951  17.768  13.759  1.00  0.00    +0.000 H 
ATOM     92  C68 UNL A   1      57.576  16.223  12.393  1.00  0.00    +0.000 C 
BRANCH    4    3
ATOM      3  S1  UNL A   1      59.974  15.316  13.432  1.00  0.00    +0.000 S 
BRANCH    3    2
ATOM     97  H5  UNL A   1      59.896  16.668  11.476  1.00  0.00    +0.000 H 
ATOM      2  C2  UNL A   1      60.647  16.029  11.893  1.00  0.00    +0.000 C 
ATOM     96  H4  UNL A   1      60.900  15.231  11.227  1.00  0.00    +0.000 H 
BRANCH    2    1
ATOM      1  C1  UNL A   1      61.886  16.874  12.134  1.00  0.00    +0.000 C 
ATOM     93  H1  UNL A   1      62.607  16.675  11.368  1.00  0.00    +0.000 H 
ATOM     94  H2  UNL A   1      62.304  16.631  13.088  1.00  0.00    +0.000 H 
ATOM     95  H3  UNL A   1      61.621  17.910  12.113  1.00  0.00    +0.000 H 
ENDBRANCH    2    1
ENDBRANCH    3    2
ENDBRANCH    4    3
ENDBRANCH    9    8
ENDBRANCH   13   12
BRANCH   13   14
ATOM    105  H13 UNL A   1      51.135  18.212   8.049  1.00  0.00    +0.000 H 
ATOM    106  H14 UNL A   1      51.129  16.724   8.964  1.00  0.00    +0.000 H 
ATOM     14  C13 UNL A   1      51.356  17.165   8.017  1.00  0.00    +0.000 C 
ATOM    104  H12 UNL A   1      50.767  16.699   7.255  1.00  0.00    +0.000 H 
ENDBRANCH   13   14
ENDBRANCH   15   13
ENDBRANCH   17   15
ENDBRANCH   18   17
ENDBRANCH   19   18
ENDBRANCH   20   19
ENDBRANCH   21   20
ENDBRANCH   22   21
ENDBRANCH   23   22
ENDBRANCH   24   23
ENDBRANCH   25   24
ENDBRANCH   27   25
ENDBRANCH   31   30
BRANCH   35   36
ATOM     36  C30 UNL A   1      59.173  20.496  16.722  1.00  0.00    +0.000 C 
ATOM     37  C31 UNL A   1      60.249  21.389  16.835  1.00  0.00    +0.000 C 
ATOM     38  F1  UNL A   1      60.312  22.473  16.049  1.00  0.00    +0.000 F 
ATOM     39  C32 UNL A   1      61.284  21.152  17.736  1.00  0.00    +0.000 C 
ATOM     40  F2  UNL A   1      62.323  21.997  17.797  1.00  0.00    +0.000 F 
ATOM     41  C33 UNL A   1      61.248  20.039  18.562  1.00  0.00    +0.000 C 
ATOM     42  F3  UNL A   1      62.240  19.816  19.434  1.00  0.00    +0.000 F 
ATOM     43  C34 UNL A   1      60.184  19.152  18.480  1.00  0.00    +0.000 C 
ATOM     44  F4  UNL A   1      60.142  18.082  19.285  1.00  0.00    +0.000 F 
ATOM     45  C35 UNL A   1      59.161  19.371  17.561  1.00  0.00    +0.000 C 
ATOM     46  F5  UNL A   1      58.152  18.490  17.497  1.00  0.00    +0.000 F 
ENDBRANCH   35   36
BRANCH   52   53
ATOM     53  C41 UNL A   1      52.412  22.978  16.980  1.00  0.00    +0.000 C 
ATOM     54  C42 UNL A   1      52.233  24.361  17.126  1.00  0.00    +0.000 C 
ATOM     55  F6  UNL A   1      52.948  25.217  16.382  1.00  0.00    +0.000 F 
ATOM     56  C43 UNL A   1      51.342  24.870  18.068  1.00  0.00    +0.000 C 
ATOM     57  F7  UNL A   1      51.218  26.196  18.222  1.00  0.00    +0.000 F 
ATOM     58  C44 UNL A   1      50.593  24.008  18.857  1.00  0.00    +0.000 C 
ATOM     59  F8  UNL A   1      49.733  24.501  19.757  1.00  0.00    +0.000 F 
ATOM     60  C45 UNL A   1      50.743  22.638  18.716  1.00  0.00    +0.000 C 
ATOM     61  F9  UNL A   1      50.013  21.803  19.469  1.00  0.00    +0.000 F 
ATOM     62  C46 UNL A   1      51.652  22.125  17.794  1.00  0.00    +0.000 C 
ATOM     63  F10 UNL A   1      51.784  20.795  17.688  1.00  0.00    +0.000 F 
ENDBRANCH   52   53
BRANCH   67   68
ATOM     68  C50 UNL A   1      51.738  21.671  10.174  1.00  0.00    +0.000 C 
ATOM     69  C51 UNL A   1      51.467  22.898   9.553  1.00  0.00    +0.000 C 
ATOM     70  F11 UNL A   1      52.215  23.973   9.842  1.00  0.00    +0.000 F 
ATOM     71  C52 UNL A   1      50.403  23.034   8.664  1.00  0.00    +0.000 C 
ATOM     72  F12 UNL A   1      50.141  24.229   8.115  1.00  0.00    +0.000 F 
ATOM     73  C53 UNL A   1      49.608  21.941   8.356  1.00  0.00    +0.000 C 
ATOM     74  F13 UNL A   1      48.589  22.071   7.498  1.00  0.00    +0.000 F 
ATOM     75  C54 UNL A   1      49.868  20.712   8.946  1.00  0.00    +0.000 C 
ATOM     76  F14 UNL A   1      49.111  19.650   8.642  1.00  0.00    +0.000 F 
ATOM     77  C55 UNL A   1      50.916  20.581   9.855  1.00  0.00    +0.000 C 
ATOM     78  F15 UNL A   1      51.139  19.384  10.418  1.00  0.00    +0.000 F 
ENDBRANCH   67   68
TORSDOF 21
ENDMDL
MODEL 3
REMARK VINA RESULT:      -7.1      6.617     12.011
ROOT
ATOM    129  H37 UNL A   1      33.344  37.433  43.727  1.00  0.00    +0.000 H 
ATOM    130  H38 UNL A   1      33.918  39.345  45.327  1.00  0.00    +0.000 H 
ATOM    131  H39 UNL A   1      24.358  39.759  48.395  1.00  0.00    +0.000 H 
ATOM    132  H40 UNL A   1      23.868  37.571  47.159  1.00  0.00    +0.000 H 
ATOM     31  C26 UNL A   1      26.061  36.615  45.608  1.00  0.00    +0.000 C 
ATOM     32  C27 UNL A   1      26.039  37.793  46.542  1.00  0.00    +0.000 C 
ATOM     33  N3  UNL A   1      27.003  38.625  46.847  1.00  0.00    +0.000 N 
ATOM     34  C28 UNL A   1      26.442  39.553  47.715  1.00  0.00    +0.000 C 
ATOM     35  C29 UNL A   1      27.045  40.586  48.350  1.00  0.00    +0.000 C 
ATOM     47  C36 UNL A   1      28.444  40.905  48.237  1.00  0.00    +0.000 C 
ATOM     48  C37 UNL A   1      29.162  41.886  48.898  1.00  0.00    +0.000 C 
ATOM     49  C38 UNL A   1      30.483  41.848  48.439  1.00  0.00    +0.000 C 
ATOM     50  C39 UNL A   1      30.598  40.815  47.522  1.00  0.00    +0.000 C 
ATOM     51  N4  UNL A   1      29.338  40.248  47.405  1.00  0.00    +0.000 N 
ATOM     52  C40 UNL A   1      31.767  40.378  46.805  1.00  0.00    +0.000 C 
ATOM     64  C47 UNL A   1      31.800  39.345  45.929  1.00  0.00    +0.000 C 
ATOM     65  N5  UNL A   1      30.769  38.501  45.536  1.00  0.00    +0.000 N 
ATOM     66  C48 UNL A   1      31.294  37.674  44.665  1.00  0.00    +0.000 C 
ATOM     67  C49 UNL A   1      30.646  36.533  43.931  1.00  0.00    +0.000 C 
ATOM     79  C56 UNL A   1      29.354  36.242  44.175  1.00  0.00    +0.000 C 
ATOM     80  C57 UNL A   1      28.598  35.161  43.549  1.00  0.00    +0.000 C 
ATOM     81  C58 UNL A   1      27.332  35.197  43.996  1.00  0.00    +0.000 C 
ATOM     82  C59 UNL A   1      27.196  36.286  44.964  1.00  0.00    +0.000 C 
ATOM     83  N6  UNL A   1      28.449  36.844  45.015  1.00  0.00    +0.000 N 
ATOM     84  C60 UNL A   1      32.717  37.917  44.388  1.00  0.00    +0.000 C 
ATOM     85  C61 UNL A   1      32.985  38.920  45.212  1.00  0.00    +0.000 C 
ATOM     86  C62 UNL A   1      25.044  39.208  47.855  1.00  0.00    +0.000 C 
ATOM     87  C63 UNL A   1      24.758  38.092  47.199  1.00  0.00    +0.000 C 
ATOM    123  H31 UNL A   1      28.788  42.535  49.609  1.00  0.00    +0.000 H 
ATOM    124  H32 UNL A   1      31.243  42.481  48.733  1.00  0.00    +0.000 H 
ATOM    125  H33 UNL A   1      29.113  39.489  46.819  1.00  0.00    +0.000 H 
ATOM    126  H34 UNL A   1      28.976  34.480  42.873  1.00  0.00    +0.000 H 
ATOM    127  H35 UNL A   1      26.576  34.558  43.703  1.00  0.00    +0.000 H 
ATOM    128  H36 UNL A   1      28.678  37.602  45.599  1.00  0.00    +0.000 H 
ENDROOT
BRANCH   31   30
ATOM    133  H41 UNL A   1      25.210  34.356  46.777  1.00  0.00    +0.000 H 
ATOM    134  H42 UNL A   1      23.215  33.063  46.307  1.00  0.00    +0.000 H 
ATOM     29  C24 UNL A   1      23.900  36.284  44.362  1.00  0.00    +0.000 C 
ATOM     88  C64 UNL A   1      24.544  34.682  46.060  1.00  0.00    +0.000 C 
ATOM     89  C65 UNL A   1      23.377  33.957  45.817  1.00  0.00    +0.000 C 
ATOM    122  H30 UNL A   1      24.110  37.118  43.793  1.00  0.00    +0.000 H 
ATOM     27  C22 UNL A   1      22.429  34.442  44.912  1.00  0.00    +0.000 C 
ATOM     28  C23 UNL A   1      22.704  35.590  44.164  1.00  0.00    +0.000 C 
ATOM    121  H29 UNL A   1      22.022  35.926  43.465  1.00  0.00    +0.000 H 
ATOM     30  C25 UNL A   1      24.817  35.851  45.333  1.00  0.00    +0.000 C 
BRANCH   27   25
ATOM     25  C21 UNL A   1      21.150  33.731  44.684  1.00  0.00    +0.000 C 
ATOM     26  O2  UNL A   1      20.097  34.356  44.704  1.00  0.00    +0.000 O 
BRANCH   25   24
ATOM    120  H28 UNL A   1      21.954  31.897  44.714  1.00  0.00    +0.000 H 
ATOM     24  N2  UNL A   1      21.137  32.377  44.446  1.00  0.00    +0.000 N 
BRANCH   24   23
ATOM    119  H27 UNL A   1      20.570  30.755  43.320  1.00  0.00    +0.000 H 
ATOM    118  H26 UNL A   1      19.501  32.156  43.207  1.00  0.00    +0.000 H 
ATOM     23  C20 UNL A   1      20.096  31.550  43.857  1.00  0.00    +0.000 C 
BRANCH   23   22
ATOM    116  H24 UNL A   1      19.082  29.886  44.692  1.00  0.00    +0.000 H 
ATOM    117  H25 UNL A   1      19.662  31.110  45.860  1.00  0.00    +0.000 H 
ATOM     22  C19 UNL A   1      19.190  30.927  44.917  1.00  0.00    +0.000 C 
BRANCH   22   21
ATOM    114  H22 UNL A   1      17.087  30.739  45.124  1.00  0.00    +0.000 H 
ATOM    115  H23 UNL A   1      17.819  32.209  45.846  1.00  0.00    +0.000 H 
ATOM     21  C18 UNL A   1      17.788  31.539  45.013  1.00  0.00    +0.000 C 
BRANCH   21   20
ATOM    113  H21 UNL A   1      17.899  32.019  42.972  1.00  0.00    +0.000 H 
ATOM     20  C17 UNL A   1      17.348  32.388  43.812  1.00  0.00    +0.000 C 
ATOM    112  H20 UNL A   1      17.550  33.413  44.041  1.00  0.00    +0.000 H 
BRANCH   20   19
ATOM     19  C16 UNL A   1      15.867  32.270  43.432  1.00  0.00    +0.000 C 
ATOM    110  H18 UNL A   1      15.320  31.965  44.299  1.00  0.00    +0.000 H 
ATOM    111  H19 UNL A   1      15.564  33.230  43.071  1.00  0.00    +0.000 H 
BRANCH   19   18
ATOM     18  C15 UNL A   1      15.592  31.267  42.311  1.00  0.00    +0.000 C 
ATOM    108  H16 UNL A   1      14.824  31.660  41.677  1.00  0.00    +0.000 H 
ATOM    109  H17 UNL A   1      16.502  31.117  41.768  1.00  0.00    +0.000 H 
BRANCH   18   17
ATOM     17  N1  UNL A   1      15.162  29.984  42.825  1.00  0.00    +0.000 N 
ATOM    107  H15 UNL A   1      14.198  29.922  43.012  1.00  0.00    +0.000 H 
BRANCH   17   15
ATOM     15  C14 UNL A   1      15.863  28.849  43.094  1.00  0.00    +0.000 C 
ATOM     16  O1  UNL A   1      17.069  28.867  42.815  1.00  0.00    +0.000 O 
BRANCH   15   13
ATOM     13  C12 UNL A   1      15.233  27.579  43.686  1.00  0.00    +0.000 C 
ATOM    103  H11 UNL A   1      14.217  27.838  43.904  1.00  0.00    +0.000 H 
BRANCH   13   12
ATOM    101  H9  UNL A   1      14.601  25.765  39.430  1.00  0.00    +0.000 H 
ATOM    102  H10 UNL A   1      15.022  27.607  40.927  1.00  0.00    +0.000 H 
ATOM    135  H43 UNL A   1      15.193  24.938  44.153  1.00  0.00    +0.000 H 
ATOM    136  H44 UNL A   1      14.935  23.085  42.633  1.00  0.00    +0.000 H 
ATOM      9  C8  UNL A   1      14.707  24.247  40.887  1.00  0.00    +0.000 C 
ATOM     10  C9  UNL A   1      14.741  25.575  40.435  1.00  0.00    +0.000 C 
ATOM     11  C10 UNL A   1      14.960  26.650  41.306  1.00  0.00    +0.000 C 
ATOM     12  C11 UNL A   1      15.097  26.446  42.681  1.00  0.00    +0.000 C 
ATOM     90  C66 UNL A   1      15.079  25.123  43.144  1.00  0.00    +0.000 C 
ATOM     91  C67 UNL A   1      14.910  24.047  42.263  1.00  0.00    +0.000 C 
BRANCH    9    8
ATOM     98  H6  UNL A   1      13.704  20.208  37.522  1.00  0.00    +0.000 H 
ATOM     99  H7  UNL A   1      15.347  21.893  36.944  1.00  0.00    +0.000 H 
ATOM      4  C3  UNL A   1      13.224  21.061  39.391  1.00  0.00    +0.000 C 
ATOM      5  C4  UNL A   1      13.902  20.982  38.175  1.00  0.00    +0.000 C 
ATOM      6  C5  UNL A   1      14.847  21.950  37.844  1.00  0.00    +0.000 C 
ATOM      7  C6  UNL A   1      15.119  22.997  38.730  1.00  0.00    +0.000 C 
ATOM      8  C7  UNL A   1      14.446  23.116  39.960  1.00  0.00    +0.000 C 
ATOM    137  H45 UNL A   1      12.998  22.167  41.168  1.00  0.00    +0.000 H 
ATOM    100  H8  UNL A   1      15.829  23.700  38.475  1.00  0.00    +0.000 H 
ATOM     92  C68 UNL A   1      13.501  22.118  40.269  1.00  0.00    +0.000 C 
BRANCH    4    3
ATOM      3  S1  UNL A   1      12.076  19.782  39.860  1.00  0.00    +0.000 S 
BRANCH    3    2
ATOM     97  H5  UNL A   1      11.503  21.233  41.655  1.00  0.00    +0.000 H 
ATOM      2  C2  UNL A   1      11.799  20.204  41.612  1.00  0.00    +0.000 C 
ATOM     96  H4  UNL A   1      12.705  20.032  42.154  1.00  0.00    +0.000 H 
BRANCH    2    1
ATOM      1  C1  UNL A   1      10.690  19.381  42.243  1.00  0.00    +0.000 C 
ATOM     93  H1  UNL A   1      10.308  18.686  41.524  1.00  0.00    +0.000 H 
ATOM     94  H2  UNL A   1       9.902  20.030  42.564  1.00  0.00    +0.000 H 
ATOM     95  H3  UNL A   1      11.077  18.847  43.085  1.00  0.00    +0.000 H 
ENDBRANCH    2    1
ENDBRANCH    3    2
ENDBRANCH    4    3
ENDBRANCH    9    8
ENDBRANCH   13   12
BRANCH   13   14
ATOM    105  H13 UNL A   1      15.451  27.923  45.785  1.00  0.00    +0.000 H 
ATOM    106  H14 UNL A   1      16.834  27.157  45.041  1.00  0.00    +0.000 H 
ATOM     14  C13 UNL A   1      15.765  27.194  45.067  1.00  0.00    +0.000 C 
ATOM    104  H12 UNL A   1      15.381  26.235  45.343  1.00  0.00    +0.000 H 
ENDBRANCH   13   14
ENDBRANCH   15   13
ENDBRANCH   17   15
ENDBRANCH   18   17
ENDBRANCH   19   18
ENDBRANCH   20   19
ENDBRANCH   21   20
ENDBRANCH   22   21
ENDBRANCH   23   22
ENDBRANCH   24   23
ENDBRANCH   25   24
ENDBRANCH   27   25
ENDBRANCH   31   30
BRANCH   35   36
ATOM     36  C30 UNL A   1      26.194  41.450  49.235  1.00  0.00    +0.000 C 
ATOM     37  C31 UNL A   1      25.965  41.124  50.579  1.00  0.00    +0.000 C 
ATOM     38  F1  UNL A   1      26.464  39.990  51.093  1.00  0.00    +0.000 F 
ATOM     39  C32 UNL A   1      25.193  41.947  51.395  1.00  0.00    +0.000 C 
ATOM     40  F2  UNL A   1      24.953  41.595  52.665  1.00  0.00    +0.000 F 
ATOM     41  C33 UNL A   1      24.663  43.126  50.892  1.00  0.00    +0.000 C 
ATOM     42  F3  UNL A   1      23.926  43.922  51.679  1.00  0.00    +0.000 F 
ATOM     43  C34 UNL A   1      24.891  43.478  49.569  1.00  0.00    +0.000 C 
ATOM     44  F4  UNL A   1      24.389  44.621  49.085  1.00  0.00    +0.000 F 
ATOM     45  C35 UNL A   1      25.641  42.643  48.744  1.00  0.00    +0.000 C 
ATOM     46  F5  UNL A   1      25.834  43.004  47.467  1.00  0.00    +0.000 F 
ENDBRANCH   35   36
BRANCH   52   53
ATOM     53  C41 UNL A   1      33.055  41.105  47.056  1.00  0.00    +0.000 C 
ATOM     54  C42 UNL A   1      34.015  40.607  47.948  1.00  0.00    +0.000 C 
ATOM     55  F6  UNL A   1      33.775  39.485  48.641  1.00  0.00    +0.000 F 
ATOM     56  C43 UNL A   1      35.213  41.285  48.158  1.00  0.00    +0.000 C 
ATOM     57  F7  UNL A   1      36.099  40.816  49.048  1.00  0.00    +0.000 F 
ATOM     58  C44 UNL A   1      35.486  42.453  47.460  1.00  0.00    +0.000 C 
ATOM     59  F8  UNL A   1      36.641  43.099  47.660  1.00  0.00    +0.000 F 
ATOM     60  C45 UNL A   1      34.557  42.952  46.561  1.00  0.00    +0.000 C 
ATOM     61  F9  UNL A   1      34.822  44.074  45.876  1.00  0.00    +0.000 F 
ATOM     62  C46 UNL A   1      33.346  42.291  46.367  1.00  0.00    +0.000 C 
ATOM     63  F10 UNL A   1      32.462  42.804  45.499  1.00  0.00    +0.000 F 
ENDBRANCH   52   53
BRANCH   67   68
ATOM     68  C50 UNL A   1      31.419  35.712  42.965  1.00  0.00    +0.000 C 
ATOM     69  C51 UNL A   1      31.490  36.073  41.612  1.00  0.00    +0.000 C 
ATOM     70  F11 UNL A   1      30.837  37.158  41.174  1.00  0.00    +0.000 F 
ATOM     71  C52 UNL A   1      32.201  35.297  40.699  1.00  0.00    +0.000 C 
ATOM     72  F12 UNL A   1      32.219  35.642  39.403  1.00  0.00    +0.000 F 
ATOM     73  C53 UNL A   1      32.876  34.164  41.123  1.00  0.00    +0.000 C 
ATOM     74  F13 UNL A   1      33.562  33.422  40.245  1.00  0.00    +0.000 F 
ATOM     75  C54 UNL A   1      32.833  33.797  42.461  1.00  0.00    +0.000 C 
ATOM     76  F14 UNL A   1      33.495  32.709  42.878  1.00  0.00    +0.000 F 
ATOM     77  C55 UNL A   1      32.102  34.557  43.371  1.00  0.00    +0.000 C 
ATOM     78  F15 UNL A   1      32.069  34.174  44.656  1.00  0.00    +0.000 F 
ENDBRANCH   67   68
TORSDOF 21
ENDMDL
MODEL 4
REMARK VINA RESULT:      -7.0     32.258     38.710
ROOT
ATOM    129  H37 UNL A   1      49.894  57.448  16.413  1.00  0.00    +0.000 H 
ATOM    130  H38 UNL A   1      51.919  57.179  17.953  1.00  0.00    +0.000 H 
ATOM    131  H39 UNL A   1      48.210  48.524  21.460  1.00  0.00    +0.000 H 
ATOM    132  H40 UNL A   1      46.433  48.540  19.617  1.00  0.00    +0.000 H 
ATOM     31  C26 UNL A   1      46.443  50.912  18.036  1.00  0.00    +0.000 C 
ATOM     32  C27 UNL A   1      47.415  50.521  19.114  1.00  0.00    +0.000 C 
ATOM     33  N3  UNL A   1      48.463  51.169  19.558  1.00  0.00    +0.000 N 
ATOM     34  C28 UNL A   1      48.981  50.393  20.587  1.00  0.00    +0.000 C 
ATOM     35  C29 UNL A   1      50.092  50.608  21.330  1.00  0.00    +0.000 C 
ATOM     47  C36 UNL A   1      50.978  51.730  21.160  1.00  0.00    +0.000 C 
ATOM     48  C37 UNL A   1      52.169  51.996  21.814  1.00  0.00    +0.000 C 
ATOM     49  C38 UNL A   1      52.660  53.221  21.348  1.00  0.00    +0.000 C 
ATOM     50  C39 UNL A   1      51.798  53.697  20.374  1.00  0.00    +0.000 C 
ATOM     51  N4  UNL A   1      50.768  52.774  20.272  1.00  0.00    +0.000 N 
ATOM     52  C40 UNL A   1      51.902  54.903  19.595  1.00  0.00    +0.000 C 
ATOM     64  C47 UNL A   1      51.017  55.295  18.647  1.00  0.00    +0.000 C 
ATOM     65  N5  UNL A   1      49.860  54.658  18.218  1.00  0.00    +0.000 N 
ATOM     66  C48 UNL A   1      49.343  55.434  17.297  1.00  0.00    +0.000 C 
ATOM     67  C49 UNL A   1      48.102  55.230  16.472  1.00  0.00    +0.000 C 
ATOM     79  C56 UNL A   1      47.387  54.100  16.626  1.00  0.00    +0.000 C 
ATOM     80  C57 UNL A   1      46.172  53.761  15.891  1.00  0.00    +0.000 C 
ATOM     81  C58 UNL A   1      45.706  52.583  16.335  1.00  0.00    +0.000 C 
ATOM     82  C59 UNL A   1      46.607  52.070  17.367  1.00  0.00    +0.000 C 
ATOM     83  N6  UNL A   1      47.582  53.031  17.465  1.00  0.00    +0.000 N 
ATOM     84  C60 UNL A   1      50.104  56.667  17.054  1.00  0.00    +0.000 C 
ATOM     85  C61 UNL A   1      51.134  56.514  17.874  1.00  0.00    +0.000 C 
ATOM     86  C62 UNL A   1      48.108  49.248  20.731  1.00  0.00    +0.000 C 
ATOM     87  C63 UNL A   1      47.160  49.248  19.804  1.00  0.00    +0.000 C 
ATOM    123  H31 UNL A   1      52.618  51.395  22.522  1.00  0.00    +0.000 H 
ATOM    124  H32 UNL A   1      53.520  53.689  21.675  1.00  0.00    +0.000 H 
ATOM    125  H33 UNL A   1      50.002  52.848  19.658  1.00  0.00    +0.000 H 
ATOM    126  H34 UNL A   1      45.742  54.334  15.148  1.00  0.00    +0.000 H 
ATOM    127  H35 UNL A   1      44.848  52.114  16.002  1.00  0.00    +0.000 H 
ATOM    128  H36 UNL A   1      48.349  52.960  18.079  1.00  0.00    +0.000 H 
ENDROOT
BRANCH   31   30
ATOM    133  H41 UNL A   1      43.970  51.124  19.050  1.00  0.00    +0.000 H 
ATOM    134  H42 UNL A   1      42.037  49.719  18.642  1.00  0.00    +0.000 H 
ATOM     29  C24 UNL A   1      45.333  48.995  16.844  1.00  0.00    +0.000 C 
ATOM     88  C64 UNL A   1      44.036  50.339  18.384  1.00  0.00    +0.000 C 
ATOM     89  C65 UNL A   1      42.914  49.555  18.122  1.00  0.00    +0.000 C 
ATOM    122  H30 UNL A   1      46.236  48.758  16.404  1.00  0.00    +0.000 H 
ATOM     27  C22 UNL A   1      42.975  48.548  17.155  1.00  0.00    +0.000 C 
ATOM     28  C23 UNL A   1      44.193  48.249  16.536  1.00  0.00    +0.000 C 
ATOM    121  H29 UNL A   1      44.249  47.478  15.852  1.00  0.00    +0.000 H 
ATOM     30  C25 UNL A   1      45.258  50.065  17.750  1.00  0.00    +0.000 C 
BRANCH   27   25
ATOM     25  C21 UNL A   1      41.781  47.744  16.804  1.00  0.00    +0.000 C 
ATOM     26  O2  UNL A   1      40.741  48.309  16.492  1.00  0.00    +0.000 O 
BRANCH   25   24
ATOM    120  H28 UNL A   1      42.161  45.952  15.993  1.00  0.00    +0.000 H 
ATOM     24  N2  UNL A   1      41.836  46.371  16.823  1.00  0.00    +0.000 N 
BRANCH   24   23
ATOM    119  H27 UNL A   1      40.540  45.004  17.642  1.00  0.00    +0.000 H 
ATOM    118  H26 UNL A   1      41.430  45.985  18.810  1.00  0.00    +0.000 H 
ATOM     23  C20 UNL A   1      41.483  45.445  17.888  1.00  0.00    +0.000 C 
BRANCH   23   22
ATOM    116  H24 UNL A   1      42.003  43.390  17.871  1.00  0.00    +0.000 H 
ATOM    117  H25 UNL A   1      43.273  44.519  17.314  1.00  0.00    +0.000 H 
ATOM     22  C19 UNL A   1      42.506  44.320  18.033  1.00  0.00    +0.000 C 
BRANCH   22   21
ATOM    114  H22 UNL A   1      44.260  44.245  19.225  1.00  0.00    +0.000 H 
ATOM    115  H23 UNL A   1      42.857  45.101  19.944  1.00  0.00    +0.000 H 
ATOM     21  C18 UNL A   1      43.204  44.251  19.396  1.00  0.00    +0.000 C 
BRANCH   21   20
ATOM    113  H21 UNL A   1      43.677  42.907  20.940  1.00  0.00    +0.000 H 
ATOM     20  C17 UNL A   1      42.860  43.030  20.259  1.00  0.00    +0.000 C 
ATOM    112  H20 UNL A   1      42.716  42.194  19.607  1.00  0.00    +0.000 H 
BRANCH   20   19
ATOM     19  C16 UNL A   1      41.604  43.173  21.129  1.00  0.00    +0.000 C 
ATOM    110  H18 UNL A   1      41.385  44.214  21.233  1.00  0.00    +0.000 H 
ATOM    111  H19 UNL A   1      40.823  42.635  20.634  1.00  0.00    +0.000 H 
BRANCH   19   18
ATOM     18  C15 UNL A   1      41.744  42.568  22.526  1.00  0.00    +0.000 C 
ATOM    108  H16 UNL A   1      40.770  42.474  22.961  1.00  0.00    +0.000 H 
ATOM    109  H17 UNL A   1      42.217  41.613  22.429  1.00  0.00    +0.000 H 
BRANCH   18   17
ATOM     17  N1  UNL A   1      42.565  43.387  23.391  1.00  0.00    +0.000 N 
ATOM    107  H15 UNL A   1      42.377  44.351  23.341  1.00  0.00    +0.000 H 
BRANCH   17   15
ATOM     15  C14 UNL A   1      43.554  43.051  24.265  1.00  0.00    +0.000 C 
ATOM     16  O1  UNL A   1      43.298  42.140  25.063  1.00  0.00    +0.000 O 
BRANCH   15   13
ATOM     13  C12 UNL A   1      44.921  43.751  24.314  1.00  0.00    +0.000 C 
ATOM    103  H11 UNL A   1      45.617  43.002  24.628  1.00  0.00    +0.000 H 
BRANCH   13   12
ATOM    101  H9  UNL A   1      47.067  43.034  20.229  1.00  0.00    +0.000 H 
ATOM    102  H10 UNL A   1      46.081  42.264  22.290  1.00  0.00    +0.000 H 
ATOM    135  H43 UNL A   1      44.892  46.182  23.179  1.00  0.00    +0.000 H 
ATOM    136  H44 UNL A   1      45.733  46.921  21.044  1.00  0.00    +0.000 H 
ATOM      9  C8  UNL A   1      46.514  45.056  20.444  1.00  0.00    +0.000 C 
ATOM     10  C9  UNL A   1      46.592  43.713  20.845  1.00  0.00    +0.000 C 
ATOM     11  C10 UNL A   1      46.042  43.267  22.054  1.00  0.00    +0.000 C 
ATOM     12  C11 UNL A   1      45.441  44.159  22.944  1.00  0.00    +0.000 C 
ATOM     90  C66 UNL A   1      45.344  45.500  22.550  1.00  0.00    +0.000 C 
ATOM     91  C67 UNL A   1      45.850  45.933  21.317  1.00  0.00    +0.000 C 
BRANCH    9    8
ATOM     98  H6  UNL A   1      48.747  46.679  15.859  1.00  0.00    +0.000 H 
ATOM     99  H7  UNL A   1      46.451  45.904  15.886  1.00  0.00    +0.000 H 
ATOM      4  C3  UNL A   1      49.052  46.404  17.929  1.00  0.00    +0.000 C 
ATOM      5  C4  UNL A   1      48.315  46.374  16.745  1.00  0.00    +0.000 C 
ATOM      6  C5  UNL A   1      46.995  45.930  16.762  1.00  0.00    +0.000 C 
ATOM      7  C6  UNL A   1      46.408  45.518  17.962  1.00  0.00    +0.000 C 
ATOM      8  C7  UNL A   1      47.124  45.525  19.174  1.00  0.00    +0.000 C 
ATOM    137  H45 UNL A   1      49.005  46.016  19.997  1.00  0.00    +0.000 H 
ATOM    100  H8  UNL A   1      45.426  45.203  17.960  1.00  0.00    +0.000 H 
ATOM     92  C68 UNL A   1      48.454  45.985  19.126  1.00  0.00    +0.000 C 
BRANCH    4    3
ATOM      3  S1  UNL A   1      50.712  47.051  17.932  1.00  0.00    +0.000 S 
BRANCH    3    2
ATOM     97  H5  UNL A   1      49.459  49.070  17.823  1.00  0.00    +0.000 H 
ATOM      2  C2  UNL A   1      50.403  48.773  17.415  1.00  0.00    +0.000 C 
ATOM     96  H4  UNL A   1      50.401  48.815  16.346  1.00  0.00    +0.000 H 
BRANCH    2    1
ATOM      1  C1  UNL A   1      51.453  49.737  17.938  1.00  0.00    +0.000 C 
ATOM     93  H1  UNL A   1      52.363  49.605  17.389  1.00  0.00    +0.000 H 
ATOM     94  H2  UNL A   1      51.632  49.542  18.975  1.00  0.00    +0.000 H 
ATOM     95  H3  UNL A   1      51.107  50.742  17.819  1.00  0.00    +0.000 H 
ENDBRANCH    2    1
ENDBRANCH    3    2
ENDBRANCH    4    3
ENDBRANCH    9    8
ENDBRANCH   13   12
BRANCH   13   14
ATOM    105  H13 UNL A   1      45.993  44.662  25.924  1.00  0.00    +0.000 H 
ATOM    106  H14 UNL A   1      44.258  44.677  26.125  1.00  0.00    +0.000 H 
ATOM     14  C13 UNL A   1      45.057  44.795  25.424  1.00  0.00    +0.000 C 
ATOM    104  H12 UNL A   1      45.016  45.776  24.998  1.00  0.00    +0.000 H 
ENDBRANCH   13   14
ENDBRANCH   15   13
ENDBRANCH   17   15
ENDBRANCH   18   17
ENDBRANCH   19   18
ENDBRANCH   20   19
ENDBRANCH   21   20
ENDBRANCH   22   21
ENDBRANCH   23   22
ENDBRANCH   24   23
ENDBRANCH   25   24
ENDBRANCH   27   25
ENDBRANCH   31   30
BRANCH   35   36
ATOM     36  C30 UNL A   1      50.422  49.604  22.396  1.00  0.00    +0.000 C 
ATOM     37  C31 UNL A   1      51.232  48.490  22.130  1.00  0.00    +0.000 C 
ATOM     38  F1  UNL A   1      51.688  48.268  20.889  1.00  0.00    +0.000 F 
ATOM     39  C32 UNL A   1      51.549  47.579  23.135  1.00  0.00    +0.000 C 
ATOM     40  F2  UNL A   1      52.290  46.499  22.848  1.00  0.00    +0.000 F 
ATOM     41  C33 UNL A   1      51.091  47.781  24.427  1.00  0.00    +0.000 C 
ATOM     42  F3  UNL A   1      51.403  46.908  25.396  1.00  0.00    +0.000 F 
ATOM     43  C34 UNL A   1      50.303  48.886  24.717  1.00  0.00    +0.000 C 
ATOM     44  F4  UNL A   1      49.869  49.088  25.968  1.00  0.00    +0.000 F 
ATOM     45  C35 UNL A   1      49.962  49.784  23.709  1.00  0.00    +0.000 C 
ATOM     46  F5  UNL A   1      49.189  50.836  24.017  1.00  0.00    +0.000 F 
ENDBRANCH   35   36
BRANCH   52   53
ATOM     53  C41 UNL A   1      53.088  55.789  19.833  1.00  0.00    +0.000 C 
ATOM     54  C42 UNL A   1      54.294  55.601  19.143  1.00  0.00    +0.000 C 
ATOM     55  F6  UNL A   1      54.427  54.579  18.284  1.00  0.00    +0.000 F 
ATOM     56  C43 UNL A   1      55.381  56.442  19.362  1.00  0.00    +0.000 C 
ATOM     57  F7  UNL A   1      56.539  56.218  18.724  1.00  0.00    +0.000 F 
ATOM     58  C44 UNL A   1      55.274  57.503  20.250  1.00  0.00    +0.000 C 
ATOM     59  F8  UNL A   1      56.320  58.314  20.454  1.00  0.00    +0.000 F 
ATOM     60  C45 UNL A   1      54.085  57.717  20.929  1.00  0.00    +0.000 C 
ATOM     61  F9  UNL A   1      53.976  58.748  21.779  1.00  0.00    +0.000 F 
ATOM     62  C46 UNL A   1      53.004  56.863  20.732  1.00  0.00    +0.000 C 
ATOM     63  F10 UNL A   1      51.870  57.088  21.412  1.00  0.00    +0.000 F 
ENDBRANCH   52   53
BRANCH   67   68
ATOM     68  C50 UNL A   1      47.675  56.245  15.476  1.00  0.00    +0.000 C 
ATOM     69  C51 UNL A   1      46.973  57.391  15.875  1.00  0.00    +0.000 C 
ATOM     70  F11 UNL A   1      46.662  57.569  17.167  1.00  0.00    +0.000 F 
ATOM     71  C52 UNL A   1      46.556  58.339  14.943  1.00  0.00    +0.000 C 
ATOM     72  F12 UNL A   1      45.851  59.406  15.347  1.00  0.00    +0.000 F 
ATOM     73  C53 UNL A   1      46.856  58.174  13.600  1.00  0.00    +0.000 C 
ATOM     74  F13 UNL A   1      46.458  59.088  12.705  1.00  0.00    +0.000 F 
ATOM     75  C54 UNL A   1      47.563  57.056  13.184  1.00  0.00    +0.000 C 
ATOM     76  F14 UNL A   1      47.867  56.899  11.889  1.00  0.00    +0.000 F 
ATOM     77  C55 UNL A   1      47.960  56.095  14.112  1.00  0.00    +0.000 C 
ATOM     78  F15 UNL A   1      48.634  55.018  13.681  1.00  0.00    +0.000 F 
ENDBRANCH   67   68
TORSDOF 21
ENDMDL
MODEL 5
REMARK VINA RESULT:      -7.0      0.507      2.015
ROOT
ATOM    129  H37 UNL A   1      32.647  38.760  46.071  1.00  0.00    +0.000 H 
ATOM    130  H38 UNL A   1      32.514  36.985  44.233  1.00  0.00    +0.000 H 
ATOM    131  H39 UNL A   1      23.537  34.015  47.634  1.00  0.00    +0.000 H 
ATOM    132  H40 UNL A   1      23.444  36.062  49.170  1.00  0.00    +0.000 H 
ATOM     31  C26 UNL A   1      25.835  37.614  49.159  1.00  0.00    +0.000 C 
ATOM     32  C27 UNL A   1      25.504  36.427  48.296  1.00  0.00    +0.000 C 
ATOM     33  N3  UNL A   1      26.225  35.855  47.365  1.00  0.00    +0.000 N 
ATOM     34  C28 UNL A   1      25.475  34.775  46.916  1.00  0.00    +0.000 C 
ATOM     35  C29 UNL A   1      25.765  33.901  45.923  1.00  0.00    +0.000 C 
ATOM     47  C36 UNL A   1      26.955  33.954  45.116  1.00  0.00    +0.000 C 
ATOM     48  C37 UNL A   1      27.304  33.158  44.038  1.00  0.00    +0.000 C 
ATOM     49  C38 UNL A   1      28.571  33.552  43.594  1.00  0.00    +0.000 C 
ATOM     50  C39 UNL A   1      28.993  34.620  44.367  1.00  0.00    +0.000 C 
ATOM     51  N4  UNL A   1      27.994  34.854  45.300  1.00  0.00    +0.000 N 
ATOM     52  C40 UNL A   1      30.216  35.373  44.267  1.00  0.00    +0.000 C 
ATOM     64  C47 UNL A   1      30.553  36.420  45.058  1.00  0.00    +0.000 C 
ATOM     65  N5  UNL A   1      29.834  36.991  46.100  1.00  0.00    +0.000 N 
ATOM     66  C48 UNL A   1      30.582  37.963  46.562  1.00  0.00    +0.000 C 
ATOM     67  C49 UNL A   1      30.295  38.935  47.673  1.00  0.00    +0.000 C 
ATOM     79  C56 UNL A   1      29.110  38.877  48.309  1.00  0.00    +0.000 C 
ATOM     80  C57 UNL A   1      28.688  39.757  49.395  1.00  0.00    +0.000 C 
ATOM     81  C58 UNL A   1      27.469  39.381  49.815  1.00  0.00    +0.000 C 
ATOM     82  C59 UNL A   1      27.012  38.250  49.008  1.00  0.00    +0.000 C 
ATOM     83  N6  UNL A   1      28.045  38.027  48.132  1.00  0.00    +0.000 N 
ATOM     84  C60 UNL A   1      31.875  38.103  45.878  1.00  0.00    +0.000 C 
ATOM     85  C61 UNL A   1      31.791  37.164  44.947  1.00  0.00    +0.000 C 
ATOM     86  C62 UNL A   1      24.262  34.747  47.704  1.00  0.00    +0.000 C 
ATOM     87  C63 UNL A   1      24.204  35.782  48.530  1.00  0.00    +0.000 C 
ATOM    123  H31 UNL A   1      26.728  32.403  43.632  1.00  0.00    +0.000 H 
ATOM    124  H32 UNL A   1      29.100  33.119  42.821  1.00  0.00    +0.000 H 
ATOM    125  H33 UNL A   1      28.018  35.557  45.989  1.00  0.00    +0.000 H 
ATOM    126  H34 UNL A   1      29.237  40.543  49.776  1.00  0.00    +0.000 H 
ATOM    127  H35 UNL A   1      26.941  39.819  50.586  1.00  0.00    +0.000 H 
ATOM    128  H36 UNL A   1      28.025  37.325  47.442  1.00  0.00    +0.000 H 
ENDROOT
BRANCH   31   30
ATOM    133  H41 UNL A   1      24.007  39.574  49.068  1.00  0.00    +0.000 H 
ATOM    134  H42 UNL A   1      22.514  40.337  50.818  1.00  0.00    +0.000 H 
ATOM     29  C24 UNL A   1      24.889  37.414  51.481  1.00  0.00    +0.000 C 
ATOM     88  C64 UNL A   1      24.007  39.103  49.986  1.00  0.00    +0.000 C 
ATOM     89  C65 UNL A   1      23.121  39.518  50.979  1.00  0.00    +0.000 C 
ATOM    122  H30 UNL A   1      25.569  36.667  51.685  1.00  0.00    +0.000 H 
ATOM     27  C22 UNL A   1      23.055  38.826  52.191  1.00  0.00    +0.000 C 
ATOM     28  C23 UNL A   1      23.959  37.792  52.453  1.00  0.00    +0.000 C 
ATOM    121  H29 UNL A   1      23.938  37.306  53.364  1.00  0.00    +0.000 H 
ATOM     30  C25 UNL A   1      24.901  38.048  50.229  1.00  0.00    +0.000 C 
BRANCH   27   25
ATOM     25  C21 UNL A   1      22.076  39.200  53.239  1.00  0.00    +0.000 C 
ATOM     26  O2  UNL A   1      22.340  38.991  54.416  1.00  0.00    +0.000 O 
BRANCH   25   24
ATOM    120  H28 UNL A   1      20.949  40.605  52.364  1.00  0.00    +0.000 H 
ATOM     24  N2  UNL A   1      20.879  39.781  52.898  1.00  0.00    +0.000 N 
BRANCH   24   23
ATOM    119  H27 UNL A   1      18.882  40.212  53.118  1.00  0.00    +0.000 H 
ATOM    118  H26 UNL A   1      19.505  38.968  54.206  1.00  0.00    +0.000 H 
ATOM     23  C20 UNL A   1      19.522  39.359  53.211  1.00  0.00    +0.000 C 
BRANCH   23   22
ATOM    116  H24 UNL A   1      19.406  37.341  52.573  1.00  0.00    +0.000 H 
ATOM    117  H25 UNL A   1      17.950  38.336  52.276  1.00  0.00    +0.000 H 
ATOM     22  C19 UNL A   1      19.019  38.285  52.249  1.00  0.00    +0.000 C 
BRANCH   22   21
ATOM    114  H22 UNL A   1      18.677  39.098  50.320  1.00  0.00    +0.000 H 
ATOM    115  H23 UNL A   1      20.395  38.928  50.809  1.00  0.00    +0.000 H 
ATOM     21  C18 UNL A   1      19.422  38.486  50.784  1.00  0.00    +0.000 C 
BRANCH   21   20
ATOM    113  H21 UNL A   1      19.627  37.522  48.930  1.00  0.00    +0.000 H 
ATOM     20  C17 UNL A   1      19.566  37.206  49.951  1.00  0.00    +0.000 C 
ATOM    112  H20 UNL A   1      18.722  36.580  50.156  1.00  0.00    +0.000 H 
BRANCH   20   19
ATOM     19  C16 UNL A   1      20.836  36.389  50.217  1.00  0.00    +0.000 C 
ATOM    110  H18 UNL A   1      21.670  36.923  49.812  1.00  0.00    +0.000 H 
ATOM    111  H19 UNL A   1      20.904  36.260  51.276  1.00  0.00    +0.000 H 
BRANCH   19   18
ATOM     18  C15 UNL A   1      20.815  34.990  49.600  1.00  0.00    +0.000 C 
ATOM    108  H16 UNL A   1      21.823  34.650  49.479  1.00  0.00    +0.000 H 
ATOM    109  H17 UNL A   1      20.267  34.346  50.256  1.00  0.00    +0.000 H 
BRANCH   18   17
ATOM     17  N1  UNL A   1      20.159  34.976  48.310  1.00  0.00    +0.000 N 
ATOM    107  H15 UNL A   1      19.205  35.215  48.334  1.00  0.00    +0.000 H 
BRANCH   17   15
ATOM     15  C14 UNL A   1      20.638  34.691  47.067  1.00  0.00    +0.000 C 
ATOM     16  O1  UNL A   1      21.167  33.582  46.922  1.00  0.00    +0.000 O 
BRANCH   15   13
ATOM     13  C12 UNL A   1      20.570  35.669  45.884  1.00  0.00    +0.000 C 
ATOM    103  H11 UNL A   1      19.654  36.208  46.010  1.00  0.00    +0.000 H 
BRANCH   13   12
ATOM    101  H9  UNL A   1      24.567  37.736  44.641  1.00  0.00    +0.000 H 
ATOM    102  H10 UNL A   1      22.831  36.091  44.346  1.00  0.00    +0.000 H 
ATOM    135  H43 UNL A   1      20.691  37.788  47.524  1.00  0.00    +0.000 H 
ATOM    136  H44 UNL A   1      22.348  39.529  47.710  1.00  0.00    +0.000 H 
ATOM      9  C8  UNL A   1      23.637  38.782  46.217  1.00  0.00    +0.000 C 
ATOM     10  C9  UNL A   1      23.737  37.766  45.253  1.00  0.00    +0.000 C 
ATOM     11  C10 UNL A   1      22.740  36.793  45.096  1.00  0.00    +0.000 C 
ATOM     12  C11 UNL A   1      21.627  36.759  45.939  1.00  0.00    +0.000 C 
ATOM     90  C66 UNL A   1      21.509  37.776  46.896  1.00  0.00    +0.000 C 
ATOM     91  C67 UNL A   1      22.483  38.777  47.017  1.00  0.00    +0.000 C 
BRANCH    9    8
ATOM     98  H6  UNL A   1      27.522  42.394  46.925  1.00  0.00    +0.000 H 
ATOM     99  H7  UNL A   1      27.910  40.448  45.533  1.00  0.00    +0.000 H 
ATOM      4  C3  UNL A   1      25.529  41.884  47.392  1.00  0.00    +0.000 C 
ATOM      5  C4  UNL A   1      26.770  41.702  46.783  1.00  0.00    +0.000 C 
ATOM      6  C5  UNL A   1      26.991  40.585  45.982  1.00  0.00    +0.000 C 
ATOM      7  C6  UNL A   1      25.972  39.648  45.786  1.00  0.00    +0.000 C 
ATOM      8  C7  UNL A   1      24.711  39.793  46.395  1.00  0.00    +0.000 C 
ATOM    137  H45 UNL A   1      23.599  41.082  47.644  1.00  0.00    +0.000 H 
ATOM    100  H8  UNL A   1      26.148  38.831  45.182  1.00  0.00    +0.000 H 
ATOM     92  C68 UNL A   1      24.516  40.937  47.193  1.00  0.00    +0.000 C 
BRANCH    4    3
ATOM      3  S1  UNL A   1      25.209  43.353  48.348  1.00  0.00    +0.000 S 
BRANCH    3    2
ATOM     97  H5  UNL A   1      22.887  43.853  48.463  1.00  0.00    +0.000 H 
ATOM      2  C2  UNL A   1      23.597  43.858  47.661  1.00  0.00    +0.000 C 
ATOM     96  H4  UNL A   1      23.323  43.170  46.889  1.00  0.00    +0.000 H 
BRANCH    2    1
ATOM      1  C1  UNL A   1      23.623  45.259  47.078  1.00  0.00    +0.000 C 
ATOM     93  H1  UNL A   1      23.656  45.976  47.872  1.00  0.00    +0.000 H 
ATOM     94  H2  UNL A   1      22.741  45.418  46.492  1.00  0.00    +0.000 H 
ATOM     95  H3  UNL A   1      24.488  45.373  46.459  1.00  0.00    +0.000 H 
ENDBRANCH    2    1
ENDBRANCH    3    2
ENDBRANCH    4    3
ENDBRANCH    9    8
ENDBRANCH   13   12
BRANCH   13   14
ATOM    105  H13 UNL A   1      20.699  35.658  43.750  1.00  0.00    +0.000 H 
ATOM    106  H14 UNL A   1      19.320  34.793  44.385  1.00  0.00    +0.000 H 
ATOM     14  C13 UNL A   1      20.360  35.001  44.524  1.00  0.00    +0.000 C 
ATOM    104  H12 UNL A   1      20.916  34.088  44.486  1.00  0.00    +0.000 H 
ENDBRANCH   13   14
ENDBRANCH   15   13
ENDBRANCH   17   15
ENDBRANCH   18   17
ENDBRANCH   19   18
ENDBRANCH   20   19
ENDBRANCH   21   20
ENDBRANCH   22   21
ENDBRANCH   23   22
ENDBRANCH   24   23
ENDBRANCH   25   24
ENDBRANCH   27   25
ENDBRANCH   31   30
BRANCH   35   36
ATOM     36  C30 UNL A   1      24.772  32.809  45.646  1.00  0.00    +0.000 C 
ATOM     37  C31 UNL A   1      24.786  31.605  46.364  1.00  0.00    +0.000 C 
ATOM     38  F1  UNL A   1      25.733  31.380  47.287  1.00  0.00    +0.000 F 
ATOM     39  C32 UNL A   1      23.845  30.610  46.112  1.00  0.00    +0.000 C 
ATOM     40  F2  UNL A   1      23.902  29.450  46.782  1.00  0.00    +0.000 F 
ATOM     41  C33 UNL A   1      22.855  30.813  45.163  1.00  0.00    +0.000 C 
ATOM     42  F3  UNL A   1      21.944  29.858  44.927  1.00  0.00    +0.000 F 
ATOM     43  C34 UNL A   1      22.811  32.004  44.453  1.00  0.00    +0.000 C 
ATOM     44  F4  UNL A   1      21.848  32.205  43.543  1.00  0.00    +0.000 F 
ATOM     45  C35 UNL A   1      23.767  32.990  44.683  1.00  0.00    +0.000 C 
ATOM     46  F5  UNL A   1      23.706  34.126  43.973  1.00  0.00    +0.000 F 
ENDBRANCH   35   36
BRANCH   52   53
ATOM     53  C41 UNL A   1      31.189  34.986  43.193  1.00  0.00    +0.000 C 
ATOM     54  C42 UNL A   1      31.258  35.685  41.980  1.00  0.00    +0.000 C 
ATOM     55  F6  UNL A   1      30.409  36.694  41.732  1.00  0.00    +0.000 F 
ATOM     56  C43 UNL A   1      32.178  35.325  40.998  1.00  0.00    +0.000 C 
ATOM     57  F7  UNL A   1      32.197  35.978  39.828  1.00  0.00    +0.000 F 
ATOM     58  C44 UNL A   1      33.065  34.282  41.223  1.00  0.00    +0.000 C 
ATOM     59  F8  UNL A   1      33.952  33.941  40.280  1.00  0.00    +0.000 F 
ATOM     60  C45 UNL A   1      33.025  33.589  42.423  1.00  0.00    +0.000 C 
ATOM     61  F9  UNL A   1      33.888  32.588  42.647  1.00  0.00    +0.000 F 
ATOM     62  C46 UNL A   1      32.089  33.929  43.397  1.00  0.00    +0.000 C 
ATOM     63  F10 UNL A   1      32.067  33.234  44.542  1.00  0.00    +0.000 F 
ENDBRANCH   52   53
BRANCH   67   68
ATOM     68  C50 UNL A   1      31.289  39.968  48.057  1.00  0.00    +0.000 C 
ATOM     69  C51 UNL A   1      31.311  41.215  47.416  1.00  0.00    +0.000 C 
ATOM     70  F11 UNL A   1      30.442  41.476  46.430  1.00  0.00    +0.000 F 
ATOM     71  C52 UNL A   1      32.252  42.183  47.761  1.00  0.00    +0.000 C 
ATOM     72  F12 UNL A   1      32.278  43.352  47.104  1.00  0.00    +0.000 F 
ATOM     73  C53 UNL A   1      33.170  41.935  48.770  1.00  0.00    +0.000 C 
ATOM     74  F13 UNL A   1      34.071  42.868  49.103  1.00  0.00    +0.000 F 
ATOM     75  C54 UNL A   1      33.156  40.714  49.429  1.00  0.00    +0.000 C 
ATOM     76  F14 UNL A   1      34.032  40.475  50.413  1.00  0.00    +0.000 F 
ATOM     77  C55 UNL A   1      32.232  39.736  49.068  1.00  0.00    +0.000 C 
ATOM     78  F15 UNL A   1      32.247  38.561  49.715  1.00  0.00    +0.000 F 
ENDBRANCH   67   68
TORSDOF 21
ENDMDL
MODEL 6
REMARK VINA RESULT:      -7.0     27.110     32.836
ROOT
ATOM    129  H37 UNL A   1      53.445  12.256  50.082  1.00  0.00    +0.000 H 
ATOM    130  H38 UNL A   1      54.180  14.064  48.428  1.00  0.00    +0.000 H 
ATOM    131  H39 UNL A   1      44.606  16.750  46.980  1.00  0.00    +0.000 H 
ATOM    132  H40 UNL A   1      43.897  15.280  48.953  1.00  0.00    +0.000 H 
ATOM     31  C26 UNL A   1      46.025  13.734  50.055  1.00  0.00    +0.000 C 
ATOM     32  C27 UNL A   1      46.109  14.781  48.978  1.00  0.00    +0.000 C 
ATOM     33  N3  UNL A   1      47.158  15.209  48.320  1.00  0.00    +0.000 N 
ATOM     34  C28 UNL A   1      46.678  16.141  47.409  1.00  0.00    +0.000 C 
ATOM     35  C29 UNL A   1      47.378  16.903  46.534  1.00  0.00    +0.000 C 
ATOM     47  C36 UNL A   1      48.811  16.882  46.403  1.00  0.00    +0.000 C 
ATOM     48  C37 UNL A   1      49.616  17.669  45.598  1.00  0.00    +0.000 C 
ATOM     49  C38 UNL A   1      50.944  17.264  45.776  1.00  0.00    +0.000 C 
ATOM     50  C39 UNL A   1      50.970  16.254  46.724  1.00  0.00    +0.000 C 
ATOM     51  N4  UNL A   1      49.654  16.026  47.097  1.00  0.00    +0.000 N 
ATOM     52  C40 UNL A   1      52.108  15.546  47.250  1.00  0.00    +0.000 C 
ATOM     64  C47 UNL A   1      52.051  14.572  48.190  1.00  0.00    +0.000 C 
ATOM     65  N5  UNL A   1      50.940  14.053  48.842  1.00  0.00    +0.000 N 
ATOM     66  C48 UNL A   1      51.397  13.126  49.648  1.00  0.00    +0.000 C 
ATOM     67  C49 UNL A   1      50.644  12.254  50.614  1.00  0.00    +0.000 C 
ATOM     79  C56 UNL A   1      49.313  12.412  50.745  1.00  0.00    +0.000 C 
ATOM     80  C57 UNL A   1      48.455  11.648  51.646  1.00  0.00    +0.000 C 
ATOM     81  C58 UNL A   1      47.183  12.043  51.477  1.00  0.00    +0.000 C 
ATOM     82  C59 UNL A   1      47.140  13.109  50.476  1.00  0.00    +0.000 C 
ATOM     83  N6  UNL A   1      48.452  13.269  50.105  1.00  0.00    +0.000 N 
ATOM     84  C60 UNL A   1      52.853  12.936  49.580  1.00  0.00    +0.000 C 
ATOM     85  C61 UNL A   1      53.206  13.867  48.706  1.00  0.00    +0.000 C 
ATOM     86  C62 UNL A   1      45.241  16.186  47.568  1.00  0.00    +0.000 C 
ATOM     87  C63 UNL A   1      44.845  15.409  48.567  1.00  0.00    +0.000 C 
ATOM    123  H31 UNL A   1      49.293  18.425  44.974  1.00  0.00    +0.000 H 
ATOM    124  H32 UNL A   1      51.764  17.653  45.285  1.00  0.00    +0.000 H 
ATOM    125  H33 UNL A   1      49.362  15.358  47.759  1.00  0.00    +0.000 H 
ATOM    126  H34 UNL A   1      48.775  10.924  52.306  1.00  0.00    +0.000 H 
ATOM    127  H35 UNL A   1      46.365  11.655  51.974  1.00  0.00    +0.000 H 
ATOM    128  H36 UNL A   1      48.747  13.936  49.443  1.00  0.00    +0.000 H 
ENDROOT
BRANCH   31   30
ATOM    133  H41 UNL A   1      44.917  14.456  52.387  1.00  0.00    +0.000 H 
ATOM    134  H42 UNL A   1      42.797  13.768  53.337  1.00  0.00    +0.000 H 
ATOM     29  C24 UNL A   1      43.854  12.472  49.898  1.00  0.00    +0.000 C 
ATOM     88  C64 UNL A   1      44.298  13.823  51.858  1.00  0.00    +0.000 C 
ATOM     89  C65 UNL A   1      43.062  13.458  52.389  1.00  0.00    +0.000 C 
ATOM    122  H30 UNL A   1      44.161  12.072  48.999  1.00  0.00    +0.000 H 
ATOM     27  C22 UNL A   1      42.183  12.674  51.638  1.00  0.00    +0.000 C 
ATOM     28  C23 UNL A   1      42.590  12.157  50.404  1.00  0.00    +0.000 C 
ATOM    121  H29 UNL A   1      41.957  11.543  49.866  1.00  0.00    +0.000 H 
ATOM     30  C25 UNL A   1      44.707  13.332  50.609  1.00  0.00    +0.000 C 
BRANCH   27   25
ATOM     25  C21 UNL A   1      40.835  12.326  52.146  1.00  0.00    +0.000 C 
ATOM     26  O2  UNL A   1      39.926  13.142  52.059  1.00  0.00    +0.000 O 
BRANCH   25   24
ATOM    120  H28 UNL A   1      39.675  10.766  52.624  1.00  0.00    +0.000 H 
ATOM     24  N2  UNL A   1      40.599  11.096  52.709  1.00  0.00    +0.000 N 
BRANCH   24   23
ATOM    119  H27 UNL A   1      40.970   9.745  54.212  1.00  0.00    +0.000 H 
ATOM    118  H26 UNL A   1      42.332  10.785  53.786  1.00  0.00    +0.000 H 
ATOM     23  C20 UNL A   1      41.512  10.209  53.414  1.00  0.00    +0.000 C 
BRANCH   23   22
ATOM    116  H24 UNL A   1      41.497   8.212  52.704  1.00  0.00    +0.000 H 
ATOM    117  H25 UNL A   1      41.946   9.462  51.505  1.00  0.00    +0.000 H 
ATOM     22  C19 UNL A   1      42.054   9.105  52.508  1.00  0.00    +0.000 C 
BRANCH   22   21
ATOM    114  H22 UNL A   1      43.645   8.201  53.582  1.00  0.00    +0.000 H 
ATOM    115  H23 UNL A   1      43.845   8.282  51.801  1.00  0.00    +0.000 H 
ATOM     21  C18 UNL A   1      43.542   8.788  52.693  1.00  0.00    +0.000 C 
BRANCH   21   20
ATOM    113  H21 UNL A   1      43.844  10.829  53.082  1.00  0.00    +0.000 H 
ATOM     20  C17 UNL A   1      44.471  10.002  52.820  1.00  0.00    +0.000 C 
ATOM    112  H20 UNL A   1      44.980  10.129  51.887  1.00  0.00    +0.000 H 
BRANCH   20   19
ATOM     19  C16 UNL A   1      45.529   9.907  53.927  1.00  0.00    +0.000 C 
ATOM    110  H18 UNL A   1      46.251  10.680  53.769  1.00  0.00    +0.000 H 
ATOM    111  H19 UNL A   1      45.012  10.010  54.858  1.00  0.00    +0.000 H 
BRANCH   19   18
ATOM     18  C15 UNL A   1      46.262   8.566  53.972  1.00  0.00    +0.000 C 
ATOM    108  H16 UNL A   1      46.573   8.376  54.978  1.00  0.00    +0.000 H 
ATOM    109  H17 UNL A   1      45.590   7.808  53.626  1.00  0.00    +0.000 H 
BRANCH   18   17
ATOM     17  N1  UNL A   1      47.426   8.556  53.113  1.00  0.00    +0.000 N 
ATOM    107  H15 UNL A   1      48.136   9.183  53.380  1.00  0.00    +0.000 H 
BRANCH   17   15
ATOM     15  C14 UNL A   1      47.709   7.826  51.999  1.00  0.00    +0.000 C 
ATOM     16  O1  UNL A   1      48.892   7.502  51.839  1.00  0.00    +0.000 O 
BRANCH   15   13
ATOM     13  C12 UNL A   1      46.656   7.423  50.955  1.00  0.00    +0.000 C 
ATOM    103  H11 UNL A   1      45.730   7.366  51.489  1.00  0.00    +0.000 H 
BRANCH   13   12
ATOM    101  H9  UNL A   1      44.002   9.878  48.000  1.00  0.00    +0.000 H 
ATOM    102  H10 UNL A   1      44.300   8.302  49.799  1.00  0.00    +0.000 H 
ATOM    135  H43 UNL A   1      48.422   9.058  49.770  1.00  0.00    +0.000 H 
ATOM    136  H44 UNL A   1      48.099  10.751  48.085  1.00  0.00    +0.000 H 
ATOM      9  C8  UNL A   1      46.024  10.455  47.853  1.00  0.00    +0.000 C 
ATOM     10  C9  UNL A   1      44.949   9.722  48.381  1.00  0.00    +0.000 C 
ATOM     11  C10 UNL A   1      45.123   8.787  49.409  1.00  0.00    +0.000 C 
ATOM     12  C11 UNL A   1      46.393   8.500  49.915  1.00  0.00    +0.000 C 
ATOM     90  C66 UNL A   1      47.473   9.235  49.407  1.00  0.00    +0.000 C 
ATOM     91  C67 UNL A   1      47.287  10.206  48.413  1.00  0.00    +0.000 C 
BRANCH    9    8
ATOM     98  H6  UNL A   1      45.308  13.996  43.905  1.00  0.00    +0.000 H 
ATOM     99  H7  UNL A   1      47.486  13.751  44.939  1.00  0.00    +0.000 H 
ATOM      4  C3  UNL A   1      44.381  12.518  45.090  1.00  0.00    +0.000 C 
ATOM      5  C4  UNL A   1      45.447  13.308  44.661  1.00  0.00    +0.000 C 
ATOM      6  C5  UNL A   1      46.698  13.166  45.255  1.00  0.00    +0.000 C 
ATOM      7  C6  UNL A   1      46.888  12.230  46.277  1.00  0.00    +0.000 C 
ATOM      8  C7  UNL A   1      45.834  11.424  46.744  1.00  0.00    +0.000 C 
ATOM    137  H45 UNL A   1      43.789  11.003  46.427  1.00  0.00    +0.000 H 
ATOM    100  H8  UNL A   1      47.824  12.129  46.699  1.00  0.00    +0.000 H 
ATOM     92  C68 UNL A   1      44.582  11.587  46.119  1.00  0.00    +0.000 C 
BRANCH    4    3
ATOM      3  S1  UNL A   1      42.799  12.633  44.279  1.00  0.00    +0.000 S 
BRANCH    3    2
ATOM     97  H5  UNL A   1      43.913  11.064  42.880  1.00  0.00    +0.000 H 
ATOM      2  C2  UNL A   1      42.888  11.192  43.163  1.00  0.00    +0.000 C 
ATOM     96  H4  UNL A   1      42.265  11.378  42.313  1.00  0.00    +0.000 H 
BRANCH    2    1
ATOM      1  C1  UNL A   1      42.431   9.907  43.830  1.00  0.00    +0.000 C 
ATOM     93  H1  UNL A   1      43.223   9.519  44.436  1.00  0.00    +0.000 H 
ATOM     94  H2  UNL A   1      42.171   9.189  43.080  1.00  0.00    +0.000 H 
ATOM     95  H3  UNL A   1      41.578  10.107  44.444  1.00  0.00    +0.000 H 
ENDBRANCH    2    1
ENDBRANCH    3    2
ENDBRANCH    4    3
ENDBRANCH    9    8
ENDBRANCH   13   12
BRANCH   13   14
ATOM    105  H13 UNL A   1      47.836   5.799  50.220  1.00  0.00    +0.000 H 
ATOM    106  H14 UNL A   1      46.236   5.889  49.526  1.00  0.00    +0.000 H 
ATOM     14  C13 UNL A   1      46.805   5.996  50.425  1.00  0.00    +0.000 C 
ATOM    104  H12 UNL A   1      46.448   5.304  51.158  1.00  0.00    +0.000 H 
ENDBRANCH   13   14
ENDBRANCH   15   13
ENDBRANCH   17   15
ENDBRANCH   18   17
ENDBRANCH   19   18
ENDBRANCH   20   19
ENDBRANCH   21   20
ENDBRANCH   22   21
ENDBRANCH   23   22
ENDBRANCH   24   23
ENDBRANCH   25   24
ENDBRANCH   27   25
ENDBRANCH   31   30
BRANCH   35   36
ATOM     36  C30 UNL A   1      46.602  17.833  45.647  1.00  0.00    +0.000 C 
ATOM     37  C31 UNL A   1      46.223  17.464  44.349  1.00  0.00    +0.000 C 
ATOM     38  F1  UNL A   1      46.599  16.278  43.847  1.00  0.00    +0.000 F 
ATOM     39  C32 UNL A   1      45.484  18.328  43.545  1.00  0.00    +0.000 C 
ATOM     40  F2  UNL A   1      45.168  17.971  42.292  1.00  0.00    +0.000 F 
ATOM     41  C33 UNL A   1      45.082  19.561  44.035  1.00  0.00    +0.000 C 
ATOM     42  F3  UNL A   1      44.363  20.389  43.264  1.00  0.00    +0.000 F 
ATOM     43  C34 UNL A   1      45.430  19.940  45.323  1.00  0.00    +0.000 C 
ATOM     44  F4  UNL A   1      45.033  21.127  45.802  1.00  0.00    +0.000 F 
ATOM     45  C35 UNL A   1      46.193  19.089  46.120  1.00  0.00    +0.000 C 
ATOM     46  F5  UNL A   1      46.524  19.488  47.357  1.00  0.00    +0.000 F 
ENDBRANCH   35   36
BRANCH   52   53
ATOM     53  C41 UNL A   1      53.465  15.924  46.736  1.00  0.00    +0.000 C 
ATOM     54  C42 UNL A   1      53.993  15.352  45.569  1.00  0.00    +0.000 C 
ATOM     55  F6  UNL A   1      53.306  14.407  44.911  1.00  0.00    +0.000 F 
ATOM     56  C43 UNL A   1      55.248  15.725  45.096  1.00  0.00    +0.000 C 
ATOM     57  F7  UNL A   1      55.753  15.134  44.003  1.00  0.00    +0.000 F 
ATOM     58  C44 UNL A   1      55.984  16.696  45.761  1.00  0.00    +0.000 C 
ATOM     59  F8  UNL A   1      57.189  17.056  45.299  1.00  0.00    +0.000 F 
ATOM     60  C45 UNL A   1      55.473  17.286  46.906  1.00  0.00    +0.000 C 
ATOM     61  F9  UNL A   1      56.177  18.232  47.543  1.00  0.00    +0.000 F 
ATOM     62  C46 UNL A   1      54.229  16.897  47.397  1.00  0.00    +0.000 C 
ATOM     63  F10 UNL A   1      53.766  17.477  48.514  1.00  0.00    +0.000 F 
ENDBRANCH   52   53
BRANCH   67   68
ATOM     68  C50 UNL A   1      51.353  11.244  51.439  1.00  0.00    +0.000 C 
ATOM     69  C51 UNL A   1      51.939  11.600  52.662  1.00  0.00    +0.000 C 
ATOM     70  F11 UNL A   1      51.882  12.870  53.087  1.00  0.00    +0.000 F 
ATOM     71  C52 UNL A   1      52.619  10.660  53.434  1.00  0.00    +0.000 C 
ATOM     72  F12 UNL A   1      53.205  11.035  54.579  1.00  0.00    +0.000 F 
ATOM     73  C53 UNL A   1      52.701   9.341  53.012  1.00  0.00    +0.000 C 
ATOM     74  F13 UNL A   1      53.351   8.437  53.757  1.00  0.00    +0.000 F 
ATOM     75  C54 UNL A   1      52.115   8.963  51.813  1.00  0.00    +0.000 C 
ATOM     76  F14 UNL A   1      52.181   7.688  51.409  1.00  0.00    +0.000 F 
ATOM     77  C55 UNL A   1      51.456   9.907  51.029  1.00  0.00    +0.000 C 
ATOM     78  F15 UNL A   1      50.907   9.517  49.869  1.00  0.00    +0.000 F 
ENDBRANCH   67   68
TORSDOF 21
ENDMDL
MODEL 7
REMARK VINA RESULT:      -6.9     46.401     50.205
ROOT
ATOM    129  H37 UNL A   1      14.885  52.130   8.144  1.00  0.00    +0.000 H 
ATOM    130  H38 UNL A   1      14.018  54.504   7.753  1.00  0.00    +0.000 H 
ATOM    131  H39 UNL A   1      16.191  53.779  -2.030  1.00  0.00    +0.000 H 
ATOM    132  H40 UNL A   1      16.626  51.271  -1.746  1.00  0.00    +0.000 H 
ATOM     31  C26 UNL A   1      16.498  50.385   0.960  1.00  0.00    +0.000 C 
ATOM     32  C27 UNL A   1      16.182  51.754   0.425  1.00  0.00    +0.000 C 
ATOM     33  N3  UNL A   1      15.784  52.823   1.068  1.00  0.00    +0.000 N 
ATOM     34  C28 UNL A   1      15.685  53.825   0.112  1.00  0.00    +0.000 C 
ATOM     35  C29 UNL A   1      15.263  55.103   0.269  1.00  0.00    +0.000 C 
ATOM     47  C36 UNL A   1      14.812  55.662   1.516  1.00  0.00    +0.000 C 
ATOM     48  C37 UNL A   1      14.297  56.923   1.761  1.00  0.00    +0.000 C 
ATOM     49  C38 UNL A   1      14.032  57.030   3.131  1.00  0.00    +0.000 C 
ATOM     50  C39 UNL A   1      14.342  55.822   3.733  1.00  0.00    +0.000 C 
ATOM     51  N4  UNL A   1      14.824  54.992   2.731  1.00  0.00    +0.000 N 
ATOM     52  C40 UNL A   1      14.212  55.449   5.117  1.00  0.00    +0.000 C 
ATOM     64  C47 UNL A   1      14.528  54.235   5.629  1.00  0.00    +0.000 C 
ATOM     65  N5  UNL A   1      15.024  53.115   4.974  1.00  0.00    +0.000 N 
ATOM     66  C48 UNL A   1      15.180  52.199   5.897  1.00  0.00    +0.000 C 
ATOM     67  C49 UNL A   1      15.663  50.782   5.755  1.00  0.00    +0.000 C 
ATOM     79  C56 UNL A   1      15.969  50.309   4.532  1.00  0.00    +0.000 C 
ATOM     80  C57 UNL A   1      16.438  48.958   4.239  1.00  0.00    +0.000 C 
ATOM     81  C58 UNL A   1      16.686  48.856   2.923  1.00  0.00    +0.000 C 
ATOM     82  C59 UNL A   1      16.364  50.128   2.275  1.00  0.00    +0.000 C 
ATOM     83  N6  UNL A   1      15.935  50.927   3.305  1.00  0.00    +0.000 N 
ATOM     84  C60 UNL A   1      14.822  52.644   7.252  1.00  0.00    +0.000 C 
ATOM     85  C61 UNL A   1      14.396  53.878   7.026  1.00  0.00    +0.000 C 
ATOM     86  C62 UNL A   1      16.105  53.251  -1.147  1.00  0.00    +0.000 C 
ATOM     87  C63 UNL A   1      16.364  51.956  -1.020  1.00  0.00    +0.000 C 
ATOM    123  H31 UNL A   1      14.135  57.658   1.055  1.00  0.00    +0.000 H 
ATOM    124  H32 UNL A   1      13.666  57.868   3.611  1.00  0.00    +0.000 H 
ATOM    125  H33 UNL A   1      15.127  54.065   2.863  1.00  0.00    +0.000 H 
ATOM    126  H34 UNL A   1      16.558  48.203   4.932  1.00  0.00    +0.000 H 
ATOM    127  H35 UNL A   1      17.047  48.015   2.446  1.00  0.00    +0.000 H 
ATOM    128  H36 UNL A   1      15.632  51.855   3.177  1.00  0.00    +0.000 H 
ENDROOT
BRANCH   31   30
ATOM    133  H41 UNL A   1      19.015  50.054   0.096  1.00  0.00    +0.000 H 
ATOM    134  H42 UNL A   1      19.890  48.375  -1.418  1.00  0.00    +0.000 H 
ATOM     29  C24 UNL A   1      16.190  48.328  -0.455  1.00  0.00    +0.000 C 
ATOM     88  C64 UNL A   1      18.390  49.323  -0.278  1.00  0.00    +0.000 C 
ATOM     89  C65 UNL A   1      18.903  48.336  -1.119  1.00  0.00    +0.000 C 
ATOM    122  H30 UNL A   1      15.180  48.347  -0.247  1.00  0.00    +0.000 H 
ATOM     27  C22 UNL A   1      18.081  47.293  -1.555  1.00  0.00    +0.000 C 
ATOM     28  C23 UNL A   1      16.718  47.305  -1.246  1.00  0.00    +0.000 C 
ATOM    121  H29 UNL A   1      16.101  46.557  -1.603  1.00  0.00    +0.000 H 
ATOM     30  C25 UNL A   1      17.028  49.330   0.060  1.00  0.00    +0.000 C 
BRANCH   27   25
ATOM     25  C21 UNL A   1      18.613  46.192  -2.392  1.00  0.00    +0.000 C 
ATOM     26  O2  UNL A   1      19.748  45.777  -2.197  1.00  0.00    +0.000 O 
BRANCH   25   24
ATOM    120  H28 UNL A   1      17.177  44.975  -3.075  1.00  0.00    +0.000 H 
ATOM     24  N2  UNL A   1      17.840  45.634  -3.382  1.00  0.00    +0.000 N 
BRANCH   24   23
ATOM    119  H27 UNL A   1      16.913  45.570  -5.214  1.00  0.00    +0.000 H 
ATOM    118  H26 UNL A   1      18.660  45.313  -5.249  1.00  0.00    +0.000 H 
ATOM     23  C20 UNL A   1      17.859  45.874  -4.817  1.00  0.00    +0.000 C 
BRANCH   23   22
ATOM    116  H24 UNL A   1      18.546  47.817  -4.320  1.00  0.00    +0.000 H 
ATOM    117  H25 UNL A   1      18.631  47.381  -6.052  1.00  0.00    +0.000 H 
ATOM     22  C19 UNL A   1      18.056  47.352  -5.150  1.00  0.00    +0.000 C 
BRANCH   22   21
ATOM    114  H22 UNL A   1      16.913  48.688  -6.337  1.00  0.00    +0.000 H 
ATOM    115  H23 UNL A   1      15.992  47.394  -5.501  1.00  0.00    +0.000 H 
ATOM     21  C18 UNL A   1      16.767  48.129  -5.436  1.00  0.00    +0.000 C 
BRANCH   21   20
ATOM    113  H21 UNL A   1      16.208  48.526  -3.451  1.00  0.00    +0.000 H 
ATOM     20  C17 UNL A   1      16.322  49.108  -4.342  1.00  0.00    +0.000 C 
ATOM    112  H20 UNL A   1      15.416  49.578  -4.666  1.00  0.00    +0.000 H 
BRANCH   20   19
ATOM     19  C16 UNL A   1      17.330  50.212  -3.999  1.00  0.00    +0.000 C 
ATOM    110  H18 UNL A   1      17.164  50.517  -2.987  1.00  0.00    +0.000 H 
ATOM    111  H19 UNL A   1      18.305  49.798  -4.149  1.00  0.00    +0.000 H 
BRANCH   19   18
ATOM     18  C15 UNL A   1      17.229  51.446  -4.896  1.00  0.00    +0.000 C 
ATOM    108  H16 UNL A   1      17.575  52.300  -4.351  1.00  0.00    +0.000 H 
ATOM    109  H17 UNL A   1      17.830  51.274  -5.765  1.00  0.00    +0.000 H 
BRANCH   18   17
ATOM     17  N1  UNL A   1      15.871  51.689  -5.333  1.00  0.00    +0.000 N 
ATOM    107  H15 UNL A   1      15.630  51.251  -6.181  1.00  0.00    +0.000 H 
BRANCH   17   15
ATOM     15  C14 UNL A   1      14.868  52.418  -4.771  1.00  0.00    +0.000 C 
ATOM     16  O1  UNL A   1      15.153  53.573  -4.428  1.00  0.00    +0.000 O 
BRANCH   15   13
ATOM     13  C12 UNL A   1      13.452  51.874  -4.530  1.00  0.00    +0.000 C 
ATOM    103  H11 UNL A   1      13.420  50.927  -5.027  1.00  0.00    +0.000 H 
BRANCH   13   12
ATOM    101  H9  UNL A   1      12.173  52.771  -0.129  1.00  0.00    +0.000 H 
ATOM    102  H10 UNL A   1      12.374  53.359  -2.458  1.00  0.00    +0.000 H 
ATOM    135  H43 UNL A   1      13.860  49.530  -3.291  1.00  0.00    +0.000 H 
ATOM    136  H44 UNL A   1      13.504  48.893  -0.993  1.00  0.00    +0.000 H 
ATOM      9  C8  UNL A   1      12.838  50.781  -0.329  1.00  0.00    +0.000 C 
ATOM     10  C9  UNL A   1      12.521  52.066  -0.798  1.00  0.00    +0.000 C 
ATOM     11  C10 UNL A   1      12.660  52.418  -2.147  1.00  0.00    +0.000 C 
ATOM     12  C11 UNL A   1      13.181  51.515  -3.078  1.00  0.00    +0.000 C 
ATOM     90  C66 UNL A   1      13.488  50.225  -2.625  1.00  0.00    +0.000 C 
ATOM     91  C67 UNL A   1      13.299  49.861  -1.285  1.00  0.00    +0.000 C 
BRANCH    9    8
ATOM     98  H6  UNL A   1      12.463  49.493   4.851  1.00  0.00    +0.000 H 
ATOM     99  H7  UNL A   1      12.250  51.805   4.154  1.00  0.00    +0.000 H 
ATOM      4  C3  UNL A   1      12.740  48.743   2.899  1.00  0.00    +0.000 C 
ATOM      5  C4  UNL A   1      12.528  49.739   3.851  1.00  0.00    +0.000 C 
ATOM      6  C5  UNL A   1      12.404  51.067   3.450  1.00  0.00    +0.000 C 
ATOM      7  C6  UNL A   1      12.488  51.401   2.095  1.00  0.00    +0.000 C 
ATOM      8  C7  UNL A   1      12.713  50.425   1.107  1.00  0.00    +0.000 C 
ATOM    137  H45 UNL A   1      12.979  48.346   0.846  1.00  0.00    +0.000 H 
ATOM    100  H8  UNL A   1      12.384  52.388   1.812  1.00  0.00    +0.000 H 
ATOM     92  C68 UNL A   1      12.827  49.090   1.544  1.00  0.00    +0.000 C 
BRANCH    4    3
ATOM      3  S1  UNL A   1      12.814  47.034   3.395  1.00  0.00    +0.000 S 
BRANCH    3    2
ATOM     97  H5  UNL A   1      11.032  47.753   4.797  1.00  0.00    +0.000 H 
ATOM      2  C2  UNL A   1      11.205  46.857   4.236  1.00  0.00    +0.000 C 
ATOM     96  H4  UNL A   1      11.242  45.996   4.870  1.00  0.00    +0.000 H 
BRANCH    2    1
ATOM      1  C1  UNL A   1      10.051  46.696   3.263  1.00  0.00    +0.000 C 
ATOM     93  H1  UNL A   1      10.187  45.799   2.693  1.00  0.00    +0.000 H 
ATOM     94  H2  UNL A   1      10.021  47.536   2.601  1.00  0.00    +0.000 H 
ATOM     95  H3  UNL A   1       9.131  46.637   3.805  1.00  0.00    +0.000 H 
ENDBRANCH    2    1
ENDBRANCH    3    2
ENDBRANCH    4    3
ENDBRANCH    9    8
ENDBRANCH   13   12
BRANCH   13   14
ATOM    105  H13 UNL A   1      12.775  53.222  -6.045  1.00  0.00    +0.000 H 
ATOM    106  H14 UNL A   1      11.860  53.303  -4.559  1.00  0.00    +0.000 H 
ATOM     14  C13 UNL A   1      12.347  52.648  -5.250  1.00  0.00    +0.000 C 
ATOM    104  H12 UNL A   1      11.633  51.959  -5.652  1.00  0.00    +0.000 H 
ENDBRANCH   13   14
ENDBRANCH   15   13
ENDBRANCH   17   15
ENDBRANCH   18   17
ENDBRANCH   19   18
ENDBRANCH   20   19
ENDBRANCH   21   20
ENDBRANCH   22   21
ENDBRANCH   23   22
ENDBRANCH   24   23
ENDBRANCH   25   24
ENDBRANCH   27   25
ENDBRANCH   31   30
BRANCH   35   36
ATOM     36  C30 UNL A   1      15.264  55.990  -0.942  1.00  0.00    +0.000 C 
ATOM     37  C31 UNL A   1      16.411  56.691  -1.338  1.00  0.00    +0.000 C 
ATOM     38  F1  UNL A   1      17.530  56.626  -0.601  1.00  0.00    +0.000 F 
ATOM     39  C32 UNL A   1      16.404  57.492  -2.477  1.00  0.00    +0.000 C 
ATOM     40  F2  UNL A   1      17.500  58.187  -2.813  1.00  0.00    +0.000 F 
ATOM     41  C33 UNL A   1      15.262  57.580  -3.258  1.00  0.00    +0.000 C 
ATOM     42  F3  UNL A   1      15.258  58.345  -4.359  1.00  0.00    +0.000 F 
ATOM     43  C34 UNL A   1      14.120  56.881  -2.896  1.00  0.00    +0.000 C 
ATOM     44  F4  UNL A   1      13.019  56.957  -3.655  1.00  0.00    +0.000 F 
ATOM     45  C35 UNL A   1      14.116  56.101  -1.742  1.00  0.00    +0.000 C 
ATOM     46  F5  UNL A   1      12.994  55.446  -1.411  1.00  0.00    +0.000 F 
ENDBRANCH   35   36
BRANCH   52   53
ATOM     53  C41 UNL A   1      13.667  56.472   6.069  1.00  0.00    +0.000 C 
ATOM     54  C42 UNL A   1      12.323  56.461   6.467  1.00  0.00    +0.000 C 
ATOM     55  F6  UNL A   1      11.476  55.555   5.957  1.00  0.00    +0.000 F 
ATOM     56  C43 UNL A   1      11.836  57.408   7.364  1.00  0.00    +0.000 C 
ATOM     57  F7  UNL A   1      10.537  57.407   7.697  1.00  0.00    +0.000 F 
ATOM     58  C44 UNL A   1      12.688  58.362   7.903  1.00  0.00    +0.000 C 
ATOM     59  F8  UNL A   1      12.217  59.267   8.769  1.00  0.00    +0.000 F 
ATOM     60  C45 UNL A   1      14.024  58.379   7.536  1.00  0.00    +0.000 C 
ATOM     61  F9  UNL A   1      14.851  59.292   8.064  1.00  0.00    +0.000 F 
ATOM     62  C46 UNL A   1      14.510  57.450   6.619  1.00  0.00    +0.000 C 
ATOM     63  F10 UNL A   1      15.804  57.499   6.275  1.00  0.00    +0.000 F 
ENDBRANCH   52   53
BRANCH   67   68
ATOM     68  C50 UNL A   1      15.781  49.895   6.940  1.00  0.00    +0.000 C 
ATOM     69  C51 UNL A   1      14.850  48.871   7.165  1.00  0.00    +0.000 C 
ATOM     70  F11 UNL A   1      13.827  48.698   6.316  1.00  0.00    +0.000 F 
ATOM     71  C52 UNL A   1      14.946  48.045   8.283  1.00  0.00    +0.000 C 
ATOM     72  F12 UNL A   1      14.020  47.100   8.496  1.00  0.00    +0.000 F 
ATOM     73  C53 UNL A   1      15.989  48.209   9.182  1.00  0.00    +0.000 C 
ATOM     74  F13 UNL A   1      16.083  47.413  10.255  1.00  0.00    +0.000 F 
ATOM     75  C54 UNL A   1      16.931  49.206   8.971  1.00  0.00    +0.000 C 
ATOM     76  F14 UNL A   1      17.947  49.360   9.830  1.00  0.00    +0.000 F 
ATOM     77  C55 UNL A   1      16.822  50.048   7.866  1.00  0.00    +0.000 C 
ATOM     78  F15 UNL A   1      17.740  51.010   7.692  1.00  0.00    +0.000 F 
ENDBRANCH   67   68
TORSDOF 21
ENDMDL
MODEL 8
REMARK VINA RESULT:      -6.8     27.826     33.191
ROOT
ATOM    129  H37 UNL A   1      52.096  14.991  50.506  1.00  0.00    +0.000 H 
ATOM    130  H38 UNL A   1      52.680  13.343  52.374  1.00  0.00    +0.000 H 
ATOM    131  H39 UNL A   1      44.888   7.541  49.807  1.00  0.00    +0.000 H 
ATOM    132  H40 UNL A   1      44.569   8.917  47.671  1.00  0.00    +0.000 H 
ATOM     31  C26 UNL A   1      46.287  11.186  47.502  1.00  0.00    +0.000 C 
ATOM     32  C27 UNL A   1      46.288  10.108  48.550  1.00  0.00    +0.000 C 
ATOM     33  N3  UNL A   1      47.063   9.972  49.597  1.00  0.00    +0.000 N 
ATOM     34  C28 UNL A   1      46.611   8.836  50.257  1.00  0.00    +0.000 C 
ATOM     35  C29 UNL A   1      47.117   8.248  51.367  1.00  0.00    +0.000 C 
ATOM     47  C36 UNL A   1      48.276   8.719  52.080  1.00  0.00    +0.000 C 
ATOM     48  C37 UNL A   1      48.908   8.150  53.172  1.00  0.00    +0.000 C 
ATOM     49  C38 UNL A   1      49.969   8.983  53.547  1.00  0.00    +0.000 C 
ATOM     50  C39 UNL A   1      50.023  10.048  52.663  1.00  0.00    +0.000 C 
ATOM     51  N4  UNL A   1      48.976   9.876  51.771  1.00  0.00    +0.000 N 
ATOM     52  C40 UNL A   1      50.957  11.143  52.634  1.00  0.00    +0.000 C 
ATOM     64  C47 UNL A   1      50.951  12.147  51.724  1.00  0.00    +0.000 C 
ATOM     65  N5  UNL A   1      50.089  12.347  50.653  1.00  0.00    +0.000 N 
ATOM     66  C48 UNL A   1      50.481  13.459  50.080  1.00  0.00    +0.000 C 
ATOM     67  C49 UNL A   1      49.927  14.143  48.861  1.00  0.00    +0.000 C 
ATOM     79  C56 UNL A   1      48.903  13.577  48.195  1.00  0.00    +0.000 C 
ATOM     80  C57 UNL A   1      48.272  14.117  46.995  1.00  0.00    +0.000 C 
ATOM     81  C58 UNL A   1      47.258  13.313  46.633  1.00  0.00    +0.000 C 
ATOM     82  C59 UNL A   1      47.188  12.184  47.561  1.00  0.00    +0.000 C 
ATOM     83  N6  UNL A   1      48.210  12.418  48.448  1.00  0.00    +0.000 N 
ATOM     84  C60 UNL A   1      51.625  14.103  50.739  1.00  0.00    +0.000 C 
ATOM     85  C61 UNL A   1      51.896  13.244  51.711  1.00  0.00    +0.000 C 
ATOM     86  C62 UNL A   1      45.469   8.344  49.518  1.00  0.00    +0.000 C 
ATOM     87  C63 UNL A   1      45.265   9.059  48.420  1.00  0.00    +0.000 C 
ATOM    123  H31 UNL A   1      48.644   7.264  53.630  1.00  0.00    +0.000 H 
ATOM    124  H32 UNL A   1      50.603   8.828  54.346  1.00  0.00    +0.000 H 
ATOM    125  H33 UNL A   1      48.763  10.484  51.026  1.00  0.00    +0.000 H 
ATOM    126  H34 UNL A   1      48.559  14.978  46.503  1.00  0.00    +0.000 H 
ATOM    127  H35 UNL A   1      46.629  13.469  45.830  1.00  0.00    +0.000 H 
ATOM    128  H36 UNL A   1      48.425  11.812  49.193  1.00  0.00    +0.000 H 
ENDROOT
BRANCH   31   30
ATOM    133  H41 UNL A   1      43.970  12.535  47.462  1.00  0.00    +0.000 H 
ATOM    134  H42 UNL A   1      42.239  12.527  45.765  1.00  0.00    +0.000 H 
ATOM     29  C24 UNL A   1      45.409  10.450  45.262  1.00  0.00    +0.000 C 
ATOM     88  C64 UNL A   1      44.095  11.979  46.602  1.00  0.00    +0.000 C 
ATOM     89  C65 UNL A   1      43.116  12.006  45.610  1.00  0.00    +0.000 C 
ATOM    122  H30 UNL A   1      46.234   9.840  45.149  1.00  0.00    +0.000 H 
ATOM     27  C22 UNL A   1      43.322  11.327  44.406  1.00  0.00    +0.000 C 
ATOM     28  C23 UNL A   1      44.456  10.526  44.243  1.00  0.00    +0.000 C 
ATOM    121  H29 UNL A   1      44.590   9.990  43.370  1.00  0.00    +0.000 H 
ATOM     30  C25 UNL A   1      45.250  11.199  46.438  1.00  0.00    +0.000 C 
BRANCH   27   25
ATOM     25  C21 UNL A   1      42.332  11.392  43.306  1.00  0.00    +0.000 C 
ATOM     26  O2  UNL A   1      41.384  10.617  43.297  1.00  0.00    +0.000 O 
BRANCH   25   24
ATOM    120  H28 UNL A   1      43.192  12.134  41.657  1.00  0.00    +0.000 H 
ATOM     24  N2  UNL A   1      42.469  12.317  42.299  1.00  0.00    +0.000 N 
BRANCH   24   23
ATOM    119  H27 UNL A   1      40.709  13.237  41.774  1.00  0.00    +0.000 H 
ATOM    118  H26 UNL A   1      42.175  14.073  41.254  1.00  0.00    +0.000 H 
ATOM     23  C20 UNL A   1      41.703  13.527  42.043  1.00  0.00    +0.000 C 
BRANCH   23   22
ATOM    116  H24 UNL A   1      40.613  14.794  43.347  1.00  0.00    +0.000 H 
ATOM    117  H25 UNL A   1      41.899  13.813  44.110  1.00  0.00    +0.000 H 
ATOM     22  C19 UNL A   1      41.615  14.423  43.278  1.00  0.00    +0.000 C 
BRANCH   22   21
ATOM    114  H22 UNL A   1      42.186  16.346  42.588  1.00  0.00    +0.000 H 
ATOM    115  H23 UNL A   1      42.606  15.964  44.290  1.00  0.00    +0.000 H 
ATOM     21  C18 UNL A   1      42.568  15.623  43.277  1.00  0.00    +0.000 C 
BRANCH   21   20
ATOM    113  H21 UNL A   1      44.439  16.248  42.557  1.00  0.00    +0.000 H 
ATOM     20  C17 UNL A   1      44.020  15.319  42.885  1.00  0.00    +0.000 C 
ATOM    112  H20 UNL A   1      44.007  14.564  42.127  1.00  0.00    +0.000 H 
BRANCH   20   19
ATOM     19  C16 UNL A   1      44.920  14.829  44.026  1.00  0.00    +0.000 C 
ATOM    110  H18 UNL A   1      44.356  14.855  44.934  1.00  0.00    +0.000 H 
ATOM    111  H19 UNL A   1      45.238  13.842  43.766  1.00  0.00    +0.000 H 
BRANCH   19   18
ATOM     18  C15 UNL A   1      46.186  15.665  44.221  1.00  0.00    +0.000 C 
ATOM    108  H16 UNL A   1      46.695  15.322  45.098  1.00  0.00    +0.000 H 
ATOM    109  H17 UNL A   1      46.797  15.551  43.350  1.00  0.00    +0.000 H 
BRANCH   18   17
ATOM     17  N1  UNL A   1      45.887  17.073  44.376  1.00  0.00    +0.000 N 
ATOM    107  H15 UNL A   1      46.258  17.649  43.669  1.00  0.00    +0.000 H 
BRANCH   17   15
ATOM     15  C14 UNL A   1      45.178  17.736  45.330  1.00  0.00    +0.000 C 
ATOM     16  O1  UNL A   1      44.189  18.369  44.941  1.00  0.00    +0.000 O 
BRANCH   15   13
ATOM     13  C12 UNL A   1      45.562  17.751  46.818  1.00  0.00    +0.000 C 
ATOM    103  H11 UNL A   1      45.027  18.574  47.244  1.00  0.00    +0.000 H 
BRANCH   13   12
ATOM    101  H9  UNL A   1      42.430  14.446  47.855  1.00  0.00    +0.000 H 
ATOM    102  H10 UNL A   1      43.298  16.202  46.450  1.00  0.00    +0.000 H 
ATOM    135  H43 UNL A   1      46.660  16.518  48.932  1.00  0.00    +0.000 H 
ATOM    136  H44 UNL A   1      45.869  14.653  50.239  1.00  0.00    +0.000 H 
ATOM      9  C8  UNL A   1      44.054  14.391  49.196  1.00  0.00    +0.000 C 
ATOM     10  C9  UNL A   1      43.341  14.871  48.086  1.00  0.00    +0.000 C 
ATOM     11  C10 UNL A   1      43.832  15.909  47.282  1.00  0.00    +0.000 C 
ATOM     12  C11 UNL A   1      45.032  16.553  47.590  1.00  0.00    +0.000 C 
ATOM     90  C66 UNL A   1      45.761  16.074  48.688  1.00  0.00    +0.000 C 
ATOM     91  C67 UNL A   1      45.291  15.002  49.459  1.00  0.00    +0.000 C 
BRANCH    9    8
ATOM     98  H6  UNL A   1      42.073  10.462  52.242  1.00  0.00    +0.000 H 
ATOM     99  H7  UNL A   1      44.377  10.377  51.494  1.00  0.00    +0.000 H 
ATOM      4  C3  UNL A   1      41.650  12.304  51.304  1.00  0.00    +0.000 C 
ATOM      5  C4  UNL A   1      42.456  11.225  51.661  1.00  0.00    +0.000 C 
ATOM      6  C5  UNL A   1      43.780  11.176  51.232  1.00  0.00    +0.000 C 
ATOM      7  C6  UNL A   1      44.301  12.210  50.447  1.00  0.00    +0.000 C 
ATOM      8  C7  UNL A   1      43.514  13.309  50.058  1.00  0.00    +0.000 C 
ATOM    137  H45 UNL A   1      41.578  14.129  50.258  1.00  0.00    +0.000 H 
ATOM    100  H8  UNL A   1      45.287  12.165  50.147  1.00  0.00    +0.000 H 
ATOM     92  C68 UNL A   1      42.181  13.332  50.513  1.00  0.00    +0.000 C 
BRANCH    4    3
ATOM      3  S1  UNL A   1      39.981  12.416  51.920  1.00  0.00    +0.000 S 
BRANCH    3    2
ATOM     97  H5  UNL A   1      39.396  14.330  53.204  1.00  0.00    +0.000 H 
ATOM      2  C2  UNL A   1      40.200  13.626  53.267  1.00  0.00    +0.000 C 
ATOM     96  H4  UNL A   1      41.151  14.102  53.149  1.00  0.00    +0.000 H 
BRANCH    2    1
ATOM      1  C1  UNL A   1      40.143  12.986  54.642  1.00  0.00    +0.000 C 
ATOM     93  H1  UNL A   1      39.145  12.650  54.839  1.00  0.00    +0.000 H 
ATOM     94  H2  UNL A   1      40.429  13.704  55.383  1.00  0.00    +0.000 H 
ATOM     95  H3  UNL A   1      40.812  12.152  54.677  1.00  0.00    +0.000 H 
ENDBRANCH    2    1
ENDBRANCH    3    2
ENDBRANCH    4    3
ENDBRANCH    9    8
ENDBRANCH   13   12
BRANCH   13   14
ATOM    105  H13 UNL A   1      47.599  17.979  46.211  1.00  0.00    +0.000 H 
ATOM    106  H14 UNL A   1      47.401  17.542  47.890  1.00  0.00    +0.000 H 
ATOM     14  C13 UNL A   1      47.015  18.141  47.093  1.00  0.00    +0.000 C 
ATOM    104  H12 UNL A   1      47.061  19.173  47.367  1.00  0.00    +0.000 H 
ENDBRANCH   13   14
ENDBRANCH   15   13
ENDBRANCH   17   15
ENDBRANCH   18   17
ENDBRANCH   19   18
ENDBRANCH   20   19
ENDBRANCH   21   20
ENDBRANCH   22   21
ENDBRANCH   23   22
ENDBRANCH   24   23
ENDBRANCH   25   24
ENDBRANCH   27   25
ENDBRANCH   31   30
BRANCH   35   36
ATOM     36  C30 UNL A   1      46.423   7.021  51.883  1.00  0.00    +0.000 C 
ATOM     37  C31 UNL A   1      45.234   7.105  52.620  1.00  0.00    +0.000 C 
ATOM     38  F1  UNL A   1      44.716   8.303  52.931  1.00  0.00    +0.000 F 
ATOM     39  C32 UNL A   1      44.588   5.957  53.072  1.00  0.00    +0.000 C 
ATOM     40  F2  UNL A   1      43.475   6.063  53.811  1.00  0.00    +0.000 F 
ATOM     41  C33 UNL A   1      45.100   4.705  52.768  1.00  0.00    +0.000 C 
ATOM     42  F3  UNL A   1      44.474   3.600  53.196  1.00  0.00    +0.000 F 
ATOM     43  C34 UNL A   1      46.266   4.597  52.024  1.00  0.00    +0.000 C 
ATOM     44  F4  UNL A   1      46.756   3.388  51.720  1.00  0.00    +0.000 F 
ATOM     45  C35 UNL A   1      46.929   5.745  51.594  1.00  0.00    +0.000 C 
ATOM     46  F5  UNL A   1      48.060   5.608  50.887  1.00  0.00    +0.000 F 
ENDBRANCH   35   36
BRANCH   52   53
ATOM     53  C41 UNL A   1      52.035  11.171  53.677  1.00  0.00    +0.000 C 
ATOM     54  C42 UNL A   1      51.832  11.776  54.925  1.00  0.00    +0.000 C 
ATOM     55  F6  UNL A   1      50.673  12.395  55.195  1.00  0.00    +0.000 F 
ATOM     56  C43 UNL A   1      52.837  11.780  55.888  1.00  0.00    +0.000 C 
ATOM     57  F7  UNL A   1      52.638  12.403  57.059  1.00  0.00    +0.000 F 
ATOM     58  C44 UNL A   1      54.049  11.154  55.634  1.00  0.00    +0.000 C 
ATOM     59  F8  UNL A   1      55.012  11.155  56.566  1.00  0.00    +0.000 F 
ATOM     60  C45 UNL A   1      54.264  10.535  54.413  1.00  0.00    +0.000 C 
ATOM     61  F9  UNL A   1      55.430   9.920  54.170  1.00  0.00    +0.000 F 
ATOM     62  C46 UNL A   1      53.271  10.551  53.437  1.00  0.00    +0.000 C 
ATOM     63  F10 UNL A   1      53.511   9.954  52.261  1.00  0.00    +0.000 F 
ENDBRANCH   52   53
BRANCH   67   68
ATOM     68  C50 UNL A   1      50.512  15.416  48.371  1.00  0.00    +0.000 C 
ATOM     69  C51 UNL A   1      49.984  16.651  48.773  1.00  0.00    +0.000 C 
ATOM     70  F11 UNL A   1      48.923  16.689  49.592  1.00  0.00    +0.000 F 
ATOM     71  C52 UNL A   1      50.518  17.849  48.304  1.00  0.00    +0.000 C 
ATOM     72  F12 UNL A   1      49.968  19.015  48.672  1.00  0.00    +0.000 F 
ATOM     73  C53 UNL A   1      51.609  17.837  47.447  1.00  0.00    +0.000 C 
ATOM     74  F13 UNL A   1      52.125  18.989  47.001  1.00  0.00    +0.000 F 
ATOM     75  C54 UNL A   1      52.159  16.627  47.049  1.00  0.00    +0.000 C 
ATOM     76  F14 UNL A   1      53.220  16.611  46.232  1.00  0.00    +0.000 F 
ATOM     77  C55 UNL A   1      51.609  15.428  47.498  1.00  0.00    +0.000 C 
ATOM     78  F15 UNL A   1      52.154  14.272  47.089  1.00  0.00    +0.000 F 
ENDBRANCH   67   68
TORSDOF 21
ENDMDL
MODEL 9
REMARK VINA RESULT:      -6.8     32.174     38.690
ROOT
ATOM    129  H37 UNL A   1      49.940  57.299  16.527  1.00  0.00    +0.000 H 
ATOM    130  H38 UNL A   1      51.954  56.993  18.074  1.00  0.00    +0.000 H 
ATOM    131  H39 UNL A   1      48.213  48.267  21.363  1.00  0.00    +0.000 H 
ATOM    132  H40 UNL A   1      46.448  48.326  19.509  1.00  0.00    +0.000 H 
ATOM     31  C26 UNL A   1      46.471  50.733  17.981  1.00  0.00    +0.000 C 
ATOM     32  C27 UNL A   1      47.436  50.317  19.057  1.00  0.00    +0.000 C 
ATOM     33  N3  UNL A   1      48.481  50.954  19.522  1.00  0.00    +0.000 N 
ATOM     34  C28 UNL A   1      48.991  50.154  20.537  1.00  0.00    +0.000 C 
ATOM     35  C29 UNL A   1      50.098  50.351  21.291  1.00  0.00    +0.000 C 
ATOM     47  C36 UNL A   1      50.986  51.475  21.153  1.00  0.00    +0.000 C 
ATOM     48  C37 UNL A   1      52.173  51.725  21.820  1.00  0.00    +0.000 C 
ATOM     49  C38 UNL A   1      52.668  52.960  21.385  1.00  0.00    +0.000 C 
ATOM     50  C39 UNL A   1      51.813  53.458  20.416  1.00  0.00    +0.000 C 
ATOM     51  N4  UNL A   1      50.783  52.539  20.286  1.00  0.00    +0.000 N 
ATOM     52  C40 UNL A   1      51.924  54.681  19.665  1.00  0.00    +0.000 C 
ATOM     64  C47 UNL A   1      51.046  55.095  18.720  1.00  0.00    +0.000 C 
ATOM     65  N5  UNL A   1      49.891  54.469  18.269  1.00  0.00    +0.000 N 
ATOM     66  C48 UNL A   1      49.381  55.267  17.362  1.00  0.00    +0.000 C 
ATOM     67  C49 UNL A   1      48.146  55.083  16.525  1.00  0.00    +0.000 C 
ATOM     79  C56 UNL A   1      47.428  53.951  16.648  1.00  0.00    +0.000 C 
ATOM     80  C57 UNL A   1      46.218  53.629  15.898  1.00  0.00    +0.000 C 
ATOM     81  C58 UNL A   1      45.748  52.442  16.313  1.00  0.00    +0.000 C 
ATOM     82  C59 UNL A   1      46.641  51.905  17.339  1.00  0.00    +0.000 C 
ATOM     83  N6  UNL A   1      47.616  52.862  17.465  1.00  0.00    +0.000 N 
ATOM     84  C60 UNL A   1      50.146  56.504  17.152  1.00  0.00    +0.000 C 
ATOM     85  C61 UNL A   1      51.169  56.332  17.975  1.00  0.00    +0.000 C 
ATOM     86  C62 UNL A   1      48.116  49.007  20.649  1.00  0.00    +0.000 C 
ATOM     87  C63 UNL A   1      47.175  49.029  19.716  1.00  0.00    +0.000 C 
ATOM    123  H31 UNL A   1      52.616  51.108  22.518  1.00  0.00    +0.000 H 
ATOM    124  H32 UNL A   1      53.526  53.420  21.728  1.00  0.00    +0.000 H 
ATOM    125  H33 UNL A   1      50.021  52.628  19.669  1.00  0.00    +0.000 H 
ATOM    126  H34 UNL A   1      45.793  54.219  15.165  1.00  0.00    +0.000 H 
ATOM    127  H35 UNL A   1      44.891  51.982  15.964  1.00  0.00    +0.000 H 
ATOM    128  H36 UNL A   1      48.379  52.777  18.082  1.00  0.00    +0.000 H 
ENDROOT
BRANCH   31   30
ATOM    133  H41 UNL A   1      43.962  51.004  18.886  1.00  0.00    +0.000 H 
ATOM    134  H42 UNL A   1      42.028  49.614  18.434  1.00  0.00    +0.000 H 
ATOM     29  C24 UNL A   1      45.385  48.799  16.794  1.00  0.00    +0.000 C 
ATOM     88  C64 UNL A   1      44.045  50.200  18.244  1.00  0.00    +0.000 C 
ATOM     89  C65 UNL A   1      42.923  49.424  17.956  1.00  0.00    +0.000 C 
ATOM    122  H30 UNL A   1      46.301  48.539  16.398  1.00  0.00    +0.000 H 
ATOM     27  C22 UNL A   1      43.010  48.391  17.019  1.00  0.00    +0.000 C 
ATOM     28  C23 UNL A   1      44.247  48.060  16.459  1.00  0.00    +0.000 C 
ATOM    121  H29 UNL A   1      44.321  47.271  15.797  1.00  0.00    +0.000 H 
ATOM     30  C25 UNL A   1      45.287  49.894  17.668  1.00  0.00    +0.000 C 
BRANCH   27   25
ATOM     25  C21 UNL A   1      41.820  47.594  16.639  1.00  0.00    +0.000 C 
ATOM     26  O2  UNL A   1      40.862  48.146  16.115  1.00  0.00    +0.000 O 
BRANCH   25   24
ATOM    120  H28 UNL A   1      41.852  45.675  16.066  1.00  0.00    +0.000 H 
ATOM     24  N2  UNL A   1      41.787  46.240  16.870  1.00  0.00    +0.000 N 
BRANCH   24   23
ATOM    119  H27 UNL A   1      40.672  45.134  18.195  1.00  0.00    +0.000 H 
ATOM    118  H26 UNL A   1      41.882  46.189  18.932  1.00  0.00    +0.000 H 
ATOM     23  C20 UNL A   1      41.669  45.517  18.127  1.00  0.00    +0.000 C 
BRANCH   23   22
ATOM    116  H24 UNL A   1      42.069  43.436  18.065  1.00  0.00    +0.000 H 
ATOM    117  H25 UNL A   1      43.365  44.497  17.439  1.00  0.00    +0.000 H 
ATOM     22  C19 UNL A   1      42.633  44.335  18.203  1.00  0.00    +0.000 C 
BRANCH   22   21
ATOM    114  H22 UNL A   1      44.451  44.198  19.288  1.00  0.00    +0.000 H 
ATOM    115  H23 UNL A   1      43.105  45.050  20.113  1.00  0.00    +0.000 H 
ATOM     21  C18 UNL A   1      43.407  44.213  19.520  1.00  0.00    +0.000 C 
BRANCH   21   20
ATOM    113  H21 UNL A   1      43.767  43.000  21.196  1.00  0.00    +0.000 H 
ATOM     20  C17 UNL A   1      43.095  42.970  20.364  1.00  0.00    +0.000 C 
ATOM    112  H20 UNL A   1      43.219  42.108  19.742  1.00  0.00    +0.000 H 
BRANCH   20   19
ATOM     19  C16 UNL A   1      41.684  42.921  20.963  1.00  0.00    +0.000 C 
ATOM    110  H18 UNL A   1      41.192  43.845  20.743  1.00  0.00    +0.000 H 
ATOM    111  H19 UNL A   1      41.191  42.078  20.524  1.00  0.00    +0.000 H 
BRANCH   19   18
ATOM     18  C15 UNL A   1      41.659  42.710  22.477  1.00  0.00    +0.000 C 
ATOM    108  H16 UNL A   1      40.694  42.988  22.849  1.00  0.00    +0.000 H 
ATOM    109  H17 UNL A   1      41.865  41.678  22.672  1.00  0.00    +0.000 H 
BRANCH   18   17
ATOM     17  N1  UNL A   1      42.665  43.502  23.151  1.00  0.00    +0.000 N 
ATOM    107  H15 UNL A   1      42.682  44.450  22.888  1.00  0.00    +0.000 H 
BRANCH   17   15
ATOM     15  C14 UNL A   1      43.592  43.160  24.088  1.00  0.00    +0.000 C 
ATOM     16  O1  UNL A   1      43.260  42.285  24.897  1.00  0.00    +0.000 O 
BRANCH   15   13
ATOM     13  C12 UNL A   1      44.979  43.814  24.191  1.00  0.00    +0.000 C 
ATOM    103  H11 UNL A   1      45.622  43.060  24.597  1.00  0.00    +0.000 H 
BRANCH   13   12
ATOM    101  H9  UNL A   1      47.401  42.785  20.335  1.00  0.00    +0.000 H 
ATOM    102  H10 UNL A   1      46.251  42.173  22.363  1.00  0.00    +0.000 H 
ATOM    135  H43 UNL A   1      45.085  46.162  22.899  1.00  0.00    +0.000 H 
ATOM    136  H44 UNL A   1      46.096  46.740  20.788  1.00  0.00    +0.000 H 
ATOM      9  C8  UNL A   1      46.878  44.826  20.373  1.00  0.00    +0.000 C 
ATOM     10  C9  UNL A   1      46.897  43.512  20.866  1.00  0.00    +0.000 C 
ATOM     11  C10 UNL A   1      46.251  43.158  22.058  1.00  0.00    +0.000 C 
ATOM     12  C11 UNL A   1      45.606  44.118  22.841  1.00  0.00    +0.000 C 
ATOM     90  C66 UNL A   1      45.567  45.431  22.352  1.00  0.00    +0.000 C 
ATOM     91  C67 UNL A   1      46.172  45.772  21.134  1.00  0.00    +0.000 C 
BRANCH    9    8
ATOM     98  H6  UNL A   1      49.449  46.090  15.853  1.00  0.00    +0.000 H 
ATOM     99  H7  UNL A   1      47.029  46.184  15.942  1.00  0.00    +0.000 H 
ATOM      4  C3  UNL A   1      49.678  45.479  17.859  1.00  0.00    +0.000 C 
ATOM      5  C4  UNL A   1      48.955  45.854  16.728  1.00  0.00    +0.000 C 
ATOM      6  C5  UNL A   1      47.565  45.909  16.780  1.00  0.00    +0.000 C 
ATOM      7  C6  UNL A   1      46.894  45.591  17.965  1.00  0.00    +0.000 C 
ATOM      8  C7  UNL A   1      47.589  45.197  19.123  1.00  0.00    +0.000 C 
ATOM    137  H45 UNL A   1      49.538  44.886  19.874  1.00  0.00    +0.000 H 
ATOM    100  H8  UNL A   1      45.864  45.647  17.991  1.00  0.00    +0.000 H 
ATOM     92  C68 UNL A   1      48.995  45.158  19.040  1.00  0.00    +0.000 C 
BRANCH    4    3
ATOM      3  S1  UNL A   1      51.459  45.488  17.826  1.00  0.00    +0.000 S 
BRANCH    3    2
ATOM     97  H5  UNL A   1      52.623  43.744  16.705  1.00  0.00    +0.000 H 
ATOM      2  C2  UNL A   1      51.798  43.751  17.387  1.00  0.00    +0.000 C 
ATOM     96  H4  UNL A   1      50.918  43.331  16.944  1.00  0.00    +0.000 H 
BRANCH    2    1
ATOM      1  C1  UNL A   1      52.187  42.909  18.589  1.00  0.00    +0.000 C 
ATOM     93  H1  UNL A   1      51.660  41.977  18.557  1.00  0.00    +0.000 H 
ATOM     94  H2  UNL A   1      51.932  43.431  19.488  1.00  0.00    +0.000 H 
ATOM     95  H3  UNL A   1      53.240  42.724  18.570  1.00  0.00    +0.000 H 
ENDBRANCH    2    1
ENDBRANCH    3    2
ENDBRANCH    4    3
ENDBRANCH    9    8
ENDBRANCH   13   12
BRANCH   13   14
ATOM    105  H13 UNL A   1      44.308  45.640  25.080  1.00  0.00    +0.000 H 
ATOM    106  H14 UNL A   1      46.035  45.393  25.174  1.00  0.00    +0.000 H 
ATOM     14  C13 UNL A   1      45.080  44.917  25.246  1.00  0.00    +0.000 C 
ATOM    104  H12 UNL A   1      44.966  44.491  26.220  1.00  0.00    +0.000 H 
ENDBRANCH   13   14
ENDBRANCH   15   13
ENDBRANCH   17   15
ENDBRANCH   18   17
ENDBRANCH   19   18
ENDBRANCH   20   19
ENDBRANCH   21   20
ENDBRANCH   22   21
ENDBRANCH   23   22
ENDBRANCH   24   23
ENDBRANCH   25   24
ENDBRANCH   27   25
ENDBRANCH   31   30
BRANCH   35   36
ATOM     36  C30 UNL A   1      50.419  49.323  22.337  1.00  0.00    +0.000 C 
ATOM     37  C31 UNL A   1      50.017  49.482  23.671  1.00  0.00    +0.000 C 
ATOM     38  F1  UNL A   1      49.378  50.597  24.055  1.00  0.00    +0.000 F 
ATOM     39  C32 UNL A   1      50.302  48.510  24.626  1.00  0.00    +0.000 C 
ATOM     40  F2  UNL A   1      49.945  48.702  25.904  1.00  0.00    +0.000 F 
ATOM     41  C33 UNL A   1      50.963  47.347  24.260  1.00  0.00    +0.000 C 
ATOM     42  F3  UNL A   1      51.230  46.408  25.178  1.00  0.00    +0.000 F 
ATOM     43  C34 UNL A   1      51.355  47.160  22.942  1.00  0.00    +0.000 C 
ATOM     44  F4  UNL A   1      51.984  46.033  22.585  1.00  0.00    +0.000 F 
ATOM     45  C35 UNL A   1      51.095  48.144  21.990  1.00  0.00    +0.000 C 
ATOM     46  F5  UNL A   1      51.496  47.939  20.727  1.00  0.00    +0.000 F 
ENDBRANCH   35   36
BRANCH   52   53
ATOM     53  C41 UNL A   1      53.109  55.561  19.930  1.00  0.00    +0.000 C 
ATOM     54  C42 UNL A   1      53.037  56.640  20.821  1.00  0.00    +0.000 C 
ATOM     55  F6  UNL A   1      51.877  56.943  21.422  1.00  0.00    +0.000 F 
ATOM     56  C43 UNL A   1      54.151  57.438  21.069  1.00  0.00    +0.000 C 
ATOM     57  F7  UNL A   1      54.049  58.493  21.890  1.00  0.00    +0.000 F 
ATOM     58  C44 UNL A   1      55.363  57.153  20.456  1.00  0.00    +0.000 C 
ATOM     59  F8  UNL A   1      56.434  57.919  20.701  1.00  0.00    +0.000 F 
ATOM     60  C45 UNL A   1      55.460  56.079  19.585  1.00  0.00    +0.000 C 
ATOM     61  F9  UNL A   1      56.633  55.795  19.001  1.00  0.00    +0.000 F 
ATOM     62  C46 UNL A   1      54.342  55.295  19.315  1.00  0.00    +0.000 C 
ATOM     63  F10 UNL A   1      54.464  54.270  18.459  1.00  0.00    +0.000 F 
ENDBRANCH   52   53
BRANCH   67   68
ATOM     68  C50 UNL A   1      47.726  56.120  15.549  1.00  0.00    +0.000 C 
ATOM     69  C51 UNL A   1      47.980  55.962  14.179  1.00  0.00    +0.000 C 
ATOM     70  F11 UNL A   1      48.629  54.874  13.741  1.00  0.00    +0.000 F 
ATOM     71  C52 UNL A   1      47.603  56.939  13.261  1.00  0.00    +0.000 C 
ATOM     72  F12 UNL A   1      47.895  56.781  11.961  1.00  0.00    +0.000 F 
ATOM     73  C53 UNL A   1      46.941  58.079  13.689  1.00  0.00    +0.000 C 
ATOM     74  F13 UNL A   1      46.575  59.016  12.805  1.00  0.00    +0.000 F 
ATOM     75  C54 UNL A   1      46.664  58.249  15.038  1.00  0.00    +0.000 C 
ATOM     76  F14 UNL A   1      46.012  59.343  15.454  1.00  0.00    +0.000 F 
ATOM     77  C55 UNL A   1      47.063  57.284  15.960  1.00  0.00    +0.000 C 
ATOM     78  F15 UNL A   1      46.792  57.479  17.260  1.00  0.00    +0.000 F 
ENDBRANCH   67   68
TORSDOF 21
ENDMDL
MODEL 10
REMARK VINA RESULT:      -6.8     41.083     49.391
ROOT
ATOM    129  H37 UNL A   1      57.093  21.715  18.247  1.00  0.00    +0.000 H 
ATOM    130  H38 UNL A   1      54.670  22.502  18.007  1.00  0.00    +0.000 H 
ATOM    131  H39 UNL A   1      53.915  17.753   9.184  1.00  0.00    +0.000 H 
ATOM    132  H40 UNL A   1      56.152  16.588   9.621  1.00  0.00    +0.000 H 
ATOM     31  C26 UNL A   1      57.468  17.483  11.986  1.00  0.00    +0.000 C 
ATOM     32  C27 UNL A   1      56.098  17.863  11.496  1.00  0.00    +0.000 C 
ATOM     33  N3  UNL A   1      55.221  18.672  12.035  1.00  0.00    +0.000 N 
ATOM     34  C28 UNL A   1      54.147  18.706  11.155  1.00  0.00    +0.000 C 
ATOM     35  C29 UNL A   1      52.968  19.360  11.287  1.00  0.00    +0.000 C 
ATOM     47  C36 UNL A   1      52.607  20.161  12.427  1.00  0.00    +0.000 C 
ATOM     48  C37 UNL A   1      51.408  20.802  12.687  1.00  0.00    +0.000 C 
ATOM     49  C38 UNL A   1      51.533  21.492  13.898  1.00  0.00    +0.000 C 
ATOM     50  C39 UNL A   1      52.795  21.247  14.414  1.00  0.00    +0.000 C 
ATOM     51  N4  UNL A   1      53.445  20.431  13.499  1.00  0.00    +0.000 N 
ATOM     52  C40 UNL A   1      53.368  21.719  15.646  1.00  0.00    +0.000 C 
ATOM     64  C47 UNL A   1      54.614  21.422  16.089  1.00  0.00    +0.000 C 
ATOM     65  N5  UNL A   1      55.585  20.628  15.493  1.00  0.00    +0.000 N 
ATOM     66  C48 UNL A   1      56.619  20.660  16.297  1.00  0.00    +0.000 C 
ATOM     67  C49 UNL A   1      57.944  19.961  16.167  1.00  0.00    +0.000 C 
ATOM     79  C56 UNL A   1      58.159  19.149  15.115  1.00  0.00    +0.000 C 
ATOM     80  C57 UNL A   1      59.386  18.399  14.862  1.00  0.00    +0.000 C 
ATOM     81  C58 UNL A   1      59.261  17.733  13.703  1.00  0.00    +0.000 C 
ATOM     82  C59 UNL A   1      57.933  17.986  13.145  1.00  0.00    +0.000 C 
ATOM     83  N6  UNL A   1      57.345  18.828  14.056  1.00  0.00    +0.000 N 
ATOM     84  C60 UNL A   1      56.428  21.501  17.488  1.00  0.00    +0.000 C 
ATOM     85  C61 UNL A   1      55.178  21.910  17.331  1.00  0.00    +0.000 C 
ATOM     86  C62 UNL A   1      54.498  17.872  10.027  1.00  0.00    +0.000 C 
ATOM     87  C63 UNL A   1      55.669  17.279  10.216  1.00  0.00    +0.000 C 
ATOM    123  H31 UNL A   1      50.566  20.776  12.090  1.00  0.00    +0.000 H 
ATOM    124  H32 UNL A   1      50.808  22.084  14.333  1.00  0.00    +0.000 H 
ATOM    125  H33 UNL A   1      54.364  20.093  13.598  1.00  0.00    +0.000 H 
ATOM    126  H34 UNL A   1      60.215  18.382  15.476  1.00  0.00    +0.000 H 
ATOM    127  H35 UNL A   1      59.988  17.138  13.273  1.00  0.00    +0.000 H 
ATOM    128  H36 UNL A   1      56.426  19.168  13.961  1.00  0.00    +0.000 H 
ENDROOT
BRANCH   31   30
ATOM    133  H41 UNL A   1      59.115  18.193   9.993  1.00  0.00    +0.000 H 
ATOM    134  H42 UNL A   1      60.510  16.781   8.602  1.00  0.00    +0.000 H 
ATOM     29  C24 UNL A   1      58.397  15.224  11.383  1.00  0.00    +0.000 C 
ATOM     88  C64 UNL A   1      59.144  17.175  10.160  1.00  0.00    +0.000 C 
ATOM     89  C65 UNL A   1      59.977  16.369   9.384  1.00  0.00    +0.000 C 
ATOM    122  H30 UNL A   1      57.783  14.792  12.090  1.00  0.00    +0.000 H 
ATOM     27  C22 UNL A   1      60.088  15.005   9.665  1.00  0.00    +0.000 C 
ATOM     28  C23 UNL A   1      59.277  14.427  10.646  1.00  0.00    +0.000 C 
ATOM    121  H29 UNL A   1      59.328  13.412  10.826  1.00  0.00    +0.000 H 
ATOM     30  C25 UNL A   1      58.345  16.610  11.165  1.00  0.00    +0.000 C 
BRANCH   27   25
ATOM     25  C21 UNL A   1      61.015  14.135   8.904  1.00  0.00    +0.000 C 
ATOM     26  O2  UNL A   1      62.146  13.937   9.329  1.00  0.00    +0.000 O 
BRANCH   25   24
ATOM    120  H28 UNL A   1      61.200  13.714   6.954  1.00  0.00    +0.000 H 
ATOM     24  N2  UNL A   1      60.613  13.549   7.728  1.00  0.00    +0.000 N 
BRANCH   24   23
ATOM    119  H27 UNL A   1      59.009  12.452   8.395  1.00  0.00    +0.000 H 
ATOM    118  H26 UNL A   1      59.760  11.856   6.912  1.00  0.00    +0.000 H 
ATOM     23  C20 UNL A   1      59.447  12.722   7.456  1.00  0.00    +0.000 C 
BRANCH   23   22
ATOM    116  H24 UNL A   1      58.882  14.249   6.100  1.00  0.00    +0.000 H 
ATOM    117  H25 UNL A   1      57.936  12.734   6.004  1.00  0.00    +0.000 H 
ATOM     22  C19 UNL A   1      58.393  13.465   6.639  1.00  0.00    +0.000 C 
BRANCH   22   21
ATOM    114  H22 UNL A   1      56.354  13.574   7.215  1.00  0.00    +0.000 H 
ATOM    115  H23 UNL A   1      57.552  13.990   8.484  1.00  0.00    +0.000 H 
ATOM     21  C18 UNL A   1      57.258  14.089   7.460  1.00  0.00    +0.000 C 
BRANCH   21   20
ATOM    113  H21 UNL A   1      57.976  16.060   7.352  1.00  0.00    +0.000 H 
ATOM     20  C17 UNL A   1      57.022  15.589   7.237  1.00  0.00    +0.000 C 
ATOM    112  H20 UNL A   1      56.293  15.918   7.948  1.00  0.00    +0.000 H 
BRANCH   20   19
ATOM     19  C16 UNL A   1      56.526  15.975   5.839  1.00  0.00    +0.000 C 
ATOM    110  H18 UNL A   1      56.863  16.966   5.624  1.00  0.00    +0.000 H 
ATOM    111  H19 UNL A   1      56.921  15.249   5.159  1.00  0.00    +0.000 H 
BRANCH   19   18
ATOM     18  C15 UNL A   1      55.004  15.941   5.688  1.00  0.00    +0.000 C 
ATOM    108  H16 UNL A   1      54.761  15.854   4.649  1.00  0.00    +0.000 H 
ATOM    109  H17 UNL A   1      54.634  15.104   6.243  1.00  0.00    +0.000 H 
BRANCH   18   17
ATOM     17  N1  UNL A   1      54.381  17.136   6.214  1.00  0.00    +0.000 N 
ATOM    107  H15 UNL A   1      54.061  17.056   7.141  1.00  0.00    +0.000 H 
BRANCH   17   15
ATOM     15  C14 UNL A   1      54.163  18.355   5.646  1.00  0.00    +0.000 C 
ATOM     16  O1  UNL A   1      53.049  18.535   5.141  1.00  0.00    +0.000 O 
BRANCH   15   13
ATOM     13  C12 UNL A   1      55.221  19.468   5.589  1.00  0.00    +0.000 C 
ATOM    103  H11 UNL A   1      54.711  20.329   5.209  1.00  0.00    +0.000 H 
BRANCH   13   12
ATOM    101  H9  UNL A   1      54.946  21.912   9.558  1.00  0.00    +0.000 H 
ATOM    102  H10 UNL A   1      54.022  21.078   7.494  1.00  0.00    +0.000 H 
ATOM    135  H43 UNL A   1      57.503  18.836   6.849  1.00  0.00    +0.000 H 
ATOM    136  H44 UNL A   1      58.355  19.543   8.990  1.00  0.00    +0.000 H 
ATOM      9  C8  UNL A   1      56.749  20.825   9.467  1.00  0.00    +0.000 C 
ATOM     10  C9  UNL A   1      55.495  21.244   8.995  1.00  0.00    +0.000 C 
ATOM     11  C10 UNL A   1      54.966  20.780   7.782  1.00  0.00    +0.000 C 
ATOM     12  C11 UNL A   1      55.697  19.920   6.960  1.00  0.00    +0.000 C 
ATOM     90  C66 UNL A   1      56.944  19.483   7.426  1.00  0.00    +0.000 C 
ATOM     91  C67 UNL A   1      57.448  19.910   8.662  1.00  0.00    +0.000 C 
BRANCH    9    8
ATOM     98  H6  UNL A   1      58.742  22.640  14.090  1.00  0.00    +0.000 H 
ATOM     99  H7  UNL A   1      60.062  21.164  12.692  1.00  0.00    +0.000 H 
ATOM      4  C3  UNL A   1      57.083  22.680  12.788  1.00  0.00    +0.000 C 
ATOM      5  C4  UNL A   1      58.360  22.297  13.195  1.00  0.00    +0.000 C 
ATOM      6  C5  UNL A   1      59.118  21.450  12.391  1.00  0.00    +0.000 C 
ATOM      7  C6  UNL A   1      58.602  20.986  11.176  1.00  0.00    +0.000 C 
ATOM      8  C7  UNL A   1      57.313  21.343  10.739  1.00  0.00    +0.000 C 
ATOM    137  H45 UNL A   1      55.629  22.499  11.276  1.00  0.00    +0.000 H 
ATOM    100  H8  UNL A   1      59.180  20.368  10.587  1.00  0.00    +0.000 H 
ATOM     92  C68 UNL A   1      56.573  22.206  11.571  1.00  0.00    +0.000 C 
BRANCH    4    3
ATOM      3  S1  UNL A   1      56.140  23.831  13.768  1.00  0.00    +0.000 S 
BRANCH    3    2
ATOM     97  H5  UNL A   1      58.043  23.382  15.122  1.00  0.00    +0.000 H 
ATOM      2  C2  UNL A   1      57.322  24.174  15.115  1.00  0.00    +0.000 C 
ATOM     96  H4  UNL A   1      56.784  24.224  16.039  1.00  0.00    +0.000 H 
BRANCH    2    1
ATOM      1  C1  UNL A   1      58.072  25.478  14.916  1.00  0.00    +0.000 C 
ATOM     93  H1  UNL A   1      58.100  25.719  13.873  1.00  0.00    +0.000 H 
ATOM     94  H2  UNL A   1      59.072  25.375  15.284  1.00  0.00    +0.000 H 
ATOM     95  H3  UNL A   1      57.575  26.262  15.449  1.00  0.00    +0.000 H 
ENDBRANCH    2    1
ENDBRANCH    3    2
ENDBRANCH    4    3
ENDBRANCH    9    8
ENDBRANCH   13   12
BRANCH   13   14
ATOM    105  H13 UNL A   1      56.904  18.407   4.806  1.00  0.00    +0.000 H 
ATOM    106  H14 UNL A   1      56.928  20.123   4.479  1.00  0.00    +0.000 H 
ATOM     14  C13 UNL A   1      56.308  19.253   4.535  1.00  0.00    +0.000 C 
ATOM    104  H12 UNL A   1      55.852  19.078   3.583  1.00  0.00    +0.000 H 
ENDBRANCH   13   14
ENDBRANCH   15   13
ENDBRANCH   17   15
ENDBRANCH   18   17
ENDBRANCH   19   18
ENDBRANCH   20   19
ENDBRANCH   21   20
ENDBRANCH   22   21
ENDBRANCH   23   22
ENDBRANCH   24   23
ENDBRANCH   25   24
ENDBRANCH   27   25
ENDBRANCH   31   30
BRANCH   35   36
ATOM     36  C30 UNL A   1      51.973  19.234  10.170  1.00  0.00    +0.000 C 
ATOM     37  C31 UNL A   1      51.665  20.318   9.336  1.00  0.00    +0.000 C 
ATOM     38  F1  UNL A   1      52.219  21.519   9.557  1.00  0.00    +0.000 F 
ATOM     39  C32 UNL A   1      50.757  20.181   8.289  1.00  0.00    +0.000 C 
ATOM     40  F2  UNL A   1      50.446  21.241   7.530  1.00  0.00    +0.000 F 
ATOM     41  C33 UNL A   1      50.167  18.952   8.036  1.00  0.00    +0.000 C 
ATOM     42  F3  UNL A   1      49.300  18.818   7.023  1.00  0.00    +0.000 F 
ATOM     43  C34 UNL A   1      50.471  17.861   8.838  1.00  0.00    +0.000 C 
ATOM     44  F4  UNL A   1      49.910  16.670   8.588  1.00  0.00    +0.000 F 
ATOM     45  C35 UNL A   1      51.358  18.002   9.903  1.00  0.00    +0.000 C 
ATOM     46  F5  UNL A   1      51.623  16.933  10.667  1.00  0.00    +0.000 F 
ENDBRANCH   35   36
BRANCH   52   53
ATOM     53  C41 UNL A   1      52.520  22.593  16.523  1.00  0.00    +0.000 C 
ATOM     54  C42 UNL A   1      51.812  22.069  17.613  1.00  0.00    +0.000 C 
ATOM     55  F6  UNL A   1      51.837  20.752  17.866  1.00  0.00    +0.000 F 
ATOM     56  C43 UNL A   1      51.042  22.896  18.428  1.00  0.00    +0.000 C 
ATOM     57  F7  UNL A   1      50.336  22.368  19.439  1.00  0.00    +0.000 F 
ATOM     58  C44 UNL A   1      50.991  24.261  18.187  1.00  0.00    +0.000 C 
ATOM     59  F8  UNL A   1      50.254  25.054  18.975  1.00  0.00    +0.000 F 
ATOM     60  C45 UNL A   1      51.698  24.801  17.124  1.00  0.00    +0.000 C 
ATOM     61  F9  UNL A   1      51.660  26.121  16.896  1.00  0.00    +0.000 F 
ATOM     62  C46 UNL A   1      52.449  23.974  16.292  1.00  0.00    +0.000 C 
ATOM     63  F10 UNL A   1      53.113  24.524  15.265  1.00  0.00    +0.000 F 
ENDBRANCH   52   53
BRANCH   67   68
ATOM     68  C50 UNL A   1      59.002  20.137  17.193  1.00  0.00    +0.000 C 
ATOM     69  C51 UNL A   1      59.871  21.236  17.147  1.00  0.00    +0.000 C 
ATOM     70  F11 UNL A   1      59.766  22.130  16.155  1.00  0.00    +0.000 F 
ATOM     71  C52 UNL A   1      60.876  21.397  18.099  1.00  0.00    +0.000 C 
ATOM     72  F12 UNL A   1      61.721  22.435  18.008  1.00  0.00    +0.000 F 
ATOM     73  C53 UNL A   1      61.014  20.480  19.129  1.00  0.00    +0.000 C 
ATOM     74  F13 UNL A   1      61.977  20.638  20.046  1.00  0.00    +0.000 F 
ATOM     75  C54 UNL A   1      60.154  19.394  19.204  1.00  0.00    +0.000 C 
ATOM     76  F14 UNL A   1      60.274  18.512  20.206  1.00  0.00    +0.000 F 
ATOM     77  C55 UNL A   1      59.164  19.218  18.239  1.00  0.00    +0.000 C 
ATOM     78  F15 UNL A   1      58.353  18.153  18.330  1.00  0.00    +0.000 F 
ENDBRANCH   67   68
TORSDOF 21
ENDMDL
