MODEL 1
REMARK VINA RESULT:      -7.8      0.000      0.000
ROOT
ATOM    142  H40 UNL A   1      20.085  31.340  -0.352  1.00  0.00    +0.000 H 
ATOM    143  H41 UNL A   1      17.543  31.889  -0.539  1.00  0.00    +0.000 H 
ATOM    144  H42 UNL A   1      18.080  27.887  -1.458  1.00  0.00    +0.000 H 
ATOM    145  H43 UNL A   1      15.689  22.324  -3.472  1.00  0.00    +0.000 H 
ATOM    146  H44 UNL A   1      18.159  21.778  -3.229  1.00  0.00    +0.000 H 
ATOM    147  H45 UNL A   1      17.636  25.779  -2.228  1.00  0.00    +0.000 H 
ATOM    148  H46 UNL A   1      12.700  26.662  -2.596  1.00  0.00    +0.000 H 
ATOM    149  H47 UNL A   1      13.222  29.098  -2.007  1.00  0.00    +0.000 H 
ATOM    150  H48 UNL A   1      22.937  26.815  -0.833  1.00  0.00    +0.000 H 
ATOM    151  H49 UNL A   1      22.520  24.513  -1.874  1.00  0.00    +0.000 H 
ATOM     38  C31 UNL A   1      19.772  23.982  -2.413  1.00  0.00    +0.000 C 
ATOM     39  C32 UNL A   1      20.381  25.266  -1.925  1.00  0.00    +0.000 C 
ATOM     40  N4  UNL A   1      19.799  26.407  -1.647  1.00  0.00    +0.000 N 
ATOM     41  C33 UNL A   1      20.808  27.246  -1.195  1.00  0.00    +0.000 C 
ATOM     42  C34 UNL A   1      20.726  28.551  -0.840  1.00  0.00    +0.000 C 
ATOM     54  C41 UNL A   1      19.513  29.326  -0.874  1.00  0.00    +0.000 C 
ATOM     55  C42 UNL A   1      19.339  30.671  -0.600  1.00  0.00    +0.000 C 
ATOM     56  C43 UNL A   1      17.976  30.969  -0.717  1.00  0.00    +0.000 C 
ATOM     57  C44 UNL A   1      17.308  29.822  -1.111  1.00  0.00    +0.000 C 
ATOM     58  N5  UNL A   1      18.262  28.820  -1.200  1.00  0.00    +0.000 N 
ATOM     59  C45 UNL A   1      15.905  29.648  -1.385  1.00  0.00    +0.000 C 
ATOM     71  C52 UNL A   1      15.327  28.489  -1.787  1.00  0.00    +0.000 C 
ATOM     72  N6  UNL A   1      15.918  27.255  -2.017  1.00  0.00    +0.000 N 
ATOM     73  C53 UNL A   1      14.946  26.451  -2.373  1.00  0.00    +0.000 C 
ATOM     74  C54 UNL A   1      15.009  25.000  -2.765  1.00  0.00    +0.000 C 
ATOM     86  C61 UNL A   1      16.204  24.379  -2.796  1.00  0.00    +0.000 C 
ATOM     87  C62 UNL A   1      16.422  22.984  -3.167  1.00  0.00    +0.000 C 
ATOM     88  C63 UNL A   1      17.728  22.699  -3.049  1.00  0.00    +0.000 C 
ATOM     89  C64 UNL A   1      18.445  23.903  -2.625  1.00  0.00    +0.000 C 
ATOM     90  N7  UNL A   1      17.459  24.850  -2.501  1.00  0.00    +0.000 N 
ATOM     91  C65 UNL A   1      13.619  27.082  -2.387  1.00  0.00    +0.000 C 
ATOM     92  C66 UNL A   1      13.913  28.332  -2.061  1.00  0.00    +0.000 C 
ATOM     93  C67 UNL A   1      22.030  26.471  -1.187  1.00  0.00    +0.000 C 
ATOM     94  C68 UNL A   1      21.833  25.262  -1.691  1.00  0.00    +0.000 C 
ENDROOT
BRANCH   38   37
ATOM     34  C27 UNL A   1      22.281  20.553  -2.985  1.00  0.00    +0.000 C 
ATOM     35  C28 UNL A   1      21.965  20.970  -1.688  1.00  0.00    +0.000 C 
ATOM     36  C29 UNL A   1      21.120  22.067  -1.497  1.00  0.00    +0.000 C 
ATOM     37  C30 UNL A   1      20.614  22.774  -2.599  1.00  0.00    +0.000 C 
ATOM    140  H38 UNL A   1      22.355  20.470  -0.875  1.00  0.00    +0.000 H 
ATOM    141  H39 UNL A   1      20.867  22.358  -0.540  1.00  0.00    +0.000 H 
ATOM    152  H50 UNL A   1      20.558  22.848  -4.711  1.00  0.00    +0.000 H 
ATOM    153  H51 UNL A   1      21.867  20.834  -5.037  1.00  0.00    +0.000 H 
ATOM     95  C69 UNL A   1      20.919  22.331  -3.895  1.00  0.00    +0.000 C 
ATOM     96  C70 UNL A   1      21.707  21.198  -4.085  1.00  0.00    +0.000 C 
BRANCH   34   32
ATOM     33  O4  UNL A   1      23.162  18.761  -4.213  1.00  0.00    +0.000 O 
ATOM     32  C26 UNL A   1      23.186  19.395  -3.162  1.00  0.00    +0.000 C 
BRANCH   32   31
ATOM    139  H37 UNL A   1      24.687  19.727  -1.880  1.00  0.00    +0.000 H 
ATOM     31  N3  UNL A   1      24.051  19.030  -2.163  1.00  0.00    +0.000 N 
BRANCH   31   30
ATOM    137  H35 UNL A   1      23.280  17.189  -1.632  1.00  0.00    +0.000 H 
ATOM    138  H36 UNL A   1      25.033  17.254  -1.835  1.00  0.00    +0.000 H 
ATOM     30  C25 UNL A   1      24.168  17.761  -1.460  1.00  0.00    +0.000 C 
BRANCH   30   29
ATOM     29  C24 UNL A   1      24.348  17.954   0.044  1.00  0.00    +0.000 C 
ATOM    135  H33 UNL A   1      23.528  17.478   0.541  1.00  0.00    +0.000 H 
ATOM    136  H34 UNL A   1      25.297  17.526   0.290  1.00  0.00    +0.000 H 
BRANCH   29   28
ATOM     28  C23 UNL A   1      24.402  19.415   0.504  1.00  0.00    +0.000 C 
ATOM    133  H31 UNL A   1      25.076  19.938  -0.142  1.00  0.00    +0.000 H 
ATOM    134  H32 UNL A   1      23.395  19.772   0.461  1.00  0.00    +0.000 H 
BRANCH   28   27
ATOM     27  C22 UNL A   1      24.866  19.637   1.950  1.00  0.00    +0.000 C 
ATOM    132  H30 UNL A   1      25.879  19.975   1.888  1.00  0.00    +0.000 H 
ATOM    131  H29 UNL A   1      24.756  18.713   2.478  1.00  0.00    +0.000 H 
BRANCH   27   26
ATOM    129  H27 UNL A   1      24.443  20.715   3.734  1.00  0.00    +0.000 H 
ATOM     26  C21 UNL A   1      24.101  20.719   2.720  1.00  0.00    +0.000 C 
ATOM    130  H28 UNL A   1      24.294  21.647   2.225  1.00  0.00    +0.000 H 
BRANCH   26   25
ATOM     25  C20 UNL A   1      22.583  20.523   2.722  1.00  0.00    +0.000 C 
ATOM    127  H25 UNL A   1      22.351  19.601   2.230  1.00  0.00    +0.000 H 
ATOM    128  H26 UNL A   1      22.251  20.510   3.740  1.00  0.00    +0.000 H 
BRANCH   25   24
ATOM    126  H24 UNL A   1      21.881  21.514   1.060  1.00  0.00    +0.000 H 
ATOM     24  N2  UNL A   1      21.900  21.602   2.040  1.00  0.00    +0.000 N 
BRANCH   24   22
ATOM     22  C19 UNL A   1      21.279  22.717   2.513  1.00  0.00    +0.000 C 
ATOM     23  O3  UNL A   1      21.529  23.025   3.685  1.00  0.00    +0.000 O 
BRANCH   22   20
ATOM    122  H20 UNL A   1      20.579  23.417   0.674  1.00  0.00    +0.000 H 
ATOM     20  C17 UNL A   1      20.291  23.564   1.694  1.00  0.00    +0.000 C 
BRANCH   20   19
ATOM     97  C71 UNL A   1      18.181  22.984   2.959  1.00  0.00    +0.000 C 
ATOM     98  C72 UNL A   1      16.836  22.568   3.029  1.00  0.00    +0.000 C 
ATOM     16  C13 UNL A   1      16.098  22.290   1.863  1.00  0.00    +0.000 C 
ATOM     17  C14 UNL A   1      16.809  22.311   0.651  1.00  0.00    +0.000 C 
ATOM     18  C15 UNL A   1      18.168  22.638   0.593  1.00  0.00    +0.000 C 
ATOM     19  C16 UNL A   1      18.861  23.046   1.733  1.00  0.00    +0.000 C 
ATOM    120  H18 UNL A   1      16.313  22.077  -0.223  1.00  0.00    +0.000 H 
ATOM    121  H19 UNL A   1      18.666  22.576  -0.308  1.00  0.00    +0.000 H 
ATOM    154  H52 UNL A   1      18.675  23.249   3.826  1.00  0.00    +0.000 H 
BRANCH   16   15
ATOM    102  C73 UNL A   1      14.120  20.839   1.312  1.00  0.00    +0.000 C 
ATOM     11  C8  UNL A   1      12.741  20.623   1.287  1.00  0.00    +0.000 C 
ATOM     12  C9  UNL A   1      11.853  21.567   1.793  1.00  0.00    +0.000 C 
ATOM     13  C10 UNL A   1      12.352  22.745   2.338  1.00  0.00    +0.000 C 
ATOM     14  C11 UNL A   1      13.731  22.981   2.345  1.00  0.00    +0.000 C 
ATOM     15  C12 UNL A   1      14.640  22.038   1.830  1.00  0.00    +0.000 C 
ATOM    117  H15 UNL A   1      10.836  21.395   1.765  1.00  0.00    +0.000 H 
ATOM    118  H16 UNL A   1      11.706  23.444   2.736  1.00  0.00    +0.000 H 
ATOM    119  H17 UNL A   1      14.088  23.866   2.737  1.00  0.00    +0.000 H 
ATOM    155  H53 UNL A   1      14.759  20.117   0.948  1.00  0.00    +0.000 H 
BRANCH   11   10
ATOM     10  O2  UNL A   1      12.176  19.527   0.610  1.00  0.00    +0.000 O 
BRANCH   10    8
ATOM      9  O1  UNL A   1      11.403  18.077   2.256  1.00  0.00    +0.000 O 
ATOM      8  C7  UNL A   1      12.068  18.304   1.254  1.00  0.00    +0.000 C 
BRANCH    8    7
ATOM    116  H14 UNL A   1      12.288  16.552   0.288  1.00  0.00    +0.000 H 
ATOM      7  N1  UNL A   1      12.794  17.318   0.642  1.00  0.00    +0.000 N 
BRANCH    7    6
ATOM    114  H12 UNL A   1      14.635  18.243   0.726  1.00  0.00    +0.000 H 
ATOM    115  H13 UNL A   1      14.627  16.516   1.095  1.00  0.00    +0.000 H 
ATOM      6  C6  UNL A   1      14.233  17.286   0.464  1.00  0.00    +0.000 C 
BRANCH    6    5
ATOM    113  H11 UNL A   1      14.229  15.991  -1.185  1.00  0.00    +0.000 H 
ATOM      5  C5  UNL A   1      14.627  16.962  -0.977  1.00  0.00    +0.000 C 
ATOM    112  H10 UNL A   1      15.694  17.006  -1.048  1.00  0.00    +0.000 H 
BRANCH    5    4
ATOM      4  C4  UNL A   1      14.040  17.903  -2.035  1.00  0.00    +0.000 C 
ATOM    110  H8  UNL A   1      12.980  17.767  -2.045  1.00  0.00    +0.000 H 
ATOM    111  H9  UNL A   1      14.346  18.889  -1.753  1.00  0.00    +0.000 H 
BRANCH    4    3
ATOM      3  C3  UNL A   1      14.557  17.696  -3.463  1.00  0.00    +0.000 C 
ATOM    108  H6  UNL A   1      15.459  17.124  -3.408  1.00  0.00    +0.000 H 
ATOM    109  H7  UNL A   1      13.768  17.206  -3.994  1.00  0.00    +0.000 H 
BRANCH    3    2
ATOM      2  C2  UNL A   1      14.858  18.977  -4.245  1.00  0.00    +0.000 C 
ATOM    107  H5  UNL A   1      14.581  18.799  -5.263  1.00  0.00    +0.000 H 
ATOM    106  H4  UNL A   1      15.899  19.201  -4.143  1.00  0.00    +0.000 H 
BRANCH    2    1
ATOM      1  C1  UNL A   1      14.057  20.178  -3.764  1.00  0.00    +0.000 C 
ATOM    105  H3  UNL A   1      13.300  19.851  -3.082  1.00  0.00    +0.000 H 
ATOM    103  H1  UNL A   1      13.598  20.659  -4.602  1.00  0.00    +0.000 H 
ATOM    104  H2  UNL A   1      14.709  20.868  -3.271  1.00  0.00    +0.000 H 
ENDBRANCH    2    1
ENDBRANCH    3    2
ENDBRANCH    4    3
ENDBRANCH    5    4
ENDBRANCH    6    5
ENDBRANCH    7    6
ENDBRANCH    8    7
ENDBRANCH   10    8
ENDBRANCH   11   10
ENDBRANCH   16   15
BRANCH   98   99
ATOM     99  N8  UNL A   1      16.265  22.382   4.345  1.00  0.00    +0.000 N 
ATOM    100  O5  UNL A   1      16.101  23.328   5.088  1.00  0.00    +0.000 O 
ATOM    101  O6  UNL A   1      16.028  21.125   4.847  1.00  0.00    +0.000 O 
ENDBRANCH   98   99
ENDBRANCH   20   19
BRANCH   20   21
ATOM    125  H23 UNL A   1      20.966  25.478   1.021  1.00  0.00    +0.000 H 
ATOM    123  H21 UNL A   1      21.022  25.271   2.755  1.00  0.00    +0.000 H 
ATOM    124  H22 UNL A   1      19.490  25.529   1.955  1.00  0.00    +0.000 H 
ATOM     21  C18 UNL A   1      20.455  25.074   1.869  1.00  0.00    +0.000 C 
ENDBRANCH   20   21
ENDBRANCH   22   20
ENDBRANCH   24   22
ENDBRANCH   25   24
ENDBRANCH   26   25
ENDBRANCH   27   26
ENDBRANCH   28   27
ENDBRANCH   29   28
ENDBRANCH   30   29
ENDBRANCH   31   30
ENDBRANCH   32   31
ENDBRANCH   34   32
ENDBRANCH   38   37
BRANCH   42   43
ATOM     43  C35 UNL A   1      21.988  29.225  -0.383  1.00  0.00    +0.000 C 
ATOM     44  C36 UNL A   1      22.290  29.379   0.979  1.00  0.00    +0.000 C 
ATOM     45  F1  UNL A   1      21.426  28.955   1.913  1.00  0.00    +0.000 F 
ATOM     46  C37 UNL A   1      23.462  30.008   1.387  1.00  0.00    +0.000 C 
ATOM     47  F2  UNL A   1      23.704  30.190   2.693  1.00  0.00    +0.000 F 
ATOM     48  C38 UNL A   1      24.373  30.463   0.445  1.00  0.00    +0.000 C 
ATOM     49  F3  UNL A   1      25.503  31.064   0.840  1.00  0.00    +0.000 F 
ATOM     50  C39 UNL A   1      24.108  30.299  -0.906  1.00  0.00    +0.000 C 
ATOM     51  F4  UNL A   1      24.994  30.725  -1.818  1.00  0.00    +0.000 F 
ATOM     52  C40 UNL A   1      22.922  29.697  -1.318  1.00  0.00    +0.000 C 
ATOM     53  F5  UNL A   1      22.687  29.569  -2.633  1.00  0.00    +0.000 F 
ENDBRANCH   42   43
BRANCH   59   60
ATOM     65  C49 UNL A   1      13.372  33.115  -1.006  1.00  0.00    +0.000 C 
ATOM     66  F8  UNL A   1      12.582  34.191  -0.892  1.00  0.00    +0.000 F 
ATOM     67  C50 UNL A   1      13.613  32.560  -2.254  1.00  0.00    +0.000 C 
ATOM     68  F9  UNL A   1      13.074  33.113  -3.347  1.00  0.00    +0.000 F 
ATOM     69  C51 UNL A   1      14.416  31.428  -2.370  1.00  0.00    +0.000 C 
ATOM     70  F10 UNL A   1      14.620  30.906  -3.588  1.00  0.00    +0.000 F 
ATOM     60  C46 UNL A   1      15.010  30.845  -1.241  1.00  0.00    +0.000 C 
ATOM     61  C47 UNL A   1      14.768  31.435   0.009  1.00  0.00    +0.000 C 
ATOM     62  F6  UNL A   1      15.301  30.904   1.120  1.00  0.00    +0.000 F 
ATOM     63  C48 UNL A   1      13.942  32.550   0.125  1.00  0.00    +0.000 C 
ATOM     64  F7  UNL A   1      13.687  33.068   1.334  1.00  0.00    +0.000 F 
ENDBRANCH   59   60
BRANCH   74   75
ATOM     75  C55 UNL A   1      13.781  24.258  -3.147  1.00  0.00    +0.000 C 
ATOM     76  C56 UNL A   1      13.114  23.448  -2.217  1.00  0.00    +0.000 C 
ATOM     77  F11 UNL A   1      13.601  23.315  -0.975  1.00  0.00    +0.000 F 
ATOM     78  C57 UNL A   1      11.964  22.746  -2.570  1.00  0.00    +0.000 C 
ATOM     79  F12 UNL A   1      11.368  21.948  -1.673  1.00  0.00    +0.000 F 
ATOM     80  C58 UNL A   1      11.444  22.860  -3.850  1.00  0.00    +0.000 C 
ATOM     81  F13 UNL A   1      10.333  22.190  -4.187  1.00  0.00    +0.000 F 
ATOM     82  C59 UNL A   1      12.078  23.667  -4.782  1.00  0.00    +0.000 C 
ATOM     83  F14 UNL A   1      11.570  23.792  -6.016  1.00  0.00    +0.000 F 
ATOM     84  C60 UNL A   1      13.244  24.349  -4.439  1.00  0.00    +0.000 C 
ATOM     85  F15 UNL A   1      13.842  25.116  -5.362  1.00  0.00    +0.000 F 
ENDBRANCH   74   75
TORSDOF 28
ENDMDL
MODEL 2
REMARK VINA RESULT:      -7.5     23.243     28.472
ROOT
ATOM    142  H40 UNL A   1      18.314  53.209  -0.571  1.00  0.00    +0.000 H 
ATOM    143  H41 UNL A   1      17.887  50.716  -1.202  1.00  0.00    +0.000 H 
ATOM    144  H42 UNL A   1      15.506  51.661   2.052  1.00  0.00    +0.000 H 
ATOM    145  H43 UNL A   1      11.415  49.848   6.602  1.00  0.00    +0.000 H 
ATOM    146  H44 UNL A   1      11.789  52.295   7.174  1.00  0.00    +0.000 H 
ATOM    147  H45 UNL A   1      14.131  51.393   3.860  1.00  0.00    +0.000 H 
ATOM    148  H46 UNL A   1      13.163  46.585   2.751  1.00  0.00    +0.000 H 
ATOM    149  H47 UNL A   1      14.912  46.795   0.895  1.00  0.00    +0.000 H 
ATOM    150  H48 UNL A   1      16.165  56.526   3.065  1.00  0.00    +0.000 H 
ATOM    151  H49 UNL A   1      14.795  56.223   5.206  1.00  0.00    +0.000 H 
ATOM     38  C31 UNL A   1      13.648  53.627   5.473  1.00  0.00    +0.000 C 
ATOM     39  C32 UNL A   1      14.601  54.106   4.414  1.00  0.00    +0.000 C 
ATOM     40  N4  UNL A   1      15.112  53.451   3.401  1.00  0.00    +0.000 N 
ATOM     41  C33 UNL A   1      15.893  54.369   2.712  1.00  0.00    +0.000 C 
ATOM     42  C34 UNL A   1      16.675  54.166   1.625  1.00  0.00    +0.000 C 
ATOM     54  C41 UNL A   1      16.834  52.895   0.966  1.00  0.00    +0.000 C 
ATOM     55  C42 UNL A   1      17.655  52.571  -0.099  1.00  0.00    +0.000 C 
ATOM     56  C43 UNL A   1      17.437  51.227  -0.426  1.00  0.00    +0.000 C 
ATOM     57  C44 UNL A   1      16.517  50.702   0.465  1.00  0.00    +0.000 C 
ATOM     58  N5  UNL A   1      16.153  51.737   1.313  1.00  0.00    +0.000 N 
ATOM     59  C45 UNL A   1      16.006  49.357   0.541  1.00  0.00    +0.000 C 
ATOM     71  C52 UNL A   1      15.114  48.913   1.461  1.00  0.00    +0.000 C 
ATOM     72  N6  UNL A   1      14.510  49.613   2.497  1.00  0.00    +0.000 N 
ATOM     73  C53 UNL A   1      13.720  48.756   3.096  1.00  0.00    +0.000 C 
ATOM     74  C54 UNL A   1      12.839  48.957   4.299  1.00  0.00    +0.000 C 
ATOM     86  C61 UNL A   1      12.825  50.157   4.909  1.00  0.00    +0.000 C 
ATOM     87  C62 UNL A   1      12.033  50.496   6.088  1.00  0.00    +0.000 C 
ATOM     88  C63 UNL A   1      12.239  51.786   6.397  1.00  0.00    +0.000 C 
ATOM     89  C64 UNL A   1      13.204  52.356   5.456  1.00  0.00    +0.000 C 
ATOM     90  N7  UNL A   1      13.498  51.316   4.610  1.00  0.00    +0.000 N 
ATOM     91  C65 UNL A   1      13.716  47.416   2.491  1.00  0.00    +0.000 C 
ATOM     92  C66 UNL A   1      14.612  47.557   1.524  1.00  0.00    +0.000 C 
ATOM     93  C67 UNL A   1      15.750  55.639   3.392  1.00  0.00    +0.000 C 
ATOM     94  C68 UNL A   1      15.016  55.515   4.488  1.00  0.00    +0.000 C 
ENDROOT
BRANCH   38   37
ATOM     34  C27 UNL A   1      12.244  56.401   8.424  1.00  0.00    +0.000 C 
ATOM     35  C28 UNL A   1      11.511  56.213   7.248  1.00  0.00    +0.000 C 
ATOM     36  C29 UNL A   1      11.946  55.285   6.298  1.00  0.00    +0.000 C 
ATOM     37  C30 UNL A   1      13.135  54.566   6.502  1.00  0.00    +0.000 C 
ATOM    140  H38 UNL A   1      10.652  56.758   7.081  1.00  0.00    +0.000 H 
ATOM    141  H39 UNL A   1      11.392  55.128   5.442  1.00  0.00    +0.000 H 
ATOM    152  H50 UNL A   1      14.726  54.227   7.853  1.00  0.00    +0.000 H 
ATOM    153  H51 UNL A   1      13.864  55.696   9.579  1.00  0.00    +0.000 H 
ATOM     95  C69 UNL A   1      13.848  54.746   7.697  1.00  0.00    +0.000 C 
ATOM     96  C70 UNL A   1      13.377  55.622   8.672  1.00  0.00    +0.000 C 
BRANCH   34   32
ATOM     33  O4  UNL A   1      11.994  58.590   9.228  1.00  0.00    +0.000 O 
ATOM     32  C26 UNL A   1      11.767  57.397   9.410  1.00  0.00    +0.000 C 
BRANCH   32   31
ATOM    139  H37 UNL A   1      10.889  57.702  11.183  1.00  0.00    +0.000 H 
ATOM     31  N3  UNL A   1      11.069  56.996  10.521  1.00  0.00    +0.000 N 
BRANCH   31   30
ATOM    137  H35 UNL A   1       9.499  55.741  10.997  1.00  0.00    +0.000 H 
ATOM    138  H36 UNL A   1      10.808  55.009  10.066  1.00  0.00    +0.000 H 
ATOM     30  C25 UNL A   1      10.559  55.678  10.864  1.00  0.00    +0.000 C 
BRANCH   30   29
ATOM     29  C24 UNL A   1      11.186  55.136  12.147  1.00  0.00    +0.000 C 
ATOM    135  H33 UNL A   1      11.701  55.940  12.631  1.00  0.00    +0.000 H 
ATOM    136  H34 UNL A   1      10.381  54.738  12.730  1.00  0.00    +0.000 H 
BRANCH   29   28
ATOM     28  C23 UNL A   1      12.179  53.987  11.942  1.00  0.00    +0.000 C 
ATOM    133  H31 UNL A   1      11.847  53.157  12.530  1.00  0.00    +0.000 H 
ATOM    134  H32 UNL A   1      12.193  53.796  10.891  1.00  0.00    +0.000 H 
BRANCH   28   27
ATOM     27  C22 UNL A   1      13.632  54.290  12.333  1.00  0.00    +0.000 C 
ATOM    132  H30 UNL A   1      13.652  54.320  13.403  1.00  0.00    +0.000 H 
ATOM    131  H29 UNL A   1      13.911  55.217  11.876  1.00  0.00    +0.000 H 
BRANCH   27   26
ATOM    129  H27 UNL A   1      14.555  53.061  10.863  1.00  0.00    +0.000 H 
ATOM     26  C21 UNL A   1      14.654  53.228  11.916  1.00  0.00    +0.000 C 
ATOM    130  H28 UNL A   1      15.619  53.603  12.184  1.00  0.00    +0.000 H 
BRANCH   26   25
ATOM     25  C20 UNL A   1      14.483  51.887  12.635  1.00  0.00    +0.000 C 
ATOM    127  H25 UNL A   1      14.731  52.014  13.669  1.00  0.00    +0.000 H 
ATOM    128  H26 UNL A   1      13.467  51.574  12.518  1.00  0.00    +0.000 H 
BRANCH   25   24
ATOM    126  H24 UNL A   1      15.359  50.025  12.589  1.00  0.00    +0.000 H 
ATOM     24  N2  UNL A   1      15.337  50.862  12.072  1.00  0.00    +0.000 N 
BRANCH   24   22
ATOM     22  C19 UNL A   1      16.114  50.850  10.954  1.00  0.00    +0.000 C 
ATOM     23  O3  UNL A   1      17.321  51.055  11.127  1.00  0.00    +0.000 O 
BRANCH   22   20
ATOM    122  H20 UNL A   1      16.221  49.904   9.095  1.00  0.00    +0.000 H 
ATOM     20  C17 UNL A   1      15.571  50.632   9.533  1.00  0.00    +0.000 C 
BRANCH   20   19
ATOM     97  C71 UNL A   1      13.054  50.710   9.755  1.00  0.00    +0.000 C 
ATOM     98  C72 UNL A   1      11.770  50.134   9.670  1.00  0.00    +0.000 C 
ATOM     16  C13 UNL A   1      11.594  48.809   9.230  1.00  0.00    +0.000 C 
ATOM     17  C14 UNL A   1      12.762  48.056   9.022  1.00  0.00    +0.000 C 
ATOM     18  C15 UNL A   1      14.038  48.604   9.193  1.00  0.00    +0.000 C 
ATOM     19  C16 UNL A   1      14.208  49.956   9.495  1.00  0.00    +0.000 C 
ATOM    120  H18 UNL A   1      12.677  47.069   8.734  1.00  0.00    +0.000 H 
ATOM    121  H19 UNL A   1      14.867  47.998   9.094  1.00  0.00    +0.000 H 
ATOM    154  H52 UNL A   1      13.146  51.705  10.012  1.00  0.00    +0.000 H 
BRANCH   16   15
ATOM    102  C73 UNL A   1       9.310  48.874   8.180  1.00  0.00    +0.000 C 
ATOM     11  C8  UNL A   1       8.079  48.273   7.909  1.00  0.00    +0.000 C 
ATOM     12  C9  UNL A   1       7.795  46.982   8.344  1.00  0.00    +0.000 C 
ATOM     13  C10 UNL A   1       8.759  46.279   9.058  1.00  0.00    +0.000 C 
ATOM     14  C11 UNL A   1       9.985  46.882   9.356  1.00  0.00    +0.000 C 
ATOM     15  C12 UNL A   1      10.284  48.190   8.927  1.00  0.00    +0.000 C 
ATOM    117  H15 UNL A   1       6.880  46.552   8.140  1.00  0.00    +0.000 H 
ATOM    118  H16 UNL A   1       8.570  45.314   9.369  1.00  0.00    +0.000 H 
ATOM    119  H17 UNL A   1      10.687  46.357   9.900  1.00  0.00    +0.000 H 
ATOM    155  H53 UNL A   1       9.505  49.825   7.830  1.00  0.00    +0.000 H 
BRANCH   11   10
ATOM     10  O2  UNL A   1       7.017  48.990   7.331  1.00  0.00    +0.000 O 
BRANCH   10    8
ATOM      9  O1  UNL A   1       7.793  49.656   5.242  1.00  0.00    +0.000 O 
ATOM      8  C7  UNL A   1       6.950  49.126   5.953  1.00  0.00    +0.000 C 
BRANCH    8    7
ATOM    116  H14 UNL A   1       5.415  47.824   5.910  1.00  0.00    +0.000 H 
ATOM      7  N1  UNL A   1       5.811  48.583   5.423  1.00  0.00    +0.000 N 
BRANCH    7    6
ATOM    114  H12 UNL A   1       5.371  50.034   4.027  1.00  0.00    +0.000 H 
ATOM    115  H13 UNL A   1       5.453  48.380   3.414  1.00  0.00    +0.000 H 
ATOM      6  C6  UNL A   1       5.128  49.009   4.217  1.00  0.00    +0.000 C 
BRANCH    6    5
ATOM    113  H11 UNL A   1       3.295  49.640   5.013  1.00  0.00    +0.000 H 
ATOM      5  C5  UNL A   1       3.610  48.874   4.336  1.00  0.00    +0.000 C 
ATOM    112  H10 UNL A   1       3.390  47.886   4.680  1.00  0.00    +0.000 H 
BRANCH    5    4
ATOM      4  C4  UNL A   1       2.837  49.107   3.033  1.00  0.00    +0.000 C 
ATOM    110  H8  UNL A   1       2.534  50.132   3.008  1.00  0.00    +0.000 H 
ATOM    111  H9  UNL A   1       3.504  48.836   2.242  1.00  0.00    +0.000 H 
BRANCH    4    3
ATOM      3  C3  UNL A   1       1.587  48.241   2.843  1.00  0.00    +0.000 C 
ATOM    108  H6  UNL A   1       1.539  47.548   3.655  1.00  0.00    +0.000 H 
ATOM    109  H7  UNL A   1       0.761  48.920   2.806  1.00  0.00    +0.000 H 
BRANCH    3    2
ATOM      2  C2  UNL A   1       1.534  47.442   1.538  1.00  0.00    +0.000 C 
ATOM    107  H5  UNL A   1       2.543  47.222   1.259  1.00  0.00    +0.000 H 
ATOM    106  H4  UNL A   1       1.030  48.030   0.800  1.00  0.00    +0.000 H 
BRANCH    2    1
ATOM      1  C1  UNL A   1       0.805  46.114   1.675  1.00  0.00    +0.000 C 
ATOM    105  H3  UNL A   1       1.431  45.325   1.314  1.00  0.00    +0.000 H 
ATOM    103  H1  UNL A   1      -0.099  46.142   1.103  1.00  0.00    +0.000 H 
ATOM    104  H2  UNL A   1       0.570  45.940   2.705  1.00  0.00    +0.000 H 
ENDBRANCH    2    1
ENDBRANCH    3    2
ENDBRANCH    4    3
ENDBRANCH    5    4
ENDBRANCH    6    5
ENDBRANCH    7    6
ENDBRANCH    8    7
ENDBRANCH   10    8
ENDBRANCH   11   10
ENDBRANCH   16   15
BRANCH   98   99
ATOM     99  N8  UNL A   1      10.650  50.938  10.107  1.00  0.00    +0.000 N 
ATOM    100  O5  UNL A   1      10.055  50.666  11.130  1.00  0.00    +0.000 O 
ATOM    101  O6  UNL A   1      10.137  51.937   9.315  1.00  0.00    +0.000 O 
ENDBRANCH   98   99
ENDBRANCH   20   19
BRANCH   20   21
ATOM    125  H23 UNL A   1      16.532  51.633   7.906  1.00  0.00    +0.000 H 
ATOM    123  H21 UNL A   1      15.981  52.700   9.175  1.00  0.00    +0.000 H 
ATOM    124  H22 UNL A   1      14.831  51.998   8.063  1.00  0.00    +0.000 H 
ATOM     21  C18 UNL A   1      15.742  51.831   8.599  1.00  0.00    +0.000 C 
ENDBRANCH   20   21
ENDBRANCH   22   20
ENDBRANCH   24   22
ENDBRANCH   25   24
ENDBRANCH   26   25
ENDBRANCH   27   26
ENDBRANCH   28   27
ENDBRANCH   29   28
ENDBRANCH   30   29
ENDBRANCH   31   30
ENDBRANCH   32   31
ENDBRANCH   34   32
ENDBRANCH   38   37
BRANCH   42   43
ATOM     43  C35 UNL A   1      17.421  55.349   1.077  1.00  0.00    +0.000 C 
ATOM     44  C36 UNL A   1      16.875  56.163   0.073  1.00  0.00    +0.000 C 
ATOM     45  F1  UNL A   1      15.676  55.874  -0.453  1.00  0.00    +0.000 F 
ATOM     46  C37 UNL A   1      17.580  57.255  -0.427  1.00  0.00    +0.000 C 
ATOM     47  F2  UNL A   1      17.061  57.987  -1.423  1.00  0.00    +0.000 F 
ATOM     48  C38 UNL A   1      18.826  57.577   0.092  1.00  0.00    +0.000 C 
ATOM     49  F3  UNL A   1      19.500  58.630  -0.387  1.00  0.00    +0.000 F 
ATOM     50  C39 UNL A   1      19.373  56.801   1.103  1.00  0.00    +0.000 C 
ATOM     51  F4  UNL A   1      20.570  57.119   1.615  1.00  0.00    +0.000 F 
ATOM     52  C40 UNL A   1      18.684  55.691   1.584  1.00  0.00    +0.000 C 
ATOM     53  F5  UNL A   1      19.249  54.951   2.550  1.00  0.00    +0.000 F 
ENDBRANCH   42   43
BRANCH   59   60
ATOM     65  C49 UNL A   1      17.507  46.524  -2.340  1.00  0.00    +0.000 C 
ATOM     66  F8  UNL A   1      17.976  45.642  -3.232  1.00  0.00    +0.000 F 
ATOM     67  C50 UNL A   1      18.283  46.890  -1.250  1.00  0.00    +0.000 C 
ATOM     68  F9  UNL A   1      19.511  46.376  -1.101  1.00  0.00    +0.000 F 
ATOM     69  C51 UNL A   1      17.787  47.790  -0.311  1.00  0.00    +0.000 C 
ATOM     70  F10 UNL A   1      18.555  48.114   0.740  1.00  0.00    +0.000 F 
ATOM     60  C46 UNL A   1      16.513  48.358  -0.459  1.00  0.00    +0.000 C 
ATOM     61  C47 UNL A   1      15.753  47.989  -1.579  1.00  0.00    +0.000 C 
ATOM     62  F6  UNL A   1      14.522  48.493  -1.755  1.00  0.00    +0.000 F 
ATOM     63  C48 UNL A   1      16.241  47.067  -2.501  1.00  0.00    +0.000 C 
ATOM     64  F7  UNL A   1      15.479  46.694  -3.538  1.00  0.00    +0.000 F 
ENDBRANCH   59   60
BRANCH   74   75
ATOM     75  C55 UNL A   1      12.014  47.846   4.837  1.00  0.00    +0.000 C 
ATOM     76  C56 UNL A   1      12.561  46.913   5.729  1.00  0.00    +0.000 C 
ATOM     77  F11 UNL A   1      13.851  47.002   6.081  1.00  0.00    +0.000 F 
ATOM     78  C57 UNL A   1      11.793  45.866   6.234  1.00  0.00    +0.000 C 
ATOM     79  F12 UNL A   1      12.351  44.965   7.054  1.00  0.00    +0.000 F 
ATOM     80  C58 UNL A   1      10.459  45.747   5.879  1.00  0.00    +0.000 C 
ATOM     81  F13 UNL A   1       9.719  44.744   6.370  1.00  0.00    +0.000 F 
ATOM     82  C59 UNL A   1       9.892  46.666   5.010  1.00  0.00    +0.000 C 
ATOM     83  F14 UNL A   1       8.598  46.564   4.675  1.00  0.00    +0.000 F 
ATOM     84  C60 UNL A   1      10.665  47.699   4.482  1.00  0.00    +0.000 C 
ATOM     85  F15 UNL A   1      10.094  48.570   3.637  1.00  0.00    +0.000 F 
ENDBRANCH   74   75
TORSDOF 28
ENDMDL
MODEL 3
REMARK VINA RESULT:      -7.5      6.587     12.541
ROOT
ATOM    142  H40 UNL A   1      25.707  18.338   4.456  1.00  0.00    +0.000 H 
ATOM    143  H41 UNL A   1      24.796  17.116   6.571  1.00  0.00    +0.000 H 
ATOM    144  H42 UNL A   1      21.626  19.007   4.694  1.00  0.00    +0.000 H 
ATOM    145  H43 UNL A   1      15.472  20.696   4.624  1.00  0.00    +0.000 H 
ATOM    146  H44 UNL A   1      16.355  21.834   2.531  1.00  0.00    +0.000 H 
ATOM    147  H45 UNL A   1      19.540  19.882   4.354  1.00  0.00    +0.000 H 
ATOM    148  H46 UNL A   1      17.615  17.551   8.372  1.00  0.00    +0.000 H 
ATOM    149  H47 UNL A   1      19.999  16.798   8.917  1.00  0.00    +0.000 H 
ATOM    150  H48 UNL A   1      23.376  21.122   0.499  1.00  0.00    +0.000 H 
ATOM    151  H49 UNL A   1      21.114  22.280   0.189  1.00  0.00    +0.000 H 
ATOM     38  C31 UNL A   1      19.149  21.481   2.092  1.00  0.00    +0.000 C 
ATOM     39  C32 UNL A   1      20.602  21.099   2.057  1.00  0.00    +0.000 C 
ATOM     40  N4  UNL A   1      21.279  20.334   2.877  1.00  0.00    +0.000 N 
ATOM     41  C33 UNL A   1      22.567  20.277   2.365  1.00  0.00    +0.000 C 
ATOM     42  C34 UNL A   1      23.657  19.660   2.884  1.00  0.00    +0.000 C 
ATOM     54  C41 UNL A   1      23.658  18.921   4.120  1.00  0.00    +0.000 C 
ATOM     55  C42 UNL A   1      24.723  18.318   4.765  1.00  0.00    +0.000 C 
ATOM     56  C43 UNL A   1      24.236  17.677   5.910  1.00  0.00    +0.000 C 
ATOM     57  C44 UNL A   1      22.876  17.920   6.004  1.00  0.00    +0.000 C 
ATOM     58  N5  UNL A   1      22.533  18.682   4.898  1.00  0.00    +0.000 N 
ATOM     59  C45 UNL A   1      21.955  17.491   7.024  1.00  0.00    +0.000 C 
ATOM     71  C52 UNL A   1      20.632  17.788   7.055  1.00  0.00    +0.000 C 
ATOM     72  N6  UNL A   1      19.886  18.537   6.155  1.00  0.00    +0.000 N 
ATOM     73  C53 UNL A   1      18.656  18.524   6.609  1.00  0.00    +0.000 C 
ATOM     74  C54 UNL A   1      17.431  19.194   6.050  1.00  0.00    +0.000 C 
ATOM     86  C61 UNL A   1      17.543  19.946   4.938  1.00  0.00    +0.000 C 
ATOM     87  C62 UNL A   1      16.449  20.663   4.290  1.00  0.00    +0.000 C 
ATOM     88  C63 UNL A   1      16.917  21.273   3.190  1.00  0.00    +0.000 C 
ATOM     89  C64 UNL A   1      18.353  21.016   3.074  1.00  0.00    +0.000 C 
ATOM     90  N7  UNL A   1      18.637  20.221   4.157  1.00  0.00    +0.000 N 
ATOM     91  C65 UNL A   1      18.478  17.743   7.841  1.00  0.00    +0.000 C 
ATOM     92  C66 UNL A   1      19.719  17.349   8.090  1.00  0.00    +0.000 C 
ATOM     93  C67 UNL A   1      22.568  21.042   1.137  1.00  0.00    +0.000 C 
ATOM     94  C68 UNL A   1      21.395  21.625   0.936  1.00  0.00    +0.000 C 
ENDROOT
BRANCH   38   37
ATOM     34  C27 UNL A   1      17.366  23.855  -1.000  1.00  0.00    +0.000 C 
ATOM     35  C28 UNL A   1      18.002  24.484   0.075  1.00  0.00    +0.000 C 
ATOM     36  C29 UNL A   1      18.614  23.714   1.068  1.00  0.00    +0.000 C 
ATOM     37  C30 UNL A   1      18.564  22.312   1.011  1.00  0.00    +0.000 C 
ATOM    140  H38 UNL A   1      18.019  25.513   0.136  1.00  0.00    +0.000 H 
ATOM    141  H39 UNL A   1      19.106  24.179   1.847  1.00  0.00    +0.000 H 
ATOM    152  H50 UNL A   1      17.895  20.664  -0.132  1.00  0.00    +0.000 H 
ATOM    153  H51 UNL A   1      17.003  22.003  -1.946  1.00  0.00    +0.000 H 
ATOM     95  C69 UNL A   1      17.943  21.694  -0.085  1.00  0.00    +0.000 C 
ATOM     96  C70 UNL A   1      17.392  22.462  -1.108  1.00  0.00    +0.000 C 
BRANCH   34   32
ATOM     33  O4  UNL A   1      17.399  25.438  -2.729  1.00  0.00    +0.000 O 
ATOM     32  C26 UNL A   1      16.716  24.692  -2.033  1.00  0.00    +0.000 C 
BRANCH   32   31
ATOM    139  H37 UNL A   1      15.066  24.253  -3.079  1.00  0.00    +0.000 H 
ATOM     31  N3  UNL A   1      15.358  24.636  -2.221  1.00  0.00    +0.000 N 
BRANCH   31   30
ATOM    137  H35 UNL A   1      13.421  24.462  -1.525  1.00  0.00    +0.000 H 
ATOM    138  H36 UNL A   1      14.624  24.944  -0.326  1.00  0.00    +0.000 H 
ATOM     30  C25 UNL A   1      14.286  25.063  -1.335  1.00  0.00    +0.000 C 
BRANCH   30   29
ATOM     29  C24 UNL A   1      13.922  26.531  -1.542  1.00  0.00    +0.000 C 
ATOM    135  H33 UNL A   1      14.823  27.107  -1.494  1.00  0.00    +0.000 H 
ATOM    136  H34 UNL A   1      13.433  26.589  -2.492  1.00  0.00    +0.000 H 
BRANCH   29   28
ATOM     28  C23 UNL A   1      12.937  27.100  -0.515  1.00  0.00    +0.000 C 
ATOM    133  H31 UNL A   1      11.947  26.854  -0.837  1.00  0.00    +0.000 H 
ATOM    134  H32 UNL A   1      13.208  26.665   0.423  1.00  0.00    +0.000 H 
BRANCH   28   27
ATOM     27  C22 UNL A   1      13.001  28.620  -0.307  1.00  0.00    +0.000 C 
ATOM    132  H30 UNL A   1      13.777  28.790   0.410  1.00  0.00    +0.000 H 
ATOM    131  H29 UNL A   1      12.037  28.950   0.021  1.00  0.00    +0.000 H 
BRANCH   27   26
ATOM    129  H27 UNL A   1      14.394  29.191  -1.810  1.00  0.00    +0.000 H 
ATOM     26  C21 UNL A   1      13.384  29.432  -1.549  1.00  0.00    +0.000 C 
ATOM    130  H28 UNL A   1      12.687  29.170  -2.318  1.00  0.00    +0.000 H 
BRANCH   26   25
ATOM     25  C20 UNL A   1      13.284  30.947  -1.355  1.00  0.00    +0.000 C 
ATOM    127  H25 UNL A   1      13.648  31.197  -0.380  1.00  0.00    +0.000 H 
ATOM    128  H26 UNL A   1      13.870  31.419  -2.117  1.00  0.00    +0.000 H 
BRANCH   25   24
ATOM    126  H24 UNL A   1      11.338  30.833  -2.017  1.00  0.00    +0.000 H 
ATOM     24  N2  UNL A   1      11.920  31.418  -1.480  1.00  0.00    +0.000 N 
BRANCH   24   22
ATOM     22  C19 UNL A   1      11.300  32.524  -0.986  1.00  0.00    +0.000 C 
ATOM     23  O3  UNL A   1      10.908  33.348  -1.822  1.00  0.00    +0.000 O 
BRANCH   22   20
ATOM    122  H20 UNL A   1      10.155  33.296   0.581  1.00  0.00    +0.000 H 
ATOM     20  C17 UNL A   1      11.101  32.800   0.513  1.00  0.00    +0.000 C 
BRANCH   20   19
ATOM     97  C71 UNL A   1       9.745  30.768   1.161  1.00  0.00    +0.000 C 
ATOM     98  C72 UNL A   1       9.551  29.565   1.870  1.00  0.00    +0.000 C 
ATOM     16  C13 UNL A   1      10.550  29.050   2.718  1.00  0.00    +0.000 C 
ATOM     17  C14 UNL A   1      11.676  29.863   2.927  1.00  0.00    +0.000 C 
ATOM     18  C15 UNL A   1      11.827  31.100   2.290  1.00  0.00    +0.000 C 
ATOM     19  C16 UNL A   1      10.900  31.543   1.346  1.00  0.00    +0.000 C 
ATOM    120  H18 UNL A   1      12.416  29.539   3.569  1.00  0.00    +0.000 H 
ATOM    121  H19 UNL A   1      12.637  31.695   2.523  1.00  0.00    +0.000 H 
ATOM    154  H52 UNL A   1       9.024  31.084   0.494  1.00  0.00    +0.000 H 
BRANCH   16   15
ATOM    102  C73 UNL A   1       9.891  27.505   4.589  1.00  0.00    +0.000 C 
ATOM     11  C8  UNL A   1       9.870  26.233   5.164  1.00  0.00    +0.000 C 
ATOM     12  C9  UNL A   1      10.435  25.138   4.517  1.00  0.00    +0.000 C 
ATOM     13  C10 UNL A   1      11.027  25.318   3.272  1.00  0.00    +0.000 C 
ATOM     14  C11 UNL A   1      11.074  26.593   2.698  1.00  0.00    +0.000 C 
ATOM     15  C12 UNL A   1      10.512  27.710   3.345  1.00  0.00    +0.000 C 
ATOM    117  H15 UNL A   1      10.416  24.205   4.956  1.00  0.00    +0.000 H 
ATOM    118  H16 UNL A   1      11.431  24.511   2.771  1.00  0.00    +0.000 H 
ATOM    119  H17 UNL A   1      11.530  26.716   1.781  1.00  0.00    +0.000 H 
ATOM    155  H53 UNL A   1       9.449  28.297   5.079  1.00  0.00    +0.000 H 
BRANCH   11   10
ATOM     10  O2  UNL A   1       9.428  26.025   6.483  1.00  0.00    +0.000 O 
BRANCH   10    8
ATOM      9  O1  UNL A   1       9.781  24.085   7.716  1.00  0.00    +0.000 O 
ATOM      8  C7  UNL A   1      10.144  25.185   7.322  1.00  0.00    +0.000 C 
BRANCH    8    7
ATOM    116  H14 UNL A   1      11.440  26.687   7.660  1.00  0.00    +0.000 H 
ATOM      7  N1  UNL A   1      11.356  25.707   7.686  1.00  0.00    +0.000 N 
BRANCH    7    6
ATOM    114  H12 UNL A   1      13.071  25.549   8.818  1.00  0.00    +0.000 H 
ATOM    115  H13 UNL A   1      12.199  24.040   8.531  1.00  0.00    +0.000 H 
ATOM      6  C6  UNL A   1      12.528  24.964   8.104  1.00  0.00    +0.000 C 
BRANCH    6    5
ATOM    113  H11 UNL A   1      14.353  25.191   7.095  1.00  0.00    +0.000 H 
ATOM      5  C5  UNL A   1      13.452  24.637   6.930  1.00  0.00    +0.000 C 
ATOM    112  H10 UNL A   1      12.948  24.906   6.026  1.00  0.00    +0.000 H 
BRANCH    5    4
ATOM      4  C4  UNL A   1      13.866  23.165   6.824  1.00  0.00    +0.000 C 
ATOM    110  H8  UNL A   1      14.923  23.130   6.667  1.00  0.00    +0.000 H 
ATOM    111  H9  UNL A   1      13.551  22.705   7.738  1.00  0.00    +0.000 H 
BRANCH    4    3
ATOM      3  C3  UNL A   1      13.194  22.369   5.700  1.00  0.00    +0.000 C 
ATOM    108  H6  UNL A   1      13.457  21.340   5.821  1.00  0.00    +0.000 H 
ATOM    109  H7  UNL A   1      12.146  22.560   5.790  1.00  0.00    +0.000 H 
BRANCH    3    2
ATOM      2  C2  UNL A   1      13.578  22.789   4.279  1.00  0.00    +0.000 C 
ATOM    107  H5  UNL A   1      14.619  22.576   4.155  1.00  0.00    +0.000 H 
ATOM    106  H4  UNL A   1      13.362  23.830   4.162  1.00  0.00    +0.000 H 
BRANCH    2    1
ATOM      1  C1  UNL A   1      12.829  22.018   3.201  1.00  0.00    +0.000 C 
ATOM    105  H3  UNL A   1      11.943  21.589   3.620  1.00  0.00    +0.000 H 
ATOM    103  H1  UNL A   1      13.456  21.238   2.821  1.00  0.00    +0.000 H 
ATOM    104  H2  UNL A   1      12.564  22.682   2.406  1.00  0.00    +0.000 H 
ENDBRANCH    2    1
ENDBRANCH    3    2
ENDBRANCH    4    3
ENDBRANCH    5    4
ENDBRANCH    6    5
ENDBRANCH    7    6
ENDBRANCH    8    7
ENDBRANCH   10    8
ENDBRANCH   11   10
ENDBRANCH   16   15
BRANCH   98   99
ATOM     99  N8  UNL A   1       8.266  28.915   1.738  1.00  0.00    +0.000 N 
ATOM    100  O5  UNL A   1       7.357  29.178   2.500  1.00  0.00    +0.000 O 
ATOM    101  O6  UNL A   1       8.076  27.884   0.849  1.00  0.00    +0.000 O 
ENDBRANCH   98   99
ENDBRANCH   20   19
BRANCH   20   21
ATOM    125  H23 UNL A   1      12.225  34.614   0.382  1.00  0.00    +0.000 H 
ATOM    123  H21 UNL A   1      12.992  33.367   1.336  1.00  0.00    +0.000 H 
ATOM    124  H22 UNL A   1      11.635  34.255   1.987  1.00  0.00    +0.000 H 
ATOM     21  C18 UNL A   1      12.060  33.837   1.098  1.00  0.00    +0.000 C 
ENDBRANCH   20   21
ENDBRANCH   22   20
ENDBRANCH   24   22
ENDBRANCH   25   24
ENDBRANCH   26   25
ENDBRANCH   27   26
ENDBRANCH   28   27
ENDBRANCH   29   28
ENDBRANCH   30   29
ENDBRANCH   31   30
ENDBRANCH   32   31
ENDBRANCH   34   32
ENDBRANCH   38   37
BRANCH   42   43
ATOM     43  C35 UNL A   1      24.942  19.760   2.114  1.00  0.00    +0.000 C 
ATOM     44  C36 UNL A   1      25.130  19.074   0.904  1.00  0.00    +0.000 C 
ATOM     45  F1  UNL A   1      24.166  18.274   0.425  1.00  0.00    +0.000 F 
ATOM     46  C37 UNL A   1      26.328  19.174   0.202  1.00  0.00    +0.000 C 
ATOM     47  F2  UNL A   1      26.504  18.469  -0.925  1.00  0.00    +0.000 F 
ATOM     48  C38 UNL A   1      27.347  19.988   0.674  1.00  0.00    +0.000 C 
ATOM     49  F3  UNL A   1      28.497  20.087  -0.005  1.00  0.00    +0.000 F 
ATOM     50  C39 UNL A   1      27.173  20.696   1.855  1.00  0.00    +0.000 C 
ATOM     51  F4  UNL A   1      28.151  21.494   2.306  1.00  0.00    +0.000 F 
ATOM     52  C40 UNL A   1      25.987  20.574   2.575  1.00  0.00    +0.000 C 
ATOM     53  F5  UNL A   1      25.858  21.258   3.722  1.00  0.00    +0.000 F 
ENDBRANCH   42   43
BRANCH   59   60
ATOM     65  C49 UNL A   1      23.565  15.165  10.277  1.00  0.00    +0.000 C 
ATOM     66  F8  UNL A   1      24.064  14.446  11.291  1.00  0.00    +0.000 F 
ATOM     67  C50 UNL A   1      23.431  16.540  10.400  1.00  0.00    +0.000 C 
ATOM     68  F9  UNL A   1      23.821  17.152  11.526  1.00  0.00    +0.000 F 
ATOM     69  C51 UNL A   1      22.892  17.286   9.355  1.00  0.00    +0.000 C 
ATOM     70  F10 UNL A   1      22.762  18.611   9.509  1.00  0.00    +0.000 F 
ATOM     60  C46 UNL A   1      22.498  16.670   8.158  1.00  0.00    +0.000 C 
ATOM     61  C47 UNL A   1      22.660  15.281   8.047  1.00  0.00    +0.000 C 
ATOM     62  F6  UNL A   1      22.283  14.644   6.928  1.00  0.00    +0.000 F 
ATOM     63  C48 UNL A   1      23.174  14.535   9.105  1.00  0.00    +0.000 C 
ATOM     64  F7  UNL A   1      23.276  13.203   8.994  1.00  0.00    +0.000 F 
ENDBRANCH   59   60
BRANCH   74   75
ATOM     75  C55 UNL A   1      16.114  19.064   6.723  1.00  0.00    +0.000 C 
ATOM     76  C56 UNL A   1      15.696  20.008   7.672  1.00  0.00    +0.000 C 
ATOM     77  F11 UNL A   1      16.502  21.027   8.001  1.00  0.00    +0.000 F 
ATOM     78  C57 UNL A   1      14.463  19.889   8.310  1.00  0.00    +0.000 C 
ATOM     79  F12 UNL A   1      14.105  20.784   9.241  1.00  0.00    +0.000 F 
ATOM     80  C58 UNL A   1      13.614  18.840   7.993  1.00  0.00    +0.000 C 
ATOM     81  F13 UNL A   1      12.425  18.730   8.601  1.00  0.00    +0.000 F 
ATOM     82  C59 UNL A   1      14.000  17.902   7.047  1.00  0.00    +0.000 C 
ATOM     83  F14 UNL A   1      13.175  16.895   6.727  1.00  0.00    +0.000 F 
ATOM     84  C60 UNL A   1      15.244  18.004   6.428  1.00  0.00    +0.000 C 
ATOM     85  F15 UNL A   1      15.596  17.079   5.523  1.00  0.00    +0.000 F 
ENDBRANCH   74   75
TORSDOF 28
ENDMDL
MODEL 4
REMARK VINA RESULT:      -7.4     23.036     29.871
ROOT
ATOM    142  H40 UNL A   1      13.387  46.642   3.070  1.00  0.00    +0.000 H 
ATOM    143  H41 UNL A   1      15.054  46.637   1.066  1.00  0.00    +0.000 H 
ATOM    144  H42 UNL A   1      14.970  50.450   2.679  1.00  0.00    +0.000 H 
ATOM    145  H43 UNL A   1      16.749  56.575   2.448  1.00  0.00    +0.000 H 
ATOM    146  H44 UNL A   1      15.170  56.560   4.438  1.00  0.00    +0.000 H 
ATOM    147  H45 UNL A   1      15.294  52.706   2.885  1.00  0.00    +0.000 H 
ATOM    148  H46 UNL A   1      18.571  52.856  -0.925  1.00  0.00    +0.000 H 
ATOM    149  H47 UNL A   1      18.003  50.395  -1.341  1.00  0.00    +0.000 H 
ATOM    150  H48 UNL A   1      11.955  50.350   6.683  1.00  0.00    +0.000 H 
ATOM    151  H49 UNL A   1      12.133  52.900   6.828  1.00  0.00    +0.000 H 
ATOM     38  C31 UNL A   1      13.977  54.026   4.970  1.00  0.00    +0.000 C 
ATOM     39  C32 UNL A   1      13.538  52.593   5.074  1.00  0.00    +0.000 C 
ATOM     40  N4  UNL A   1      13.894  51.562   4.348  1.00  0.00    +0.000 N 
ATOM     41  C33 UNL A   1      13.231  50.470   4.892  1.00  0.00    +0.000 C 
ATOM     42  C34 UNL A   1      13.223  49.185   4.460  1.00  0.00    +0.000 C 
ATOM     54  C41 UNL A   1      13.939  48.715   3.303  1.00  0.00    +0.000 C 
ATOM     55  C42 UNL A   1      13.941  47.449   2.743  1.00  0.00    +0.000 C 
ATOM     56  C43 UNL A   1      14.823  47.452   1.657  1.00  0.00    +0.000 C 
ATOM     57  C44 UNL A   1      15.335  48.730   1.510  1.00  0.00    +0.000 C 
ATOM     58  N5  UNL A   1      14.786  49.494   2.528  1.00  0.00    +0.000 N 
ATOM     59  C45 UNL A   1      16.255  49.221   0.517  1.00  0.00    +0.000 C 
ATOM     71  C52 UNL A   1      16.697  50.500   0.428  1.00  0.00    +0.000 C 
ATOM     72  N6  UNL A   1      16.385  51.587   1.233  1.00  0.00    +0.000 N 
ATOM     73  C53 UNL A   1      17.072  52.596   0.756  1.00  0.00    +0.000 C 
ATOM     74  C54 UNL A   1      17.104  54.027   1.220  1.00  0.00    +0.000 C 
ATOM     86  C61 UNL A   1      16.327  54.399   2.255  1.00  0.00    +0.000 C 
ATOM     87  C62 UNL A   1      16.243  55.749   2.805  1.00  0.00    +0.000 C 
ATOM     88  C63 UNL A   1      15.400  55.743   3.850  1.00  0.00    +0.000 C 
ATOM     89  C64 UNL A   1      14.858  54.394   4.021  1.00  0.00    +0.000 C 
ATOM     90  N7  UNL A   1      15.464  53.665   3.029  1.00  0.00    +0.000 N 
ATOM     91  C65 UNL A   1      17.918  52.256  -0.397  1.00  0.00    +0.000 C 
ATOM     92  C66 UNL A   1      17.622  50.978  -0.579  1.00  0.00    +0.000 C 
ATOM     93  C67 UNL A   1      12.492  50.952   6.039  1.00  0.00    +0.000 C 
ATOM     94  C68 UNL A   1      12.595  52.268   6.155  1.00  0.00    +0.000 C 
ENDROOT
BRANCH   38   37
ATOM     34  C27 UNL A   1      12.662  56.998   7.766  1.00  0.00    +0.000 C 
ATOM     35  C28 UNL A   1      11.812  56.601   6.728  1.00  0.00    +0.000 C 
ATOM     36  C29 UNL A   1      12.223  55.608   5.835  1.00  0.00    +0.000 C 
ATOM     37  C30 UNL A   1      13.498  55.032   5.952  1.00  0.00    +0.000 C 
ATOM    140  H38 UNL A   1      10.885  57.039   6.622  1.00  0.00    +0.000 H 
ATOM    141  H39 UNL A   1      11.586  55.296   5.085  1.00  0.00    +0.000 H 
ATOM    152  H50 UNL A   1      15.273  55.010   7.101  1.00  0.00    +0.000 H 
ATOM    153  H51 UNL A   1      14.481  56.592   8.758  1.00  0.00    +0.000 H 
ATOM     95  C69 UNL A   1      14.331  55.422   7.011  1.00  0.00    +0.000 C 
ATOM     96  C70 UNL A   1      13.895  56.363   7.940  1.00  0.00    +0.000 C 
BRANCH   34   32
ATOM     33  O4  UNL A   1      11.675  57.749   9.756  1.00  0.00    +0.000 O 
ATOM     32  C26 UNL A   1      12.207  58.058   8.694  1.00  0.00    +0.000 C 
BRANCH   32   31
ATOM    139  H37 UNL A   1      11.746  60.004   8.798  1.00  0.00    +0.000 H 
ATOM     31  N3  UNL A   1      12.381  59.381   8.376  1.00  0.00    +0.000 N 
BRANCH   31   30
ATOM    137  H35 UNL A   1      13.499  61.019   7.795  1.00  0.00    +0.000 H 
ATOM    138  H36 UNL A   1      14.283  59.450   7.599  1.00  0.00    +0.000 H 
ATOM     30  C25 UNL A   1      13.369  59.998   7.503  1.00  0.00    +0.000 C 
BRANCH   30   29
ATOM     29  C24 UNL A   1      12.943  59.955   6.037  1.00  0.00    +0.000 C 
ATOM    135  H33 UNL A   1      12.005  59.445   5.977  1.00  0.00    +0.000 H 
ATOM    136  H34 UNL A   1      12.893  60.973   5.708  1.00  0.00    +0.000 H 
BRANCH   29   28
ATOM     28  C23 UNL A   1      13.931  59.249   5.101  1.00  0.00    +0.000 C 
ATOM    133  H31 UNL A   1      14.625  59.981   4.742  1.00  0.00    +0.000 H 
ATOM    134  H32 UNL A   1      14.381  58.474   5.682  1.00  0.00    +0.000 H 
BRANCH   28   27
ATOM     27  C22 UNL A   1      13.307  58.554   3.883  1.00  0.00    +0.000 C 
ATOM    132  H30 UNL A   1      13.349  57.504   4.087  1.00  0.00    +0.000 H 
ATOM    131  H29 UNL A   1      13.865  58.842   3.017  1.00  0.00    +0.000 H 
BRANCH   27   26
ATOM    129  H27 UNL A   1      11.394  59.194   4.556  1.00  0.00    +0.000 H 
ATOM     26  C21 UNL A   1      11.833  58.881   3.630  1.00  0.00    +0.000 C 
ATOM    130  H28 UNL A   1      11.807  59.647   2.884  1.00  0.00    +0.000 H 
BRANCH   26   25
ATOM     25  C20 UNL A   1      11.020  57.703   3.086  1.00  0.00    +0.000 C 
ATOM    127  H25 UNL A   1      11.248  56.830   3.661  1.00  0.00    +0.000 H 
ATOM    128  H26 UNL A   1       9.982  57.953   3.161  1.00  0.00    +0.000 H 
BRANCH   25   24
ATOM    126  H24 UNL A   1      11.210  58.218   1.102  1.00  0.00    +0.000 H 
ATOM     24  N2  UNL A   1      11.320  57.439   1.694  1.00  0.00    +0.000 N 
BRANCH   24   22
ATOM     22  C19 UNL A   1      11.727  56.306   1.060  1.00  0.00    +0.000 C 
ATOM     23  O3  UNL A   1      10.843  55.484   0.789  1.00  0.00    +0.000 O 
BRANCH   22   20
ATOM    122  H20 UNL A   1      13.623  55.620   1.606  1.00  0.00    +0.000 H 
ATOM     20  C17 UNL A   1      13.191  56.000   0.704  1.00  0.00    +0.000 C 
BRANCH   20   19
ATOM     97  C71 UNL A   1      13.403  55.117  -1.655  1.00  0.00    +0.000 C 
ATOM     98  C72 UNL A   1      13.615  54.086  -2.592  1.00  0.00    +0.000 C 
ATOM     16  C13 UNL A   1      13.882  52.767  -2.177  1.00  0.00    +0.000 C 
ATOM     17  C14 UNL A   1      13.783  52.511  -0.799  1.00  0.00    +0.000 C 
ATOM     18  C15 UNL A   1      13.484  53.520   0.123  1.00  0.00    +0.000 C 
ATOM     19  C16 UNL A   1      13.356  54.850  -0.278  1.00  0.00    +0.000 C 
ATOM    120  H18 UNL A   1      13.935  51.550  -0.457  1.00  0.00    +0.000 H 
ATOM    121  H19 UNL A   1      13.355  53.275   1.117  1.00  0.00    +0.000 H 
ATOM    154  H52 UNL A   1      13.280  56.086  -1.987  1.00  0.00    +0.000 H 
BRANCH   16   15
ATOM    102  C73 UNL A   1      13.374  50.754  -3.595  1.00  0.00    +0.000 C 
ATOM     11  C8  UNL A   1      13.795  49.725  -4.440  1.00  0.00    +0.000 C 
ATOM     12  C9  UNL A   1      15.130  49.595  -4.810  1.00  0.00    +0.000 C 
ATOM     13  C10 UNL A   1      16.059  50.512  -4.331  1.00  0.00    +0.000 C 
ATOM     14  C11 UNL A   1      15.651  51.532  -3.465  1.00  0.00    +0.000 C 
ATOM     15  C12 UNL A   1      14.305  51.671  -3.077  1.00  0.00    +0.000 C 
ATOM    117  H15 UNL A   1      15.428  48.827  -5.432  1.00  0.00    +0.000 H 
ATOM    118  H16 UNL A   1      17.049  50.440  -4.614  1.00  0.00    +0.000 H 
ATOM    119  H17 UNL A   1      16.352  52.197  -3.103  1.00  0.00    +0.000 H 
ATOM    155  H53 UNL A   1      12.376  50.841  -3.351  1.00  0.00    +0.000 H 
BRANCH   11   10
ATOM     10  O2  UNL A   1      12.931  48.684  -4.825  1.00  0.00    +0.000 O 
BRANCH   10    8
ATOM      9  O1  UNL A   1      13.499  47.012  -6.339  1.00  0.00    +0.000 O 
ATOM      8  C7  UNL A   1      13.052  48.123  -6.087  1.00  0.00    +0.000 C 
BRANCH    8    7
ATOM    116  H14 UNL A   1      11.826  49.520  -6.860  1.00  0.00    +0.000 H 
ATOM      7  N1  UNL A   1      12.599  48.951  -7.079  1.00  0.00    +0.000 N 
BRANCH    7    6
ATOM    114  H12 UNL A   1      13.180  48.100  -8.864  1.00  0.00    +0.000 H 
ATOM    115  H13 UNL A   1      12.498  49.725  -8.975  1.00  0.00    +0.000 H 
ATOM      6  C6  UNL A   1      13.139  49.072  -8.419  1.00  0.00    +0.000 C 
BRANCH    6    5
ATOM    113  H11 UNL A   1      14.732  49.997  -7.418  1.00  0.00    +0.000 H 
ATOM      5  C5  UNL A   1      14.543  49.677  -8.421  1.00  0.00    +0.000 C 
ATOM    112  H10 UNL A   1      14.560  50.476  -9.131  1.00  0.00    +0.000 H 
BRANCH    5    4
ATOM      4  C4  UNL A   1      15.667  48.698  -8.779  1.00  0.00    +0.000 C 
ATOM    110  H8  UNL A   1      15.268  47.707  -8.735  1.00  0.00    +0.000 H 
ATOM    111  H9  UNL A   1      16.006  48.983  -9.753  1.00  0.00    +0.000 H 
BRANCH    4    3
ATOM      3  C3  UNL A   1      16.902  48.751  -7.873  1.00  0.00    +0.000 C 
ATOM    108  H6  UNL A   1      17.593  49.448  -8.296  1.00  0.00    +0.000 H 
ATOM    109  H7  UNL A   1      16.545  49.032  -6.904  1.00  0.00    +0.000 H 
BRANCH    3    2
ATOM      2  C2  UNL A   1      17.633  47.420  -7.681  1.00  0.00    +0.000 C 
ATOM    107  H5  UNL A   1      18.682  47.631  -7.680  1.00  0.00    +0.000 H 
ATOM    106  H4  UNL A   1      17.355  46.761  -8.477  1.00  0.00    +0.000 H 
BRANCH    2    1
ATOM      1  C1  UNL A   1      17.310  46.741  -6.358  1.00  0.00    +0.000 C 
ATOM    105  H3  UNL A   1      17.991  45.932  -6.197  1.00  0.00    +0.000 H 
ATOM    103  H1  UNL A   1      16.309  46.363  -6.387  1.00  0.00    +0.000 H 
ATOM    104  H2  UNL A   1      17.400  47.449  -5.562  1.00  0.00    +0.000 H 
ENDBRANCH    2    1
ENDBRANCH    3    2
ENDBRANCH    4    3
ENDBRANCH    5    4
ENDBRANCH    6    5
ENDBRANCH    7    6
ENDBRANCH    8    7
ENDBRANCH   10    8
ENDBRANCH   11   10
ENDBRANCH   16   15
BRANCH   98   99
ATOM     99  N8  UNL A   1      13.490  54.424  -3.993  1.00  0.00    +0.000 N 
ATOM    100  O5  UNL A   1      14.354  55.066  -4.555  1.00  0.00    +0.000 O 
ATOM    101  O6  UNL A   1      12.335  54.161  -4.689  1.00  0.00    +0.000 O 
ENDBRANCH   98   99
ENDBRANCH   20   19
BRANCH   20   21
ATOM    125  H23 UNL A   1      14.027  57.883   1.278  1.00  0.00    +0.000 H 
ATOM    123  H21 UNL A   1      13.657  57.756  -0.425  1.00  0.00    +0.000 H 
ATOM    124  H22 UNL A   1      15.054  56.937   0.229  1.00  0.00    +0.000 H 
ATOM     21  C18 UNL A   1      14.046  57.237   0.426  1.00  0.00    +0.000 C 
ENDBRANCH   20   21
ENDBRANCH   22   20
ENDBRANCH   24   22
ENDBRANCH   25   24
ENDBRANCH   26   25
ENDBRANCH   27   26
ENDBRANCH   28   27
ENDBRANCH   29   28
ENDBRANCH   30   29
ENDBRANCH   31   30
ENDBRANCH   32   31
ENDBRANCH   34   32
ENDBRANCH   38   37
BRANCH   42   43
ATOM     43  C35 UNL A   1      12.410  48.196   5.244  1.00  0.00    +0.000 C 
ATOM     44  C36 UNL A   1      11.080  47.902   4.906  1.00  0.00    +0.000 C 
ATOM     45  F1  UNL A   1      10.488  48.537   3.884  1.00  0.00    +0.000 F 
ATOM     46  C37 UNL A   1      10.339  46.984   5.645  1.00  0.00    +0.000 C 
ATOM     47  F2  UNL A   1       9.054  46.758   5.335  1.00  0.00    +0.000 F 
ATOM     48  C38 UNL A   1      10.920  46.316   6.711  1.00  0.00    +0.000 C 
ATOM     49  F3  UNL A   1      10.206  45.429   7.418  1.00  0.00    +0.000 F 
ATOM     50  C39 UNL A   1      12.241  46.571   7.048  1.00  0.00    +0.000 C 
ATOM     51  F4  UNL A   1      12.810  45.916   8.070  1.00  0.00    +0.000 F 
ATOM     52  C40 UNL A   1      12.977  47.511   6.330  1.00  0.00    +0.000 C 
ATOM     53  F5  UNL A   1      14.247  47.749   6.692  1.00  0.00    +0.000 F 
ENDBRANCH   42   43
BRANCH   59   60
ATOM     65  C49 UNL A   1      17.631  46.405  -2.442  1.00  0.00    +0.000 C 
ATOM     66  F8  UNL A   1      18.056  45.532  -3.366  1.00  0.00    +0.000 F 
ATOM     67  C50 UNL A   1      16.358  46.947  -2.533  1.00  0.00    +0.000 C 
ATOM     68  F9  UNL A   1      15.544  46.580  -3.532  1.00  0.00    +0.000 F 
ATOM     69  C51 UNL A   1      15.924  47.871  -1.587  1.00  0.00    +0.000 C 
ATOM     70  F10 UNL A   1      14.692  48.388  -1.708  1.00  0.00    +0.000 F 
ATOM     60  C46 UNL A   1      16.750  48.253  -0.519  1.00  0.00    +0.000 C 
ATOM     61  C47 UNL A   1      18.027  47.678  -0.436  1.00  0.00    +0.000 C 
ATOM     62  F6  UNL A   1      18.859  48.023   0.558  1.00  0.00    +0.000 F 
ATOM     63  C48 UNL A   1      18.468  46.775  -1.400  1.00  0.00    +0.000 C 
ATOM     64  F7  UNL A   1      19.709  46.275  -1.327  1.00  0.00    +0.000 F 
ENDBRANCH   59   60
BRANCH   74   75
ATOM     75  C55 UNL A   1      17.952  55.034   0.534  1.00  0.00    +0.000 C 
ATOM     76  C56 UNL A   1      19.135  55.498   1.126  1.00  0.00    +0.000 C 
ATOM     77  F11 UNL A   1      19.495  55.054   2.339  1.00  0.00    +0.000 F 
ATOM     78  C57 UNL A   1      19.934  56.446   0.489  1.00  0.00    +0.000 C 
ATOM     79  F12 UNL A   1      21.039  56.901   1.095  1.00  0.00    +0.000 F 
ATOM     80  C58 UNL A   1      19.580  56.927  -0.761  1.00  0.00    +0.000 C 
ATOM     81  F13 UNL A   1      20.352  57.833  -1.376  1.00  0.00    +0.000 F 
ATOM     82  C59 UNL A   1      18.422  56.471  -1.373  1.00  0.00    +0.000 C 
ATOM     83  F14 UNL A   1      18.085  56.923  -2.589  1.00  0.00    +0.000 F 
ATOM     84  C60 UNL A   1      17.608  55.544  -0.726  1.00  0.00    +0.000 C 
ATOM     85  F15 UNL A   1      16.489  55.126  -1.337  1.00  0.00    +0.000 F 
ENDBRANCH   74   75
TORSDOF 28
ENDMDL
MODEL 5
REMARK VINA RESULT:      -7.3     23.583     31.693
ROOT
ATOM    142  H40 UNL A   1      13.498  46.936   3.151  1.00  0.00    +0.000 H 
ATOM    143  H41 UNL A   1      15.120  46.941   1.110  1.00  0.00    +0.000 H 
ATOM    144  H42 UNL A   1      15.003  50.768   2.688  1.00  0.00    +0.000 H 
ATOM    145  H43 UNL A   1      16.665  56.921   2.359  1.00  0.00    +0.000 H 
ATOM    146  H44 UNL A   1      15.131  56.897   4.384  1.00  0.00    +0.000 H 
ATOM    147  H45 UNL A   1      15.290  53.031   2.865  1.00  0.00    +0.000 H 
ATOM    148  H46 UNL A   1      18.477  53.202  -1.019  1.00  0.00    +0.000 H 
ATOM    149  H47 UNL A   1      17.945  50.728  -1.400  1.00  0.00    +0.000 H 
ATOM    150  H48 UNL A   1      12.081  50.652   6.760  1.00  0.00    +0.000 H 
ATOM    151  H49 UNL A   1      12.215  53.207   6.877  1.00  0.00    +0.000 H 
ATOM     38  C31 UNL A   1      13.997  54.348   4.967  1.00  0.00    +0.000 C 
ATOM     39  C32 UNL A   1      13.586  52.908   5.095  1.00  0.00    +0.000 C 
ATOM     40  N4  UNL A   1      13.944  51.876   4.370  1.00  0.00    +0.000 N 
ATOM     41  C33 UNL A   1      13.314  50.778   4.939  1.00  0.00    +0.000 C 
ATOM     42  C34 UNL A   1      13.319  49.489   4.520  1.00  0.00    +0.000 C 
ATOM     54  C41 UNL A   1      14.018  49.020   3.351  1.00  0.00    +0.000 C 
ATOM     55  C42 UNL A   1      14.030  47.750   2.804  1.00  0.00    +0.000 C 
ATOM     56  C43 UNL A   1      14.888  47.757   1.698  1.00  0.00    +0.000 C 
ATOM     57  C44 UNL A   1      15.372  49.043   1.527  1.00  0.00    +0.000 C 
ATOM     58  N5  UNL A   1      14.833  49.808   2.550  1.00  0.00    +0.000 N 
ATOM     59  C45 UNL A   1      16.261  49.541   0.509  1.00  0.00    +0.000 C 
ATOM     71  C52 UNL A   1      16.677  50.826   0.398  1.00  0.00    +0.000 C 
ATOM     72  N6  UNL A   1      16.364  51.916   1.200  1.00  0.00    +0.000 N 
ATOM     73  C53 UNL A   1      17.022  52.933   0.697  1.00  0.00    +0.000 C 
ATOM     74  C54 UNL A   1      17.037  54.368   1.147  1.00  0.00    +0.000 C 
ATOM     86  C61 UNL A   1      16.277  54.737   2.196  1.00  0.00    +0.000 C 
ATOM     87  C62 UNL A   1      16.181  56.090   2.735  1.00  0.00    +0.000 C 
ATOM     88  C63 UNL A   1      15.363  56.079   3.799  1.00  0.00    +0.000 C 
ATOM     89  C64 UNL A   1      14.850  54.722   3.995  1.00  0.00    +0.000 C 
ATOM     90  N7  UNL A   1      15.445  53.994   2.996  1.00  0.00    +0.000 N 
ATOM     91  C65 UNL A   1      17.848  52.596  -0.471  1.00  0.00    +0.000 C 
ATOM     92  C66 UNL A   1      17.571  51.311  -0.634  1.00  0.00    +0.000 C 
ATOM     93  C67 UNL A   1      12.592  51.258   6.098  1.00  0.00    +0.000 C 
ATOM     94  C68 UNL A   1      12.674  52.577   6.200  1.00  0.00    +0.000 C 
ENDROOT
BRANCH   38   37
ATOM     34  C27 UNL A   1      12.701  57.317   7.774  1.00  0.00    +0.000 C 
ATOM     35  C28 UNL A   1      11.910  57.030   6.657  1.00  0.00    +0.000 C 
ATOM     36  C29 UNL A   1      12.311  56.039   5.758  1.00  0.00    +0.000 C 
ATOM     37  C30 UNL A   1      13.522  55.354   5.950  1.00  0.00    +0.000 C 
ATOM    140  H38 UNL A   1      11.033  57.548   6.497  1.00  0.00    +0.000 H 
ATOM    141  H39 UNL A   1      11.714  55.809   4.948  1.00  0.00    +0.000 H 
ATOM    152  H50 UNL A   1      15.189  55.143   7.233  1.00  0.00    +0.000 H 
ATOM    153  H51 UNL A   1      14.394  56.725   8.888  1.00  0.00    +0.000 H 
ATOM     95  C69 UNL A   1      14.294  55.635   7.087  1.00  0.00    +0.000 C 
ATOM     96  C70 UNL A   1      13.860  56.576   8.018  1.00  0.00    +0.000 C 
BRANCH   34   32
ATOM     33  O4  UNL A   1      11.684  58.071   9.748  1.00  0.00    +0.000 O 
ATOM     32  C26 UNL A   1      12.259  58.378   8.708  1.00  0.00    +0.000 C 
BRANCH   32   31
ATOM    139  H37 UNL A   1      11.760  60.166   7.957  1.00  0.00    +0.000 H 
ATOM     31  N3  UNL A   1      12.492  59.699   8.419  1.00  0.00    +0.000 N 
BRANCH   31   30
ATOM    137  H35 UNL A   1      14.394  59.906   9.201  1.00  0.00    +0.000 H 
ATOM    138  H36 UNL A   1      14.049  60.870   7.763  1.00  0.00    +0.000 H 
ATOM     30  C25 UNL A   1      13.669  60.510   8.697  1.00  0.00    +0.000 C 
BRANCH   30   29
ATOM     29  C24 UNL A   1      13.339  61.717   9.571  1.00  0.00    +0.000 C 
ATOM    135  H33 UNL A   1      14.163  62.398   9.522  1.00  0.00    +0.000 H 
ATOM    136  H34 UNL A   1      12.428  62.127   9.186  1.00  0.00    +0.000 H 
BRANCH   29   28
ATOM     28  C23 UNL A   1      13.075  61.392  11.045  1.00  0.00    +0.000 C 
ATOM    133  H31 UNL A   1      13.511  60.437  11.254  1.00  0.00    +0.000 H 
ATOM    134  H32 UNL A   1      13.505  62.195  11.604  1.00  0.00    +0.000 H 
BRANCH   28   27
ATOM     27  C22 UNL A   1      11.597  61.336  11.457  1.00  0.00    +0.000 C 
ATOM    132  H30 UNL A   1      11.086  60.830  10.664  1.00  0.00    +0.000 H 
ATOM    131  H29 UNL A   1      11.259  62.340  11.610  1.00  0.00    +0.000 H 
BRANCH   27   26
ATOM    129  H27 UNL A   1      10.354  60.059  12.618  1.00  0.00    +0.000 H 
ATOM     26  C21 UNL A   1      11.306  60.537  12.731  1.00  0.00    +0.000 C 
ATOM    130  H28 UNL A   1      12.106  59.836  12.848  1.00  0.00    +0.000 H 
BRANCH   26   25
ATOM     25  C20 UNL A   1      11.271  61.388  14.003  1.00  0.00    +0.000 C 
ATOM    127  H25 UNL A   1      12.052  62.117  13.954  1.00  0.00    +0.000 H 
ATOM    128  H26 UNL A   1      10.310  61.856  14.063  1.00  0.00    +0.000 H 
BRANCH   25   24
ATOM    126  H24 UNL A   1      12.313  60.729  15.651  1.00  0.00    +0.000 H 
ATOM     24  N2  UNL A   1      11.454  60.584  15.193  1.00  0.00    +0.000 N 
BRANCH   24   22
ATOM     22  C19 UNL A   1      10.649  59.663  15.792  1.00  0.00    +0.000 C 
ATOM     23  O3  UNL A   1       9.433  59.817  15.634  1.00  0.00    +0.000 O 
BRANCH   22   20
ATOM    122  H20 UNL A   1      10.432  58.369  17.417  1.00  0.00    +0.000 H 
ATOM     20  C17 UNL A   1      11.168  58.498  16.651  1.00  0.00    +0.000 C 
BRANCH   20   19
ATOM     97  C71 UNL A   1      10.617  56.033  16.564  1.00  0.00    +0.000 C 
ATOM     98  C72 UNL A   1      10.543  54.788  15.907  1.00  0.00    +0.000 C 
ATOM     16  C13 UNL A   1      10.933  54.650  14.561  1.00  0.00    +0.000 C 
ATOM     17  C14 UNL A   1      11.526  55.774  13.962  1.00  0.00    +0.000 C 
ATOM     18  C15 UNL A   1      11.680  56.985  14.645  1.00  0.00    +0.000 C 
ATOM     19  C16 UNL A   1      11.168  57.158  15.931  1.00  0.00    +0.000 C 
ATOM    120  H18 UNL A   1      11.859  55.704  12.988  1.00  0.00    +0.000 H 
ATOM    121  H19 UNL A   1      12.181  57.764  14.190  1.00  0.00    +0.000 H 
ATOM    154  H52 UNL A   1      10.258  56.119  17.528  1.00  0.00    +0.000 H 
BRANCH   16   15
ATOM    102  C73 UNL A   1      11.624  52.370  13.757  1.00  0.00    +0.000 C 
ATOM     11  C8  UNL A   1      11.397  51.238  12.972  1.00  0.00    +0.000 C 
ATOM     12  C9  UNL A   1      10.259  51.125  12.180  1.00  0.00    +0.000 C 
ATOM     13  C10 UNL A   1       9.330  52.160  12.176  1.00  0.00    +0.000 C 
ATOM     14  C11 UNL A   1       9.561  53.308  12.940  1.00  0.00    +0.000 C 
ATOM     15  C12 UNL A   1      10.711  53.439  13.741  1.00  0.00    +0.000 C 
ATOM    117  H15 UNL A   1      10.106  50.284  11.602  1.00  0.00    +0.000 H 
ATOM    118  H16 UNL A   1       8.471  52.080  11.609  1.00  0.00    +0.000 H 
ATOM    119  H17 UNL A   1       8.872  54.076  12.916  1.00  0.00    +0.000 H 
ATOM    155  H53 UNL A   1      12.466  52.423  14.351  1.00  0.00    +0.000 H 
BRANCH   11   10
ATOM     10  O2  UNL A   1      12.373  50.238  12.818  1.00  0.00    +0.000 O 
BRANCH   10    8
ATOM      9  O1  UNL A   1      12.696  49.937  10.534  1.00  0.00    +0.000 O 
ATOM      8  C7  UNL A   1      13.124  50.185  11.654  1.00  0.00    +0.000 C 
BRANCH    8    7
ATOM    116  H14 UNL A   1      15.088  50.057  11.234  1.00  0.00    +0.000 H 
ATOM      7  N1  UNL A   1      14.449  50.457  11.865  1.00  0.00    +0.000 N 
BRANCH    7    6
ATOM    114  H12 UNL A   1      14.268  51.396  13.692  1.00  0.00    +0.000 H 
ATOM    115  H13 UNL A   1      15.877  50.777  13.302  1.00  0.00    +0.000 H 
ATOM      6  C6  UNL A   1      15.006  51.274  12.925  1.00  0.00    +0.000 C 
BRANCH    6    5
ATOM    113  H11 UNL A   1      15.818  52.509  11.438  1.00  0.00    +0.000 H 
ATOM      5  C5  UNL A   1      15.432  52.655  12.426  1.00  0.00    +0.000 C 
ATOM    112  H10 UNL A   1      16.153  53.048  13.110  1.00  0.00    +0.000 H 
BRANCH    5    4
ATOM      4  C4  UNL A   1      14.294  53.674  12.296  1.00  0.00    +0.000 C 
ATOM    110  H8  UNL A   1      13.425  53.259  12.759  1.00  0.00    +0.000 H 
ATOM    111  H9  UNL A   1      14.646  54.569  12.764  1.00  0.00    +0.000 H 
BRANCH    4    3
ATOM      3  C3  UNL A   1      13.922  54.069  10.863  1.00  0.00    +0.000 C 
ATOM    108  H6  UNL A   1      14.552  54.882  10.569  1.00  0.00    +0.000 H 
ATOM    109  H7  UNL A   1      14.051  53.187  10.271  1.00  0.00    +0.000 H 
BRANCH    3    2
ATOM      2  C2  UNL A   1      12.468  54.503  10.657  1.00  0.00    +0.000 C 
ATOM    107  H5  UNL A   1      12.486  55.504  10.281  1.00  0.00    +0.000 H 
ATOM    106  H4  UNL A   1      11.957  54.433  11.595  1.00  0.00    +0.000 H 
BRANCH    2    1
ATOM      1  C1  UNL A   1      11.724  53.652   9.639  1.00  0.00    +0.000 C 
ATOM    105  H3  UNL A   1      11.020  54.261   9.112  1.00  0.00    +0.000 H 
ATOM    103  H1  UNL A   1      11.206  52.863  10.143  1.00  0.00    +0.000 H 
ATOM    104  H2  UNL A   1      12.423  53.232   8.946  1.00  0.00    +0.000 H 
ENDBRANCH    2    1
ENDBRANCH    3    2
ENDBRANCH    4    3
ENDBRANCH    5    4
ENDBRANCH    6    5
ENDBRANCH    7    6
ENDBRANCH    8    7
ENDBRANCH   10    8
ENDBRANCH   11   10
ENDBRANCH   16   15
BRANCH   98   99
ATOM     99  N8  UNL A   1      10.109  53.650  16.686  1.00  0.00    +0.000 N 
ATOM    100  O5  UNL A   1      10.911  52.981  17.307  1.00  0.00    +0.000 O 
ATOM    101  O6  UNL A   1       8.810  53.203  16.634  1.00  0.00    +0.000 O 
ENDBRANCH   98   99
ENDBRANCH   20   19
BRANCH   20   21
ATOM    125  H23 UNL A   1      12.947  57.910  17.681  1.00  0.00    +0.000 H 
ATOM    123  H21 UNL A   1      12.155  59.309  18.367  1.00  0.00    +0.000 H 
ATOM    124  H22 UNL A   1      13.064  59.460  16.882  1.00  0.00    +0.000 H 
ATOM     21  C18 UNL A   1      12.428  58.818  17.456  1.00  0.00    +0.000 C 
ENDBRANCH   20   21
ENDBRANCH   22   20
ENDBRANCH   24   22
ENDBRANCH   25   24
ENDBRANCH   26   25
ENDBRANCH   27   26
ENDBRANCH   28   27
ENDBRANCH   29   28
ENDBRANCH   30   29
ENDBRANCH   31   30
ENDBRANCH   32   31
ENDBRANCH   34   32
ENDBRANCH   38   37
BRANCH   42   43
ATOM     43  C35 UNL A   1      12.543  48.493   5.332  1.00  0.00    +0.000 C 
ATOM     44  C36 UNL A   1      11.193  48.217   5.065  1.00  0.00    +0.000 C 
ATOM     45  F1  UNL A   1      10.550  48.876   4.089  1.00  0.00    +0.000 F 
ATOM     46  C37 UNL A   1      10.485  47.293   5.828  1.00  0.00    +0.000 C 
ATOM     47  F2  UNL A   1       9.183  47.084   5.588  1.00  0.00    +0.000 F 
ATOM     48  C38 UNL A   1      11.120  46.600   6.848  1.00  0.00    +0.000 C 
ATOM     49  F3  UNL A   1      10.438  45.708   7.579  1.00  0.00    +0.000 F 
ATOM     50  C39 UNL A   1      12.460  46.838   7.113  1.00  0.00    +0.000 C 
ATOM     51  F4  UNL A   1      13.079  46.159   8.090  1.00  0.00    +0.000 F 
ATOM     52  C40 UNL A   1      13.163  47.784   6.371  1.00  0.00    +0.000 C 
ATOM     53  F5  UNL A   1      14.454  48.003   6.665  1.00  0.00    +0.000 F 
ENDBRANCH   42   43
BRANCH   59   60
ATOM     65  C49 UNL A   1      17.712  46.794  -2.479  1.00  0.00    +0.000 C 
ATOM     66  F8  UNL A   1      18.166  45.937  -3.405  1.00  0.00    +0.000 F 
ATOM     67  C50 UNL A   1      18.484  47.085  -1.365  1.00  0.00    +0.000 C 
ATOM     68  F9  UNL A   1      19.693  46.526  -1.224  1.00  0.00    +0.000 F 
ATOM     69  C51 UNL A   1      18.004  47.957  -0.392  1.00  0.00    +0.000 C 
ATOM     70  F10 UNL A   1      18.767  48.209   0.682  1.00  0.00    +0.000 F 
ATOM     60  C46 UNL A   1      16.750  48.571  -0.529  1.00  0.00    +0.000 C 
ATOM     61  C47 UNL A   1      15.994  48.278  -1.674  1.00  0.00    +0.000 C 
ATOM     62  F6  UNL A   1      14.782  48.828  -1.842  1.00  0.00    +0.000 F 
ATOM     63  C48 UNL A   1      16.465  47.383  -2.631  1.00  0.00    +0.000 C 
ATOM     64  F7  UNL A   1      15.706  47.081  -3.692  1.00  0.00    +0.000 F 
ENDBRANCH   59   60
BRANCH   74   75
ATOM     75  C55 UNL A   1      17.852  55.384   0.432  1.00  0.00    +0.000 C 
ATOM     76  C56 UNL A   1      19.101  55.782   0.930  1.00  0.00    +0.000 C 
ATOM     77  F11 UNL A   1      19.557  55.265   2.081  1.00  0.00    +0.000 F 
ATOM     78  C57 UNL A   1      19.868  56.737   0.267  1.00  0.00    +0.000 C 
ATOM     79  F12 UNL A   1      21.040  57.128   0.786  1.00  0.00    +0.000 F 
ATOM     80  C58 UNL A   1      19.415  57.291  -0.919  1.00  0.00    +0.000 C 
ATOM     81  F13 UNL A   1      20.156  58.205  -1.561  1.00  0.00    +0.000 F 
ATOM     82  C59 UNL A   1      18.190  56.902  -1.439  1.00  0.00    +0.000 C 
ATOM     83  F14 UNL A   1      17.755  57.425  -2.594  1.00  0.00    +0.000 F 
ATOM     84  C60 UNL A   1      17.409  55.967  -0.763  1.00  0.00    +0.000 C 
ATOM     85  F15 UNL A   1      16.224  55.614  -1.284  1.00  0.00    +0.000 F 
ENDBRANCH   74   75
TORSDOF 28
ENDMDL
MODEL 6
REMARK VINA RESULT:      -7.3      6.188     11.498
ROOT
ATOM    142  H40 UNL A   1      14.463  25.668  -0.960  1.00  0.00    +0.000 H 
ATOM    143  H41 UNL A   1      14.099  28.138  -0.209  1.00  0.00    +0.000 H 
ATOM    144  H42 UNL A   1      12.335  27.633  -3.922  1.00  0.00    +0.000 H 
ATOM    145  H43 UNL A   1       9.344  30.108  -8.987  1.00  0.00    +0.000 H 
ATOM    146  H44 UNL A   1       9.648  27.685  -9.687  1.00  0.00    +0.000 H 
ATOM    147  H45 UNL A   1      11.360  28.146  -5.927  1.00  0.00    +0.000 H 
ATOM    148  H46 UNL A   1      10.537  32.928  -4.611  1.00  0.00    +0.000 H 
ATOM    149  H47 UNL A   1      11.873  32.438  -2.484  1.00  0.00    +0.000 H 
ATOM    150  H48 UNL A   1      12.833  22.814  -5.207  1.00  0.00    +0.000 H 
ATOM    151  H49 UNL A   1      11.929  23.384  -7.534  1.00  0.00    +0.000 H 
ATOM     38  C31 UNL A   1      11.042  26.081  -7.787  1.00  0.00    +0.000 C 
ATOM     39  C32 UNL A   1      11.736  25.448  -6.614  1.00  0.00    +0.000 C 
ATOM     40  N4  UNL A   1      12.084  25.984  -5.470  1.00  0.00    +0.000 N 
ATOM     41  C33 UNL A   1      12.650  24.955  -4.728  1.00  0.00    +0.000 C 
ATOM     42  C34 UNL A   1      13.218  25.013  -3.499  1.00  0.00    +0.000 C 
ATOM     54  C41 UNL A   1      13.336  26.216  -2.716  1.00  0.00    +0.000 C 
ATOM     55  C42 UNL A   1      13.955  26.392  -1.492  1.00  0.00    +0.000 C 
ATOM     56  C43 UNL A   1      13.773  27.723  -1.097  1.00  0.00    +0.000 C 
ATOM     57  C44 UNL A   1      13.083  28.387  -2.097  1.00  0.00    +0.000 C 
ATOM     58  N5  UNL A   1      12.818  27.450  -3.083  1.00  0.00    +0.000 N 
ATOM     59  C45 UNL A   1      12.693  29.773  -2.152  1.00  0.00    +0.000 C 
ATOM     71  C52 UNL A   1      12.031  30.355  -3.181  1.00  0.00    +0.000 C 
ATOM     72  N6  UNL A   1      11.592  29.786  -4.368  1.00  0.00    +0.000 N 
ATOM     73  C53 UNL A   1      10.995  30.748  -5.030  1.00  0.00    +0.000 C 
ATOM     74  C54 UNL A   1      10.353  30.708  -6.389  1.00  0.00    +0.000 C 
ATOM     86  C61 UNL A   1      10.373  29.560  -7.092  1.00  0.00    +0.000 C 
ATOM     87  C62 UNL A   1       9.803  29.374  -8.424  1.00  0.00    +0.000 C 
ATOM     88  C63 UNL A   1       9.973  28.097  -8.798  1.00  0.00    +0.000 C 
ATOM     89  C64 UNL A   1      10.695  27.381  -7.745  1.00  0.00    +0.000 C 
ATOM     90  N7  UNL A   1      10.891  28.330  -6.773  1.00  0.00    +0.000 N 
ATOM     91  C65 UNL A   1      10.969  32.036  -4.323  1.00  0.00    +0.000 C 
ATOM     92  C66 UNL A   1      11.647  31.752  -3.221  1.00  0.00    +0.000 C 
ATOM     93  C67 UNL A   1      12.553  23.754  -5.529  1.00  0.00    +0.000 C 
ATOM     94  C68 UNL A   1      12.056  24.018  -6.729  1.00  0.00    +0.000 C 
ENDROOT
BRANCH   38   37
ATOM     34  C27 UNL A   1       9.922  23.803 -11.242  1.00  0.00    +0.000 C 
ATOM     35  C28 UNL A   1      11.244  24.238 -11.099  1.00  0.00    +0.000 C 
ATOM     36  C29 UNL A   1      11.622  24.952  -9.959  1.00  0.00    +0.000 C 
ATOM     37  C30 UNL A   1      10.674  25.265  -8.971  1.00  0.00    +0.000 C 
ATOM    140  H38 UNL A   1      11.938  24.034 -11.834  1.00  0.00    +0.000 H 
ATOM    141  H39 UNL A   1      12.603  25.250  -9.841  1.00  0.00    +0.000 H 
ATOM    152  H50 UNL A   1       8.652  25.033  -8.399  1.00  0.00    +0.000 H 
ATOM    153  H51 UNL A   1       8.048  23.634 -10.284  1.00  0.00    +0.000 H 
ATOM     95  C69 UNL A   1       9.357  24.802  -9.115  1.00  0.00    +0.000 C 
ATOM     96  C70 UNL A   1       8.997  24.034 -10.220  1.00  0.00    +0.000 C 
BRANCH   34   32
ATOM     33  O4  UNL A   1       8.967  23.641 -13.377  1.00  0.00    +0.000 O 
ATOM     32  C26 UNL A   1       9.545  23.058 -12.464  1.00  0.00    +0.000 C 
BRANCH   32   31
ATOM    139  H37 UNL A   1      10.576  21.508 -13.201  1.00  0.00    +0.000 H 
ATOM     31  N3  UNL A   1       9.841  21.724 -12.584  1.00  0.00    +0.000 N 
BRANCH   31   30
ATOM    137  H35 UNL A   1       8.173  20.760 -11.838  1.00  0.00    +0.000 H 
ATOM    138  H36 UNL A   1       9.414  19.714 -12.532  1.00  0.00    +0.000 H 
ATOM     30  C25 UNL A   1       9.223  20.579 -11.931  1.00  0.00    +0.000 C 
BRANCH   30   29
ATOM     29  C24 UNL A   1       9.806  20.329 -10.542  1.00  0.00    +0.000 C 
ATOM    135  H33 UNL A   1      10.155  19.318 -10.505  1.00  0.00    +0.000 H 
ATOM    136  H34 UNL A   1      10.586  21.050 -10.409  1.00  0.00    +0.000 H 
BRANCH   29   28
ATOM     28  C23 UNL A   1       8.824  20.537  -9.385  1.00  0.00    +0.000 C 
ATOM    133  H31 UNL A   1       8.389  21.509  -9.493  1.00  0.00    +0.000 H 
ATOM    134  H32 UNL A   1       8.118  19.737  -9.452  1.00  0.00    +0.000 H 
BRANCH   28   27
ATOM     27  C22 UNL A   1       9.429  20.445  -7.977  1.00  0.00    +0.000 C 
ATOM    132  H30 UNL A   1      10.475  20.261  -8.115  1.00  0.00    +0.000 H 
ATOM    131  H29 UNL A   1       8.924  19.662  -7.451  1.00  0.00    +0.000 H 
BRANCH   27   26
ATOM    129  H27 UNL A   1       9.808  21.549  -6.199  1.00  0.00    +0.000 H 
ATOM     26  C21 UNL A   1       9.328  21.724  -7.140  1.00  0.00    +0.000 C 
ATOM    130  H28 UNL A   1       9.798  22.502  -7.703  1.00  0.00    +0.000 H 
BRANCH   26   25
ATOM     25  C20 UNL A   1       7.890  22.176  -6.870  1.00  0.00    +0.000 C 
ATOM    127  H25 UNL A   1       7.740  23.138  -7.316  1.00  0.00    +0.000 H 
ATOM    128  H26 UNL A   1       7.228  21.449  -7.291  1.00  0.00    +0.000 H 
BRANCH   25   24
ATOM    126  H24 UNL A   1       7.130  21.495  -5.082  1.00  0.00    +0.000 H 
ATOM     24  N2  UNL A   1       7.612  22.270  -5.452  1.00  0.00    +0.000 N 
BRANCH   24   22
ATOM     22  C19 UNL A   1       7.899  23.239  -4.539  1.00  0.00    +0.000 C 
ATOM     23  O3  UNL A   1       6.993  24.044  -4.296  1.00  0.00    +0.000 O 
BRANCH   22   20
ATOM    122  H20 UNL A   1       9.908  23.808  -4.588  1.00  0.00    +0.000 H 
ATOM     20  C17 UNL A   1       9.263  23.387  -3.845  1.00  0.00    +0.000 C 
BRANCH   20   19
ATOM     97  C71 UNL A   1       8.991  24.039  -1.418  1.00  0.00    +0.000 C 
ATOM     98  C72 UNL A   1       9.052  24.962  -0.354  1.00  0.00    +0.000 C 
ATOM     16  C13 UNL A   1       9.492  26.284  -0.560  1.00  0.00    +0.000 C 
ATOM     17  C14 UNL A   1       9.725  26.667  -1.892  1.00  0.00    +0.000 C 
ATOM     18  C15 UNL A   1       9.578  25.773  -2.958  1.00  0.00    +0.000 C 
ATOM     19  C16 UNL A   1       9.276  24.429  -2.736  1.00  0.00    +0.000 C 
ATOM    120  H18 UNL A   1      10.013  27.637  -2.090  1.00  0.00    +0.000 H 
ATOM    121  H19 UNL A   1       9.694  26.113  -3.925  1.00  0.00    +0.000 H 
ATOM    154  H52 UNL A   1       8.733  23.059  -1.224  1.00  0.00    +0.000 H 
BRANCH   16   15
ATOM    102  C73 UNL A   1       8.797  28.181   0.936  1.00  0.00    +0.000 C 
ATOM     11  C8  UNL A   1       9.082  29.092   1.955  1.00  0.00    +0.000 C 
ATOM     12  C9  UNL A   1      10.316  29.093   2.599  1.00  0.00    +0.000 C 
ATOM     13  C10 UNL A   1      11.279  28.163   2.221  1.00  0.00    +0.000 C 
ATOM     14  C11 UNL A   1      11.011  27.263   1.185  1.00  0.00    +0.000 C 
ATOM     15  C12 UNL A   1       9.770  27.256   0.520  1.00  0.00    +0.000 C 
ATOM    117  H15 UNL A   1      10.514  29.774   3.348  1.00  0.00    +0.000 H 
ATOM    118  H16 UNL A   1      12.190  28.139   2.704  1.00  0.00    +0.000 H 
ATOM    119  H17 UNL A   1      11.740  26.589   0.902  1.00  0.00    +0.000 H 
ATOM    155  H53 UNL A   1       7.869  28.188   0.486  1.00  0.00    +0.000 H 
BRANCH   11   10
ATOM     10  O2  UNL A   1       8.209  30.149   2.267  1.00  0.00    +0.000 O 
BRANCH   10    8
ATOM      9  O1  UNL A   1       6.051  30.386   1.431  1.00  0.00    +0.000 O 
ATOM      8  C7  UNL A   1       7.260  30.552   1.340  1.00  0.00    +0.000 C 
BRANCH    8    7
ATOM    116  H14 UNL A   1       7.877  30.677  -0.572  1.00  0.00    +0.000 H 
ATOM      7  N1  UNL A   1       7.812  31.193   0.264  1.00  0.00    +0.000 N 
BRANCH    7    6
ATOM    114  H12 UNL A   1       8.094  33.025   1.165  1.00  0.00    +0.000 H 
ATOM    115  H13 UNL A   1       9.366  32.514   0.051  1.00  0.00    +0.000 H 
ATOM      6  C6  UNL A   1       8.311  32.554   0.228  1.00  0.00    +0.000 C 
BRANCH    6    5
ATOM    113  H11 UNL A   1       7.383  34.304  -0.458  1.00  0.00    +0.000 H 
ATOM      5  C5  UNL A   1       7.676  33.372  -0.896  1.00  0.00    +0.000 C 
ATOM    112  H10 UNL A   1       6.854  32.812  -1.290  1.00  0.00    +0.000 H 
BRANCH    5    4
ATOM      4  C4  UNL A   1       8.617  33.718  -2.055  1.00  0.00    +0.000 C 
ATOM    110  H8  UNL A   1       9.300  34.466  -1.713  1.00  0.00    +0.000 H 
ATOM    111  H9  UNL A   1       9.088  32.799  -2.335  1.00  0.00    +0.000 H 
BRANCH    4    3
ATOM      3  C3  UNL A   1       7.937  34.244  -3.324  1.00  0.00    +0.000 C 
ATOM    108  H6  UNL A   1       8.202  33.597  -4.133  1.00  0.00    +0.000 H 
ATOM    109  H7  UNL A   1       6.888  34.260  -3.111  1.00  0.00    +0.000 H 
BRANCH    3    2
ATOM      2  C2  UNL A   1       8.307  35.675  -3.722  1.00  0.00    +0.000 C 
ATOM    107  H5  UNL A   1       9.208  35.621  -4.296  1.00  0.00    +0.000 H 
ATOM    106  H4  UNL A   1       8.428  36.255  -2.832  1.00  0.00    +0.000 H 
BRANCH    2    1
ATOM      1  C1  UNL A   1       7.258  36.346  -4.596  1.00  0.00    +0.000 C 
ATOM    105  H3  UNL A   1       7.735  37.032  -5.263  1.00  0.00    +0.000 H 
ATOM    103  H1  UNL A   1       6.565  36.877  -3.977  1.00  0.00    +0.000 H 
ATOM    104  H2  UNL A   1       6.734  35.603  -5.160  1.00  0.00    +0.000 H 
ENDBRANCH    2    1
ENDBRANCH    3    2
ENDBRANCH    4    3
ENDBRANCH    5    4
ENDBRANCH    6    5
ENDBRANCH    7    6
ENDBRANCH    8    7
ENDBRANCH   10    8
ENDBRANCH   11   10
ENDBRANCH   16   15
BRANCH   98   99
ATOM     99  N8  UNL A   1       8.591  24.515   0.941  1.00  0.00    +0.000 N 
ATOM    100  O5  UNL A   1       7.454  24.740   1.305  1.00  0.00    +0.000 O 
ATOM    101  O6  UNL A   1       9.455  23.955   1.852  1.00  0.00    +0.000 O 
ENDBRANCH   98   99
ENDBRANCH   20   19
BRANCH   20   21
ATOM    125  H23 UNL A   1       9.327  21.482  -2.877  1.00  0.00    +0.000 H 
ATOM    123  H21 UNL A   1      10.886  22.258  -3.029  1.00  0.00    +0.000 H 
ATOM    124  H22 UNL A   1      10.136  21.523  -4.425  1.00  0.00    +0.000 H 
ATOM     21  C18 UNL A   1       9.955  22.063  -3.519  1.00  0.00    +0.000 C 
ENDBRANCH   20   21
ENDBRANCH   22   20
ENDBRANCH   24   22
ENDBRANCH   25   24
ENDBRANCH   26   25
ENDBRANCH   27   26
ENDBRANCH   28   27
ENDBRANCH   29   28
ENDBRANCH   30   29
ENDBRANCH   31   30
ENDBRANCH   32   31
ENDBRANCH   34   32
ENDBRANCH   38   37
BRANCH   42   43
ATOM     43  C35 UNL A   1      13.758  23.735  -2.925  1.00  0.00    +0.000 C 
ATOM     44  C36 UNL A   1      13.092  23.051  -1.896  1.00  0.00    +0.000 C 
ATOM     45  F1  UNL A   1      11.965  23.553  -1.372  1.00  0.00    +0.000 F 
ATOM     46  C37 UNL A   1      13.606  21.868  -1.372  1.00  0.00    +0.000 C 
ATOM     47  F2  UNL A   1      12.981  21.260  -0.354  1.00  0.00    +0.000 F 
ATOM     48  C38 UNL A   1      14.774  21.326  -1.889  1.00  0.00    +0.000 C 
ATOM     49  F3  UNL A   1      15.265  20.185  -1.386  1.00  0.00    +0.000 F 
ATOM     50  C39 UNL A   1      15.435  21.972  -2.923  1.00  0.00    +0.000 C 
ATOM     51  F4  UNL A   1      16.556  21.443  -3.433  1.00  0.00    +0.000 F 
ATOM     52  C40 UNL A   1      14.940  23.171  -3.429  1.00  0.00    +0.000 C 
ATOM     53  F5  UNL A   1      15.612  23.780  -4.418  1.00  0.00    +0.000 F 
ENDBRANCH   42   43
BRANCH   59   60
ATOM     65  C49 UNL A   1      13.724  32.337   1.157  1.00  0.00    +0.000 C 
ATOM     66  F8  UNL A   1      14.040  33.132   2.187  1.00  0.00    +0.000 F 
ATOM     67  C50 UNL A   1      12.421  31.887   1.001  1.00  0.00    +0.000 C 
ATOM     68  F9  UNL A   1      11.475  32.265   1.870  1.00  0.00    +0.000 F 
ATOM     69  C51 UNL A   1      12.096  31.042  -0.057  1.00  0.00    +0.000 C 
ATOM     70  F10 UNL A   1      10.831  30.612  -0.174  1.00  0.00    +0.000 F 
ATOM     60  C46 UNL A   1      13.066  30.652  -0.992  1.00  0.00    +0.000 C 
ATOM     61  C47 UNL A   1      14.373  31.134  -0.827  1.00  0.00    +0.000 C 
ATOM     62  F6  UNL A   1      15.338  30.776  -1.687  1.00  0.00    +0.000 F 
ATOM     63  C48 UNL A   1      14.700  31.955   0.248  1.00  0.00    +0.000 C 
ATOM     64  F7  UNL A   1      15.965  32.366   0.413  1.00  0.00    +0.000 F 
ENDBRANCH   59   60
BRANCH   74   75
ATOM     75  C55 UNL A   1       9.729  31.922  -6.975  1.00  0.00    +0.000 C 
ATOM     76  C56 UNL A   1       8.476  32.370  -6.533  1.00  0.00    +0.000 C 
ATOM     77  F11 UNL A   1       7.815  31.682  -5.590  1.00  0.00    +0.000 F 
ATOM     78  C57 UNL A   1       7.884  33.505  -7.081  1.00  0.00    +0.000 C 
ATOM     79  F12 UNL A   1       6.668  33.888  -6.667  1.00  0.00    +0.000 F 
ATOM     80  C58 UNL A   1       8.543  34.229  -8.061  1.00  0.00    +0.000 C 
ATOM     81  F13 UNL A   1       7.976  35.325  -8.583  1.00  0.00    +0.000 F 
ATOM     82  C59 UNL A   1       9.789  33.814  -8.504  1.00  0.00    +0.000 C 
ATOM     83  F14 UNL A   1      10.437  34.521  -9.442  1.00  0.00    +0.000 F 
ATOM     84  C60 UNL A   1      10.372  32.664  -7.977  1.00  0.00    +0.000 C 
ATOM     85  F15 UNL A   1      11.575  32.280  -8.429  1.00  0.00    +0.000 F 
ENDBRANCH   74   75
TORSDOF 28
ENDMDL
MODEL 7
REMARK VINA RESULT:      -7.2     28.189     34.352
ROOT
ATOM    142  H40 UNL A   1      11.407   9.463  29.342  1.00  0.00    +0.000 H 
ATOM    143  H41 UNL A   1      12.347   7.095  29.896  1.00  0.00    +0.000 H 
ATOM    144  H42 UNL A   1       9.048   6.642  27.434  1.00  0.00    +0.000 H 
ATOM    145  H43 UNL A   1       4.835   2.849  24.504  1.00  0.00    +0.000 H 
ATOM    146  H44 UNL A   1       3.960   5.160  23.917  1.00  0.00    +0.000 H 
ATOM    147  H45 UNL A   1       7.313   5.645  26.325  1.00  0.00    +0.000 H 
ATOM    148  H46 UNL A   1       9.022   1.011  27.264  1.00  0.00    +0.000 H 
ATOM    149  H47 UNL A   1      10.804   2.106  28.739  1.00  0.00    +0.000 H 
ATOM    150  H48 UNL A   1       7.433  11.221  26.185  1.00  0.00    +0.000 H 
ATOM    151  H49 UNL A   1       5.372  10.153  25.104  1.00  0.00    +0.000 H 
ATOM     38  C31 UNL A   1       5.449   7.305  25.062  1.00  0.00    +0.000 C 
ATOM     39  C32 UNL A   1       6.422   8.240  25.723  1.00  0.00    +0.000 C 
ATOM     40  N4  UNL A   1       7.498   7.962  26.417  1.00  0.00    +0.000 N 
ATOM     41  C33 UNL A   1       8.054   9.187  26.759  1.00  0.00    +0.000 C 
ATOM     42  C34 UNL A   1       9.142   9.436  27.526  1.00  0.00    +0.000 C 
ATOM     54  C41 UNL A   1       9.948   8.416  28.146  1.00  0.00    +0.000 C 
ATOM     55  C42 UNL A   1      11.029   8.567  28.996  1.00  0.00    +0.000 C 
ATOM     56  C43 UNL A   1      11.523   7.295  29.306  1.00  0.00    +0.000 C 
ATOM     57  C44 UNL A   1      10.721   6.350  28.689  1.00  0.00    +0.000 C 
ATOM     58  N5  UNL A   1       9.760   7.052  27.978  1.00  0.00    +0.000 N 
ATOM     59  C45 UNL A   1      10.820   4.914  28.742  1.00  0.00    +0.000 C 
ATOM     71  C52 UNL A   1       9.979   4.051  28.121  1.00  0.00    +0.000 C 
ATOM     72  N6  UNL A   1       8.877   4.330  27.324  1.00  0.00    +0.000 N 
ATOM     73  C53 UNL A   1       8.403   3.168  26.946  1.00  0.00    +0.000 C 
ATOM     74  C54 UNL A   1       7.202   2.865  26.092  1.00  0.00    +0.000 C 
ATOM     86  C61 UNL A   1       6.449   3.883  25.632  1.00  0.00    +0.000 C 
ATOM     87  C62 UNL A   1       5.254   3.743  24.806  1.00  0.00    +0.000 C 
ATOM     88  C63 UNL A   1       4.785   4.964  24.505  1.00  0.00    +0.000 C 
ATOM     89  C64 UNL A   1       5.630   5.973  25.145  1.00  0.00    +0.000 C 
ATOM     90  N7  UNL A   1       6.591   5.238  25.794  1.00  0.00    +0.000 N 
ATOM     91  C65 UNL A   1       9.168   2.016  27.444  1.00  0.00    +0.000 C 
ATOM     92  C66 UNL A   1      10.092   2.609  28.185  1.00  0.00    +0.000 C 
ATOM     93  C67 UNL A   1       7.226  10.210  26.156  1.00  0.00    +0.000 C 
ATOM     94  C68 UNL A   1       6.168   9.679  25.561  1.00  0.00    +0.000 C 
ENDROOT
BRANCH   38   37
ATOM     34  C27 UNL A   1       2.181   8.753  22.695  1.00  0.00    +0.000 C 
ATOM     35  C28 UNL A   1       2.041   8.660  24.083  1.00  0.00    +0.000 C 
ATOM     36  C29 UNL A   1       3.115   8.221  24.862  1.00  0.00    +0.000 C 
ATOM     37  C30 UNL A   1       4.322   7.839  24.256  1.00  0.00    +0.000 C 
ATOM    140  H38 UNL A   1       1.148   8.915  24.531  1.00  0.00    +0.000 H 
ATOM    141  H39 UNL A   1       3.020   8.178  25.889  1.00  0.00    +0.000 H 
ATOM    152  H50 UNL A   1       5.338   7.674  22.409  1.00  0.00    +0.000 H 
ATOM    153  H51 UNL A   1       3.540   8.617  21.084  1.00  0.00    +0.000 H 
ATOM     95  C69 UNL A   1       4.457   7.959  22.865  1.00  0.00    +0.000 C 
ATOM     96  C70 UNL A   1       3.410   8.460  22.096  1.00  0.00    +0.000 C 
BRANCH   34   32
ATOM     33  O4  UNL A   1      -0.043   8.614  21.967  1.00  0.00    +0.000 O 
ATOM     32  C26 UNL A   1       1.026   9.212  21.890  1.00  0.00    +0.000 C 
BRANCH   32   31
ATOM    139  H37 UNL A   1       1.608  10.140  20.214  1.00  0.00    +0.000 H 
ATOM     31  N3  UNL A   1       1.142  10.303  21.066  1.00  0.00    +0.000 N 
BRANCH   31   30
ATOM    137  H35 UNL A   1       1.425  12.343  20.912  1.00  0.00    +0.000 H 
ATOM    138  H36 UNL A   1      -0.240  11.787  20.732  1.00  0.00    +0.000 H 
ATOM     30  C25 UNL A   1       0.678  11.667  21.270  1.00  0.00    +0.000 C 
BRANCH   30   29
ATOM     29  C24 UNL A   1       0.405  11.965  22.742  1.00  0.00    +0.000 C 
ATOM    135  H33 UNL A   1      -0.322  12.748  22.794  1.00  0.00    +0.000 H 
ATOM    136  H34 UNL A   1       0.070  11.047  23.178  1.00  0.00    +0.000 H 
BRANCH   29   28
ATOM     28  C23 UNL A   1       1.634  12.402  23.548  1.00  0.00    +0.000 C 
ATOM    133  H31 UNL A   1       1.363  13.266  24.119  1.00  0.00    +0.000 H 
ATOM    134  H32 UNL A   1       1.908  11.558  24.143  1.00  0.00    +0.000 H 
BRANCH   28   27
ATOM     27  C22 UNL A   1       2.878  12.754  22.720  1.00  0.00    +0.000 C 
ATOM    132  H30 UNL A   1       3.075  13.790  22.905  1.00  0.00    +0.000 H 
ATOM    131  H29 UNL A   1       2.664  12.537  21.694  1.00  0.00    +0.000 H 
BRANCH   27   26
ATOM    129  H27 UNL A   1       4.230  11.998  24.177  1.00  0.00    +0.000 H 
ATOM     26  C21 UNL A   1       4.154  12.001  23.110  1.00  0.00    +0.000 C 
ATOM    130  H28 UNL A   1       4.070  11.016  22.700  1.00  0.00    +0.000 H 
BRANCH   26   25
ATOM     25  C20 UNL A   1       5.435  12.613  22.537  1.00  0.00    +0.000 C 
ATOM    127  H25 UNL A   1       5.201  13.115  21.621  1.00  0.00    +0.000 H 
ATOM    128  H26 UNL A   1       5.829  13.297  23.261  1.00  0.00    +0.000 H 
BRANCH   25   24
ATOM    126  H24 UNL A   1       6.131  10.859  21.716  1.00  0.00    +0.000 H 
ATOM     24  N2  UNL A   1       6.442  11.606  22.275  1.00  0.00    +0.000 N 
BRANCH   24   22
ATOM     22  C19 UNL A   1       7.743  11.510  22.665  1.00  0.00    +0.000 C 
ATOM     23  O3  UNL A   1       8.080  12.219  23.621  1.00  0.00    +0.000 O 
BRANCH   22   20
ATOM    122  H20 UNL A   1       9.622  10.599  22.637  1.00  0.00    +0.000 H 
ATOM     20  C17 UNL A   1       8.783  10.613  21.974  1.00  0.00    +0.000 C 
BRANCH   20   19
ATOM     97  C71 UNL A   1       7.822   8.649  20.705  1.00  0.00    +0.000 C 
ATOM     98  C72 UNL A   1       7.486   7.286  20.572  1.00  0.00    +0.000 C 
ATOM     16  C13 UNL A   1       7.778   6.361  21.592  1.00  0.00    +0.000 C 
ATOM     17  C14 UNL A   1       8.284   6.889  22.792  1.00  0.00    +0.000 C 
ATOM     18  C15 UNL A   1       8.534   8.256  22.954  1.00  0.00    +0.000 C 
ATOM     19  C16 UNL A   1       8.373   9.150  21.895  1.00  0.00    +0.000 C 
ATOM    120  H18 UNL A   1       8.478   6.249  23.578  1.00  0.00    +0.000 H 
ATOM    121  H19 UNL A   1       8.842   8.609  23.873  1.00  0.00    +0.000 H 
ATOM    154  H52 UNL A   1       7.660   9.290  19.913  1.00  0.00    +0.000 H 
BRANCH   16   15
ATOM    102  C73 UNL A   1       8.767   4.053  21.459  1.00  0.00    +0.000 C 
ATOM     11  C8  UNL A   1       8.613   2.671  21.331  1.00  0.00    +0.000 C 
ATOM     12  C9  UNL A   1       7.353   2.090  21.229  1.00  0.00    +0.000 C 
ATOM     13  C10 UNL A   1       6.226   2.905  21.260  1.00  0.00    +0.000 C 
ATOM     14  C11 UNL A   1       6.370   4.292  21.363  1.00  0.00    +0.000 C 
ATOM     15  C12 UNL A   1       7.640   4.893  21.461  1.00  0.00    +0.000 C 
ATOM    117  H15 UNL A   1       7.255   1.068  21.131  1.00  0.00    +0.000 H 
ATOM    118  H16 UNL A   1       5.284   2.486  21.206  1.00  0.00    +0.000 H 
ATOM    119  H17 UNL A   1       5.528   4.888  21.369  1.00  0.00    +0.000 H 
ATOM    155  H53 UNL A   1       9.710   4.458  21.553  1.00  0.00    +0.000 H 
BRANCH   11   10
ATOM     10  O2  UNL A   1       9.715   1.819  21.137  1.00  0.00    +0.000 O 
BRANCH   10    8
ATOM      9  O1  UNL A   1      11.244   2.113  22.865  1.00  0.00    +0.000 O 
ATOM      8  C7  UNL A   1      10.946   2.156  21.679  1.00  0.00    +0.000 C 
BRANCH    8    7
ATOM    116  H14 UNL A   1      12.449   3.295  20.974  1.00  0.00    +0.000 H 
ATOM      7  N1  UNL A   1      11.851   2.552  20.731  1.00  0.00    +0.000 N 
BRANCH    7    6
ATOM    114  H12 UNL A   1      13.012   1.597  19.321  1.00  0.00    +0.000 H 
ATOM    115  H13 UNL A   1      11.287   1.218  19.279  1.00  0.00    +0.000 H 
ATOM      6  C6  UNL A   1      12.019   1.989  19.406  1.00  0.00    +0.000 C 
BRANCH    6    5
ATOM    113  H11 UNL A   1      12.022   2.537  17.382  1.00  0.00    +0.000 H 
ATOM      5  C5  UNL A   1      11.802   3.029  18.307  1.00  0.00    +0.000 C 
ATOM    112  H10 UNL A   1      12.442   3.862  18.506  1.00  0.00    +0.000 H 
BRANCH    5    4
ATOM      4  C4  UNL A   1      10.366   3.550  18.184  1.00  0.00    +0.000 C 
ATOM    110  H8  UNL A   1      10.064   3.912  19.144  1.00  0.00    +0.000 H 
ATOM    111  H9  UNL A   1      10.391   4.306  17.427  1.00  0.00    +0.000 H 
BRANCH    4    3
ATOM      3  C3  UNL A   1       9.328   2.524  17.718  1.00  0.00    +0.000 C 
ATOM    108  H6  UNL A   1       9.825   1.812  17.093  1.00  0.00    +0.000 H 
ATOM    109  H7  UNL A   1       8.912   2.100  18.608  1.00  0.00    +0.000 H 
BRANCH    3    2
ATOM      2  C2  UNL A   1       8.145   3.096  16.932  1.00  0.00    +0.000 C 
ATOM    107  H5  UNL A   1       8.065   2.534  16.026  1.00  0.00    +0.000 H 
ATOM    106  H4  UNL A   1       8.329   4.134  16.749  1.00  0.00    +0.000 H 
BRANCH    2    1
ATOM      1  C1  UNL A   1       6.817   2.964  17.663  1.00  0.00    +0.000 C 
ATOM    105  H3  UNL A   1       6.436   1.973  17.533  1.00  0.00    +0.000 H 
ATOM    103  H1  UNL A   1       6.119   3.669  17.263  1.00  0.00    +0.000 H 
ATOM    104  H2  UNL A   1       6.962   3.158  18.705  1.00  0.00    +0.000 H 
ENDBRANCH    2    1
ENDBRANCH    3    2
ENDBRANCH    4    3
ENDBRANCH    5    4
ENDBRANCH    6    5
ENDBRANCH    7    6
ENDBRANCH    8    7
ENDBRANCH   10    8
ENDBRANCH   11   10
ENDBRANCH   16   15
BRANCH   98   99
ATOM     99  N8  UNL A   1       6.779   6.890  19.375  1.00  0.00    +0.000 N 
ATOM    100  O5  UNL A   1       5.568   6.964  19.317  1.00  0.00    +0.000 O 
ATOM    101  O6  UNL A   1       7.433   6.285  18.328  1.00  0.00    +0.000 O 
ENDBRANCH   98   99
ENDBRANCH   20   19
BRANCH   20   21
ATOM    125  H23 UNL A   1       9.907  12.104  20.933  1.00  0.00    +0.000 H 
ATOM    123  H21 UNL A   1       8.594  11.422  20.003  1.00  0.00    +0.000 H 
ATOM    124  H22 UNL A   1      10.055  10.499  20.260  1.00  0.00    +0.000 H 
ATOM     21  C18 UNL A   1       9.379  11.204  20.697  1.00  0.00    +0.000 C 
ENDBRANCH   20   21
ENDBRANCH   22   20
ENDBRANCH   24   22
ENDBRANCH   25   24
ENDBRANCH   26   25
ENDBRANCH   27   26
ENDBRANCH   28   27
ENDBRANCH   29   28
ENDBRANCH   30   29
ENDBRANCH   31   30
ENDBRANCH   32   31
ENDBRANCH   34   32
ENDBRANCH   38   37
BRANCH   42   43
ATOM     43  C35 UNL A   1       9.526  10.872  27.738  1.00  0.00    +0.000 C 
ATOM     44  C36 UNL A   1      10.595  11.459  27.044  1.00  0.00    +0.000 C 
ATOM     45  F1  UNL A   1      11.330  10.728  26.194  1.00  0.00    +0.000 F 
ATOM     46  C37 UNL A   1      10.941  12.792  27.254  1.00  0.00    +0.000 C 
ATOM     47  F2  UNL A   1      11.999  13.316  26.618  1.00  0.00    +0.000 F 
ATOM     48  C38 UNL A   1      10.204  13.573  28.131  1.00  0.00    +0.000 C 
ATOM     49  F3  UNL A   1      10.535  14.856  28.327  1.00  0.00    +0.000 F 
ATOM     50  C39 UNL A   1       9.127  13.021  28.808  1.00  0.00    +0.000 C 
ATOM     51  F4  UNL A   1       8.405  13.779  29.646  1.00  0.00    +0.000 F 
ATOM     52  C40 UNL A   1       8.797  11.681  28.624  1.00  0.00    +0.000 C 
ATOM     53  F5  UNL A   1       7.761  11.173  29.308  1.00  0.00    +0.000 F 
ENDBRANCH   42   43
BRANCH   59   60
ATOM     65  C49 UNL A   1      14.000   3.257  31.134  1.00  0.00    +0.000 C 
ATOM     66  F8  UNL A   1      14.986   2.741  31.881  1.00  0.00    +0.000 F 
ATOM     67  C50 UNL A   1      12.898   3.839  31.743  1.00  0.00    +0.000 C 
ATOM     68  F9  UNL A   1      12.830   3.904  33.079  1.00  0.00    +0.000 F 
ATOM     69  C51 UNL A   1      11.864   4.355  30.968  1.00  0.00    +0.000 C 
ATOM     70  F10 UNL A   1      10.805   4.899  31.585  1.00  0.00    +0.000 F 
ATOM     60  C46 UNL A   1      11.925   4.318  29.567  1.00  0.00    +0.000 C 
ATOM     61  C47 UNL A   1      13.057   3.743  28.972  1.00  0.00    +0.000 C 
ATOM     62  F6  UNL A   1      13.154   3.670  27.635  1.00  0.00    +0.000 F 
ATOM     63  C48 UNL A   1      14.077   3.202  29.750  1.00  0.00    +0.000 C 
ATOM     64  F7  UNL A   1      15.127   2.615  29.161  1.00  0.00    +0.000 F 
ENDBRANCH   59   60
BRANCH   74   75
ATOM     75  C55 UNL A   1       6.821   1.465  25.779  1.00  0.00    +0.000 C 
ATOM     76  C56 UNL A   1       7.544   0.717  24.839  1.00  0.00    +0.000 C 
ATOM     77  F11 UNL A   1       8.575   1.277  24.190  1.00  0.00    +0.000 F 
ATOM     78  C57 UNL A   1       7.189  -0.596  24.538  1.00  0.00    +0.000 C 
ATOM     79  F12 UNL A   1       7.873  -1.275  23.607  1.00  0.00    +0.000 F 
ATOM     80  C58 UNL A   1       6.123  -1.195  25.190  1.00  0.00    +0.000 C 
ATOM     81  F13 UNL A   1       5.786  -2.461  24.906  1.00  0.00    +0.000 F 
ATOM     82  C59 UNL A   1       5.402  -0.481  26.135  1.00  0.00    +0.000 C 
ATOM     83  F14 UNL A   1       4.380  -1.062  26.778  1.00  0.00    +0.000 F 
ATOM     84  C60 UNL A   1       5.738   0.842  26.417  1.00  0.00    +0.000 C 
ATOM     85  F15 UNL A   1       5.020   1.513  27.329  1.00  0.00    +0.000 F 
ENDBRANCH   74   75
TORSDOF 28
ENDMDL
MODEL 8
REMARK VINA RESULT:      -7.2      4.110      7.755
ROOT
ATOM    142  H40 UNL A   1      20.120  31.289  -0.330  1.00  0.00    +0.000 H 
ATOM    143  H41 UNL A   1      17.571  31.802  -0.527  1.00  0.00    +0.000 H 
ATOM    144  H42 UNL A   1      18.179  27.827  -1.515  1.00  0.00    +0.000 H 
ATOM    145  H43 UNL A   1      15.891  22.264  -3.648  1.00  0.00    +0.000 H 
ATOM    146  H44 UNL A   1      18.367  21.753  -3.396  1.00  0.00    +0.000 H 
ATOM    147  H45 UNL A   1      17.774  25.726  -2.326  1.00  0.00    +0.000 H 
ATOM    148  H46 UNL A   1      12.827  26.538  -2.715  1.00  0.00    +0.000 H 
ATOM    149  H47 UNL A   1      13.306  28.970  -2.078  1.00  0.00    +0.000 H 
ATOM    150  H48 UNL A   1      23.047  26.820  -0.873  1.00  0.00    +0.000 H 
ATOM    151  H49 UNL A   1      22.674  24.531  -1.959  1.00  0.00    +0.000 H 
ATOM     38  C31 UNL A   1      19.939  23.967  -2.527  1.00  0.00    +0.000 C 
ATOM     39  C32 UNL A   1      20.524  25.252  -2.011  1.00  0.00    +0.000 C 
ATOM     40  N4  UNL A   1      19.922  26.377  -1.717  1.00  0.00    +0.000 N 
ATOM     41  C33 UNL A   1      20.914  27.224  -1.242  1.00  0.00    +0.000 C 
ATOM     42  C34 UNL A   1      20.809  28.521  -0.864  1.00  0.00    +0.000 C 
ATOM     54  C41 UNL A   1      19.584  29.277  -0.893  1.00  0.00    +0.000 C 
ATOM     55  C42 UNL A   1      19.386  30.614  -0.596  1.00  0.00    +0.000 C 
ATOM     56  C43 UNL A   1      18.020  30.892  -0.718  1.00  0.00    +0.000 C 
ATOM     57  C44 UNL A   1      17.373  29.742  -1.138  1.00  0.00    +0.000 C 
ATOM     58  N5  UNL A   1      18.344  28.758  -1.238  1.00  0.00    +0.000 N 
ATOM     59  C45 UNL A   1      15.975  29.552  -1.426  1.00  0.00    +0.000 C 
ATOM     71  C52 UNL A   1      15.419  28.391  -1.853  1.00  0.00    +0.000 C 
ATOM     72  N6  UNL A   1      16.031  27.170  -2.101  1.00  0.00    +0.000 N 
ATOM     73  C53 UNL A   1      15.074  26.358  -2.479  1.00  0.00    +0.000 C 
ATOM     74  C54 UNL A   1      15.164  24.916  -2.897  1.00  0.00    +0.000 C 
ATOM     86  C61 UNL A   1      16.368  24.315  -2.930  1.00  0.00    +0.000 C 
ATOM     87  C62 UNL A   1      16.611  22.930  -3.325  1.00  0.00    +0.000 C 
ATOM     88  C63 UNL A   1      17.920  22.664  -3.202  1.00  0.00    +0.000 C 
ATOM     89  C64 UNL A   1      18.615  23.870  -2.751  1.00  0.00    +0.000 C 
ATOM     90  N7  UNL A   1      17.614  24.800  -2.617  1.00  0.00    +0.000 N 
ATOM     91  C65 UNL A   1      13.738  26.968  -2.491  1.00  0.00    +0.000 C 
ATOM     92  C66 UNL A   1      14.010  28.217  -2.140  1.00  0.00    +0.000 C 
ATOM     93  C67 UNL A   1      22.148  26.468  -1.239  1.00  0.00    +0.000 C 
ATOM     94  C68 UNL A   1      21.974  25.266  -1.767  1.00  0.00    +0.000 C 
ENDROOT
BRANCH   38   37
ATOM     34  C27 UNL A   1      22.357  20.469  -3.073  1.00  0.00    +0.000 C 
ATOM     35  C28 UNL A   1      21.856  21.144  -4.190  1.00  0.00    +0.000 C 
ATOM     36  C29 UNL A   1      21.096  22.304  -4.018  1.00  0.00    +0.000 C 
ATOM     37  C30 UNL A   1      20.802  22.776  -2.729  1.00  0.00    +0.000 C 
ATOM    140  H38 UNL A   1      22.046  20.787  -5.139  1.00  0.00    +0.000 H 
ATOM    141  H39 UNL A   1      20.748  22.817  -4.844  1.00  0.00    +0.000 H 
ATOM    152  H50 UNL A   1      21.115  22.438  -0.665  1.00  0.00    +0.000 H 
ATOM    153  H51 UNL A   1      22.589  20.539  -0.975  1.00  0.00    +0.000 H 
ATOM     95  C69 UNL A   1      21.331  22.103  -1.618  1.00  0.00    +0.000 C 
ATOM     96  C70 UNL A   1      22.143  20.985  -1.792  1.00  0.00    +0.000 C 
BRANCH   34   32
ATOM     33  O4  UNL A   1      22.650  18.143  -3.036  1.00  0.00    +0.000 O 
ATOM     32  C26 UNL A   1      23.151  19.237  -3.280  1.00  0.00    +0.000 C 
BRANCH   32   31
ATOM    139  H37 UNL A   1      24.609  18.831  -4.591  1.00  0.00    +0.000 H 
ATOM     31  N3  UNL A   1      24.438  19.310  -3.749  1.00  0.00    +0.000 N 
BRANCH   31   30
ATOM    137  H35 UNL A   1      25.250  20.672  -2.425  1.00  0.00    +0.000 H 
ATOM    138  H36 UNL A   1      26.242  19.252  -2.764  1.00  0.00    +0.000 H 
ATOM     30  C25 UNL A   1      25.589  19.993  -3.178  1.00  0.00    +0.000 C 
BRANCH   30   29
ATOM     29  C24 UNL A   1      26.371  20.775  -4.232  1.00  0.00    +0.000 C 
ATOM    135  H33 UNL A   1      27.148  20.142  -4.608  1.00  0.00    +0.000 H 
ATOM    136  H34 UNL A   1      25.662  21.064  -4.979  1.00  0.00    +0.000 H 
BRANCH   29   28
ATOM     28  C23 UNL A   1      27.014  22.070  -3.725  1.00  0.00    +0.000 C 
ATOM    133  H31 UNL A   1      26.580  22.886  -4.264  1.00  0.00    +0.000 H 
ATOM    134  H32 UNL A   1      26.828  22.098  -2.673  1.00  0.00    +0.000 H 
BRANCH   28   27
ATOM     27  C22 UNL A   1      28.539  22.159  -3.884  1.00  0.00    +0.000 C 
ATOM    132  H30 UNL A   1      28.731  23.078  -4.397  1.00  0.00    +0.000 H 
ATOM    131  H29 UNL A   1      28.866  21.294  -4.421  1.00  0.00    +0.000 H 
BRANCH   27   26
ATOM    129  H27 UNL A   1      30.361  22.061  -2.791  1.00  0.00    +0.000 H 
ATOM     26  C21 UNL A   1      29.327  22.230  -2.572  1.00  0.00    +0.000 C 
ATOM    130  H28 UNL A   1      29.148  23.198  -2.154  1.00  0.00    +0.000 H 
BRANCH   26   25
ATOM     25  C20 UNL A   1      28.883  21.205  -1.525  1.00  0.00    +0.000 C 
ATOM    127  H25 UNL A   1      28.042  20.662  -1.905  1.00  0.00    +0.000 H 
ATOM    128  H26 UNL A   1      29.707  20.551  -1.329  1.00  0.00    +0.000 H 
BRANCH   25   24
ATOM    126  H24 UNL A   1      28.526  22.822  -0.301  1.00  0.00    +0.000 H 
ATOM     24  N2  UNL A   1      28.506  21.838  -0.278  1.00  0.00    +0.000 N 
BRANCH   24   22
ATOM     22  C19 UNL A   1      28.128  21.314   0.920  1.00  0.00    +0.000 C 
ATOM     23  O3  UNL A   1      28.119  22.095   1.879  1.00  0.00    +0.000 O 
BRANCH   22   20
ATOM    122  H20 UNL A   1      28.671  19.299   1.013  1.00  0.00    +0.000 H 
ATOM     20  C17 UNL A   1      27.754  19.838   1.133  1.00  0.00    +0.000 C 
BRANCH   20   19
ATOM     97  C71 UNL A   1      25.973  19.476   2.889  1.00  0.00    +0.000 C 
ATOM     98  C72 UNL A   1      25.544  19.118   4.184  1.00  0.00    +0.000 C 
ATOM     16  C13 UNL A   1      26.460  18.691   5.163  1.00  0.00    +0.000 C 
ATOM     17  C14 UNL A   1      27.822  18.778   4.828  1.00  0.00    +0.000 C 
ATOM     18  C15 UNL A   1      28.251  19.219   3.571  1.00  0.00    +0.000 C 
ATOM     19  C16 UNL A   1      27.336  19.510   2.559  1.00  0.00    +0.000 C 
ATOM    120  H18 UNL A   1      28.529  18.509   5.530  1.00  0.00    +0.000 H 
ATOM    121  H19 UNL A   1      29.260  19.332   3.391  1.00  0.00    +0.000 H 
ATOM    154  H52 UNL A   1      25.271  19.717   2.172  1.00  0.00    +0.000 H 
BRANCH   16   15
ATOM    102  C73 UNL A   1      26.278  18.834   7.667  1.00  0.00    +0.000 C 
ATOM     11  C8  UNL A   1      25.919  18.271   8.893  1.00  0.00    +0.000 C 
ATOM     12  C9  UNL A   1      25.342  17.007   8.966  1.00  0.00    +0.000 C 
ATOM     13  C10 UNL A   1      25.115  16.296   7.793  1.00  0.00    +0.000 C 
ATOM     14  C11 UNL A   1      25.493  16.841   6.562  1.00  0.00    +0.000 C 
ATOM     15  C12 UNL A   1      26.084  18.116   6.474  1.00  0.00    +0.000 C 
ATOM    117  H15 UNL A   1      25.086  16.602   9.880  1.00  0.00    +0.000 H 
ATOM    118  H16 UNL A   1      24.668  15.366   7.831  1.00  0.00    +0.000 H 
ATOM    119  H17 UNL A   1      25.335  16.297   5.700  1.00  0.00    +0.000 H 
ATOM    155  H53 UNL A   1      26.687  19.780   7.636  1.00  0.00    +0.000 H 
BRANCH   11   10
ATOM     10  O2  UNL A   1      26.268  18.876  10.114  1.00  0.00    +0.000 O 
BRANCH   10    8
ATOM      9  O1  UNL A   1      25.888  21.149   9.804  1.00  0.00    +0.000 O 
ATOM      8  C7  UNL A   1      25.740  20.115  10.441  1.00  0.00    +0.000 C 
BRANCH    8    7
ATOM    116  H14 UNL A   1      24.771  20.956  11.992  1.00  0.00    +0.000 H 
ATOM      7  N1  UNL A   1      24.994  20.086  11.588  1.00  0.00    +0.000 N 
BRANCH    7    6
ATOM    114  H12 UNL A   1      24.176  18.195  11.539  1.00  0.00    +0.000 H 
ATOM    115  H13 UNL A   1      25.295  18.512  12.868  1.00  0.00    +0.000 H 
ATOM      6  C6  UNL A   1      24.499  18.907  12.270  1.00  0.00    +0.000 C 
BRANCH    6    5
ATOM    113  H11 UNL A   1      22.565  19.652  12.582  1.00  0.00    +0.000 H 
ATOM      5  C5  UNL A   1      23.328  19.227  13.199  1.00  0.00    +0.000 C 
ATOM    112  H10 UNL A   1      23.679  19.892  13.959  1.00  0.00    +0.000 H 
BRANCH    5    4
ATOM      4  C4  UNL A   1      22.696  18.010  13.886  1.00  0.00    +0.000 C 
ATOM    110  H8  UNL A   1      23.106  17.938  14.871  1.00  0.00    +0.000 H 
ATOM    111  H9  UNL A   1      21.640  18.179  13.869  1.00  0.00    +0.000 H 
BRANCH    4    3
ATOM      3  C3  UNL A   1      22.918  16.666  13.183  1.00  0.00    +0.000 C 
ATOM    108  H6  UNL A   1      22.117  16.520  12.489  1.00  0.00    +0.000 H 
ATOM    109  H7  UNL A   1      23.881  16.730  12.723  1.00  0.00    +0.000 H 
BRANCH    3    2
ATOM      2  C2  UNL A   1      22.971  15.445  14.105  1.00  0.00    +0.000 C 
ATOM    107  H5  UNL A   1      23.989  15.114  14.134  1.00  0.00    +0.000 H 
ATOM    106  H4  UNL A   1      22.315  14.696  13.714  1.00  0.00    +0.000 H 
BRANCH    2    1
ATOM      1  C1  UNL A   1      22.556  15.752  15.536  1.00  0.00    +0.000 C 
ATOM    105  H3  UNL A   1      22.703  16.793  15.734  1.00  0.00    +0.000 H 
ATOM    103  H1  UNL A   1      23.151  15.173  16.211  1.00  0.00    +0.000 H 
ATOM    104  H2  UNL A   1      21.524  15.504  15.669  1.00  0.00    +0.000 H 
ENDBRANCH    2    1
ENDBRANCH    3    2
ENDBRANCH    4    3
ENDBRANCH    5    4
ENDBRANCH    6    5
ENDBRANCH    7    6
ENDBRANCH    8    7
ENDBRANCH   10    8
ENDBRANCH   11   10
ENDBRANCH   16   15
BRANCH   98   99
ATOM     99  N8  UNL A   1      24.136  19.263   4.481  1.00  0.00    +0.000 N 
ATOM    100  O5  UNL A   1      23.318  18.514   3.987  1.00  0.00    +0.000 O 
ATOM    101  O6  UNL A   1      23.668  20.331   5.209  1.00  0.00    +0.000 O 
ENDBRANCH   98   99
ENDBRANCH   20   19
BRANCH   20   21
ATOM    125  H23 UNL A   1      27.458  18.574  -0.566  1.00  0.00    +0.000 H 
ATOM    123  H21 UNL A   1      26.492  20.031  -0.583  1.00  0.00    +0.000 H 
ATOM    124  H22 UNL A   1      26.061  18.709   0.475  1.00  0.00    +0.000 H 
ATOM     21  C18 UNL A   1      26.876  19.243   0.032  1.00  0.00    +0.000 C 
ENDBRANCH   20   21
ENDBRANCH   22   20
ENDBRANCH   24   22
ENDBRANCH   25   24
ENDBRANCH   26   25
ENDBRANCH   27   26
ENDBRANCH   28   27
ENDBRANCH   29   28
ENDBRANCH   30   29
ENDBRANCH   31   30
ENDBRANCH   32   31
ENDBRANCH   34   32
ENDBRANCH   38   37
BRANCH   42   43
ATOM     43  C35 UNL A   1      22.057  29.206  -0.386  1.00  0.00    +0.000 C 
ATOM     44  C36 UNL A   1      22.986  29.754  -1.284  1.00  0.00    +0.000 C 
ATOM     45  F1  UNL A   1      22.794  29.641  -2.606  1.00  0.00    +0.000 F 
ATOM     46  C37 UNL A   1      24.140  30.385  -0.825  1.00  0.00    +0.000 C 
ATOM     47  F2  UNL A   1      25.039  30.854  -1.702  1.00  0.00    +0.000 F 
ATOM     48  C38 UNL A   1      24.370  30.513   0.536  1.00  0.00    +0.000 C 
ATOM     49  F3  UNL A   1      25.478  31.123   0.976  1.00  0.00    +0.000 F 
ATOM     50  C39 UNL A   1      23.452  30.001   1.442  1.00  0.00    +0.000 C 
ATOM     51  F4  UNL A   1      23.666  30.136   2.759  1.00  0.00    +0.000 F 
ATOM     52  C40 UNL A   1      22.312  29.344   0.987  1.00  0.00    +0.000 C 
ATOM     53  F5  UNL A   1      21.453  28.844   1.889  1.00  0.00    +0.000 F 
ENDBRANCH   42   43
BRANCH   59   60
ATOM     65  C49 UNL A   1      13.384  32.970  -1.003  1.00  0.00    +0.000 C 
ATOM     66  F8  UNL A   1      12.576  34.031  -0.875  1.00  0.00    +0.000 F 
ATOM     67  C50 UNL A   1      13.630  32.431  -2.257  1.00  0.00    +0.000 C 
ATOM     68  F9  UNL A   1      13.076  32.985  -3.343  1.00  0.00    +0.000 F 
ATOM     69  C51 UNL A   1      14.451  31.315  -2.388  1.00  0.00    +0.000 C 
ATOM     70  F10 UNL A   1      14.660  30.807  -3.611  1.00  0.00    +0.000 F 
ATOM     60  C46 UNL A   1      15.060  30.731  -1.266  1.00  0.00    +0.000 C 
ATOM     61  C47 UNL A   1      14.813  31.305  -0.010  1.00  0.00    +0.000 C 
ATOM     62  F6  UNL A   1      15.360  30.772   1.094  1.00  0.00    +0.000 F 
ATOM     63  C48 UNL A   1      13.968  32.404   0.120  1.00  0.00    +0.000 C 
ATOM     64  F7  UNL A   1      13.709  32.905   1.335  1.00  0.00    +0.000 F 
ENDBRANCH   59   60
BRANCH   74   75
ATOM     75  C55 UNL A   1      13.951  24.161  -3.302  1.00  0.00    +0.000 C 
ATOM     76  C56 UNL A   1      13.364  24.366  -4.559  1.00  0.00    +0.000 C 
ATOM     77  F11 UNL A   1      13.882  25.274  -5.398  1.00  0.00    +0.000 F 
ATOM     78  C57 UNL A   1      12.224  23.664  -4.943  1.00  0.00    +0.000 C 
ATOM     79  F12 UNL A   1      11.661  23.907  -6.134  1.00  0.00    +0.000 F 
ATOM     80  C58 UNL A   1      11.665  22.725  -4.090  1.00  0.00    +0.000 C 
ATOM     81  F13 UNL A   1      10.572  22.045  -4.463  1.00  0.00    +0.000 F 
ATOM     82  C59 UNL A   1      12.236  22.495  -2.848  1.00  0.00    +0.000 C 
ATOM     83  F14 UNL A   1      11.707  21.577  -2.027  1.00  0.00    +0.000 F 
ATOM     84  C60 UNL A   1      13.360  23.215  -2.451  1.00  0.00    +0.000 C 
ATOM     85  F15 UNL A   1      13.888  22.979  -1.241  1.00  0.00    +0.000 F 
ENDBRANCH   74   75
TORSDOF 28
ENDMDL
MODEL 9
REMARK VINA RESULT:      -7.2     36.292     41.876
ROOT
ATOM    142  H40 UNL A   1      46.159  24.920  25.125  1.00  0.00    +0.000 H 
ATOM    143  H41 UNL A   1      43.954  23.702  25.798  1.00  0.00    +0.000 H 
ATOM    144  H42 UNL A   1      43.784  27.585  27.228  1.00  0.00    +0.000 H 
ATOM    145  H43 UNL A   1      40.804  32.077  30.643  1.00  0.00    +0.000 H 
ATOM    146  H44 UNL A   1      42.927  33.278  29.933  1.00  0.00    +0.000 H 
ATOM    147  H45 UNL A   1      43.089  29.408  28.422  1.00  0.00    +0.000 H 
ATOM    148  H46 UNL A   1      38.766  27.219  29.763  1.00  0.00    +0.000 H 
ATOM    149  H47 UNL A   1      39.657  25.084  28.669  1.00  0.00    +0.000 H 
ATOM    150  H48 UNL A   1      47.921  29.962  25.690  1.00  0.00    +0.000 H 
ATOM    151  H49 UNL A   1      47.279  31.949  27.171  1.00  0.00    +0.000 H 
ATOM     38  C31 UNL A   1      44.727  31.676  28.409  1.00  0.00    +0.000 C 
ATOM     39  C32 UNL A   1      45.462  30.657  27.585  1.00  0.00    +0.000 C 
ATOM     40  N4  UNL A   1      45.104  29.439  27.261  1.00  0.00    +0.000 N 
ATOM     41  C33 UNL A   1      46.122  28.948  26.454  1.00  0.00    +0.000 C 
ATOM     42  C34 UNL A   1      46.250  27.712  25.914  1.00  0.00    +0.000 C 
ATOM     54  C41 UNL A   1      45.300  26.645  26.095  1.00  0.00    +0.000 C 
ATOM     55  C42 UNL A   1      45.373  25.338  25.647  1.00  0.00    +0.000 C 
ATOM     56  C43 UNL A   1      44.196  24.680  26.023  1.00  0.00    +0.000 C 
ATOM     57  C44 UNL A   1      43.412  25.563  26.747  1.00  0.00    +0.000 C 
ATOM     58  N5  UNL A   1      44.100  26.766  26.782  1.00  0.00    +0.000 N 
ATOM     59  C45 UNL A   1      42.131  25.330  27.363  1.00  0.00    +0.000 C 
ATOM     71  C52 UNL A   1      41.431  26.246  28.075  1.00  0.00    +0.000 C 
ATOM     72  N6  UNL A   1      41.762  27.562  28.367  1.00  0.00    +0.000 N 
ATOM     73  C53 UNL A   1      40.762  28.039  29.067  1.00  0.00    +0.000 C 
ATOM     74  C54 UNL A   1      40.593  29.405  29.672  1.00  0.00    +0.000 C 
ATOM     86  C61 UNL A   1      41.578  30.313  29.531  1.00  0.00    +0.000 C 
ATOM     87  C62 UNL A   1      41.560  31.669  30.071  1.00  0.00    +0.000 C 
ATOM     88  C63 UNL A   1      42.687  32.300  29.705  1.00  0.00    +0.000 C 
ATOM     89  C64 UNL A   1      43.522  31.380  28.931  1.00  0.00    +0.000 C 
ATOM     90  N7  UNL A   1      42.783  30.224  28.880  1.00  0.00    +0.000 N 
ATOM     91  C65 UNL A   1      39.668  27.081  29.280  1.00  0.00    +0.000 C 
ATOM     92  C66 UNL A   1      40.143  25.995  28.690  1.00  0.00    +0.000 C 
ATOM     93  C67 UNL A   1      47.087  30.015  26.296  1.00  0.00    +0.000 C 
ATOM     94  C68 UNL A   1      46.759  31.069  27.028  1.00  0.00    +0.000 C 
ENDROOT
BRANCH   38   37
ATOM     34  C27 UNL A   1      46.256  35.641  28.977  1.00  0.00    +0.000 C 
ATOM     35  C28 UNL A   1      46.623  34.625  29.865  1.00  0.00    +0.000 C 
ATOM     36  C29 UNL A   1      46.154  33.324  29.664  1.00  0.00    +0.000 C 
ATOM     37  C30 UNL A   1      45.289  33.037  28.596  1.00  0.00    +0.000 C 
ATOM    140  H38 UNL A   1      47.237  34.835  30.666  1.00  0.00    +0.000 H 
ATOM    141  H39 UNL A   1      46.446  32.569  30.304  1.00  0.00    +0.000 H 
ATOM    152  H50 UNL A   1      44.307  33.862  26.915  1.00  0.00    +0.000 H 
ATOM    153  H51 UNL A   1      45.274  36.072  27.158  1.00  0.00    +0.000 H 
ATOM     95  C69 UNL A   1      44.948  34.061  27.699  1.00  0.00    +0.000 C 
ATOM     96  C70 UNL A   1      45.468  35.342  27.861  1.00  0.00    +0.000 C 
BRANCH   34   32
ATOM     33  O4  UNL A   1      46.084  37.799  29.877  1.00  0.00    +0.000 O 
ATOM     32  C26 UNL A   1      46.757  37.013  29.216  1.00  0.00    +0.000 C 
BRANCH   32   31
ATOM    139  H37 UNL A   1      48.621  37.727  29.375  1.00  0.00    +0.000 H 
ATOM     31  N3  UNL A   1      47.969  37.409  28.710  1.00  0.00    +0.000 N 
BRANCH   31   30
ATOM    137  H35 UNL A   1      49.449  37.100  27.302  1.00  0.00    +0.000 H 
ATOM    138  H36 UNL A   1      47.800  36.775  26.762  1.00  0.00    +0.000 H 
ATOM     30  C25 UNL A   1      48.431  37.427  27.330  1.00  0.00    +0.000 C 
BRANCH   30   29
ATOM     29  C24 UNL A   1      48.344  38.822  26.716  1.00  0.00    +0.000 C 
ATOM    135  H33 UNL A   1      48.757  39.520  27.414  1.00  0.00    +0.000 H 
ATOM    136  H34 UNL A   1      48.883  38.779  25.792  1.00  0.00    +0.000 H 
BRANCH   29   28
ATOM     28  C23 UNL A   1      46.925  39.282  26.364  1.00  0.00    +0.000 C 
ATOM    133  H31 UNL A   1      46.292  38.420  26.353  1.00  0.00    +0.000 H 
ATOM    134  H32 UNL A   1      46.659  40.005  27.106  1.00  0.00    +0.000 H 
BRANCH   28   27
ATOM     27  C22 UNL A   1      46.775  39.994  25.012  1.00  0.00    +0.000 C 
ATOM    132  H30 UNL A   1      45.731  40.200  24.898  1.00  0.00    +0.000 H 
ATOM    131  H29 UNL A   1      47.167  39.348  24.254  1.00  0.00    +0.000 H 
BRANCH   27   26
ATOM    129  H27 UNL A   1      46.989  42.043  25.541  1.00  0.00    +0.000 H 
ATOM     26  C21 UNL A   1      47.491  41.344  24.904  1.00  0.00    +0.000 C 
ATOM    130  H28 UNL A   1      48.508  41.181  25.193  1.00  0.00    +0.000 H 
BRANCH   26   25
ATOM     25  C20 UNL A   1      47.518  41.920  23.485  1.00  0.00    +0.000 C 
ATOM    127  H25 UNL A   1      47.954  42.897  23.517  1.00  0.00    +0.000 H 
ATOM    128  H26 UNL A   1      48.095  41.261  22.870  1.00  0.00    +0.000 H 
BRANCH   25   24
ATOM    126  H24 UNL A   1      45.932  41.252  22.356  1.00  0.00    +0.000 H 
ATOM     24  N2  UNL A   1      46.190  42.018  22.918  1.00  0.00    +0.000 N 
BRANCH   24   22
ATOM     22  C19 UNL A   1      45.234  42.981  23.024  1.00  0.00    +0.000 C 
ATOM     23  O3  UNL A   1      45.440  44.026  22.395  1.00  0.00    +0.000 O 
BRANCH   22   20
ATOM    122  H20 UNL A   1      43.599  41.861  23.683  1.00  0.00    +0.000 H 
ATOM     20  C17 UNL A   1      43.968  42.844  23.886  1.00  0.00    +0.000 C 
BRANCH   20   19
ATOM     97  C71 UNL A   1      43.805  41.723  26.146  1.00  0.00    +0.000 C 
ATOM     98  C72 UNL A   1      44.095  41.630  27.522  1.00  0.00    +0.000 C 
ATOM     16  C13 UNL A   1      44.916  42.579  28.160  1.00  0.00    +0.000 C 
ATOM     17  C14 UNL A   1      45.306  43.689  27.391  1.00  0.00    +0.000 C 
ATOM     18  C15 UNL A   1      44.943  43.824  26.046  1.00  0.00    +0.000 C 
ATOM     19  C16 UNL A   1      44.246  42.815  25.382  1.00  0.00    +0.000 C 
ATOM    120  H18 UNL A   1      45.878  44.426  27.830  1.00  0.00    +0.000 H 
ATOM    121  H19 UNL A   1      45.194  44.686  25.538  1.00  0.00    +0.000 H 
ATOM    154  H52 UNL A   1      43.260  40.974  25.692  1.00  0.00    +0.000 H 
BRANCH   16   15
ATOM    102  C73 UNL A   1      45.029  43.354  30.549  1.00  0.00    +0.000 C 
ATOM     11  C8  UNL A   1      45.527  43.221  31.847  1.00  0.00    +0.000 C 
ATOM     12  C9  UNL A   1      46.401  42.193  32.184  1.00  0.00    +0.000 C 
ATOM     13  C10 UNL A   1      46.781  41.278  31.208  1.00  0.00    +0.000 C 
ATOM     14  C11 UNL A   1      46.307  41.417  29.899  1.00  0.00    +0.000 C 
ATOM     15  C12 UNL A   1      45.427  42.456  29.543  1.00  0.00    +0.000 C 
ATOM    117  H15 UNL A   1      46.764  42.109  33.146  1.00  0.00    +0.000 H 
ATOM    118  H16 UNL A   1      47.413  40.498  31.449  1.00  0.00    +0.000 H 
ATOM    119  H17 UNL A   1      46.609  40.741  29.180  1.00  0.00    +0.000 H 
ATOM    155  H53 UNL A   1      44.368  44.113  30.328  1.00  0.00    +0.000 H 
BRANCH   11   10
ATOM     10  O2  UNL A   1      45.302  44.203  32.829  1.00  0.00    +0.000 O 
BRANCH   10    8
ATOM      9  O1  UNL A   1      43.300  45.378  32.979  1.00  0.00    +0.000 O 
ATOM      8  C7  UNL A   1      44.014  44.433  33.287  1.00  0.00    +0.000 C 
BRANCH    8    7
ATOM    116  H14 UNL A   1      44.151  43.269  34.923  1.00  0.00    +0.000 H 
ATOM      7  N1  UNL A   1      43.577  43.462  34.147  1.00  0.00    +0.000 N 
BRANCH    7    6
ATOM    114  H12 UNL A   1      42.133  42.253  34.985  1.00  0.00    +0.000 H 
ATOM    115  H13 UNL A   1      41.575  43.350  33.718  1.00  0.00    +0.000 H 
ATOM      6  C6  UNL A   1      42.356  42.689  34.033  1.00  0.00    +0.000 C 
BRANCH    6    5
ATOM    113  H11 UNL A   1      42.837  42.036  32.100  1.00  0.00    +0.000 H 
ATOM      5  C5  UNL A   1      42.475  41.574  32.995  1.00  0.00    +0.000 C 
ATOM    112  H10 UNL A   1      41.513  41.122  32.880  1.00  0.00    +0.000 H 
BRANCH    5    4
ATOM      4  C4  UNL A   1      43.480  40.470  33.344  1.00  0.00    +0.000 C 
ATOM    110  H8  UNL A   1      44.441  40.925  33.464  1.00  0.00    +0.000 H 
ATOM    111  H9  UNL A   1      43.109  40.006  34.234  1.00  0.00    +0.000 H 
BRANCH    4    3
ATOM      3  C3  UNL A   1      43.615  39.348  32.309  1.00  0.00    +0.000 C 
ATOM    108  H6  UNL A   1      42.771  39.399  31.655  1.00  0.00    +0.000 H 
ATOM    109  H7  UNL A   1      44.552  39.510  31.819  1.00  0.00    +0.000 H 
BRANCH    3    2
ATOM      2  C2  UNL A   1      43.681  37.930  32.883  1.00  0.00    +0.000 C 
ATOM    107  H5  UNL A   1      44.716  37.677  32.985  1.00  0.00    +0.000 H 
ATOM    106  H4  UNL A   1      43.168  37.269  32.217  1.00  0.00    +0.000 H 
BRANCH    2    1
ATOM      1  C1  UNL A   1      43.051  37.809  34.263  1.00  0.00    +0.000 C 
ATOM    105  H3  UNL A   1      43.147  38.740  34.781  1.00  0.00    +0.000 H 
ATOM    103  H1  UNL A   1      43.549  37.041  34.816  1.00  0.00    +0.000 H 
ATOM    104  H2  UNL A   1      42.015  37.561  34.162  1.00  0.00    +0.000 H 
ENDBRANCH    2    1
ENDBRANCH    3    2
ENDBRANCH    4    3
ENDBRANCH    5    4
ENDBRANCH    6    5
ENDBRANCH    7    6
ENDBRANCH    8    7
ENDBRANCH   10    8
ENDBRANCH   11   10
ENDBRANCH   16   15
BRANCH   98   99
ATOM     99  N8  UNL A   1      43.469  40.557  28.263  1.00  0.00    +0.000 N 
ATOM    100  O5  UNL A   1      43.651  39.398  27.947  1.00  0.00    +0.000 O 
ATOM    101  O6  UNL A   1      42.543  40.814  29.245  1.00  0.00    +0.000 O 
ENDBRANCH   98   99
ENDBRANCH   20   19
BRANCH   20   21
ATOM    125  H23 UNL A   1      43.146  44.738  23.330  1.00  0.00    +0.000 H 
ATOM    123  H21 UNL A   1      42.031  43.699  24.186  1.00  0.00    +0.000 H 
ATOM    124  H22 UNL A   1      42.418  43.376  22.513  1.00  0.00    +0.000 H 
ATOM     21  C18 UNL A   1      42.803  43.731  23.446  1.00  0.00    +0.000 C 
ENDBRANCH   20   21
ENDBRANCH   22   20
ENDBRANCH   24   22
ENDBRANCH   25   24
ENDBRANCH   26   25
ENDBRANCH   27   26
ENDBRANCH   28   27
ENDBRANCH   29   28
ENDBRANCH   30   29
ENDBRANCH   31   30
ENDBRANCH   32   31
ENDBRANCH   34   32
ENDBRANCH   38   37
BRANCH   42   43
ATOM     43  C35 UNL A   1      47.465  27.447  25.072  1.00  0.00    +0.000 C 
ATOM     44  C36 UNL A   1      48.625  26.871  25.614  1.00  0.00    +0.000 C 
ATOM     45  F1  UNL A   1      48.684  26.576  26.921  1.00  0.00    +0.000 F 
ATOM     46  C37 UNL A   1      49.745  26.633  24.822  1.00  0.00    +0.000 C 
ATOM     47  F2  UNL A   1      50.859  26.130  25.373  1.00  0.00    +0.000 F 
ATOM     48  C38 UNL A   1      49.717  26.932  23.468  1.00  0.00    +0.000 C 
ATOM     49  F3  UNL A   1      50.794  26.698  22.706  1.00  0.00    +0.000 F 
ATOM     50  C39 UNL A   1      48.573  27.478  22.906  1.00  0.00    +0.000 C 
ATOM     51  F4  UNL A   1      48.539  27.755  21.595  1.00  0.00    +0.000 F 
ATOM     52  C40 UNL A   1      47.461  27.745  23.701  1.00  0.00    +0.000 C 
ATOM     53  F5  UNL A   1      46.376  28.291  23.130  1.00  0.00    +0.000 F 
ENDBRANCH   42   43
BRANCH   59   60
ATOM     65  C49 UNL A   1      40.452  21.381  26.955  1.00  0.00    +0.000 C 
ATOM     66  F8  UNL A   1      39.932  20.152  26.833  1.00  0.00    +0.000 F 
ATOM     67  C50 UNL A   1      41.597  21.578  27.712  1.00  0.00    +0.000 C 
ATOM     68  F9  UNL A   1      42.196  20.536  28.302  1.00  0.00    +0.000 F 
ATOM     69  C51 UNL A   1      42.126  22.858  27.858  1.00  0.00    +0.000 C 
ATOM     70  F10 UNL A   1      43.226  23.019  28.606  1.00  0.00    +0.000 F 
ATOM     60  C46 UNL A   1      41.528  23.960  27.229  1.00  0.00    +0.000 C 
ATOM     61  C47 UNL A   1      40.382  23.735  26.453  1.00  0.00    +0.000 C 
ATOM     62  F6  UNL A   1      39.766  24.761  25.846  1.00  0.00    +0.000 F 
ATOM     63  C48 UNL A   1      39.840  22.459  26.332  1.00  0.00    +0.000 C 
ATOM     64  F7  UNL A   1      38.717  22.274  25.625  1.00  0.00    +0.000 F 
ENDBRANCH   59   60
BRANCH   74   75
ATOM     75  C55 UNL A   1      39.374  29.753  30.446  1.00  0.00    +0.000 C 
ATOM     76  C56 UNL A   1      38.251  30.299  29.809  1.00  0.00    +0.000 C 
ATOM     77  F11 UNL A   1      38.282  30.540  28.490  1.00  0.00    +0.000 F 
ATOM     78  C57 UNL A   1      37.106  30.631  30.529  1.00  0.00    +0.000 C 
ATOM     79  F12 UNL A   1      36.061  31.187  29.901  1.00  0.00    +0.000 F 
ATOM     80  C58 UNL A   1      37.051  30.399  31.895  1.00  0.00    +0.000 C 
ATOM     81  F13 UNL A   1      35.947  30.711  32.586  1.00  0.00    +0.000 F 
ATOM     82  C59 UNL A   1      38.144  29.846  32.544  1.00  0.00    +0.000 C 
ATOM     83  F14 UNL A   1      38.090  29.606  33.862  1.00  0.00    +0.000 F 
ATOM     84  C60 UNL A   1      39.301  29.539  31.830  1.00  0.00    +0.000 C 
ATOM     85  F15 UNL A   1      40.346  29.012  32.484  1.00  0.00    +0.000 F 
ENDBRANCH   74   75
TORSDOF 28
ENDMDL
MODEL 10
REMARK VINA RESULT:      -7.1     23.038     29.609
ROOT
ATOM    142  H40 UNL A   1      18.528  53.442  -1.048  1.00  0.00    +0.000 H 
ATOM    143  H41 UNL A   1      18.106  50.934  -1.623  1.00  0.00    +0.000 H 
ATOM    144  H42 UNL A   1      15.785  51.924   1.661  1.00  0.00    +0.000 H 
ATOM    145  H43 UNL A   1      11.801  50.168   6.327  1.00  0.00    +0.000 H 
ATOM    146  H44 UNL A   1      12.169  52.628   6.846  1.00  0.00    +0.000 H 
ATOM    147  H45 UNL A   1      14.450  51.680   3.502  1.00  0.00    +0.000 H 
ATOM    148  H46 UNL A   1      13.495  46.846   2.503  1.00  0.00    +0.000 H 
ATOM    149  H47 UNL A   1      15.204  47.033   0.608  1.00  0.00    +0.000 H 
ATOM    150  H48 UNL A   1      16.429  56.811   2.569  1.00  0.00    +0.000 H 
ATOM    151  H49 UNL A   1      15.104  56.539   4.743  1.00  0.00    +0.000 H 
ATOM     38  C31 UNL A   1      13.983  53.941   5.082  1.00  0.00    +0.000 C 
ATOM     39  C32 UNL A   1      14.911  54.406   3.996  1.00  0.00    +0.000 C 
ATOM     40  N4  UNL A   1      15.405  53.736   2.984  1.00  0.00    +0.000 N 
ATOM     41  C33 UNL A   1      16.165  54.646   2.262  1.00  0.00    +0.000 C 
ATOM     42  C34 UNL A   1      16.926  54.429   1.163  1.00  0.00    +0.000 C 
ATOM     54  C41 UNL A   1      17.081  53.146   0.525  1.00  0.00    +0.000 C 
ATOM     55  C42 UNL A   1      17.883  52.808  -0.550  1.00  0.00    +0.000 C 
ATOM     56  C43 UNL A   1      17.669  51.457  -0.848  1.00  0.00    +0.000 C 
ATOM     57  C44 UNL A   1      16.771  50.942   0.072  1.00  0.00    +0.000 C 
ATOM     58  N5  UNL A   1      16.416  51.990   0.907  1.00  0.00    +0.000 N 
ATOM     59  C45 UNL A   1      16.272  49.596   0.184  1.00  0.00    +0.000 C 
ATOM     71  C52 UNL A   1      15.402  49.163   1.130  1.00  0.00    +0.000 C 
ATOM     72  N6  UNL A   1      14.814  49.877   2.165  1.00  0.00    +0.000 N 
ATOM     73  C53 UNL A   1      14.042  49.026   2.796  1.00  0.00    +0.000 C 
ATOM     74  C54 UNL A   1      13.185  49.244   4.013  1.00  0.00    +0.000 C 
ATOM     86  C61 UNL A   1      13.174  50.455   4.600  1.00  0.00    +0.000 C 
ATOM     87  C62 UNL A   1      12.404  50.811   5.789  1.00  0.00    +0.000 C 
ATOM     88  C63 UNL A   1      12.606  52.108   6.069  1.00  0.00    +0.000 C 
ATOM     89  C64 UNL A   1      13.548  52.667   5.098  1.00  0.00    +0.000 C 
ATOM     90  N7  UNL A   1      13.832  51.613   4.266  1.00  0.00    +0.000 N 
ATOM     91  C65 UNL A   1      14.037  47.676   2.216  1.00  0.00    +0.000 C 
ATOM     92  C66 UNL A   1      14.911  47.804   1.229  1.00  0.00    +0.000 C 
ATOM     93  C67 UNL A   1      16.027  55.928   2.921  1.00  0.00    +0.000 C 
ATOM     94  C68 UNL A   1      15.316  55.819   4.034  1.00  0.00    +0.000 C 
ENDROOT
BRANCH   38   37
ATOM     34  C27 UNL A   1      12.459  56.637   8.047  1.00  0.00    +0.000 C 
ATOM     35  C28 UNL A   1      13.602  55.879   8.323  1.00  0.00    +0.000 C 
ATOM     36  C29 UNL A   1      14.122  55.025   7.347  1.00  0.00    +0.000 C 
ATOM     37  C30 UNL A   1      13.484  54.895   6.104  1.00  0.00    +0.000 C 
ATOM    140  H38 UNL A   1      14.060  55.951   9.244  1.00  0.00    +0.000 H 
ATOM    141  H39 UNL A   1      14.981  54.486   7.542  1.00  0.00    +0.000 H 
ATOM    152  H50 UNL A   1      11.871  55.585   4.922  1.00  0.00    +0.000 H 
ATOM    153  H51 UNL A   1      11.087  57.205   6.546  1.00  0.00    +0.000 H 
ATOM     95  C69 UNL A   1      12.352  55.678   5.831  1.00  0.00    +0.000 C 
ATOM     96  C70 UNL A   1      11.873  56.579   6.779  1.00  0.00    +0.000 C 
BRANCH   34   32
ATOM     33  O4  UNL A   1      12.102  58.739   9.021  1.00  0.00    +0.000 O 
ATOM     32  C26 UNL A   1      11.922  57.528   9.100  1.00  0.00    +0.000 C 
BRANCH   32   31
ATOM    139  H37 UNL A   1      11.646  56.245  10.612  1.00  0.00    +0.000 H 
ATOM     31  N3  UNL A   1      11.221  57.008  10.159  1.00  0.00    +0.000 N 
BRANCH   31   30
ATOM    137  H35 UNL A   1      10.100  57.856  11.673  1.00  0.00    +0.000 H 
ATOM    138  H36 UNL A   1       9.504  58.131  10.034  1.00  0.00    +0.000 H 
ATOM     30  C25 UNL A   1       9.939  57.422  10.709  1.00  0.00    +0.000 C 
BRANCH   30   29
ATOM     29  C24 UNL A   1       8.971  56.249  10.850  1.00  0.00    +0.000 C 
ATOM    135  H33 UNL A   1       8.451  56.134   9.923  1.00  0.00    +0.000 H 
ATOM    136  H34 UNL A   1       9.566  55.398  11.110  1.00  0.00    +0.000 H 
BRANCH   29   28
ATOM     28  C23 UNL A   1       7.932  56.405  11.965  1.00  0.00    +0.000 C 
ATOM    133  H31 UNL A   1       6.963  56.436  11.511  1.00  0.00    +0.000 H 
ATOM    134  H32 UNL A   1       8.077  55.571  12.619  1.00  0.00    +0.000 H 
BRANCH   28   27
ATOM     27  C22 UNL A   1       8.082  57.657  12.841  1.00  0.00    +0.000 C 
ATOM    132  H30 UNL A   1       7.381  58.371  12.460  1.00  0.00    +0.000 H 
ATOM    131  H29 UNL A   1       9.099  57.982  12.780  1.00  0.00    +0.000 H 
BRANCH   27   26
ATOM    129  H27 UNL A   1       8.432  58.020  14.907  1.00  0.00    +0.000 H 
ATOM     26  C21 UNL A   1       7.732  57.463  14.320  1.00  0.00    +0.000 C 
ATOM    130  H28 UNL A   1       6.726  57.802  14.448  1.00  0.00    +0.000 H 
BRANCH   26   25
ATOM     25  C20 UNL A   1       7.772  56.003  14.781  1.00  0.00    +0.000 C 
ATOM    127  H25 UNL A   1       6.960  55.831  15.456  1.00  0.00    +0.000 H 
ATOM    128  H26 UNL A   1       7.692  55.379  13.915  1.00  0.00    +0.000 H 
BRANCH   25   24
ATOM    126  H24 UNL A   1       9.171  56.196  16.279  1.00  0.00    +0.000 H 
ATOM     24  N2  UNL A   1       9.015  55.684  15.452  1.00  0.00    +0.000 N 
BRANCH   24   22
ATOM     22  C19 UNL A   1      10.005  54.802  15.144  1.00  0.00    +0.000 C 
ATOM     23  O3  UNL A   1       9.788  53.618  15.427  1.00  0.00    +0.000 O 
BRANCH   22   20
ATOM    122  H20 UNL A   1      12.054  55.171  15.312  1.00  0.00    +0.000 H 
ATOM     20  C17 UNL A   1      11.347  55.205  14.511  1.00  0.00    +0.000 C 
BRANCH   20   19
ATOM     97  C71 UNL A   1      13.050  53.464  13.835  1.00  0.00    +0.000 C 
ATOM     98  C72 UNL A   1      13.549  52.468  12.971  1.00  0.00    +0.000 C 
ATOM     16  C13 UNL A   1      12.848  52.094  11.809  1.00  0.00    +0.000 C 
ATOM     17  C14 UNL A   1      11.714  52.859  11.487  1.00  0.00    +0.000 C 
ATOM     18  C15 UNL A   1      11.271  53.907  12.300  1.00  0.00    +0.000 C 
ATOM     19  C16 UNL A   1      11.888  54.185  13.520  1.00  0.00    +0.000 C 
ATOM    120  H18 UNL A   1      11.193  52.641  10.624  1.00  0.00    +0.000 H 
ATOM    121  H19 UNL A   1      10.474  54.485  11.992  1.00  0.00    +0.000 H 
ATOM    154  H52 UNL A   1      13.549  53.667  14.715  1.00  0.00    +0.000 H 
BRANCH   16   15
ATOM    102  C73 UNL A   1      12.966  49.618  11.388  1.00  0.00    +0.000 C 
ATOM     11  C8  UNL A   1      13.303  48.539  10.567  1.00  0.00    +0.000 C 
ATOM     12  C9  UNL A   1      13.842  48.737   9.300  1.00  0.00    +0.000 C 
ATOM     13  C10 UNL A   1      14.043  50.035   8.844  1.00  0.00    +0.000 C 
ATOM     14  C11 UNL A   1      13.733  51.121   9.668  1.00  0.00    +0.000 C 
ATOM     15  C12 UNL A   1      13.193  50.936  10.955  1.00  0.00    +0.000 C 
ATOM    117  H15 UNL A   1      14.089  47.931   8.706  1.00  0.00    +0.000 H 
ATOM    118  H16 UNL A   1      14.423  50.197   7.897  1.00  0.00    +0.000 H 
ATOM    119  H17 UNL A   1      13.902  52.079   9.325  1.00  0.00    +0.000 H 
ATOM    155  H53 UNL A   1      12.551  49.446  12.316  1.00  0.00    +0.000 H 
BRANCH   11   10
ATOM     10  O2  UNL A   1      13.267  47.214  11.036  1.00  0.00    +0.000 O 
BRANCH   10    8
ATOM      9  O1  UNL A   1      12.412  45.117  10.506  1.00  0.00    +0.000 O 
ATOM      8  C7  UNL A   1      12.315  46.336  10.541  1.00  0.00    +0.000 C 
BRANCH    8    7
ATOM    116  H14 UNL A   1      11.158  47.950  10.209  1.00  0.00    +0.000 H 
ATOM      7  N1  UNL A   1      11.196  46.975  10.078  1.00  0.00    +0.000 N 
BRANCH    7    6
ATOM    114  H12 UNL A   1      10.370  46.016   8.451  1.00  0.00    +0.000 H 
ATOM    115  H13 UNL A   1       9.720  45.552  10.027  1.00  0.00    +0.000 H 
ATOM      6  C6  UNL A   1      10.061  46.362   9.416  1.00  0.00    +0.000 C 
BRANCH    6    5
ATOM    113  H11 UNL A   1       8.130  47.014   9.909  1.00  0.00    +0.000 H 
ATOM      5  C5  UNL A   1       8.900  47.341   9.241  1.00  0.00    +0.000 C 
ATOM    112  H10 UNL A   1       8.604  47.326   8.214  1.00  0.00    +0.000 H 
BRANCH    5    4
ATOM      4  C4  UNL A   1       9.213  48.792   9.625  1.00  0.00    +0.000 C 
ATOM    110  H8  UNL A   1       8.286  49.293   9.804  1.00  0.00    +0.000 H 
ATOM    111  H9  UNL A   1       9.847  48.737  10.485  1.00  0.00    +0.000 H 
BRANCH    4    3
ATOM      3  C3  UNL A   1       9.992  49.598   8.580  1.00  0.00    +0.000 C 
ATOM    108  H6  UNL A   1       9.826  50.636   8.773  1.00  0.00    +0.000 H 
ATOM    109  H7  UNL A   1      11.014  49.299   8.680  1.00  0.00    +0.000 H 
BRANCH    3    2
ATOM      2  C2  UNL A   1       9.614  49.322   7.122  1.00  0.00    +0.000 C 
ATOM    107  H5  UNL A   1       9.422  48.273   7.037  1.00  0.00    +0.000 H 
ATOM    106  H4  UNL A   1      10.422  49.637   6.496  1.00  0.00    +0.000 H 
BRANCH    2    1
ATOM      1  C1  UNL A   1       8.351  50.047   6.682  1.00  0.00    +0.000 C 
ATOM    105  H3  UNL A   1       8.596  51.048   6.395  1.00  0.00    +0.000 H 
ATOM    103  H1  UNL A   1       7.652  50.070   7.491  1.00  0.00    +0.000 H 
ATOM    104  H2  UNL A   1       7.916  49.534   5.850  1.00  0.00    +0.000 H 
ENDBRANCH    2    1
ENDBRANCH    3    2
ENDBRANCH    4    3
ENDBRANCH    5    4
ENDBRANCH    6    5
ENDBRANCH    7    6
ENDBRANCH    8    7
ENDBRANCH   10    8
ENDBRANCH   11   10
ENDBRANCH   16   15
BRANCH   98   99
ATOM     99  N8  UNL A   1      14.834  51.889  13.295  1.00  0.00    +0.000 N 
ATOM    100  O5  UNL A   1      14.936  51.062  14.179  1.00  0.00    +0.000 O 
ATOM    101  O6  UNL A   1      15.992  52.357  12.721  1.00  0.00    +0.000 O 
ENDBRANCH   98   99
ENDBRANCH   20   19
BRANCH   20   21
ATOM    125  H23 UNL A   1      12.353  57.087  14.382  1.00  0.00    +0.000 H 
ATOM    123  H21 UNL A   1      10.614  57.215  14.502  1.00  0.00    +0.000 H 
ATOM    124  H22 UNL A   1      11.352  56.717  12.998  1.00  0.00    +0.000 H 
ATOM     21  C18 UNL A   1      11.423  56.666  14.065  1.00  0.00    +0.000 C 
ENDBRANCH   20   21
ENDBRANCH   22   20
ENDBRANCH   24   22
ENDBRANCH   25   24
ENDBRANCH   26   25
ENDBRANCH   27   26
ENDBRANCH   28   27
ENDBRANCH   29   28
ENDBRANCH   30   29
ENDBRANCH   31   30
ENDBRANCH   32   31
ENDBRANCH   34   32
ENDBRANCH   38   37
BRANCH   42   43
ATOM     43  C35 UNL A   1      17.652  55.606   0.578  1.00  0.00    +0.000 C 
ATOM     44  C36 UNL A   1      17.054  56.438  -0.380  1.00  0.00    +0.000 C 
ATOM     45  F1  UNL A   1      15.818  56.172  -0.827  1.00  0.00    +0.000 F 
ATOM     46  C37 UNL A   1      17.740  57.525  -0.915  1.00  0.00    +0.000 C 
ATOM     47  F2  UNL A   1      17.167  58.275  -1.867  1.00  0.00    +0.000 F 
ATOM     48  C38 UNL A   1      19.022  57.823  -0.477  1.00  0.00    +0.000 C 
ATOM     49  F3  UNL A   1      19.679  58.872  -0.990  1.00  0.00    +0.000 F 
ATOM     50  C39 UNL A   1      19.623  57.030   0.488  1.00  0.00    +0.000 C 
ATOM     51  F4  UNL A   1      20.857  57.324   0.922  1.00  0.00    +0.000 F 
ATOM     52  C40 UNL A   1      18.951  55.924   1.003  1.00  0.00    +0.000 C 
ATOM     53  F5  UNL A   1      19.568  55.166   1.922  1.00  0.00    +0.000 F 
ENDBRANCH   42   43
BRANCH   59   60
ATOM     65  C49 UNL A   1      17.641  46.650  -2.650  1.00  0.00    +0.000 C 
ATOM     66  F8  UNL A   1      18.064  45.737  -3.534  1.00  0.00    +0.000 F 
ATOM     67  C50 UNL A   1      16.428  47.294  -2.843  1.00  0.00    +0.000 C 
ATOM     68  F9  UNL A   1      15.669  46.988  -3.903  1.00  0.00    +0.000 F 
ATOM     69  C51 UNL A   1      15.998  48.260  -1.937  1.00  0.00    +0.000 C 
ATOM     70  F10 UNL A   1      14.828  48.876  -2.157  1.00  0.00    +0.000 F 
ATOM     60  C46 UNL A   1      16.766  48.581  -0.807  1.00  0.00    +0.000 C 
ATOM     61  C47 UNL A   1      17.980  47.903  -0.621  1.00  0.00    +0.000 C 
ATOM     62  F6  UNL A   1      18.756  48.187   0.436  1.00  0.00    +0.000 F 
ATOM     63  C48 UNL A   1      18.420  46.959  -1.544  1.00  0.00    +0.000 C 
ATOM     64  F7  UNL A   1      19.605  46.358  -1.371  1.00  0.00    +0.000 F 
ENDBRANCH   59   60
BRANCH   74   75
ATOM     75  C55 UNL A   1      12.379  48.137   4.588  1.00  0.00    +0.000 C 
ATOM     76  C56 UNL A   1      11.116  47.823   4.067  1.00  0.00    +0.000 C 
ATOM     77  F11 UNL A   1      10.611  48.545   3.057  1.00  0.00    +0.000 F 
ATOM     78  C57 UNL A   1      10.354  46.788   4.605  1.00  0.00    +0.000 C 
ATOM     79  F12 UNL A   1       9.133  46.534   4.113  1.00  0.00    +0.000 F 
ATOM     80  C58 UNL A   1      10.850  46.031   5.654  1.00  0.00    +0.000 C 
ATOM     81  F13 UNL A   1      10.120  45.031   6.166  1.00  0.00    +0.000 F 
ATOM     82  C59 UNL A   1      12.103  46.314   6.176  1.00  0.00    +0.000 C 
ATOM     83  F14 UNL A   1      12.593  45.574   7.181  1.00  0.00    +0.000 F 
ATOM     84  C60 UNL A   1      12.856  47.365   5.658  1.00  0.00    +0.000 C 
ATOM     85  F15 UNL A   1      14.061  47.622   6.186  1.00  0.00    +0.000 F 
ENDBRANCH   74   75
TORSDOF 28
ENDMDL
