MODEL 1
REMARK VINA RESULT:     -11.1      0.000      0.000
ROOT
ATOM     19  C15 UNL A   1      38.344  30.912  30.352  1.00  0.00    +0.000 C 
ATOM     20  C16 UNL A   1      38.623  31.197  31.800  1.00  0.00    +0.000 C 
ATOM     21  N3  UNL A   1      39.561  30.709  32.574  1.00  0.00    +0.000 N 
ATOM     22  C17 UNL A   1      39.391  31.322  33.808  1.00  0.00    +0.000 C 
ATOM     23  C18 UNL A   1      40.075  31.109  34.958  1.00  0.00    +0.000 C 
ATOM     35  C25 UNL A   1      41.153  30.167  35.104  1.00  0.00    +0.000 C 
ATOM     36  C26 UNL A   1      41.875  29.848  36.241  1.00  0.00    +0.000 C 
ATOM     37  C27 UNL A   1      42.844  28.900  35.894  1.00  0.00    +0.000 C 
ATOM     38  C28 UNL A   1      42.700  28.599  34.550  1.00  0.00    +0.000 C 
ATOM     39  N4  UNL A   1      41.663  29.388  34.076  1.00  0.00    +0.000 N 
ATOM     40  C29 UNL A   1      43.450  27.663  33.755  1.00  0.00    +0.000 C 
ATOM     52  C36 UNL A   1      43.241  27.420  32.438  1.00  0.00    +0.000 C 
ATOM     53  N5  UNL A   1      42.305  27.987  31.585  1.00  0.00    +0.000 N 
ATOM     54  C37 UNL A   1      42.515  27.446  30.410  1.00  0.00    +0.000 C 
ATOM     55  C38 UNL A   1      41.780  27.667  29.116  1.00  0.00    +0.000 C 
ATOM     67  C45 UNL A   1      40.734  28.514  29.090  1.00  0.00    +0.000 C 
ATOM     68  C46 UNL A   1      39.917  28.814  27.918  1.00  0.00    +0.000 C 
ATOM     69  C47 UNL A   1      38.985  29.719  28.253  1.00  0.00    +0.000 C 
ATOM     70  C48 UNL A   1      39.121  30.044  29.674  1.00  0.00    +0.000 C 
ATOM     71  N6  UNL A   1      40.186  29.283  30.088  1.00  0.00    +0.000 N 
ATOM     72  C49 UNL A   1      43.629  26.488  30.382  1.00  0.00    +0.000 C 
ATOM     73  C50 UNL A   1      44.009  26.478  31.651  1.00  0.00    +0.000 C 
ATOM     74  C51 UNL A   1      38.292  32.253  33.670  1.00  0.00    +0.000 C 
ATOM     75  C52 UNL A   1      37.747  32.176  32.464  1.00  0.00    +0.000 C 
ATOM    112  H21 UNL A   1      41.724  30.242  37.183  1.00  0.00    +0.000 H 
ATOM    113  H22 UNL A   1      43.547  28.494  36.532  1.00  0.00    +0.000 H 
ATOM    114  H23 UNL A   1      41.338  29.394  33.147  1.00  0.00    +0.000 H 
ATOM    115  H24 UNL A   1      40.037  28.396  26.982  1.00  0.00    +0.000 H 
ATOM    116  H25 UNL A   1      38.285  30.123  27.612  1.00  0.00    +0.000 H 
ATOM    117  H26 UNL A   1      40.524  29.285  31.013  1.00  0.00    +0.000 H 
ATOM    118  H27 UNL A   1      44.016  25.961  29.583  1.00  0.00    +0.000 H 
ATOM    119  H28 UNL A   1      44.755  25.876  32.032  1.00  0.00    +0.000 H 
ATOM    120  H29 UNL A   1      37.975  32.895  34.413  1.00  0.00    +0.000 H 
ATOM    121  H30 UNL A   1      36.923  32.670  32.089  1.00  0.00    +0.000 H 
ENDROOT
BRANCH   19   18
ATOM     76  C53 UNL A   1      35.982  31.023  29.534  1.00  0.00    +0.000 C 
ATOM     77  C54 UNL A   1      34.942  31.689  28.886  1.00  0.00    +0.000 C 
ATOM    110  H19 UNL A   1      36.551  34.525  28.099  1.00  0.00    +0.000 H 
ATOM     15  C11 UNL A   1      35.132  32.992  28.416  1.00  0.00    +0.000 C 
ATOM     16  C12 UNL A   1      36.398  33.580  28.486  1.00  0.00    +0.000 C 
ATOM     17  C13 UNL A   1      37.456  32.889  29.082  1.00  0.00    +0.000 C 
ATOM    111  H20 UNL A   1      38.395  33.315  29.111  1.00  0.00    +0.000 H 
ATOM     18  C14 UNL A   1      37.247  31.617  29.641  1.00  0.00    +0.000 C 
ATOM    122  H31 UNL A   1      35.818  30.087  29.938  1.00  0.00    +0.000 H 
ATOM    123  H32 UNL A   1      34.032  31.220  28.753  1.00  0.00    +0.000 H 
BRANCH   15   13
ATOM     13  C10 UNL A   1      34.022  33.768  27.818  1.00  0.00    +0.000 C 
ATOM     14  O2  UNL A   1      34.236  34.899  27.390  1.00  0.00    +0.000 O 
BRANCH   13   12
ATOM     12  N2  UNL A   1      32.758  33.240  27.761  1.00  0.00    +0.000 N 
ATOM    109  H18 UNL A   1      32.431  32.839  28.600  1.00  0.00    +0.000 H 
BRANCH   12   11
ATOM     11  C9  UNL A   1      31.828  33.186  26.645  1.00  0.00    +0.000 C 
ATOM    108  H17 UNL A   1      32.371  33.435  25.758  1.00  0.00    +0.000 H 
ATOM    107  H16 UNL A   1      31.033  33.880  26.827  1.00  0.00    +0.000 H 
BRANCH   11   10
ATOM    105  H14 UNL A   1      30.413  31.688  27.132  1.00  0.00    +0.000 H 
ATOM     10  C8  UNL A   1      31.229  31.795  26.449  1.00  0.00    +0.000 C 
ATOM    106  H15 UNL A   1      30.937  31.742  25.421  1.00  0.00    +0.000 H 
BRANCH   10    9
ATOM      9  C7  UNL A   1      32.194  30.631  26.677  1.00  0.00    +0.000 C 
ATOM    103  H12 UNL A   1      32.987  30.713  25.963  1.00  0.00    +0.000 H 
ATOM    104  H13 UNL A   1      32.522  30.712  27.693  1.00  0.00    +0.000 H 
BRANCH    9    8
ATOM    101  H10 UNL A   1      30.627  29.247  27.029  1.00  0.00    +0.000 H 
ATOM    102  H11 UNL A   1      31.526  29.040  25.491  1.00  0.00    +0.000 H 
ATOM      8  C6  UNL A   1      31.580  29.237  26.542  1.00  0.00    +0.000 C 
BRANCH    8    7
ATOM     99  H8  UNL A   1      32.340  28.157  28.208  1.00  0.00    +0.000 H 
ATOM    100  H9  UNL A   1      31.989  27.187  26.746  1.00  0.00    +0.000 H 
ATOM      7  C5  UNL A   1      32.404  28.089  27.142  1.00  0.00    +0.000 C 
BRANCH    7    6
ATOM     97  H6  UNL A   1      34.179  29.073  26.475  1.00  0.00    +0.000 H 
ATOM     98  H7  UNL A   1      34.452  27.743  27.600  1.00  0.00    +0.000 H 
ATOM      6  C4  UNL A   1      33.889  28.082  26.756  1.00  0.00    +0.000 C 
BRANCH    6    5
ATOM      5  N1  UNL A   1      34.149  27.183  25.646  1.00  0.00    +0.000 N 
ATOM     96  H5  UNL A   1      34.582  26.322  25.850  1.00  0.00    +0.000 H 
BRANCH    5    3
ATOM      3  C3  UNL A   1      33.838  27.444  24.337  1.00  0.00    +0.000 C 
ATOM      4  O1  UNL A   1      34.482  28.339  23.790  1.00  0.00    +0.000 O 
BRANCH    3    2
ATOM      2  C2  UNL A   1      32.755  26.598  23.639  1.00  0.00    +0.000 C 
ATOM     95  H4  UNL A   1      32.528  25.782  24.295  1.00  0.00    +0.000 H 
BRANCH    2    1
ATOM      1  C1  UNL A   1      33.335  26.129  22.298  1.00  0.00    +0.000 C 
ATOM     92  H1  UNL A   1      32.607  26.269  21.527  1.00  0.00    +0.000 H 
ATOM     93  H2  UNL A   1      33.589  25.092  22.363  1.00  0.00    +0.000 H 
ATOM     94  H3  UNL A   1      34.212  26.698  22.069  1.00  0.00    +0.000 H 
ENDBRANCH    2    1
BRANCH    2   78
ATOM    137  H46 UNL A   1      28.118  26.958  24.284  1.00  0.00    +0.000 H 
ATOM     78  C55 UNL A   1      31.380  27.263  23.450  1.00  0.00    +0.000 C 
ATOM     79  C56 UNL A   1      31.215  28.380  22.609  1.00  0.00    +0.000 C 
ATOM     80  C57 UNL A   1      29.967  28.964  22.378  1.00  0.00    +0.000 C 
ATOM     81  C58 UNL A   1      28.823  28.465  22.994  1.00  0.00    +0.000 C 
ATOM     89  C65 UNL A   1      28.957  27.358  23.836  1.00  0.00    +0.000 C 
ATOM     90  C66 UNL A   1      30.214  26.781  24.083  1.00  0.00    +0.000 C 
ATOM     91 Br1  UNL A   1      30.224  25.377  25.373  1.00  0.00    +0.000 Br
ATOM    124  H33 UNL A   1      32.046  28.783  22.147  1.00  0.00    +0.000 H 
ATOM    125  H34 UNL A   1      29.892  29.774  21.744  1.00  0.00    +0.000 H 
BRANCH   81   82
ATOM     82  C59 UNL A   1      27.484  29.127  22.780  1.00  0.00    +0.000 C 
ATOM    126  H35 UNL A   1      26.866  28.896  23.621  1.00  0.00    +0.000 H 
ATOM    127  H36 UNL A   1      27.116  28.745  21.850  1.00  0.00    +0.000 H 
BRANCH   82   83
ATOM    129  H38 UNL A   1      28.659  30.848  24.438  1.00  0.00    +0.000 H 
ATOM    130  H39 UNL A   1      27.199  31.762  24.462  1.00  0.00    +0.000 H 
ATOM    131  H40 UNL A   1      29.825  32.544  23.447  1.00  0.00    +0.000 H 
ATOM    132  H41 UNL A   1      28.474  33.568  23.742  1.00  0.00    +0.000 H 
ATOM    133  H42 UNL A   1      29.283  33.111  21.235  1.00  0.00    +0.000 H 
ATOM    134  H43 UNL A   1      27.610  33.230  21.527  1.00  0.00    +0.000 H 
ATOM    135  H44 UNL A   1      29.297  30.692  21.347  1.00  0.00    +0.000 H 
ATOM     83  C60 UNL A   1      27.514  30.656  22.622  1.00  0.00    +0.000 C 
ATOM     84  C61 UNL A   1      28.011  31.452  23.839  1.00  0.00    +0.000 C 
ATOM     85  C62 UNL A   1      28.775  32.654  23.275  1.00  0.00    +0.000 C 
ATOM     86  C63 UNL A   1      28.480  32.663  21.783  1.00  0.00    +0.000 C 
ATOM     87  C64 UNL A   1      28.352  31.184  21.454  1.00  0.00    +0.000 C 
ATOM    128  H37 UNL A   1      26.469  30.817  22.459  1.00  0.00    +0.000 H 
BRANCH   87   88
ATOM    136  H45 UNL A   1      28.196  31.408  19.509  1.00  0.00    +0.000 H 
ATOM     88  O3  UNL A   1      27.694  30.976  20.218  1.00  0.00    +0.000 O 
ENDBRANCH   87   88
ENDBRANCH   82   83
ENDBRANCH   81   82
ENDBRANCH    2   78
ENDBRANCH    3    2
ENDBRANCH    5    3
ENDBRANCH    6    5
ENDBRANCH    7    6
ENDBRANCH    8    7
ENDBRANCH    9    8
ENDBRANCH   10    9
ENDBRANCH   11   10
ENDBRANCH   12   11
ENDBRANCH   13   12
ENDBRANCH   15   13
ENDBRANCH   19   18
BRANCH   23   24
ATOM     33  C24 UNL A   1      38.538  31.534  36.915  1.00  0.00    +0.000 C 
ATOM     34  F5  UNL A   1      37.837  30.438  36.588  1.00  0.00    +0.000 F 
ATOM     24  C19 UNL A   1      39.667  31.901  36.165  1.00  0.00    +0.000 C 
ATOM     25  C20 UNL A   1      40.361  33.059  36.548  1.00  0.00    +0.000 C 
ATOM     26  F1  UNL A   1      41.453  33.445  35.871  1.00  0.00    +0.000 F 
ATOM     27  C21 UNL A   1      39.951  33.811  37.646  1.00  0.00    +0.000 C 
ATOM     28  F2  UNL A   1      40.649  34.894  38.013  1.00  0.00    +0.000 F 
ATOM     29  C22 UNL A   1      38.825  33.436  38.364  1.00  0.00    +0.000 C 
ATOM     30  F3  UNL A   1      38.424  34.168  39.413  1.00  0.00    +0.000 F 
ATOM     31  C23 UNL A   1      38.116  32.302  37.997  1.00  0.00    +0.000 C 
ATOM     32  F4  UNL A   1      37.021  31.946  38.683  1.00  0.00    +0.000 F 
ENDBRANCH   23   24
BRANCH   40   41
ATOM     41  C30 UNL A   1      44.536  26.878  34.429  1.00  0.00    +0.000 C 
ATOM     42  C31 UNL A   1      45.844  27.375  34.531  1.00  0.00    +0.000 C 
ATOM     43  F6  UNL A   1      46.160  28.559  33.986  1.00  0.00    +0.000 F 
ATOM     44  C32 UNL A   1      46.844  26.633  35.153  1.00  0.00    +0.000 C 
ATOM     45  F7  UNL A   1      48.098  27.103  35.194  1.00  0.00    +0.000 F 
ATOM     46  C33 UNL A   1      46.548  25.399  35.714  1.00  0.00    +0.000 C 
ATOM     47  F8  UNL A   1      47.511  24.686  36.314  1.00  0.00    +0.000 F 
ATOM     48  C34 UNL A   1      45.256  24.899  35.644  1.00  0.00    +0.000 C 
ATOM     49  F9  UNL A   1      44.967  23.712  36.195  1.00  0.00    +0.000 F 
ATOM     50  C35 UNL A   1      44.260  25.626  34.999  1.00  0.00    +0.000 C 
ATOM     51  F10 UNL A   1      43.024  25.110  34.933  1.00  0.00    +0.000 F 
ENDBRANCH   40   41
BRANCH   55   56
ATOM     65  C44 UNL A   1      43.114  27.495  26.988  1.00  0.00    +0.000 C 
ATOM     66  F15 UNL A   1      43.638  28.707  27.224  1.00  0.00    +0.000 F 
ATOM     56  C39 UNL A   1      42.186  26.945  27.883  1.00  0.00    +0.000 C 
ATOM     57  C40 UNL A   1      41.664  25.678  27.586  1.00  0.00    +0.000 C 
ATOM     58  F11 UNL A   1      40.789  25.103  28.424  1.00  0.00    +0.000 F 
ATOM     59  C41 UNL A   1      42.074  24.978  26.455  1.00  0.00    +0.000 C 
ATOM     60  F12 UNL A   1      41.599  23.747  26.222  1.00  0.00    +0.000 F 
ATOM     61  C42 UNL A   1      42.991  25.543  25.582  1.00  0.00    +0.000 C 
ATOM     62  F13 UNL A   1      43.387  24.868  24.494  1.00  0.00    +0.000 F 
ATOM     63  C43 UNL A   1      43.504  26.805  25.842  1.00  0.00    +0.000 C 
ATOM     64  F14 UNL A   1      44.380  27.360  24.994  1.00  0.00    +0.000 F 
ENDBRANCH   55   56
TORSDOF 20
ENDMDL
MODEL 2
REMARK VINA RESULT:     -11.0     26.188     33.819
ROOT
ATOM     19  C15 UNL A   1      22.175  19.483   5.276  1.00  0.00    +0.000 C 
ATOM     20  C16 UNL A   1      20.984  18.849   5.938  1.00  0.00    +0.000 C 
ATOM     21  N3  UNL A   1      19.709  19.055   5.719  1.00  0.00    +0.000 N 
ATOM     22  C17 UNL A   1      19.033  18.196   6.575  1.00  0.00    +0.000 C 
ATOM     23  C18 UNL A   1      17.698  18.074   6.769  1.00  0.00    +0.000 C 
ATOM     35  C25 UNL A   1      16.700  18.850   6.081  1.00  0.00    +0.000 C 
ATOM     36  C26 UNL A   1      15.326  18.831   6.244  1.00  0.00    +0.000 C 
ATOM     37  C27 UNL A   1      14.763  19.735   5.337  1.00  0.00    +0.000 C 
ATOM     38  C28 UNL A   1      15.789  20.346   4.636  1.00  0.00    +0.000 C 
ATOM     39  N4  UNL A   1      16.971  19.790   5.098  1.00  0.00    +0.000 N 
ATOM     40  C29 UNL A   1      15.700  21.362   3.621  1.00  0.00    +0.000 C 
ATOM     52  C36 UNL A   1      16.760  21.918   2.984  1.00  0.00    +0.000 C 
ATOM     53  N5  UNL A   1      18.111  21.654   3.147  1.00  0.00    +0.000 N 
ATOM     54  C37 UNL A   1      18.735  22.426   2.291  1.00  0.00    +0.000 C 
ATOM     55  C38 UNL A   1      20.212  22.577   2.047  1.00  0.00    +0.000 C 
ATOM     67  C45 UNL A   1      21.078  21.863   2.790  1.00  0.00    +0.000 C 
ATOM     68  C46 UNL A   1      22.532  21.919   2.681  1.00  0.00    +0.000 C 
ATOM     69  C47 UNL A   1      23.071  21.055   3.556  1.00  0.00    +0.000 C 
ATOM     70  C48 UNL A   1      21.998  20.403   4.309  1.00  0.00    +0.000 C 
ATOM     71  N6  UNL A   1      20.850  20.944   3.786  1.00  0.00    +0.000 N 
ATOM     72  C49 UNL A   1      17.841  23.253   1.469  1.00  0.00    +0.000 C 
ATOM     73  C50 UNL A   1      16.652  22.937   1.960  1.00  0.00    +0.000 C 
ATOM     74  C51 UNL A   1      20.037  17.431   7.284  1.00  0.00    +0.000 C 
ATOM     75  C52 UNL A   1      21.259  17.834   6.967  1.00  0.00    +0.000 C 
ATOM    112  H21 UNL A   1      14.806  18.248   6.920  1.00  0.00    +0.000 H 
ATOM    113  H22 UNL A   1      13.754  19.915   5.211  1.00  0.00    +0.000 H 
ATOM    114  H23 UNL A   1      17.871  20.028   4.776  1.00  0.00    +0.000 H 
ATOM    115  H24 UNL A   1      23.062  22.526   2.035  1.00  0.00    +0.000 H 
ATOM    116  H25 UNL A   1      24.080  20.878   3.677  1.00  0.00    +0.000 H 
ATOM    117  H26 UNL A   1      19.948  20.699   4.095  1.00  0.00    +0.000 H 
ATOM    118  H27 UNL A   1      18.077  23.908   0.707  1.00  0.00    +0.000 H 
ATOM    119  H28 UNL A   1      15.763  23.361   1.654  1.00  0.00    +0.000 H 
ATOM    120  H29 UNL A   1      19.827  16.670   7.949  1.00  0.00    +0.000 H 
ATOM    121  H30 UNL A   1      22.167  17.520   7.344  1.00  0.00    +0.000 H 
ENDROOT
BRANCH   19   18
ATOM     76  C53 UNL A   1      24.222  18.097   4.884  1.00  0.00    +0.000 C 
ATOM     77  C54 UNL A   1      25.523  17.718   5.212  1.00  0.00    +0.000 C 
ATOM    110  H19 UNL A   1      26.018  19.762   7.826  1.00  0.00    +0.000 H 
ATOM     15  C11 UNL A   1      26.202  18.369   6.247  1.00  0.00    +0.000 C 
ATOM     16  C12 UNL A   1      25.533  19.313   7.032  1.00  0.00    +0.000 C 
ATOM     17  C13 UNL A   1      24.209  19.650   6.742  1.00  0.00    +0.000 C 
ATOM    111  H20 UNL A   1      23.710  20.328   7.337  1.00  0.00    +0.000 H 
ATOM     18  C14 UNL A   1      23.553  19.067   5.644  1.00  0.00    +0.000 C 
ATOM    122  H31 UNL A   1      23.748  17.660   4.078  1.00  0.00    +0.000 H 
ATOM    123  H32 UNL A   1      25.986  16.957   4.690  1.00  0.00    +0.000 H 
BRANCH   15   13
ATOM     13  C10 UNL A   1      27.618  18.067   6.555  1.00  0.00    +0.000 C 
ATOM     14  O2  UNL A   1      28.289  17.429   5.749  1.00  0.00    +0.000 O 
BRANCH   13   12
ATOM     12  N2  UNL A   1      28.173  18.474   7.741  1.00  0.00    +0.000 N 
ATOM    109  H18 UNL A   1      28.601  19.360   7.723  1.00  0.00    +0.000 H 
BRANCH   12   11
ATOM     11  C9  UNL A   1      28.221  17.787   9.021  1.00  0.00    +0.000 C 
ATOM    108  H17 UNL A   1      29.171  17.300   9.093  1.00  0.00    +0.000 H 
ATOM    107  H16 UNL A   1      27.414  17.085   9.065  1.00  0.00    +0.000 H 
BRANCH   11   10
ATOM    105  H14 UNL A   1      27.289  18.414  10.817  1.00  0.00    +0.000 H 
ATOM     10  C8  UNL A   1      28.101  18.746  10.204  1.00  0.00    +0.000 C 
ATOM    106  H15 UNL A   1      29.049  18.723  10.701  1.00  0.00    +0.000 H 
BRANCH   10    9
ATOM      9  C7  UNL A   1      27.849  20.209   9.836  1.00  0.00    +0.000 C 
ATOM    103  H12 UNL A   1      28.798  20.695   9.745  1.00  0.00    +0.000 H 
ATOM    104  H13 UNL A   1      27.287  20.193   8.926  1.00  0.00    +0.000 H 
BRANCH    9    8
ATOM    101  H10 UNL A   1      26.732  20.338  11.633  1.00  0.00    +0.000 H 
ATOM    102  H11 UNL A   1      27.619  21.820  11.153  1.00  0.00    +0.000 H 
ATOM      8  C6  UNL A   1      27.008  21.000  10.839  1.00  0.00    +0.000 C 
BRANCH    8    7
ATOM     99  H8  UNL A   1      26.002  22.358   9.550  1.00  0.00    +0.000 H 
ATOM    100  H9  UNL A   1      25.152  20.817   9.872  1.00  0.00    +0.000 H 
ATOM      7  C5  UNL A   1      25.722  21.624  10.278  1.00  0.00    +0.000 C 
BRANCH    7    6
ATOM     97  H6  UNL A   1      25.289  23.212  11.639  1.00  0.00    +0.000 H 
ATOM     98  H7  UNL A   1      23.876  22.507  10.857  1.00  0.00    +0.000 H 
ATOM      6  C4  UNL A   1      24.821  22.306  11.316  1.00  0.00    +0.000 C 
BRANCH    6    5
ATOM      5  N1  UNL A   1      24.595  21.454  12.469  1.00  0.00    +0.000 N 
ATOM     96  H5  UNL A   1      25.140  21.623  13.272  1.00  0.00    +0.000 H 
BRANCH    5    3
ATOM      3  C3  UNL A   1      23.681  20.434  12.523  1.00  0.00    +0.000 C 
ATOM      4  O1  UNL A   1      22.548  20.694  12.117  1.00  0.00    +0.000 O 
BRANCH    3    2
ATOM      2  C2  UNL A   1      24.126  19.052  13.038  1.00  0.00    +0.000 C 
ATOM     95  H4  UNL A   1      23.474  18.798  13.849  1.00  0.00    +0.000 H 
BRANCH    2    1
ATOM      1  C1  UNL A   1      25.590  19.179  13.480  1.00  0.00    +0.000 C 
ATOM     92  H1  UNL A   1      25.672  19.939  14.228  1.00  0.00    +0.000 H 
ATOM     93  H2  UNL A   1      26.195  19.442  12.637  1.00  0.00    +0.000 H 
ATOM     94  H3  UNL A   1      25.924  18.245  13.881  1.00  0.00    +0.000 H 
ENDBRANCH    2    1
BRANCH    2   78
ATOM    137  H46 UNL A   1      23.025  14.611  11.982  1.00  0.00    +0.000 H 
ATOM     78  C55 UNL A   1      23.935  17.866  12.076  1.00  0.00    +0.000 C 
ATOM     79  C56 UNL A   1      24.266  17.968  10.711  1.00  0.00    +0.000 C 
ATOM     80  C57 UNL A   1      24.154  16.887   9.833  1.00  0.00    +0.000 C 
ATOM     81  C58 UNL A   1      23.689  15.653  10.277  1.00  0.00    +0.000 C 
ATOM     89  C65 UNL A   1      23.351  15.524  11.627  1.00  0.00    +0.000 C 
ATOM     90  C66 UNL A   1      23.445  16.614  12.508  1.00  0.00    +0.000 C 
ATOM     91 Br1  UNL A   1      22.800  16.292  14.272  1.00  0.00    +0.000 Br
ATOM    124  H33 UNL A   1      24.601  18.874  10.347  1.00  0.00    +0.000 H 
ATOM    125  H34 UNL A   1      24.419  17.005   8.843  1.00  0.00    +0.000 H 
BRANCH   81   82
ATOM     82  C59 UNL A   1      23.524  14.502   9.316  1.00  0.00    +0.000 C 
ATOM    126  H35 UNL A   1      22.904  13.769   9.785  1.00  0.00    +0.000 H 
ATOM    127  H36 UNL A   1      24.515  14.160   9.099  1.00  0.00    +0.000 H 
BRANCH   82   83
ATOM    129  H38 UNL A   1      24.732  14.337   6.949  1.00  0.00    +0.000 H 
ATOM    130  H39 UNL A   1      24.205  15.942   6.612  1.00  0.00    +0.000 H 
ATOM    131  H40 UNL A   1      23.479  13.459   5.253  1.00  0.00    +0.000 H 
ATOM    132  H41 UNL A   1      23.188  15.066   4.712  1.00  0.00    +0.000 H 
ATOM    133  H42 UNL A   1      21.142  13.518   5.463  1.00  0.00    +0.000 H 
ATOM    134  H43 UNL A   1      21.078  15.173   5.854  1.00  0.00    +0.000 H 
ATOM    135  H44 UNL A   1      22.016  12.872   7.626  1.00  0.00    +0.000 H 
ATOM     83  C60 UNL A   1      22.897  14.852   7.957  1.00  0.00    +0.000 C 
ATOM     84  C61 UNL A   1      23.867  14.940   6.767  1.00  0.00    +0.000 C 
ATOM     85  C62 UNL A   1      23.097  14.412   5.553  1.00  0.00    +0.000 C 
ATOM     86  C63 UNL A   1      21.652  14.284   6.010  1.00  0.00    +0.000 C 
ATOM     87  C64 UNL A   1      21.792  13.908   7.476  1.00  0.00    +0.000 C 
ATOM    128  H37 UNL A   1      22.509  15.817   8.206  1.00  0.00    +0.000 H 
BRANCH   87   88
ATOM    136  H45 UNL A   1      20.658  14.949   8.696  1.00  0.00    +0.000 H 
ATOM     88  O3  UNL A   1      20.589  14.124   8.191  1.00  0.00    +0.000 O 
ENDBRANCH   87   88
ENDBRANCH   82   83
ENDBRANCH   81   82
ENDBRANCH    2   78
ENDBRANCH    3    2
ENDBRANCH    5    3
ENDBRANCH    6    5
ENDBRANCH    7    6
ENDBRANCH    8    7
ENDBRANCH    9    8
ENDBRANCH   10    9
ENDBRANCH   11   10
ENDBRANCH   12   11
ENDBRANCH   13   12
ENDBRANCH   15   13
ENDBRANCH   19   18
BRANCH   23   24
ATOM     33  C24 UNL A   1      17.197  15.703   7.471  1.00  0.00    +0.000 C 
ATOM     34  F5  UNL A   1      17.629  15.269   6.277  1.00  0.00    +0.000 F 
ATOM     24  C19 UNL A   1      17.232  17.071   7.782  1.00  0.00    +0.000 C 
ATOM     25  C20 UNL A   1      16.764  17.470   9.044  1.00  0.00    +0.000 C 
ATOM     26  F1  UNL A   1      16.787  18.765   9.392  1.00  0.00    +0.000 F 
ATOM     27  C21 UNL A   1      16.295  16.535   9.962  1.00  0.00    +0.000 C 
ATOM     28  F2  UNL A   1      15.885  16.936  11.174  1.00  0.00    +0.000 F 
ATOM     29  C22 UNL A   1      16.258  15.189   9.629  1.00  0.00    +0.000 C 
ATOM     30  F3  UNL A   1      15.795  14.292  10.510  1.00  0.00    +0.000 F 
ATOM     31  C23 UNL A   1      16.704  14.773   8.383  1.00  0.00    +0.000 C 
ATOM     32  F4  UNL A   1      16.658  13.474   8.055  1.00  0.00    +0.000 F 
ENDBRANCH   23   24
BRANCH   40   41
ATOM     41  C30 UNL A   1      14.338  21.864   3.244  1.00  0.00    +0.000 C 
ATOM     42  C31 UNL A   1      13.649  21.353   2.135  1.00  0.00    +0.000 C 
ATOM     43  F6  UNL A   1      14.220  20.420   1.357  1.00  0.00    +0.000 F 
ATOM     44  C32 UNL A   1      12.388  21.833   1.792  1.00  0.00    +0.000 C 
ATOM     45  F7  UNL A   1      11.770  21.367   0.699  1.00  0.00    +0.000 F 
ATOM     46  C33 UNL A   1      11.779  22.806   2.570  1.00  0.00    +0.000 C 
ATOM     47  F8  UNL A   1      10.564  23.266   2.241  1.00  0.00    +0.000 F 
ATOM     48  C34 UNL A   1      12.433  23.310   3.686  1.00  0.00    +0.000 C 
ATOM     49  F9  UNL A   1      11.841  24.242   4.444  1.00  0.00    +0.000 F 
ATOM     50  C35 UNL A   1      13.705  22.851   4.015  1.00  0.00    +0.000 C 
ATOM     51  F10 UNL A   1      14.320  23.369   5.089  1.00  0.00    +0.000 F 
ENDBRANCH   40   41
BRANCH   55   56
ATOM     65  C44 UNL A   1      21.102  24.825   1.346  1.00  0.00    +0.000 C 
ATOM     66  F15 UNL A   1      21.000  25.255   2.612  1.00  0.00    +0.000 F 
ATOM     56  C39 UNL A   1      20.715  23.519   1.015  1.00  0.00    +0.000 C 
ATOM     57  C40 UNL A   1      20.836  23.121  -0.324  1.00  0.00    +0.000 C 
ATOM     58  F11 UNL A   1      20.498  21.875  -0.684  1.00  0.00    +0.000 F 
ATOM     59  C41 UNL A   1      21.350  23.985  -1.287  1.00  0.00    +0.000 C 
ATOM     60  F12 UNL A   1      21.503  23.563  -2.550  1.00  0.00    +0.000 F 
ATOM     61  C42 UNL A   1      21.723  25.274  -0.938  1.00  0.00    +0.000 C 
ATOM     62  F13 UNL A   1      22.219  26.105  -1.864  1.00  0.00    +0.000 F 
ATOM     63  C43 UNL A   1      21.591  25.698   0.377  1.00  0.00    +0.000 C 
ATOM     64  F14 UNL A   1      21.938  26.947   0.716  1.00  0.00    +0.000 F 
ENDBRANCH   55   56
TORSDOF 20
ENDMDL
MODEL 3
REMARK VINA RESULT:     -10.9      3.352      4.642
ROOT
ATOM     19  C15 UNL A   1      39.624  28.883  29.477  1.00  0.00    +0.000 C 
ATOM     20  C16 UNL A   1      40.418  29.737  30.426  1.00  0.00    +0.000 C 
ATOM     21  N3  UNL A   1      41.624  29.545  30.901  1.00  0.00    +0.000 N 
ATOM     22  C17 UNL A   1      41.892  30.641  31.709  1.00  0.00    +0.000 C 
ATOM     23  C18 UNL A   1      42.986  30.882  32.471  1.00  0.00    +0.000 C 
ATOM     35  C25 UNL A   1      44.118  30.000  32.573  1.00  0.00    +0.000 C 
ATOM     36  C26 UNL A   1      45.253  30.135  33.355  1.00  0.00    +0.000 C 
ATOM     37  C27 UNL A   1      46.094  29.047  33.101  1.00  0.00    +0.000 C 
ATOM     38  C28 UNL A   1      45.466  28.213  32.191  1.00  0.00    +0.000 C 
ATOM     39  N4  UNL A   1      44.259  28.812  31.871  1.00  0.00    +0.000 N 
ATOM     40  C29 UNL A   1      45.931  26.962  31.653  1.00  0.00    +0.000 C 
ATOM     52  C36 UNL A   1      45.249  26.197  30.765  1.00  0.00    +0.000 C 
ATOM     53  N5  UNL A   1      44.007  26.424  30.192  1.00  0.00    +0.000 N 
ATOM     54  C37 UNL A   1      43.793  25.415  29.385  1.00  0.00    +0.000 C 
ATOM     55  C38 UNL A   1      42.594  25.125  28.523  1.00  0.00    +0.000 C 
ATOM     67  C45 UNL A   1      41.547  25.970  28.546  1.00  0.00    +0.000 C 
ATOM     68  C46 UNL A   1      40.314  25.810  27.782  1.00  0.00    +0.000 C 
ATOM     69  C47 UNL A   1      39.505  26.852  28.029  1.00  0.00    +0.000 C 
ATOM     70  C48 UNL A   1      40.154  27.742  28.995  1.00  0.00    +0.000 C 
ATOM     71  N6  UNL A   1      41.361  27.139  29.244  1.00  0.00    +0.000 N 
ATOM     72  C49 UNL A   1      44.892  24.441  29.339  1.00  0.00    +0.000 C 
ATOM     73  C50 UNL A   1      45.735  24.942  30.230  1.00  0.00    +0.000 C 
ATOM     74  C51 UNL A   1      40.744  31.519  31.625  1.00  0.00    +0.000 C 
ATOM     75  C52 UNL A   1      39.782  30.981  30.889  1.00  0.00    +0.000 C 
ATOM    112  H21 UNL A   1      45.444  30.908  34.012  1.00  0.00    +0.000 H 
ATOM    113  H22 UNL A   1      47.024  28.892  33.521  1.00  0.00    +0.000 H 
ATOM    114  H23 UNL A   1      43.598  28.448  31.238  1.00  0.00    +0.000 H 
ATOM    115  H24 UNL A   1      40.098  25.021  27.151  1.00  0.00    +0.000 H 
ATOM    116  H25 UNL A   1      38.576  27.003  27.607  1.00  0.00    +0.000 H 
ATOM    117  H26 UNL A   1      42.031  27.507  29.864  1.00  0.00    +0.000 H 
ATOM    118  H27 UNL A   1      44.984  23.589  28.763  1.00  0.00    +0.000 H 
ATOM    119  H28 UNL A   1      46.623  24.497  30.507  1.00  0.00    +0.000 H 
ATOM    120  H29 UNL A   1      40.683  32.444  32.079  1.00  0.00    +0.000 H 
ATOM    121  H30 UNL A   1      38.835  31.339  30.692  1.00  0.00    +0.000 H 
ENDROOT
BRANCH   19   18
ATOM     76  C53 UNL A   1      38.102  29.836  27.735  1.00  0.00    +0.000 C 
ATOM     77  C54 UNL A   1      36.835  30.220  27.295  1.00  0.00    +0.000 C 
ATOM    110  H19 UNL A   1      35.064  29.390  30.021  1.00  0.00    +0.000 H 
ATOM     15  C11 UNL A   1      35.717  30.000  28.106  1.00  0.00    +0.000 C 
ATOM     16  C12 UNL A   1      35.884  29.511  29.404  1.00  0.00    +0.000 C 
ATOM     17  C13 UNL A   1      37.160  29.182  29.867  1.00  0.00    +0.000 C 
ATOM    111  H20 UNL A   1      37.284  28.843  30.834  1.00  0.00    +0.000 H 
ATOM     18  C14 UNL A   1      38.276  29.311  29.023  1.00  0.00    +0.000 C 
ATOM    122  H31 UNL A   1      38.915  29.938  27.107  1.00  0.00    +0.000 H 
ATOM    123  H32 UNL A   1      36.723  30.666  26.371  1.00  0.00    +0.000 H 
BRANCH   15   13
ATOM     13  C10 UNL A   1      34.347  30.298  27.632  1.00  0.00    +0.000 C 
ATOM     14  O2  UNL A   1      33.767  31.297  28.046  1.00  0.00    +0.000 O 
BRANCH   13   12
ATOM     12  N2  UNL A   1      33.718  29.453  26.754  1.00  0.00    +0.000 N 
ATOM    109  H18 UNL A   1      33.413  29.869  25.915  1.00  0.00    +0.000 H 
BRANCH   12   11
ATOM     11  C9  UNL A   1      33.435  28.033  26.880  1.00  0.00    +0.000 C 
ATOM    108  H17 UNL A   1      32.375  27.919  26.972  1.00  0.00    +0.000 H 
ATOM    107  H16 UNL A   1      33.948  27.657  27.741  1.00  0.00    +0.000 H 
BRANCH   11   10
ATOM    105  H14 UNL A   1      33.258  27.514  24.834  1.00  0.00    +0.000 H 
ATOM     10  C8  UNL A   1      33.883  27.236  25.657  1.00  0.00    +0.000 C 
ATOM    106  H15 UNL A   1      34.916  27.476  25.510  1.00  0.00    +0.000 H 
BRANCH   10    9
ATOM      9  C7  UNL A   1      33.818  25.715  25.809  1.00  0.00    +0.000 C 
ATOM    103  H12 UNL A   1      34.061  25.473  26.822  1.00  0.00    +0.000 H 
ATOM    104  H13 UNL A   1      32.825  25.432  25.527  1.00  0.00    +0.000 H 
BRANCH    9    8
ATOM    101  H10 UNL A   1      34.178  24.191  24.380  1.00  0.00    +0.000 H 
ATOM    102  H11 UNL A   1      35.215  25.647  24.251  1.00  0.00    +0.000 H 
ATOM      8  C6  UNL A   1      34.759  24.926  24.897  1.00  0.00    +0.000 C 
BRANCH    8    7
ATOM     99  H8  UNL A   1      36.735  24.888  25.678  1.00  0.00    +0.000 H 
ATOM    100  H9  UNL A   1      35.534  23.889  26.550  1.00  0.00    +0.000 H 
ATOM      7  C5  UNL A   1      35.915  24.205  25.603  1.00  0.00    +0.000 C 
BRANCH    7    6
ATOM     97  H6  UNL A   1      35.888  22.817  23.979  1.00  0.00    +0.000 H 
ATOM     98  H7  UNL A   1      37.468  23.046  24.726  1.00  0.00    +0.000 H 
ATOM      6  C4  UNL A   1      36.418  22.937  24.901  1.00  0.00    +0.000 C 
BRANCH    6    5
ATOM      5  N1  UNL A   1      36.214  21.755  25.718  1.00  0.00    +0.000 N 
ATOM     96  H5  UNL A   1      36.384  21.837  26.685  1.00  0.00    +0.000 H 
BRANCH    5    3
ATOM      3  C3  UNL A   1      35.802  20.536  25.245  1.00  0.00    +0.000 C 
ATOM      4  O1  UNL A   1      36.686  19.782  24.837  1.00  0.00    +0.000 O 
BRANCH    3    2
ATOM      2  C2  UNL A   1      34.304  20.180  25.287  1.00  0.00    +0.000 C 
ATOM     95  H4  UNL A   1      34.039  20.071  26.319  1.00  0.00    +0.000 H 
BRANCH    2    1
ATOM      1  C1  UNL A   1      34.120  18.880  24.494  1.00  0.00    +0.000 C 
ATOM     92  H1  UNL A   1      34.899  18.192  24.751  1.00  0.00    +0.000 H 
ATOM     93  H2  UNL A   1      34.165  19.092  23.446  1.00  0.00    +0.000 H 
ATOM     94  H3  UNL A   1      33.170  18.448  24.730  1.00  0.00    +0.000 H 
ENDBRANCH    2    1
BRANCH    2   78
ATOM    137  H46 UNL A   1      31.251  23.689  25.931  1.00  0.00    +0.000 H 
ATOM     78  C55 UNL A   1      33.326  21.268  24.808  1.00  0.00    +0.000 C 
ATOM     79  C56 UNL A   1      33.009  21.420  23.444  1.00  0.00    +0.000 C 
ATOM     80  C57 UNL A   1      32.081  22.362  22.993  1.00  0.00    +0.000 C 
ATOM     81  C58 UNL A   1      31.437  23.211  23.888  1.00  0.00    +0.000 C 
ATOM     89  C65 UNL A   1      31.734  23.085  25.248  1.00  0.00    +0.000 C 
ATOM     90  C66 UNL A   1      32.680  22.150  25.701  1.00  0.00    +0.000 C 
ATOM     91 Br1  UNL A   1      33.066  22.223  27.566  1.00  0.00    +0.000 Br
ATOM    124  H33 UNL A   1      33.480  20.814  22.753  1.00  0.00    +0.000 H 
ATOM    125  H34 UNL A   1      31.871  22.430  21.986  1.00  0.00    +0.000 H 
BRANCH   81   82
ATOM     82  C59 UNL A   1      30.472  24.260  23.394  1.00  0.00    +0.000 C 
ATOM    126  H35 UNL A   1      29.551  24.134  23.921  1.00  0.00    +0.000 H 
ATOM    127  H36 UNL A   1      30.393  24.108  22.337  1.00  0.00    +0.000 H 
BRANCH   82   83
ATOM    129  H38 UNL A   1      30.507  26.128  21.496  1.00  0.00    +0.000 H 
ATOM    130  H39 UNL A   1      32.129  26.498  21.945  1.00  0.00    +0.000 H 
ATOM    131  H40 UNL A   1      29.755  28.192  22.119  1.00  0.00    +0.000 H 
ATOM    132  H41 UNL A   1      31.397  28.680  22.280  1.00  0.00    +0.000 H 
ATOM    133  H42 UNL A   1      29.774  28.731  24.404  1.00  0.00    +0.000 H 
ATOM    134  H43 UNL A   1      31.393  28.261  24.644  1.00  0.00    +0.000 H 
ATOM    135  H44 UNL A   1      28.967  26.455  24.236  1.00  0.00    +0.000 H 
ATOM     83  C60 UNL A   1      30.923  25.719  23.572  1.00  0.00    +0.000 C 
ATOM     84  C61 UNL A   1      31.114  26.530  22.280  1.00  0.00    +0.000 C 
ATOM     85  C62 UNL A   1      30.677  27.961  22.609  1.00  0.00    +0.000 C 
ATOM     86  C63 UNL A   1      30.499  27.997  24.119  1.00  0.00    +0.000 C 
ATOM     87  C64 UNL A   1      30.009  26.592  24.436  1.00  0.00    +0.000 C 
ATOM    128  H37 UNL A   1      31.861  25.537  24.052  1.00  0.00    +0.000 H 
BRANCH   87   88
ATOM    136  H45 UNL A   1      30.844  25.606  25.916  1.00  0.00    +0.000 H 
ATOM     88  O3  UNL A   1      30.157  26.283  25.809  1.00  0.00    +0.000 O 
ENDBRANCH   87   88
ENDBRANCH   82   83
ENDBRANCH   81   82
ENDBRANCH    2   78
ENDBRANCH    3    2
ENDBRANCH    5    3
ENDBRANCH    6    5
ENDBRANCH    7    6
ENDBRANCH    8    7
ENDBRANCH    9    8
ENDBRANCH   10    9
ENDBRANCH   11   10
ENDBRANCH   12   11
ENDBRANCH   13   12
ENDBRANCH   15   13
ENDBRANCH   19   18
BRANCH   23   24
ATOM     33  C24 UNL A   1      42.455  32.190  34.562  1.00  0.00    +0.000 C 
ATOM     34  F5  UNL A   1      41.942  31.080  35.114  1.00  0.00    +0.000 F 
ATOM     24  C19 UNL A   1      43.009  32.149  33.273  1.00  0.00    +0.000 C 
ATOM     25  C20 UNL A   1      43.527  33.341  32.743  1.00  0.00    +0.000 C 
ATOM     26  F1  UNL A   1      44.077  33.350  31.520  1.00  0.00    +0.000 F 
ATOM     27  C21 UNL A   1      43.507  34.522  33.480  1.00  0.00    +0.000 C 
ATOM     28  F2  UNL A   1      44.038  35.640  32.967  1.00  0.00    +0.000 F 
ATOM     29  C22 UNL A   1      42.943  34.542  34.748  1.00  0.00    +0.000 C 
ATOM     30  F3  UNL A   1      42.913  35.682  35.451  1.00  0.00    +0.000 F 
ATOM     31  C23 UNL A   1      42.414  33.379  35.287  1.00  0.00    +0.000 C 
ATOM     32  F4  UNL A   1      41.859  33.399  36.507  1.00  0.00    +0.000 F 
ENDBRANCH   23   24
BRANCH   40   41
ATOM     41  C30 UNL A   1      47.263  26.447  32.115  1.00  0.00    +0.000 C 
ATOM     42  C31 UNL A   1      48.452  26.801  31.462  1.00  0.00    +0.000 C 
ATOM     43  F6  UNL A   1      48.417  27.585  30.373  1.00  0.00    +0.000 F 
ATOM     44  C32 UNL A   1      49.680  26.310  31.897  1.00  0.00    +0.000 C 
ATOM     45  F7  UNL A   1      50.799  26.619  31.228  1.00  0.00    +0.000 F 
ATOM     46  C33 UNL A   1      49.745  25.487  33.012  1.00  0.00    +0.000 C 
ATOM     47  F8  UNL A   1      50.928  25.017  33.431  1.00  0.00    +0.000 F 
ATOM     48  C34 UNL A   1      48.583  25.144  33.687  1.00  0.00    +0.000 C 
ATOM     49  F9  UNL A   1      48.645  24.357  34.770  1.00  0.00    +0.000 F 
ATOM     50  C35 UNL A   1      47.351  25.610  33.237  1.00  0.00    +0.000 C 
ATOM     51  F10 UNL A   1      46.242  25.247  33.900  1.00  0.00    +0.000 F 
ENDBRANCH   40   41
BRANCH   55   56
ATOM     65  C44 UNL A   1      42.896  23.960  26.312  1.00  0.00    +0.000 C 
ATOM     66  F15 UNL A   1      43.247  25.126  25.751  1.00  0.00    +0.000 F 
ATOM     56  C39 UNL A   1      42.553  23.909  27.670  1.00  0.00    +0.000 C 
ATOM     57  C40 UNL A   1      42.187  22.667  28.205  1.00  0.00    +0.000 C 
ATOM     58  F11 UNL A   1      41.872  22.565  29.505  1.00  0.00    +0.000 F 
ATOM     59  C41 UNL A   1      42.190  21.516  27.421  1.00  0.00    +0.000 C 
ATOM     60  F12 UNL A   1      41.886  20.332  27.970  1.00  0.00    +0.000 F 
ATOM     61  C42 UNL A   1      42.529  21.590  26.078  1.00  0.00    +0.000 C 
ATOM     62  F13 UNL A   1      42.533  20.483  25.324  1.00  0.00    +0.000 F 
ATOM     63  C43 UNL A   1      42.872  22.813  25.521  1.00  0.00    +0.000 C 
ATOM     64  F14 UNL A   1      43.187  22.891  24.221  1.00  0.00    +0.000 F 
ENDBRANCH   55   56
TORSDOF 20
ENDMDL
MODEL 4
REMARK VINA RESULT:     -10.8      1.742      2.684
ROOT
ATOM     19  C15 UNL A   1      38.274  29.900  29.996  1.00  0.00    +0.000 C 
ATOM     20  C16 UNL A   1      38.558  30.419  31.377  1.00  0.00    +0.000 C 
ATOM     21  N3  UNL A   1      39.595  30.196  32.147  1.00  0.00    +0.000 N 
ATOM     22  C17 UNL A   1      39.374  30.935  33.302  1.00  0.00    +0.000 C 
ATOM     23  C18 UNL A   1      40.128  30.992  34.426  1.00  0.00    +0.000 C 
ATOM     35  C25 UNL A   1      41.354  30.263  34.623  1.00  0.00    +0.000 C 
ATOM     36  C26 UNL A   1      42.163  30.221  35.745  1.00  0.00    +0.000 C 
ATOM     37  C27 UNL A   1      43.263  29.403  35.462  1.00  0.00    +0.000 C 
ATOM     38  C28 UNL A   1      43.118  28.904  34.178  1.00  0.00    +0.000 C 
ATOM     39  N4  UNL A   1      41.946  29.445  33.673  1.00  0.00    +0.000 N 
ATOM     40  C29 UNL A   1      43.982  28.003  33.464  1.00  0.00    +0.000 C 
ATOM     52  C36 UNL A   1      43.764  27.554  32.203  1.00  0.00    +0.000 C 
ATOM     53  N5  UNL A   1      42.714  27.842  31.344  1.00  0.00    +0.000 N 
ATOM     54  C37 UNL A   1      42.965  27.189  30.237  1.00  0.00    +0.000 C 
ATOM     55  C38 UNL A   1      42.153  27.113  28.972  1.00  0.00    +0.000 C 
ATOM     67  C45 UNL A   1      40.980  27.770  28.903  1.00  0.00    +0.000 C 
ATOM     68  C46 UNL A   1      40.078  27.773  27.756  1.00  0.00    +0.000 C 
ATOM     69  C47 UNL A   1      39.021  28.554  28.030  1.00  0.00    +0.000 C 
ATOM     70  C48 UNL A   1      39.158  29.085  29.388  1.00  0.00    +0.000 C 
ATOM     71  N6  UNL A   1      40.350  28.567  29.828  1.00  0.00    +0.000 N 
ATOM     72  C49 UNL A   1      44.222  26.427  30.262  1.00  0.00    +0.000 C 
ATOM     73  C50 UNL A   1      44.647  26.650  31.497  1.00  0.00    +0.000 C 
ATOM     74  C51 UNL A   1      38.130  31.651  33.115  1.00  0.00    +0.000 C 
ATOM     75  C52 UNL A   1      37.558  31.325  31.964  1.00  0.00    +0.000 C 
ATOM    112  H21 UNL A   1      41.986  30.709  36.637  1.00  0.00    +0.000 H 
ATOM    113  H22 UNL A   1      44.048  29.205  36.102  1.00  0.00    +0.000 H 
ATOM    114  H23 UNL A   1      41.587  29.273  32.772  1.00  0.00    +0.000 H 
ATOM    115  H24 UNL A   1      40.229  27.257  26.874  1.00  0.00    +0.000 H 
ATOM    116  H25 UNL A   1      38.239  28.750  27.387  1.00  0.00    +0.000 H 
ATOM    117  H26 UNL A   1      40.719  28.748  30.723  1.00  0.00    +0.000 H 
ATOM    118  H27 UNL A   1      44.659  25.866  29.513  1.00  0.00    +0.000 H 
ATOM    119  H28 UNL A   1      45.499  26.232  31.904  1.00  0.00    +0.000 H 
ATOM    120  H29 UNL A   1      37.740  32.328  33.789  1.00  0.00    +0.000 H 
ATOM    121  H30 UNL A   1      36.649  31.625  31.580  1.00  0.00    +0.000 H 
ENDROOT
BRANCH   19   18
ATOM     76  C53 UNL A   1      35.996  29.408  29.084  1.00  0.00    +0.000 C 
ATOM     77  C54 UNL A   1      34.833  29.800  28.421  1.00  0.00    +0.000 C 
ATOM    110  H19 UNL A   1      35.628  33.005  27.828  1.00  0.00    +0.000 H 
ATOM     15  C11 UNL A   1      34.673  31.129  28.017  1.00  0.00    +0.000 C 
ATOM     16  C12 UNL A   1      35.727  32.035  28.167  1.00  0.00    +0.000 C 
ATOM     17  C13 UNL A   1      36.916  31.626  28.776  1.00  0.00    +0.000 C 
ATOM    111  H20 UNL A   1      37.702  32.289  28.864  1.00  0.00    +0.000 H 
ATOM     18  C14 UNL A   1      37.047  30.317  29.270  1.00  0.00    +0.000 C 
ATOM    122  H31 UNL A   1      36.083  28.443  29.439  1.00  0.00    +0.000 H 
ATOM    123  H32 UNL A   1      34.091  29.109  28.229  1.00  0.00    +0.000 H 
BRANCH   15   13
ATOM     13  C10 UNL A   1      33.412  31.605  27.406  1.00  0.00    +0.000 C 
ATOM     14  O2  UNL A   1      33.225  32.810  27.264  1.00  0.00    +0.000 O 
BRANCH   13   12
ATOM     12  N2  UNL A   1      32.446  30.711  27.022  1.00  0.00    +0.000 N 
ATOM    109  H18 UNL A   1      31.863  30.385  27.746  1.00  0.00    +0.000 H 
BRANCH   12   11
ATOM     11  C9  UNL A   1      32.157  30.173  25.703  1.00  0.00    +0.000 C 
ATOM    108  H17 UNL A   1      32.133  30.993  25.016  1.00  0.00    +0.000 H 
ATOM    107  H16 UNL A   1      31.216  29.662  25.740  1.00  0.00    +0.000 H 
BRANCH   11   10
ATOM    105  H14 UNL A   1      33.100  29.060  24.168  1.00  0.00    +0.000 H 
ATOM     10  C8  UNL A   1      33.226  29.195  25.222  1.00  0.00    +0.000 C 
ATOM    106  H15 UNL A   1      34.167  29.631  25.488  1.00  0.00    +0.000 H 
BRANCH   10    9
ATOM      9  C7  UNL A   1      33.195  27.816  25.883  1.00  0.00    +0.000 C 
ATOM    103  H12 UNL A   1      33.654  27.901  26.846  1.00  0.00    +0.000 H 
ATOM    104  H13 UNL A   1      32.164  27.530  25.923  1.00  0.00    +0.000 H 
BRANCH    9    8
ATOM    101  H10 UNL A   1      33.314  26.452  24.265  1.00  0.00    +0.000 H 
ATOM    102  H11 UNL A   1      34.876  27.098  24.862  1.00  0.00    +0.000 H 
ATOM      8  C6  UNL A   1      33.913  26.706  25.114  1.00  0.00    +0.000 C 
BRANCH    8    7
ATOM     99  H8  UNL A   1      34.889  25.643  26.674  1.00  0.00    +0.000 H 
ATOM    100  H9  UNL A   1      33.231  25.098  26.281  1.00  0.00    +0.000 H 
ATOM      7  C5  UNL A   1      34.179  25.418  25.906  1.00  0.00    +0.000 C 
BRANCH    7    6
ATOM     97  H6  UNL A   1      34.618  24.474  24.040  1.00  0.00    +0.000 H 
ATOM     98  H7  UNL A   1      35.758  24.113  25.334  1.00  0.00    +0.000 H 
ATOM      6  C4  UNL A   1      34.728  24.247  25.080  1.00  0.00    +0.000 C 
BRANCH    6    5
ATOM      5  N1  UNL A   1      34.024  23.012  25.370  1.00  0.00    +0.000 N 
ATOM     96  H5  UNL A   1      33.872  22.786  26.316  1.00  0.00    +0.000 H 
BRANCH    5    3
ATOM      3  C3  UNL A   1      33.555  22.136  24.424  1.00  0.00    +0.000 C 
ATOM      4  O1  UNL A   1      34.307  21.210  24.117  1.00  0.00    +0.000 O 
BRANCH    3    2
ATOM      2  C2  UNL A   1      32.141  22.340  23.846  1.00  0.00    +0.000 C 
ATOM     95  H4  UNL A   1      31.478  21.734  24.430  1.00  0.00    +0.000 H 
BRANCH    2    1
ATOM      1  C1  UNL A   1      32.183  21.913  22.373  1.00  0.00    +0.000 C 
ATOM     92  H1  UNL A   1      33.103  22.239  21.934  1.00  0.00    +0.000 H 
ATOM     93  H2  UNL A   1      31.362  22.357  21.850  1.00  0.00    +0.000 H 
ATOM     94  H3  UNL A   1      32.115  20.847  22.308  1.00  0.00    +0.000 H 
ENDBRANCH    2    1
BRANCH    2   78
ATOM    137  H46 UNL A   1      29.627  25.624  26.069  1.00  0.00    +0.000 H 
ATOM     78  C55 UNL A   1      31.531  23.744  24.003  1.00  0.00    +0.000 C 
ATOM     79  C56 UNL A   1      31.657  24.715  22.990  1.00  0.00    +0.000 C 
ATOM     80  C57 UNL A   1      31.062  25.976  23.087  1.00  0.00    +0.000 C 
ATOM     81  C58 UNL A   1      30.327  26.332  24.213  1.00  0.00    +0.000 C 
ATOM     89  C65 UNL A   1      30.188  25.389  25.235  1.00  0.00    +0.000 C 
ATOM     90  C66 UNL A   1      30.800  24.127  25.147  1.00  0.00    +0.000 C 
ATOM     91 Br1  UNL A   1      30.628  23.031  26.698  1.00  0.00    +0.000 Br
ATOM    124  H33 UNL A   1      32.207  24.487  22.147  1.00  0.00    +0.000 H 
ATOM    125  H34 UNL A   1      31.170  26.652  22.315  1.00  0.00    +0.000 H 
BRANCH   81   82
ATOM     82  C59 UNL A   1      29.727  27.710  24.335  1.00  0.00    +0.000 C 
ATOM    126  H35 UNL A   1      30.450  28.343  24.805  1.00  0.00    +0.000 H 
ATOM    127  H36 UNL A   1      28.825  27.587  24.899  1.00  0.00    +0.000 H 
BRANCH   82   83
ATOM    129  H38 UNL A   1      27.417  28.953  23.878  1.00  0.00    +0.000 H 
ATOM    130  H39 UNL A   1      27.243  28.019  22.441  1.00  0.00    +0.000 H 
ATOM    131  H40 UNL A   1      27.555  30.911  22.711  1.00  0.00    +0.000 H 
ATOM    132  H41 UNL A   1      27.078  30.042  21.305  1.00  0.00    +0.000 H 
ATOM    133  H42 UNL A   1      29.452  31.269  21.377  1.00  0.00    +0.000 H 
ATOM    134  H43 UNL A   1      29.353  29.765  20.585  1.00  0.00    +0.000 H 
ATOM    135  H44 UNL A   1      30.239  30.309  23.455  1.00  0.00    +0.000 H 
ATOM     83  C60 UNL A   1      29.306  28.375  23.015  1.00  0.00    +0.000 C 
ATOM     84  C61 UNL A   1      27.828  28.785  22.905  1.00  0.00    +0.000 C 
ATOM     85  C62 UNL A   1      27.807  30.080  22.087  1.00  0.00    +0.000 C 
ATOM     86  C63 UNL A   1      29.215  30.238  21.535  1.00  0.00    +0.000 C 
ATOM     87  C64 UNL A   1      30.079  29.641  22.635  1.00  0.00    +0.000 C 
ATOM    128  H37 UNL A   1      29.529  27.565  22.353  1.00  0.00    +0.000 H 
BRANCH   87   88
ATOM    136  H45 UNL A   1      31.319  28.629  21.496  1.00  0.00    +0.000 H 
ATOM     88  O3  UNL A   1      31.378  29.324  22.169  1.00  0.00    +0.000 O 
ENDBRANCH   87   88
ENDBRANCH   82   83
ENDBRANCH   81   82
ENDBRANCH    2   78
ENDBRANCH    3    2
ENDBRANCH    5    3
ENDBRANCH    6    5
ENDBRANCH    7    6
ENDBRANCH    8    7
ENDBRANCH    9    8
ENDBRANCH   10    9
ENDBRANCH   11   10
ENDBRANCH   12   11
ENDBRANCH   13   12
ENDBRANCH   15   13
ENDBRANCH   19   18
BRANCH   23   24
ATOM     33  C24 UNL A   1      38.658  31.405  36.435  1.00  0.00    +0.000 C 
ATOM     34  F5  UNL A   1      38.175  30.157  36.324  1.00  0.00    +0.000 F 
ATOM     24  C19 UNL A   1      39.642  31.864  35.546  1.00  0.00    +0.000 C 
ATOM     25  C20 UNL A   1      40.109  33.178  35.704  1.00  0.00    +0.000 C 
ATOM     26  F1  UNL A   1      41.056  33.659  34.886  1.00  0.00    +0.000 F 
ATOM     27  C21 UNL A   1      39.621  33.993  36.722  1.00  0.00    +0.000 C 
ATOM     28  F2  UNL A   1      40.106  35.233  36.875  1.00  0.00    +0.000 F 
ATOM     29  C22 UNL A   1      38.640  33.522  37.582  1.00  0.00    +0.000 C 
ATOM     30  F3  UNL A   1      38.163  34.313  38.553  1.00  0.00    +0.000 F 
ATOM     31  C23 UNL A   1      38.155  32.231  37.436  1.00  0.00    +0.000 C 
ATOM     32  F4  UNL A   1      37.199  31.779  38.259  1.00  0.00    +0.000 F 
ENDBRANCH   23   24
BRANCH   40   41
ATOM     41  C30 UNL A   1      45.210  27.501  34.163  1.00  0.00    +0.000 C 
ATOM     42  C31 UNL A   1      45.191  26.323  34.924  1.00  0.00    +0.000 C 
ATOM     43  F6  UNL A   1      44.048  25.635  35.074  1.00  0.00    +0.000 F 
ATOM     44  C32 UNL A   1      46.336  25.872  35.574  1.00  0.00    +0.000 C 
ATOM     45  F7  UNL A   1      46.283  24.772  36.337  1.00  0.00    +0.000 F 
ATOM     46  C33 UNL A   1      47.528  26.570  35.447  1.00  0.00    +0.000 C 
ATOM     47  F8  UNL A   1      48.631  26.134  36.071  1.00  0.00    +0.000 F 
ATOM     48  C34 UNL A   1      47.575  27.725  34.680  1.00  0.00    +0.000 C 
ATOM     49  F9  UNL A   1      48.729  28.395  34.549  1.00  0.00    +0.000 F 
ATOM     50  C35 UNL A   1      46.425  28.193  34.052  1.00  0.00    +0.000 C 
ATOM     51  F10 UNL A   1      46.497  29.323  33.332  1.00  0.00    +0.000 F 
ENDBRANCH   40   41
BRANCH   55   56
ATOM     65  C44 UNL A   1      42.213  24.977  27.641  1.00  0.00    +0.000 C 
ATOM     66  F15 UNL A   1      41.397  24.402  28.536  1.00  0.00    +0.000 F 
ATOM     56  C39 UNL A   1      42.624  26.306  27.818  1.00  0.00    +0.000 C 
ATOM     57  C40 UNL A   1      43.482  26.857  26.857  1.00  0.00    +0.000 C 
ATOM     58  F11 UNL A   1      43.885  28.131  26.973  1.00  0.00    +0.000 F 
ATOM     59  C41 UNL A   1      43.891  26.119  25.749  1.00  0.00    +0.000 C 
ATOM     60  F12 UNL A   1      44.670  26.687  24.819  1.00  0.00    +0.000 F 
ATOM     61  C42 UNL A   1      43.475  24.805  25.596  1.00  0.00    +0.000 C 
ATOM     62  F13 UNL A   1      43.867  24.096  24.530  1.00  0.00    +0.000 F 
ATOM     63  C43 UNL A   1      42.644  24.231  26.547  1.00  0.00    +0.000 C 
ATOM     64  F14 UNL A   1      42.250  22.957  26.410  1.00  0.00    +0.000 F 
ENDBRANCH   55   56
TORSDOF 20
ENDMDL
MODEL 5
REMARK VINA RESULT:     -10.7      3.436      4.782
ROOT
ATOM     19  C15 UNL A   1      40.134  28.864  29.164  1.00  0.00    +0.000 C 
ATOM     20  C16 UNL A   1      41.013  29.806  29.937  1.00  0.00    +0.000 C 
ATOM     21  N3  UNL A   1      42.277  29.683  30.258  1.00  0.00    +0.000 N 
ATOM     22  C17 UNL A   1      42.608  30.843  30.946  1.00  0.00    +0.000 C 
ATOM     23  C18 UNL A   1      43.783  31.169  31.536  1.00  0.00    +0.000 C 
ATOM     35  C25 UNL A   1      44.951  30.328  31.548  1.00  0.00    +0.000 C 
ATOM     36  C26 UNL A   1      46.172  30.552  32.159  1.00  0.00    +0.000 C 
ATOM     37  C27 UNL A   1      47.012  29.471  31.872  1.00  0.00    +0.000 C 
ATOM     38  C28 UNL A   1      46.302  28.555  31.114  1.00  0.00    +0.000 C 
ATOM     39  N4  UNL A   1      45.042  29.096  30.917  1.00  0.00    +0.000 N 
ATOM     40  C29 UNL A   1      46.739  27.282  30.606  1.00  0.00    +0.000 C 
ATOM     52  C36 UNL A   1      45.975  26.435  29.873  1.00  0.00    +0.000 C 
ATOM     53  N5  UNL A   1      44.660  26.586  29.456  1.00  0.00    +0.000 N 
ATOM     54  C37 UNL A   1      44.380  25.514  28.757  1.00  0.00    +0.000 C 
ATOM     55  C38 UNL A   1      43.090  25.128  28.084  1.00  0.00    +0.000 C 
ATOM     67  C45 UNL A   1      42.024  25.944  28.188  1.00  0.00    +0.000 C 
ATOM     68  C46 UNL A   1      40.708  25.694  27.608  1.00  0.00    +0.000 C 
ATOM     69  C47 UNL A   1      39.902  26.729  27.889  1.00  0.00    +0.000 C 
ATOM     70  C48 UNL A   1      40.637  27.705  28.695  1.00  0.00    +0.000 C 
ATOM     71  N6  UNL A   1      41.889  27.155  28.822  1.00  0.00    +0.000 N 
ATOM     72  C49 UNL A   1      45.499  24.569  28.632  1.00  0.00    +0.000 C 
ATOM     73  C50 UNL A   1      46.432  25.158  29.365  1.00  0.00    +0.000 C 
ATOM     74  C51 UNL A   1      41.427  31.680  30.956  1.00  0.00    +0.000 C 
ATOM     75  C52 UNL A   1      40.398  31.063  30.393  1.00  0.00    +0.000 C 
ATOM    112  H21 UNL A   1      46.420  31.376  32.730  1.00  0.00    +0.000 H 
ATOM    113  H22 UNL A   1      47.995  29.373  32.173  1.00  0.00    +0.000 H 
ATOM    114  H23 UNL A   1      44.317  28.668  30.405  1.00  0.00    +0.000 H 
ATOM    115  H24 UNL A   1      40.441  24.855  27.069  1.00  0.00    +0.000 H 
ATOM    116  H25 UNL A   1      38.920  26.823  27.585  1.00  0.00    +0.000 H 
ATOM    117  H26 UNL A   1      42.620  27.586  29.320  1.00  0.00    +0.000 H 
ATOM    118  H27 UNL A   1      45.546  23.680  28.109  1.00  0.00    +0.000 H 
ATOM    119  H28 UNL A   1      47.365  24.759  29.551  1.00  0.00    +0.000 H 
ATOM    120  H29 UNL A   1      41.392  32.634  31.348  1.00  0.00    +0.000 H 
ATOM    121  H30 UNL A   1      39.420  31.379  30.300  1.00  0.00    +0.000 H 
ENDROOT
BRANCH   19   18
ATOM     76  C53 UNL A   1      37.736  29.066  29.848  1.00  0.00    +0.000 C 
ATOM     77  C54 UNL A   1      36.413  29.418  29.581  1.00  0.00    +0.000 C 
ATOM    110  H19 UNL A   1      36.797  30.534  26.440  1.00  0.00    +0.000 H 
ATOM     15  C11 UNL A   1      36.081  30.012  28.359  1.00  0.00    +0.000 C 
ATOM     16  C12 UNL A   1      37.050  30.138  27.360  1.00  0.00    +0.000 C 
ATOM     17  C13 UNL A   1      38.363  29.729  27.606  1.00  0.00    +0.000 C 
ATOM    111  H20 UNL A   1      39.072  29.801  26.860  1.00  0.00    +0.000 H 
ATOM     18  C14 UNL A   1      38.723  29.220  28.865  1.00  0.00    +0.000 C 
ATOM    122  H31 UNL A   1      37.988  28.689  30.776  1.00  0.00    +0.000 H 
ATOM    123  H32 UNL A   1      35.679  29.241  30.285  1.00  0.00    +0.000 H 
BRANCH   15   13
ATOM     13  C10 UNL A   1      34.709  30.494  28.080  1.00  0.00    +0.000 C 
ATOM     14  O2  UNL A   1      34.366  31.603  28.477  1.00  0.00    +0.000 O 
BRANCH   13   12
ATOM     12  N2  UNL A   1      33.818  29.700  27.405  1.00  0.00    +0.000 N 
ATOM    109  H18 UNL A   1      33.000  29.469  27.901  1.00  0.00    +0.000 H 
BRANCH   12   11
ATOM     11  C9  UNL A   1      33.905  29.148  26.063  1.00  0.00    +0.000 C 
ATOM    108  H17 UNL A   1      34.854  29.429  25.657  1.00  0.00    +0.000 H 
ATOM    107  H16 UNL A   1      33.096  29.538  25.479  1.00  0.00    +0.000 H 
BRANCH   11   10
ATOM    105  H14 UNL A   1      34.773  27.242  26.377  1.00  0.00    +0.000 H 
ATOM     10  C8  UNL A   1      33.828  27.623  26.050  1.00  0.00    +0.000 C 
ATOM    106  H15 UNL A   1      33.015  27.363  26.695  1.00  0.00    +0.000 H 
BRANCH   10    9
ATOM      9  C7  UNL A   1      33.509  26.997  24.691  1.00  0.00    +0.000 C 
ATOM    103  H12 UNL A   1      32.459  26.796  24.658  1.00  0.00    +0.000 H 
ATOM    104  H13 UNL A   1      33.834  27.703  23.956  1.00  0.00    +0.000 H 
BRANCH    9    8
ATOM    101  H10 UNL A   1      33.635  25.113  23.728  1.00  0.00    +0.000 H 
ATOM    102  H11 UNL A   1      35.186  25.984  23.952  1.00  0.00    +0.000 H 
ATOM      8  C6  UNL A   1      34.249  25.695  24.382  1.00  0.00    +0.000 C 
BRANCH    8    7
ATOM     99  H8  UNL A   1      35.306  25.362  26.196  1.00  0.00    +0.000 H 
ATOM    100  H9  UNL A   1      33.673  24.635  26.102  1.00  0.00    +0.000 H 
ATOM      7  C5  UNL A   1      34.597  24.826  25.599  1.00  0.00    +0.000 C 
BRANCH    7    6
ATOM     97  H6  UNL A   1      36.222  23.580  24.991  1.00  0.00    +0.000 H 
ATOM     98  H7  UNL A   1      35.112  22.834  26.139  1.00  0.00    +0.000 H 
ATOM      6  C4  UNL A   1      35.197  23.453  25.270  1.00  0.00    +0.000 C 
BRANCH    6    5
ATOM      5  N1  UNL A   1      34.488  22.807  24.181  1.00  0.00    +0.000 N 
ATOM     96  H5  UNL A   1      34.618  23.170  23.275  1.00  0.00    +0.000 H 
BRANCH    5    3
ATOM      3  C3  UNL A   1      33.651  21.729  24.321  1.00  0.00    +0.000 C 
ATOM      4  O1  UNL A   1      34.146  20.713  24.809  1.00  0.00    +0.000 O 
BRANCH    3    2
ATOM      2  C2  UNL A   1      32.174  21.865  23.903  1.00  0.00    +0.000 C 
ATOM     95  H4  UNL A   1      31.604  21.261  24.579  1.00  0.00    +0.000 H 
BRANCH    2    1
ATOM      1  C1  UNL A   1      32.064  21.385  22.450  1.00  0.00    +0.000 C 
ATOM     92  H1  UNL A   1      31.069  21.037  22.264  1.00  0.00    +0.000 H 
ATOM     93  H2  UNL A   1      32.757  20.587  22.285  1.00  0.00    +0.000 H 
ATOM     94  H3  UNL A   1      32.288  22.195  21.788  1.00  0.00    +0.000 H 
ENDBRANCH    2    1
BRANCH    2   78
ATOM    137  H46 UNL A   1      30.220  25.319  26.412  1.00  0.00    +0.000 H 
ATOM     78  C55 UNL A   1      31.536  23.254  24.081  1.00  0.00    +0.000 C 
ATOM     79  C56 UNL A   1      31.269  24.086  22.977  1.00  0.00    +0.000 C 
ATOM     80  C57 UNL A   1      30.637  25.325  23.110  1.00  0.00    +0.000 C 
ATOM     81  C58 UNL A   1      30.258  25.800  24.362  1.00  0.00    +0.000 C 
ATOM     89  C65 UNL A   1      30.514  24.997  25.477  1.00  0.00    +0.000 C 
ATOM     90  C66 UNL A   1      31.164  23.758  25.346  1.00  0.00    +0.000 C 
ATOM     91 Br1  UNL A   1      31.562  22.872  26.987  1.00  0.00    +0.000 Br
ATOM    124  H33 UNL A   1      31.549  23.768  22.035  1.00  0.00    +0.000 H 
ATOM    125  H34 UNL A   1      30.451  25.896  22.271  1.00  0.00    +0.000 H 
BRANCH   81   82
ATOM     82  C59 UNL A   1      29.621  27.159  24.508  1.00  0.00    +0.000 C 
ATOM    126  H35 UNL A   1      30.266  27.762  25.111  1.00  0.00    +0.000 H 
ATOM    127  H36 UNL A   1      28.658  26.984  24.942  1.00  0.00    +0.000 H 
BRANCH   82   83
ATOM    129  H38 UNL A   1      27.419  28.534  23.915  1.00  0.00    +0.000 H 
ATOM    130  H39 UNL A   1      27.345  27.692  22.413  1.00  0.00    +0.000 H 
ATOM    131  H40 UNL A   1      27.750  30.546  22.887  1.00  0.00    +0.000 H 
ATOM    132  H41 UNL A   1      27.374  29.781  21.392  1.00  0.00    +0.000 H 
ATOM    133  H42 UNL A   1      29.779  30.888  21.758  1.00  0.00    +0.000 H 
ATOM    134  H43 UNL A   1      29.693  29.438  20.871  1.00  0.00    +0.000 H 
ATOM    135  H44 UNL A   1      30.323  29.776  23.839  1.00  0.00    +0.000 H 
ATOM     83  C60 UNL A   1      29.356  27.916  23.197  1.00  0.00    +0.000 C 
ATOM     84  C61 UNL A   1      27.914  28.401  22.975  1.00  0.00    +0.000 C 
ATOM     85  C62 UNL A   1      28.025  29.740  22.240  1.00  0.00    +0.000 C 
ATOM     86  C63 UNL A   1      29.485  29.862  21.831  1.00  0.00    +0.000 C 
ATOM     87  C64 UNL A   1      30.215  29.163  22.968  1.00  0.00    +0.000 C 
ATOM    128  H37 UNL A   1      29.607  27.135  22.510  1.00  0.00    +0.000 H 
BRANCH   87   88
ATOM    136  H45 UNL A   1      31.519  28.273  21.800  1.00  0.00    +0.000 H 
ATOM     88  O3  UNL A   1      31.537  28.813  22.606  1.00  0.00    +0.000 O 
ENDBRANCH   87   88
ENDBRANCH   82   83
ENDBRANCH   81   82
ENDBRANCH    2   78
ENDBRANCH    3    2
ENDBRANCH    5    3
ENDBRANCH    6    5
ENDBRANCH    7    6
ENDBRANCH    8    7
ENDBRANCH    9    8
ENDBRANCH   10    9
ENDBRANCH   11   10
ENDBRANCH   12   11
ENDBRANCH   13   12
ENDBRANCH   15   13
ENDBRANCH   19   18
BRANCH   23   24
ATOM     33  C24 UNL A   1      43.485  32.612  33.585  1.00  0.00    +0.000 C 
ATOM     34  F5  UNL A   1      43.091  31.531  34.276  1.00  0.00    +0.000 F 
ATOM     24  C19 UNL A   1      43.864  32.492  32.239  1.00  0.00    +0.000 C 
ATOM     25  C20 UNL A   1      44.263  33.655  31.563  1.00  0.00    +0.000 C 
ATOM     26  F1  UNL A   1      44.644  33.590  30.279  1.00  0.00    +0.000 F 
ATOM     27  C21 UNL A   1      44.295  34.886  32.213  1.00  0.00    +0.000 C 
ATOM     28  F2  UNL A   1      44.711  35.978  31.556  1.00  0.00    +0.000 F 
ATOM     29  C22 UNL A   1      43.904  34.983  33.540  1.00  0.00    +0.000 C 
ATOM     30  F3  UNL A   1      43.924  36.171  34.160  1.00  0.00    +0.000 F 
ATOM     31  C23 UNL A   1      43.495  33.849  34.225  1.00  0.00    +0.000 C 
ATOM     32  F4  UNL A   1      43.106  33.943  35.503  1.00  0.00    +0.000 F 
ENDBRANCH   23   24
BRANCH   40   41
ATOM     41  C30 UNL A   1      48.137  26.839  30.921  1.00  0.00    +0.000 C 
ATOM     42  C31 UNL A   1      48.417  26.023  32.026  1.00  0.00    +0.000 C 
ATOM     43  F6  UNL A   1      47.430  25.650  32.856  1.00  0.00    +0.000 F 
ATOM     44  C32 UNL A   1      49.720  25.625  32.310  1.00  0.00    +0.000 C 
ATOM     45  F7  UNL A   1      49.972  24.888  33.400  1.00  0.00    +0.000 F 
ATOM     46  C33 UNL A   1      50.761  26.007  31.477  1.00  0.00    +0.000 C 
ATOM     47  F8  UNL A   1      52.016  25.622  31.750  1.00  0.00    +0.000 F 
ATOM     48  C34 UNL A   1      50.504  26.795  30.365  1.00  0.00    +0.000 C 
ATOM     49  F9  UNL A   1      51.508  27.156  29.553  1.00  0.00    +0.000 F 
ATOM     50  C35 UNL A   1      49.206  27.217  30.094  1.00  0.00    +0.000 C 
ATOM     51  F10 UNL A   1      48.989  27.993  29.021  1.00  0.00    +0.000 F 
ENDBRANCH   40   41
BRANCH   55   56
ATOM     65  C44 UNL A   1      43.357  23.769  25.982  1.00  0.00    +0.000 C 
ATOM     66  F15 UNL A   1      43.800  24.859  25.339  1.00  0.00    +0.000 F 
ATOM     56  C39 UNL A   1      42.982  23.853  27.331  1.00  0.00    +0.000 C 
ATOM     57  C40 UNL A   1      42.519  22.686  27.954  1.00  0.00    +0.000 C 
ATOM     58  F11 UNL A   1      42.170  22.713  29.249  1.00  0.00    +0.000 F 
ATOM     59  C41 UNL A   1      42.459  21.477  27.265  1.00  0.00    +0.000 C 
ATOM     60  F12 UNL A   1      42.061  20.366  27.899  1.00  0.00    +0.000 F 
ATOM     61  C42 UNL A   1      42.830  21.418  25.930  1.00  0.00    +0.000 C 
ATOM     62  F13 UNL A   1      42.774  20.255  25.268  1.00  0.00    +0.000 F 
ATOM     63  C43 UNL A   1      43.270  22.565  25.286  1.00  0.00    +0.000 C 
ATOM     64  F14 UNL A   1      43.617  22.515  23.993  1.00  0.00    +0.000 F 
ENDBRANCH   55   56
TORSDOF 20
ENDMDL
MODEL 6
REMARK VINA RESULT:     -10.6     20.597     26.559
ROOT
ATOM     19  C15 UNL A   1      52.782  20.273  11.337  1.00  0.00    +0.000 C 
ATOM     20  C16 UNL A   1      54.086  19.566  11.097  1.00  0.00    +0.000 C 
ATOM     21  N3  UNL A   1      55.108  19.419  11.903  1.00  0.00    +0.000 N 
ATOM     22  C17 UNL A   1      56.038  18.664  11.202  1.00  0.00    +0.000 C 
ATOM     23  C18 UNL A   1      57.285  18.293  11.582  1.00  0.00    +0.000 C 
ATOM     35  C25 UNL A   1      57.887  18.633  12.844  1.00  0.00    +0.000 C 
ATOM     36  C26 UNL A   1      59.161  18.343  13.300  1.00  0.00    +0.000 C 
ATOM     37  C27 UNL A   1      59.289  18.848  14.598  1.00  0.00    +0.000 C 
ATOM     38  C28 UNL A   1      58.108  19.487  14.937  1.00  0.00    +0.000 C 
ATOM     39  N4  UNL A   1      57.255  19.342  13.854  1.00  0.00    +0.000 N 
ATOM     40  C29 UNL A   1      57.780  20.179  16.155  1.00  0.00    +0.000 C 
ATOM     52  C36 UNL A   1      56.596  20.788  16.407  1.00  0.00    +0.000 C 
ATOM     53  N5  UNL A   1      55.475  20.885  15.596  1.00  0.00    +0.000 N 
ATOM     54  C37 UNL A   1      54.583  21.546  16.292  1.00  0.00    +0.000 C 
ATOM     55  C38 UNL A   1      53.191  21.964  15.901  1.00  0.00    +0.000 C 
ATOM     67  C45 UNL A   1      52.736  21.667  14.670  1.00  0.00    +0.000 C 
ATOM     68  C46 UNL A   1      51.421  22.022  14.145  1.00  0.00    +0.000 C 
ATOM     69  C47 UNL A   1      51.302  21.541  12.898  1.00  0.00    +0.000 C 
ATOM     70  C48 UNL A   1      52.546  20.866  12.524  1.00  0.00    +0.000 C 
ATOM     71  N6  UNL A   1      53.339  20.990  13.637  1.00  0.00    +0.000 N 
ATOM     72  C49 UNL A   1      55.034  21.924  17.638  1.00  0.00    +0.000 C 
ATOM     73  C50 UNL A   1      56.280  21.476  17.642  1.00  0.00    +0.000 C 
ATOM     74  C51 UNL A   1      55.443  18.341   9.923  1.00  0.00    +0.000 C 
ATOM     75  C52 UNL A   1      54.259  18.921   9.786  1.00  0.00    +0.000 C 
ATOM    112  H21 UNL A   1      59.892  17.840  12.772  1.00  0.00    +0.000 H 
ATOM    113  H22 UNL A   1      60.122  18.759  15.202  1.00  0.00    +0.000 H 
ATOM    114  H23 UNL A   1      56.335  19.691  13.810  1.00  0.00    +0.000 H 
ATOM    115  H24 UNL A   1      50.699  22.558  14.653  1.00  0.00    +0.000 H 
ATOM    116  H25 UNL A   1      50.467  21.632  12.299  1.00  0.00    +0.000 H 
ATOM    117  H26 UNL A   1      54.253  20.629  13.691  1.00  0.00    +0.000 H 
ATOM    118  H27 UNL A   1      54.515  22.411  18.386  1.00  0.00    +0.000 H 
ATOM    119  H28 UNL A   1      56.943  21.601  18.423  1.00  0.00    +0.000 H 
ATOM    120  H29 UNL A   1      55.882  17.737   9.211  1.00  0.00    +0.000 H 
ATOM    121  H30 UNL A   1      53.624  18.922   8.972  1.00  0.00    +0.000 H 
ENDROOT
BRANCH   19   18
ATOM     76  C53 UNL A   1      50.949  19.136  10.068  1.00  0.00    +0.000 C 
ATOM     77  C54 UNL A   1      49.941  19.146   9.104  1.00  0.00    +0.000 C 
ATOM    110  H19 UNL A   1      50.234  22.325   8.075  1.00  0.00    +0.000 H 
ATOM     15  C11 UNL A   1      49.638  20.327   8.420  1.00  0.00    +0.000 C 
ATOM     16  C12 UNL A   1      50.427  21.465   8.612  1.00  0.00    +0.000 C 
ATOM     17  C13 UNL A   1      51.476  21.439   9.534  1.00  0.00    +0.000 C 
ATOM    111  H20 UNL A   1      52.072  22.272   9.657  1.00  0.00    +0.000 H 
ATOM     18  C14 UNL A   1      51.724  20.283  10.294  1.00  0.00    +0.000 C 
ATOM    122  H31 UNL A   1      51.125  18.281  10.618  1.00  0.00    +0.000 H 
ATOM    123  H32 UNL A   1      49.418  18.280   8.896  1.00  0.00    +0.000 H 
BRANCH   15   13
ATOM     13  C10 UNL A   1      48.508  20.401   7.467  1.00  0.00    +0.000 C 
ATOM     14  O2  UNL A   1      48.241  21.470   6.927  1.00  0.00    +0.000 O 
BRANCH   13   12
ATOM     12  N2  UNL A   1      47.746  19.291   7.207  1.00  0.00    +0.000 N 
ATOM    109  H18 UNL A   1      47.034  19.106   7.861  1.00  0.00    +0.000 H 
BRANCH   12   11
ATOM     11  C9  UNL A   1      47.836  18.348   6.105  1.00  0.00    +0.000 C 
ATOM    108  H17 UNL A   1      48.121  17.400   6.511  1.00  0.00    +0.000 H 
ATOM    107  H16 UNL A   1      48.559  18.709   5.402  1.00  0.00    +0.000 H 
BRANCH   11   10
ATOM    105  H14 UNL A   1      46.366  17.116   5.205  1.00  0.00    +0.000 H 
ATOM     10  C8  UNL A   1      46.503  18.162   5.382  1.00  0.00    +0.000 C 
ATOM    106  H15 UNL A   1      45.758  18.589   6.022  1.00  0.00    +0.000 H 
BRANCH   10    9
ATOM      9  C7  UNL A   1      46.380  18.890   4.042  1.00  0.00    +0.000 C 
ATOM    103  H12 UNL A   1      47.085  19.693   4.036  1.00  0.00    +0.000 H 
ATOM    104  H13 UNL A   1      46.562  18.153   3.288  1.00  0.00    +0.000 H 
BRANCH    9    8
ATOM    101  H10 UNL A   1      44.611  18.972   2.876  1.00  0.00    +0.000 H 
ATOM    102  H11 UNL A   1      44.415  19.320   4.624  1.00  0.00    +0.000 H 
ATOM      8  C6  UNL A   1      44.998  19.471   3.740  1.00  0.00    +0.000 C 
BRANCH    8    7
ATOM     99  H8  UNL A   1      44.617  21.470   4.356  1.00  0.00    +0.000 H 
ATOM    100  H9  UNL A   1      45.955  21.258   3.187  1.00  0.00    +0.000 H 
ATOM      7  C5  UNL A   1      44.961  20.982   3.468  1.00  0.00    +0.000 C 
BRANCH    7    6
ATOM     97  H6  UNL A   1      43.085  21.648   2.694  1.00  0.00    +0.000 H 
ATOM     98  H7  UNL A   1      44.496  22.268   1.839  1.00  0.00    +0.000 H 
ATOM      6  C4  UNL A   1      44.055  21.413   2.308  1.00  0.00    +0.000 C 
BRANCH    6    5
ATOM      5  N1  UNL A   1      43.924  20.366   1.312  1.00  0.00    +0.000 N 
ATOM     96  H5  UNL A   1      44.753  19.967   0.960  1.00  0.00    +0.000 H 
BRANCH    5    3
ATOM      3  C3  UNL A   1      42.733  19.890   0.826  1.00  0.00    +0.000 C 
ATOM      4  O1  UNL A   1      42.780  19.305  -0.256  1.00  0.00    +0.000 O 
BRANCH    3    2
ATOM      2  C2  UNL A   1      41.452  20.080   1.660  1.00  0.00    +0.000 C 
ATOM     95  H4  UNL A   1      41.714  20.694   2.497  1.00  0.00    +0.000 H 
BRANCH    2    1
ATOM      1  C1  UNL A   1      40.970  18.686   2.082  1.00  0.00    +0.000 C 
ATOM     92  H1  UNL A   1      41.785  17.995   2.025  1.00  0.00    +0.000 H 
ATOM     93  H2  UNL A   1      40.186  18.367   1.427  1.00  0.00    +0.000 H 
ATOM     94  H3  UNL A   1      40.603  18.723   3.087  1.00  0.00    +0.000 H 
ENDBRANCH    2    1
BRANCH    2   78
ATOM    137  H46 UNL A   1      37.012  21.553   1.248  1.00  0.00    +0.000 H 
ATOM     78  C55 UNL A   1      40.317  20.886   1.002  1.00  0.00    +0.000 C 
ATOM     79  C56 UNL A   1      40.532  21.628  -0.176  1.00  0.00    +0.000 C 
ATOM     80  C57 UNL A   1      39.504  22.319  -0.821  1.00  0.00    +0.000 C 
ATOM     81  C58 UNL A   1      38.211  22.315  -0.307  1.00  0.00    +0.000 C 
ATOM     89  C65 UNL A   1      37.969  21.589   0.863  1.00  0.00    +0.000 C 
ATOM     90  C66 UNL A   1      39.006  20.908   1.522  1.00  0.00    +0.000 C 
ATOM     91 Br1  UNL A   1      38.521  20.100   3.180  1.00  0.00    +0.000 Br
ATOM    124  H33 UNL A   1      41.483  21.662  -0.575  1.00  0.00    +0.000 H 
ATOM    125  H34 UNL A   1      39.705  22.840  -1.688  1.00  0.00    +0.000 H 
BRANCH   81   82
ATOM     82  C59 UNL A   1      37.113  23.101  -0.979  1.00  0.00    +0.000 C 
ATOM    126  H35 UNL A   1      37.568  23.906  -1.517  1.00  0.00    +0.000 H 
ATOM    127  H36 UNL A   1      36.459  23.418  -0.193  1.00  0.00    +0.000 H 
BRANCH   82   83
ATOM    129  H38 UNL A   1      34.499  23.438  -1.352  1.00  0.00    +0.000 H 
ATOM    130  H39 UNL A   1      34.294  21.737  -1.179  1.00  0.00    +0.000 H 
ATOM    131  H40 UNL A   1      33.792  23.405  -3.523  1.00  0.00    +0.000 H 
ATOM    132  H41 UNL A   1      33.293  21.778  -3.278  1.00  0.00    +0.000 H 
ATOM    133  H42 UNL A   1      35.154  22.342  -5.112  1.00  0.00    +0.000 H 
ATOM    134  H43 UNL A   1      35.329  20.909  -4.209  1.00  0.00    +0.000 H 
ATOM    135  H44 UNL A   1      36.629  23.620  -3.678  1.00  0.00    +0.000 H 
ATOM     83  C60 UNL A   1      36.233  22.313  -1.963  1.00  0.00    +0.000 C 
ATOM     84  C61 UNL A   1      34.715  22.493  -1.806  1.00  0.00    +0.000 C 
ATOM     85  C62 UNL A   1      34.132  22.438  -3.221  1.00  0.00    +0.000 C 
ATOM     86  C63 UNL A   1      35.272  21.974  -4.114  1.00  0.00    +0.000 C 
ATOM     87  C64 UNL A   1      36.496  22.583  -3.447  1.00  0.00    +0.000 C 
ATOM    128  H37 UNL A   1      36.532  21.325  -1.685  1.00  0.00    +0.000 H 
BRANCH   87   88
ATOM    136  H45 UNL A   1      37.491  21.325  -4.579  1.00  0.00    +0.000 H 
ATOM     88  O3  UNL A   1      37.692  21.961  -3.876  1.00  0.00    +0.000 O 
ENDBRANCH   87   88
ENDBRANCH   82   83
ENDBRANCH   81   82
ENDBRANCH    2   78
ENDBRANCH    3    2
ENDBRANCH    5    3
ENDBRANCH    6    5
ENDBRANCH    7    6
ENDBRANCH    8    7
ENDBRANCH    9    8
ENDBRANCH   10    9
ENDBRANCH   11   10
ENDBRANCH   12   11
ENDBRANCH   13   12
ENDBRANCH   15   13
ENDBRANCH   19   18
BRANCH   23   24
ATOM     33  C24 UNL A   1      58.826  18.118   9.592  1.00  0.00    +0.000 C 
ATOM     34  F5  UNL A   1      58.848  19.457   9.504  1.00  0.00    +0.000 F 
ATOM     24  C19 UNL A   1      58.096  17.488  10.611  1.00  0.00    +0.000 C 
ATOM     25  C20 UNL A   1      58.105  16.085  10.654  1.00  0.00    +0.000 C 
ATOM     26  F1  UNL A   1      57.431  15.436  11.615  1.00  0.00    +0.000 F 
ATOM     27  C21 UNL A   1      58.828  15.344   9.723  1.00  0.00    +0.000 C 
ATOM     28  F2  UNL A   1      58.849  14.006   9.804  1.00  0.00    +0.000 F 
ATOM     29  C22 UNL A   1      59.533  15.988   8.716  1.00  0.00    +0.000 C 
ATOM     30  F3  UNL A   1      60.219  15.274   7.814  1.00  0.00    +0.000 F 
ATOM     31  C23 UNL A   1      59.529  17.373   8.648  1.00  0.00    +0.000 C 
ATOM     32  F4  UNL A   1      60.199  17.997   7.669  1.00  0.00    +0.000 F 
ENDBRANCH   23   24
BRANCH   40   41
ATOM     41  C30 UNL A   1      58.827  20.252  17.227  1.00  0.00    +0.000 C 
ATOM     42  C31 UNL A   1      59.601  21.406  17.418  1.00  0.00    +0.000 C 
ATOM     43  F6  UNL A   1      59.445  22.465  16.608  1.00  0.00    +0.000 F 
ATOM     44  C32 UNL A   1      60.573  21.458  18.412  1.00  0.00    +0.000 C 
ATOM     45  F7  UNL A   1      61.337  22.551  18.544  1.00  0.00    +0.000 F 
ATOM     46  C33 UNL A   1      60.766  20.374  19.256  1.00  0.00    +0.000 C 
ATOM     47  F8  UNL A   1      61.701  20.425  20.214  1.00  0.00    +0.000 F 
ATOM     48  C34 UNL A   1      59.994  19.231  19.099  1.00  0.00    +0.000 C 
ATOM     49  F9  UNL A   1      60.172  18.186  19.920  1.00  0.00    +0.000 F 
ATOM     50  C35 UNL A   1      59.041  19.166  18.088  1.00  0.00    +0.000 C 
ATOM     51  F10 UNL A   1      58.321  18.041  17.950  1.00  0.00    +0.000 F 
ENDBRANCH   40   41
BRANCH   55   56
ATOM     65  C44 UNL A   1      51.587  22.056  17.839  1.00  0.00    +0.000 C 
ATOM     66  F15 UNL A   1      51.621  20.718  17.925  1.00  0.00    +0.000 F 
ATOM     56  C39 UNL A   1      52.333  22.716  16.852  1.00  0.00    +0.000 C 
ATOM     57  C40 UNL A   1      52.257  24.115  16.802  1.00  0.00    +0.000 C 
ATOM     58  F11 UNL A   1      52.970  24.790  15.889  1.00  0.00    +0.000 F 
ATOM     59  C41 UNL A   1      51.489  24.827  17.719  1.00  0.00    +0.000 C 
ATOM     60  F12 UNL A   1      51.475  26.166  17.682  1.00  0.00    +0.000 F 
ATOM     61  C42 UNL A   1      50.757  24.153  18.685  1.00  0.00    +0.000 C 
ATOM     62  F13 UNL A   1      50.020  24.839  19.569  1.00  0.00    +0.000 F 
ATOM     63  C43 UNL A   1      50.798  22.768  18.740  1.00  0.00    +0.000 C 
ATOM     64  F14 UNL A   1      50.081  22.113  19.663  1.00  0.00    +0.000 F 
ENDBRANCH   55   56
TORSDOF 20
ENDMDL
MODEL 7
REMARK VINA RESULT:     -10.6      3.132      5.064
ROOT
ATOM     19  C15 UNL A   1      38.241  31.083  30.415  1.00  0.00    +0.000 C 
ATOM     20  C16 UNL A   1      38.525  31.372  31.862  1.00  0.00    +0.000 C 
ATOM     21  N3  UNL A   1      39.460  30.879  32.636  1.00  0.00    +0.000 N 
ATOM     22  C17 UNL A   1      39.298  31.498  33.868  1.00  0.00    +0.000 C 
ATOM     23  C18 UNL A   1      39.982  31.285  35.017  1.00  0.00    +0.000 C 
ATOM     35  C25 UNL A   1      41.052  30.334  35.165  1.00  0.00    +0.000 C 
ATOM     36  C26 UNL A   1      41.774  30.014  36.301  1.00  0.00    +0.000 C 
ATOM     37  C27 UNL A   1      42.734  29.057  35.957  1.00  0.00    +0.000 C 
ATOM     38  C28 UNL A   1      42.585  28.752  34.614  1.00  0.00    +0.000 C 
ATOM     39  N4  UNL A   1      41.555  29.547  34.139  1.00  0.00    +0.000 N 
ATOM     40  C29 UNL A   1      43.326  27.807  33.822  1.00  0.00    +0.000 C 
ATOM     52  C36 UNL A   1      43.113  27.561  32.506  1.00  0.00    +0.000 C 
ATOM     53  N5  UNL A   1      42.180  28.131  31.652  1.00  0.00    +0.000 N 
ATOM     54  C37 UNL A   1      42.384  27.584  30.479  1.00  0.00    +0.000 C 
ATOM     55  C38 UNL A   1      41.648  27.806  29.186  1.00  0.00    +0.000 C 
ATOM     67  C45 UNL A   1      40.609  28.661  29.158  1.00  0.00    +0.000 C 
ATOM     68  C46 UNL A   1      39.792  28.963  27.987  1.00  0.00    +0.000 C 
ATOM     69  C47 UNL A   1      38.868  29.877  28.320  1.00  0.00    +0.000 C 
ATOM     70  C48 UNL A   1      39.010  30.206  29.740  1.00  0.00    +0.000 C 
ATOM     71  N6  UNL A   1      40.068  29.438  30.154  1.00  0.00    +0.000 N 
ATOM     72  C49 UNL A   1      43.490  26.617  30.453  1.00  0.00    +0.000 C 
ATOM     73  C50 UNL A   1      43.872  26.609  31.722  1.00  0.00    +0.000 C 
ATOM     74  C51 UNL A   1      38.206  32.438  33.728  1.00  0.00    +0.000 C 
ATOM     75  C52 UNL A   1      37.658  32.360  32.523  1.00  0.00    +0.000 C 
ATOM    112  H21 UNL A   1      41.628  30.413  37.242  1.00  0.00    +0.000 H 
ATOM    113  H22 UNL A   1      43.435  28.648  36.595  1.00  0.00    +0.000 H 
ATOM    114  H23 UNL A   1      41.227  29.552  33.210  1.00  0.00    +0.000 H 
ATOM    115  H24 UNL A   1      39.907  28.540  27.052  1.00  0.00    +0.000 H 
ATOM    116  H25 UNL A   1      38.170  30.284  27.678  1.00  0.00    +0.000 H 
ATOM    117  H26 UNL A   1      40.408  29.441  31.078  1.00  0.00    +0.000 H 
ATOM    118  H27 UNL A   1      43.871  26.084  29.655  1.00  0.00    +0.000 H 
ATOM    119  H28 UNL A   1      44.614  26.002  32.103  1.00  0.00    +0.000 H 
ATOM    120  H29 UNL A   1      37.895  33.086  34.469  1.00  0.00    +0.000 H 
ATOM    121  H30 UNL A   1      36.837  32.860  32.147  1.00  0.00    +0.000 H 
ENDROOT
BRANCH   19   18
ATOM     76  C53 UNL A   1      35.856  31.250  29.675  1.00  0.00    +0.000 C 
ATOM     77  C54 UNL A   1      34.821  31.924  29.027  1.00  0.00    +0.000 C 
ATOM    110  H19 UNL A   1      36.517  34.638  28.021  1.00  0.00    +0.000 H 
ATOM     15  C11 UNL A   1      35.047  33.189  28.476  1.00  0.00    +0.000 C 
ATOM     16  C12 UNL A   1      36.339  33.724  28.467  1.00  0.00    +0.000 C 
ATOM     17  C13 UNL A   1      37.388  33.023  29.064  1.00  0.00    +0.000 C 
ATOM    111  H20 UNL A   1      38.345  33.408  29.036  1.00  0.00    +0.000 H 
ATOM     18  C14 UNL A   1      37.148  31.794  29.703  1.00  0.00    +0.000 C 
ATOM    122  H31 UNL A   1      35.669  30.347  30.138  1.00  0.00    +0.000 H 
ATOM    123  H32 UNL A   1      33.888  31.488  28.953  1.00  0.00    +0.000 H 
BRANCH   15   13
ATOM     13  C10 UNL A   1      33.949  33.978  27.873  1.00  0.00    +0.000 C 
ATOM     14  O2  UNL A   1      34.177  35.107  27.449  1.00  0.00    +0.000 O 
BRANCH   13   12
ATOM     12  N2  UNL A   1      32.680  33.463  27.807  1.00  0.00    +0.000 N 
ATOM    109  H18 UNL A   1      32.215  33.378  28.671  1.00  0.00    +0.000 H 
BRANCH   12   11
ATOM     11  C9  UNL A   1      31.920  33.025  26.649  1.00  0.00    +0.000 C 
ATOM    108  H17 UNL A   1      32.591  32.978  25.818  1.00  0.00    +0.000 H 
ATOM    107  H16 UNL A   1      31.126  33.723  26.475  1.00  0.00    +0.000 H 
BRANCH   11   10
ATOM    105  H14 UNL A   1      30.924  31.576  27.830  1.00  0.00    +0.000 H 
ATOM     10  C8  UNL A   1      31.316  31.635  26.836  1.00  0.00    +0.000 C 
ATOM    106  H15 UNL A   1      30.570  31.531  26.076  1.00  0.00    +0.000 H 
BRANCH   10    9
ATOM      9  C7  UNL A   1      32.287  30.469  26.640  1.00  0.00    +0.000 C 
ATOM    103  H12 UNL A   1      33.107  30.818  26.049  1.00  0.00    +0.000 H 
ATOM    104  H13 UNL A   1      32.570  30.152  27.622  1.00  0.00    +0.000 H 
BRANCH    9    8
ATOM    101  H10 UNL A   1      30.643  29.234  26.125  1.00  0.00    +0.000 H 
ATOM    102  H11 UNL A   1      31.966  29.322  24.918  1.00  0.00    +0.000 H 
ATOM      8  C6  UNL A   1      31.698  29.237  25.951  1.00  0.00    +0.000 C 
BRANCH    8    7
ATOM     99  H8  UNL A   1      33.132  27.672  25.840  1.00  0.00    +0.000 H 
ATOM    100  H9  UNL A   1      32.453  27.992  27.465  1.00  0.00    +0.000 H 
ATOM      7  C5  UNL A   1      32.258  27.886  26.419  1.00  0.00    +0.000 C 
BRANCH    7    6
ATOM     97  H6  UNL A   1      31.519  25.981  27.042  1.00  0.00    +0.000 H 
ATOM     98  H7  UNL A   1      30.296  27.066  26.385  1.00  0.00    +0.000 H 
ATOM      6  C4  UNL A   1      31.295  26.699  26.281  1.00  0.00    +0.000 C 
BRANCH    6    5
ATOM      5  N1  UNL A   1      31.414  26.062  24.983  1.00  0.00    +0.000 N 
ATOM     96  H5  UNL A   1      30.602  26.007  24.428  1.00  0.00    +0.000 H 
BRANCH    5    3
ATOM      3  C3  UNL A   1      32.571  25.532  24.473  1.00  0.00    +0.000 C 
ATOM      4  O1  UNL A   1      32.922  25.949  23.369  1.00  0.00    +0.000 O 
BRANCH    3    2
ATOM      2  C2  UNL A   1      33.358  24.503  25.306  1.00  0.00    +0.000 C 
ATOM     95  H4  UNL A   1      33.009  24.588  26.315  1.00  0.00    +0.000 H 
BRANCH    2    1
ATOM      1  C1  UNL A   1      34.847  24.846  25.169  1.00  0.00    +0.000 C 
ATOM     92  H1  UNL A   1      35.109  25.592  25.890  1.00  0.00    +0.000 H 
ATOM     93  H2  UNL A   1      35.038  25.220  24.185  1.00  0.00    +0.000 H 
ATOM     94  H3  UNL A   1      35.434  23.967  25.337  1.00  0.00    +0.000 H 
ENDBRANCH    2    1
BRANCH    2   78
ATOM    137  H46 UNL A   1      33.233  19.926  26.347  1.00  0.00    +0.000 H 
ATOM     78  C55 UNL A   1      33.097  23.019  24.990  1.00  0.00    +0.000 C 
ATOM     79  C56 UNL A   1      32.714  22.600  23.701  1.00  0.00    +0.000 C 
ATOM     80  C57 UNL A   1      32.528  21.254  23.378  1.00  0.00    +0.000 C 
ATOM     81  C58 UNL A   1      32.700  20.261  24.338  1.00  0.00    +0.000 C 
ATOM     89  C65 UNL A   1      33.077  20.648  25.627  1.00  0.00    +0.000 C 
ATOM     90  C66 UNL A   1      33.248  22.003  25.958  1.00  0.00    +0.000 C 
ATOM     91 Br1  UNL A   1      33.615  22.350  27.796  1.00  0.00    +0.000 Br
ATOM    124  H33 UNL A   1      32.565  23.313  22.970  1.00  0.00    +0.000 H 
ATOM    125  H34 UNL A   1      32.259  20.992  22.417  1.00  0.00    +0.000 H 
BRANCH   81   82
ATOM     82  C59 UNL A   1      32.451  18.812  23.998  1.00  0.00    +0.000 C 
ATOM    126  H35 UNL A   1      32.770  18.651  22.990  1.00  0.00    +0.000 H 
ATOM    127  H36 UNL A   1      31.405  18.652  24.155  1.00  0.00    +0.000 H 
BRANCH   82   83
ATOM    129  H38 UNL A   1      31.595  16.352  24.547  1.00  0.00    +0.000 H 
ATOM    130  H39 UNL A   1      31.863  16.673  26.218  1.00  0.00    +0.000 H 
ATOM    131  H40 UNL A   1      33.185  14.713  24.503  1.00  0.00    +0.000 H 
ATOM    132  H41 UNL A   1      33.247  14.804  26.219  1.00  0.00    +0.000 H 
ATOM    133  H42 UNL A   1      35.429  15.345  24.773  1.00  0.00    +0.000 H 
ATOM    134  H43 UNL A   1      35.146  16.274  26.171  1.00  0.00    +0.000 H 
ATOM    135  H44 UNL A   1      34.426  16.972  23.288  1.00  0.00    +0.000 H 
ATOM     83  C60 UNL A   1      33.169  17.785  24.889  1.00  0.00    +0.000 C 
ATOM     84  C61 UNL A   1      32.354  16.541  25.278  1.00  0.00    +0.000 C 
ATOM     85  C62 UNL A   1      33.350  15.378  25.323  1.00  0.00    +0.000 C 
ATOM     86  C63 UNL A   1      34.727  16.016  25.221  1.00  0.00    +0.000 C 
ATOM     87  C64 UNL A   1      34.477  17.221  24.327  1.00  0.00    +0.000 C 
ATOM    128  H37 UNL A   1      33.343  18.409  25.740  1.00  0.00    +0.000 H 
BRANCH   87   88
ATOM    136  H45 UNL A   1      35.358  18.760  25.173  1.00  0.00    +0.000 H 
ATOM     88  O3  UNL A   1      35.523  18.170  24.421  1.00  0.00    +0.000 O 
ENDBRANCH   87   88
ENDBRANCH   82   83
ENDBRANCH   81   82
ENDBRANCH    2   78
ENDBRANCH    3    2
ENDBRANCH    5    3
ENDBRANCH    6    5
ENDBRANCH    7    6
ENDBRANCH    8    7
ENDBRANCH    9    8
ENDBRANCH   10    9
ENDBRANCH   11   10
ENDBRANCH   12   11
ENDBRANCH   13   12
ENDBRANCH   15   13
ENDBRANCH   19   18
BRANCH   23   24
ATOM     33  C24 UNL A   1      40.319  33.216  36.607  1.00  0.00    +0.000 C 
ATOM     34  F5  UNL A   1      41.363  33.625  35.870  1.00  0.00    +0.000 F 
ATOM     24  C19 UNL A   1      39.583  32.085  36.222  1.00  0.00    +0.000 C 
ATOM     25  C20 UNL A   1      38.503  31.698  37.031  1.00  0.00    +0.000 C 
ATOM     26  F1  UNL A   1      37.762  30.630  36.700  1.00  0.00    +0.000 F 
ATOM     27  C21 UNL A   1      38.166  32.423  38.171  1.00  0.00    +0.000 C 
ATOM     28  F2  UNL A   1      37.111  32.054  38.910  1.00  0.00    +0.000 F 
ATOM     29  C22 UNL A   1      38.916  33.531  38.539  1.00  0.00    +0.000 C 
ATOM     30  F3  UNL A   1      38.598  34.220  39.642  1.00  0.00    +0.000 F 
ATOM     31  C23 UNL A   1      39.994  33.924  37.760  1.00  0.00    +0.000 C 
ATOM     32  F4  UNL A   1      40.727  34.987  38.121  1.00  0.00    +0.000 F 
ENDBRANCH   23   24
BRANCH   40   41
ATOM     41  C30 UNL A   1      44.408  27.016  34.496  1.00  0.00    +0.000 C 
ATOM     42  C31 UNL A   1      44.152  25.760  35.064  1.00  0.00    +0.000 C 
ATOM     43  F6  UNL A   1      42.910  25.252  35.048  1.00  0.00    +0.000 F 
ATOM     44  C32 UNL A   1      45.164  25.040  35.693  1.00  0.00    +0.000 C 
ATOM     45  F7  UNL A   1      44.886  23.864  36.273  1.00  0.00    +0.000 F 
ATOM     46  C33 UNL A   1      46.454  25.545  35.736  1.00  0.00    +0.000 C 
ATOM     47  F8  UNL A   1      47.428  24.851  36.340  1.00  0.00    +0.000 F 
ATOM     48  C34 UNL A   1      46.735  26.776  35.161  1.00  0.00    +0.000 C 
ATOM     49  F9  UNL A   1      47.984  27.261  35.193  1.00  0.00    +0.000 F 
ATOM     50  C35 UNL A   1      45.720  27.511  34.555  1.00  0.00    +0.000 C 
ATOM     51  F10 UNL A   1      46.017  28.706  34.022  1.00  0.00    +0.000 F 
ENDBRANCH   40   41
BRANCH   55   56
ATOM     65  C44 UNL A   1      42.967  27.620  27.050  1.00  0.00    +0.000 C 
ATOM     66  F15 UNL A   1      43.492  28.834  27.273  1.00  0.00    +0.000 F 
ATOM     56  C39 UNL A   1      42.045  27.076  27.955  1.00  0.00    +0.000 C 
ATOM     57  C40 UNL A   1      41.522  25.807  27.671  1.00  0.00    +0.000 C 
ATOM     58  F11 UNL A   1      40.654  25.236  28.519  1.00  0.00    +0.000 F 
ATOM     59  C41 UNL A   1      41.925  25.099  26.541  1.00  0.00    +0.000 C 
ATOM     60  F12 UNL A   1      41.449  23.866  26.320  1.00  0.00    +0.000 F 
ATOM     61  C42 UNL A   1      42.836  25.658  25.657  1.00  0.00    +0.000 C 
ATOM     62  F13 UNL A   1      43.225  24.977  24.572  1.00  0.00    +0.000 F 
ATOM     63  C43 UNL A   1      43.349  26.923  25.906  1.00  0.00    +0.000 C 
ATOM     64  F14 UNL A   1      44.219  27.473  25.047  1.00  0.00    +0.000 F 
ENDBRANCH   55   56
TORSDOF 20
ENDMDL
MODEL 8
REMARK VINA RESULT:     -10.6     24.292     27.859
ROOT
ATOM     19  C15 UNL A   1      46.522  51.041  18.158  1.00  0.00    +0.000 C 
ATOM     20  C16 UNL A   1      46.796  52.326  17.430  1.00  0.00    +0.000 C 
ATOM     21  N3  UNL A   1      47.815  53.142  17.546  1.00  0.00    +0.000 N 
ATOM     22  C17 UNL A   1      47.592  54.159  16.627  1.00  0.00    +0.000 C 
ATOM     23  C18 UNL A   1      48.330  55.273  16.405  1.00  0.00    +0.000 C 
ATOM     35  C25 UNL A   1      49.536  55.608  17.116  1.00  0.00    +0.000 C 
ATOM     36  C26 UNL A   1      50.327  56.737  16.994  1.00  0.00    +0.000 C 
ATOM     37  C27 UNL A   1      51.413  56.610  17.867  1.00  0.00    +0.000 C 
ATOM     38  C28 UNL A   1      51.277  55.419  18.562  1.00  0.00    +0.000 C 
ATOM     39  N4  UNL A   1      50.126  54.812  18.087  1.00  0.00    +0.000 N 
ATOM     40  C29 UNL A   1      52.133  54.875  19.582  1.00  0.00    +0.000 C 
ATOM     52  C36 UNL A   1      51.925  53.698  20.223  1.00  0.00    +0.000 C 
ATOM     53  N5  UNL A   1      50.895  52.784  20.056  1.00  0.00    +0.000 N 
ATOM     54  C37 UNL A   1      51.149  51.800  20.883  1.00  0.00    +0.000 C 
ATOM     55  C38 UNL A   1      50.355  50.550  21.146  1.00  0.00    +0.000 C 
ATOM     67  C45 UNL A   1      49.198  50.354  20.486  1.00  0.00    +0.000 C 
ATOM     68  C46 UNL A   1      48.315  49.204  20.650  1.00  0.00    +0.000 C 
ATOM     69  C47 UNL A   1      47.271  49.330  19.816  1.00  0.00    +0.000 C 
ATOM     70  C48 UNL A   1      47.398  50.588  19.077  1.00  0.00    +0.000 C 
ATOM     71  N6  UNL A   1      48.571  51.128  19.539  1.00  0.00    +0.000 N 
ATOM     72  C49 UNL A   1      52.389  51.971  21.654  1.00  0.00    +0.000 C 
ATOM     73  C50 UNL A   1      52.800  53.162  21.245  1.00  0.00    +0.000 C 
ATOM     74  C51 UNL A   1      46.367  53.837  15.928  1.00  0.00    +0.000 C 
ATOM     75  C52 UNL A   1      45.807  52.742  16.423  1.00  0.00    +0.000 C 
ATOM    112  H21 UNL A   1      50.146  57.536  16.366  1.00  0.00    +0.000 H 
ATOM    113  H22 UNL A   1      52.184  57.287  17.975  1.00  0.00    +0.000 H 
ATOM    114  H23 UNL A   1      49.777  53.943  18.394  1.00  0.00    +0.000 H 
ATOM    115  H24 UNL A   1      48.468  48.419  21.303  1.00  0.00    +0.000 H 
ATOM    116  H25 UNL A   1      46.503  48.649  19.711  1.00  0.00    +0.000 H 
ATOM    117  H26 UNL A   1      48.930  51.989  19.224  1.00  0.00    +0.000 H 
ATOM    118  H27 UNL A   1      52.825  51.330  22.336  1.00  0.00    +0.000 H 
ATOM    119  H28 UNL A   1      53.635  53.646  21.608  1.00  0.00    +0.000 H 
ATOM    120  H29 UNL A   1      45.981  54.386  15.144  1.00  0.00    +0.000 H 
ATOM    121  H30 UNL A   1      44.910  52.298  16.171  1.00  0.00    +0.000 H 
ENDROOT
BRANCH   19   18
ATOM     76  C53 UNL A   1      45.373  49.247  16.846  1.00  0.00    +0.000 C 
ATOM     77  C54 UNL A   1      44.250  48.472  16.557  1.00  0.00    +0.000 C 
ATOM    110  H19 UNL A   1      42.133  49.758  18.820  1.00  0.00    +0.000 H 
ATOM     15  C11 UNL A   1      43.086  48.616  17.319  1.00  0.00    +0.000 C 
ATOM     16  C12 UNL A   1      43.007  49.620  18.288  1.00  0.00    +0.000 C 
ATOM     17  C13 UNL A   1      44.113  50.437  18.536  1.00  0.00    +0.000 C 
ATOM    111  H20 UNL A   1      44.045  51.193  19.235  1.00  0.00    +0.000 H 
ATOM     18  C14 UNL A   1      45.316  50.234  17.840  1.00  0.00    +0.000 C 
ATOM    122  H31 UNL A   1      46.250  49.092  16.326  1.00  0.00    +0.000 H 
ATOM    123  H32 UNL A   1      44.278  47.792  15.781  1.00  0.00    +0.000 H 
BRANCH   15   13
ATOM     13  C10 UNL A   1      41.911  47.740  17.110  1.00  0.00    +0.000 C 
ATOM     14  O2  UNL A   1      40.851  48.229  16.732  1.00  0.00    +0.000 O 
BRANCH   13   12
ATOM     12  N2  UNL A   1      41.996  46.394  17.358  1.00  0.00    +0.000 N 
ATOM    109  H18 UNL A   1      42.104  46.146  18.305  1.00  0.00    +0.000 H 
BRANCH   12   11
ATOM     11  C9  UNL A   1      41.952  45.278  16.427  1.00  0.00    +0.000 C 
ATOM    108  H17 UNL A   1      41.938  45.682  15.436  1.00  0.00    +0.000 H 
ATOM    107  H16 UNL A   1      41.074  44.699  16.628  1.00  0.00    +0.000 H 
BRANCH   11   10
ATOM    105  H14 UNL A   1      43.013  43.518  15.915  1.00  0.00    +0.000 H 
ATOM     10  C8  UNL A   1      43.174  44.371  16.542  1.00  0.00    +0.000 C 
ATOM    106  H15 UNL A   1      44.014  44.966  16.246  1.00  0.00    +0.000 H 
BRANCH   10    9
ATOM      9  C7  UNL A   1      43.485  43.869  17.953  1.00  0.00    +0.000 C 
ATOM    103  H12 UNL A   1      44.357  43.252  17.900  1.00  0.00    +0.000 H 
ATOM    104  H13 UNL A   1      43.615  44.744  18.556  1.00  0.00    +0.000 H 
BRANCH    9    8
ATOM    101  H10 UNL A   1      41.629  42.849  17.879  1.00  0.00    +0.000 H 
ATOM    102  H11 UNL A   1      42.844  42.183  19.016  1.00  0.00    +0.000 H 
ATOM      8  C6  UNL A   1      42.373  43.058  18.618  1.00  0.00    +0.000 C 
BRANCH    8    7
ATOM     99  H8  UNL A   1      42.141  44.690  19.960  1.00  0.00    +0.000 H 
ATOM    100  H9  UNL A   1      40.643  43.802  19.550  1.00  0.00    +0.000 H 
ATOM      7  C5  UNL A   1      41.679  43.737  19.807  1.00  0.00    +0.000 C 
BRANCH    7    6
ATOM     97  H6  UNL A   1      41.070  43.412  21.829  1.00  0.00    +0.000 H 
ATOM     98  H7  UNL A   1      41.467  41.946  20.935  1.00  0.00    +0.000 H 
ATOM      6  C4  UNL A   1      41.743  42.962  21.129  1.00  0.00    +0.000 C 
BRANCH    6    5
ATOM      5  N1  UNL A   1      43.081  42.970  21.691  1.00  0.00    +0.000 N 
ATOM     96  H5  UNL A   1      43.703  42.267  21.393  1.00  0.00    +0.000 H 
BRANCH    5    3
ATOM      3  C3  UNL A   1      43.542  43.883  22.604  1.00  0.00    +0.000 C 
ATOM      4  O1  UNL A   1      42.733  44.268  23.448  1.00  0.00    +0.000 O 
BRANCH    3    2
ATOM      2  C2  UNL A   1      45.015  44.331  22.540  1.00  0.00    +0.000 C 
ATOM     95  H4  UNL A   1      45.611  43.475  22.781  1.00  0.00    +0.000 H 
BRANCH    2    1
ATOM      1  C1  UNL A   1      45.190  45.471  23.552  1.00  0.00    +0.000 C 
ATOM     92  H1  UNL A   1      44.434  46.211  23.390  1.00  0.00    +0.000 H 
ATOM     93  H2  UNL A   1      46.155  45.916  23.425  1.00  0.00    +0.000 H 
ATOM     94  H3  UNL A   1      45.103  45.084  24.546  1.00  0.00    +0.000 H 
ENDBRANCH    2    1
BRANCH    2   78
ATOM    137  H46 UNL A   1      47.648  43.718  18.702  1.00  0.00    +0.000 H 
ATOM     78  C55 UNL A   1      45.553  44.729  21.154  1.00  0.00    +0.000 C 
ATOM     79  C56 UNL A   1      45.202  45.954  20.555  1.00  0.00    +0.000 C 
ATOM     80  C57 UNL A   1      45.723  46.361  19.324  1.00  0.00    +0.000 C 
ATOM     81  C58 UNL A   1      46.610  45.548  18.624  1.00  0.00    +0.000 C 
ATOM     89  C65 UNL A   1      46.974  44.325  19.193  1.00  0.00    +0.000 C 
ATOM     90  C66 UNL A   1      46.437  43.907  20.423  1.00  0.00    +0.000 C 
ATOM     91 Br1  UNL A   1      46.930  42.149  20.969  1.00  0.00    +0.000 Br
ATOM    124  H33 UNL A   1      44.536  46.574  21.043  1.00  0.00    +0.000 H 
ATOM    125  H34 UNL A   1      45.448  47.272  18.929  1.00  0.00    +0.000 H 
BRANCH   81   82
ATOM     82  C59 UNL A   1      47.134  45.968  17.273  1.00  0.00    +0.000 C 
ATOM    126  H35 UNL A   1      46.319  46.381  16.718  1.00  0.00    +0.000 H 
ATOM    127  H36 UNL A   1      47.555  45.086  16.837  1.00  0.00    +0.000 H 
BRANCH   82   83
ATOM    129  H38 UNL A   1      49.492  45.688  18.478  1.00  0.00    +0.000 H 
ATOM    130  H39 UNL A   1      49.259  47.232  19.207  1.00  0.00    +0.000 H 
ATOM    131  H40 UNL A   1      51.306  46.409  17.292  1.00  0.00    +0.000 H 
ATOM    132  H41 UNL A   1      51.278  47.849  18.232  1.00  0.00    +0.000 H 
ATOM    133  H42 UNL A   1      50.954  47.976  15.581  1.00  0.00    +0.000 H 
ATOM    134  H43 UNL A   1      50.044  49.039  16.550  1.00  0.00    +0.000 H 
ATOM    135  H44 UNL A   1      49.172  46.348  15.404  1.00  0.00    +0.000 H 
ATOM     83  C60 UNL A   1      48.268  47.006  17.289  1.00  0.00    +0.000 C 
ATOM     84  C61 UNL A   1      49.418  46.736  18.273  1.00  0.00    +0.000 C 
ATOM     85  C62 UNL A   1      50.691  47.234  17.583  1.00  0.00    +0.000 C 
ATOM     86  C63 UNL A   1      50.219  48.001  16.358  1.00  0.00    +0.000 C 
ATOM     87  C64 UNL A   1      48.964  47.246  15.947  1.00  0.00    +0.000 C 
ATOM    128  H37 UNL A   1      47.696  47.858  17.593  1.00  0.00    +0.000 H 
BRANCH   87   88
ATOM    136  H45 UNL A   1      47.315  47.546  14.923  1.00  0.00    +0.000 H 
ATOM     88  O3  UNL A   1      48.151  48.013  15.080  1.00  0.00    +0.000 O 
ENDBRANCH   87   88
ENDBRANCH   82   83
ENDBRANCH   81   82
ENDBRANCH    2   78
ENDBRANCH    3    2
ENDBRANCH    5    3
ENDBRANCH    6    5
ENDBRANCH    7    6
ENDBRANCH    8    7
ENDBRANCH    9    8
ENDBRANCH   10    9
ENDBRANCH   11   10
ENDBRANCH   12   11
ENDBRANCH   13   12
ENDBRANCH   15   13
ENDBRANCH   19   18
BRANCH   23   24
ATOM     33  C24 UNL A   1      47.063  57.341  15.708  1.00  0.00    +0.000 C 
ATOM     34  F5  UNL A   1      46.780  57.589  16.996  1.00  0.00    +0.000 F 
ATOM     24  C19 UNL A   1      47.845  56.230  15.357  1.00  0.00    +0.000 C 
ATOM     25  C20 UNL A   1      48.107  56.015  13.994  1.00  0.00    +0.000 C 
ATOM     26  F1  UNL A   1      48.858  54.974  13.609  1.00  0.00    +0.000 F 
ATOM     27  C21 UNL A   1      47.617  56.887  13.025  1.00  0.00    +0.000 C 
ATOM     28  F2  UNL A   1      47.908  56.680  11.733  1.00  0.00    +0.000 F 
ATOM     29  C22 UNL A   1      46.836  57.972  13.394  1.00  0.00    +0.000 C 
ATOM     30  F3  UNL A   1      46.356  58.802  12.459  1.00  0.00    +0.000 F 
ATOM     31  C23 UNL A   1      46.555  58.197  14.733  1.00  0.00    +0.000 C 
ATOM     32  F4  UNL A   1      45.790  59.238  15.091  1.00  0.00    +0.000 F 
ENDBRANCH   23   24
BRANCH   40   41
ATOM     41  C30 UNL A   1      53.339  55.669  19.989  1.00  0.00    +0.000 C 
ATOM     42  C31 UNL A   1      54.598  55.431  19.421  1.00  0.00    +0.000 C 
ATOM     43  F6  UNL A   1      54.758  54.450  18.519  1.00  0.00    +0.000 F 
ATOM     44  C32 UNL A   1      55.710  56.171  19.812  1.00  0.00    +0.000 C 
ATOM     45  F7  UNL A   1      56.914  55.894  19.294  1.00  0.00    +0.000 F 
ATOM     46  C33 UNL A   1      55.578  57.183  20.751  1.00  0.00    +0.000 C 
ATOM     47  F8  UNL A   1      56.649  57.896  21.126  1.00  0.00    +0.000 F 
ATOM     48  C34 UNL A   1      54.336  57.450  21.309  1.00  0.00    +0.000 C 
ATOM     49  F9  UNL A   1      54.204  58.435  22.209  1.00  0.00    +0.000 F 
ATOM     50  C35 UNL A   1      53.228  56.694  20.940  1.00  0.00    +0.000 C 
ATOM     51  F10 UNL A   1      52.043  56.964  21.509  1.00  0.00    +0.000 F 
ENDBRANCH   40   41
BRANCH   55   56
ATOM     65  C44 UNL A   1      51.703  48.517  21.770  1.00  0.00    +0.000 C 
ATOM     66  F15 UNL A   1      52.114  48.405  20.498  1.00  0.00    +0.000 F 
ATOM     56  C39 UNL A   1      50.827  49.548  22.136  1.00  0.00    +0.000 C 
ATOM     57  C40 UNL A   1      50.423  49.617  23.477  1.00  0.00    +0.000 C 
ATOM     58  F11 UNL A   1      49.602  50.598  23.878  1.00  0.00    +0.000 F 
ATOM     59  C41 UNL A   1      50.898  48.707  24.418  1.00  0.00    +0.000 C 
ATOM     60  F12 UNL A   1      50.536  48.826  25.703  1.00  0.00    +0.000 F 
ATOM     61  C42 UNL A   1      51.761  47.693  24.033  1.00  0.00    +0.000 C 
ATOM     62  F13 UNL A   1      52.219  46.820  24.939  1.00  0.00    +0.000 F 
ATOM     63  C43 UNL A   1      52.156  47.592  22.707  1.00  0.00    +0.000 C 
ATOM     64  F14 UNL A   1      52.980  46.605  22.328  1.00  0.00    +0.000 F 
ENDBRANCH   55   56
TORSDOF 20
ENDMDL
MODEL 9
REMARK VINA RESULT:     -10.5     26.460     34.724
ROOT
ATOM     19  C15 UNL A   1      21.796  16.061   8.684  1.00  0.00    +0.000 C 
ATOM     20  C16 UNL A   1      22.018  14.621   8.318  1.00  0.00    +0.000 C 
ATOM     21  N3  UNL A   1      21.277  13.831   7.581  1.00  0.00    +0.000 N 
ATOM     22  C17 UNL A   1      21.947  12.615   7.537  1.00  0.00    +0.000 C 
ATOM     23  C18 UNL A   1      21.559  11.458   6.950  1.00  0.00    +0.000 C 
ATOM     35  C25 UNL A   1      20.325  11.282   6.230  1.00  0.00    +0.000 C 
ATOM     36  C26 UNL A   1      19.824  10.135   5.640  1.00  0.00    +0.000 C 
ATOM     37  C27 UNL A   1      18.606  10.451   5.029  1.00  0.00    +0.000 C 
ATOM     38  C28 UNL A   1      18.330  11.787   5.270  1.00  0.00    +0.000 C 
ATOM     39  N4  UNL A   1      19.395  12.286   6.003  1.00  0.00    +0.000 N 
ATOM     40  C29 UNL A   1      17.181  12.552   4.865  1.00  0.00    +0.000 C 
ATOM     52  C36 UNL A   1      16.981  13.862   5.150  1.00  0.00    +0.000 C 
ATOM     53  N5  UNL A   1      17.792  14.734   5.860  1.00  0.00    +0.000 N 
ATOM     54  C37 UNL A   1      17.180  15.892   5.842  1.00  0.00    +0.000 C 
ATOM     55  C38 UNL A   1      17.588  17.194   6.476  1.00  0.00    +0.000 C 
ATOM     67  C45 UNL A   1      18.725  17.247   7.196  1.00  0.00    +0.000 C 
ATOM     68  C46 UNL A   1      19.237  18.429   7.882  1.00  0.00    +0.000 C 
ATOM     69  C47 UNL A   1      20.402  18.123   8.473  1.00  0.00    +0.000 C 
ATOM     70  C48 UNL A   1      20.706  16.711   8.230  1.00  0.00    +0.000 C 
ATOM     71  N6  UNL A   1      19.656  16.273   7.463  1.00  0.00    +0.000 N 
ATOM     72  C49 UNL A   1      15.915  15.889   5.094  1.00  0.00    +0.000 C 
ATOM     73  C50 UNL A   1      15.820  14.619   4.729  1.00  0.00    +0.000 C 
ATOM     74  C51 UNL A   1      23.177  12.783   8.281  1.00  0.00    +0.000 C 
ATOM     75  C52 UNL A   1      23.244  13.988   8.830  1.00  0.00    +0.000 C 
ATOM    112  H21 UNL A   1      20.272   9.205   5.651  1.00  0.00    +0.000 H 
ATOM    113  H22 UNL A   1      18.015   9.800   4.488  1.00  0.00    +0.000 H 
ATOM    114  H23 UNL A   1      19.479  13.216   6.315  1.00  0.00    +0.000 H 
ATOM    115  H24 UNL A   1      18.776  19.353   7.909  1.00  0.00    +0.000 H 
ATOM    116  H25 UNL A   1      20.991  18.777   9.011  1.00  0.00    +0.000 H 
ATOM    117  H26 UNL A   1      19.576  15.348   7.136  1.00  0.00    +0.000 H 
ATOM    118  H27 UNL A   1      15.270  16.672   4.902  1.00  0.00    +0.000 H 
ATOM    119  H28 UNL A   1      15.021  14.219   4.212  1.00  0.00    +0.000 H 
ATOM    120  H29 UNL A   1      23.907  12.060   8.371  1.00  0.00    +0.000 H 
ATOM    121  H30 UNL A   1      23.965  14.380   9.455  1.00  0.00    +0.000 H 
ENDROOT
BRANCH   19   18
ATOM     76  C53 UNL A   1      23.797  17.552   8.877  1.00  0.00    +0.000 C 
ATOM     77  C54 UNL A   1      24.725  18.261   9.640  1.00  0.00    +0.000 C 
ATOM    110  H19 UNL A   1      23.574  17.500  12.698  1.00  0.00    +0.000 H 
ATOM     15  C11 UNL A   1      24.606  18.292  11.033  1.00  0.00    +0.000 C 
ATOM     16  C12 UNL A   1      23.634  17.514  11.667  1.00  0.00    +0.000 C 
ATOM     17  C13 UNL A   1      22.741  16.757  10.906  1.00  0.00    +0.000 C 
ATOM    111  H20 UNL A   1      22.039  16.164  11.376  1.00  0.00    +0.000 H 
ATOM     18  C14 UNL A   1      22.795  16.796   9.502  1.00  0.00    +0.000 C 
ATOM    122  H31 UNL A   1      23.848  17.585   7.847  1.00  0.00    +0.000 H 
ATOM    123  H32 UNL A   1      25.499  18.762   9.176  1.00  0.00    +0.000 H 
BRANCH   15   13
ATOM     13  C10 UNL A   1      25.509  19.117  11.868  1.00  0.00    +0.000 C 
ATOM     14  O2  UNL A   1      25.041  20.020  12.555  1.00  0.00    +0.000 O 
BRANCH   13   12
ATOM     12  N2  UNL A   1      26.862  18.892  11.857  1.00  0.00    +0.000 N 
ATOM    109  H18 UNL A   1      27.147  18.025  12.226  1.00  0.00    +0.000 H 
BRANCH   12   11
ATOM     11  C9  UNL A   1      27.937  19.747  11.382  1.00  0.00    +0.000 C 
ATOM    108  H17 UNL A   1      28.794  19.130  11.216  1.00  0.00    +0.000 H 
ATOM    107  H16 UNL A   1      28.130  20.498  12.121  1.00  0.00    +0.000 H 
BRANCH   11   10
ATOM    105  H14 UNL A   1      26.559  20.695  10.082  1.00  0.00    +0.000 H 
ATOM     10  C8  UNL A   1      27.597  20.436  10.062  1.00  0.00    +0.000 C 
ATOM    106  H15 UNL A   1      28.248  21.282   9.993  1.00  0.00    +0.000 H 
BRANCH   10    9
ATOM      9  C7  UNL A   1      27.853  19.601   8.806  1.00  0.00    +0.000 C 
ATOM    103  H12 UNL A   1      26.907  19.387   8.353  1.00  0.00    +0.000 H 
ATOM    104  H13 UNL A   1      28.501  20.187   8.188  1.00  0.00    +0.000 H 
BRANCH    9    8
ATOM    101  H10 UNL A   1      29.292  18.421   9.820  1.00  0.00    +0.000 H 
ATOM    102  H11 UNL A   1      27.814  17.562   9.278  1.00  0.00    +0.000 H 
ATOM      8  C6  UNL A   1      28.576  18.274   9.038  1.00  0.00    +0.000 C 
BRANCH    8    7
ATOM     99  H8  UNL A   1      30.336  18.027   7.871  1.00  0.00    +0.000 H 
ATOM    100  H9  UNL A   1      29.205  16.640   7.878  1.00  0.00    +0.000 H 
ATOM      7  C5  UNL A   1      29.317  17.702   7.822  1.00  0.00    +0.000 C 
BRANCH    7    6
ATOM     97  H6  UNL A   1      28.117  18.970   6.592  1.00  0.00    +0.000 H 
ATOM     98  H7  UNL A   1      29.573  18.353   5.813  1.00  0.00    +0.000 H 
ATOM      6  C4  UNL A   1      28.752  18.119   6.458  1.00  0.00    +0.000 C 
BRANCH    6    5
ATOM      5  N1  UNL A   1      27.984  17.050   5.847  1.00  0.00    +0.000 N 
ATOM     96  H5  UNL A   1      28.442  16.192   5.694  1.00  0.00    +0.000 H 
BRANCH    5    3
ATOM      3  C3  UNL A   1      26.670  17.147   5.468  1.00  0.00    +0.000 C 
ATOM      4  O1  UNL A   1      26.447  17.754   4.420  1.00  0.00    +0.000 O 
BRANCH    3    2
ATOM      2  C2  UNL A   1      25.586  16.475   6.333  1.00  0.00    +0.000 C 
ATOM     95  H4  UNL A   1      25.095  17.256   6.877  1.00  0.00    +0.000 H 
BRANCH    2    1
ATOM      1  C1  UNL A   1      26.294  15.474   7.256  1.00  0.00    +0.000 C 
ATOM     92  H1  UNL A   1      27.352  15.542   7.112  1.00  0.00    +0.000 H 
ATOM     93  H2  UNL A   1      25.967  14.482   7.023  1.00  0.00    +0.000 H 
ATOM     94  H3  UNL A   1      26.057  15.697   8.275  1.00  0.00    +0.000 H 
ENDBRANCH    2    1
BRANCH    2   78
ATOM    137  H46 UNL A   1      21.284  16.384   4.456  1.00  0.00    +0.000 H 
ATOM     78  C55 UNL A   1      24.420  15.810   5.580  1.00  0.00    +0.000 C 
ATOM     79  C56 UNL A   1      24.474  14.458   5.191  1.00  0.00    +0.000 C 
ATOM     80  C57 UNL A   1      23.404  13.820   4.557  1.00  0.00    +0.000 C 
ATOM     81  C58 UNL A   1      22.232  14.513   4.268  1.00  0.00    +0.000 C 
ATOM     89  C65 UNL A   1      22.152  15.858   4.640  1.00  0.00    +0.000 C 
ATOM     90  C66 UNL A   1      23.233  16.505   5.262  1.00  0.00    +0.000 C 
ATOM     91 Br1  UNL A   1      22.999  18.373   5.560  1.00  0.00    +0.000 Br
ATOM    124  H33 UNL A   1      25.334  13.920   5.379  1.00  0.00    +0.000 H 
ATOM    125  H34 UNL A   1      23.483  12.825   4.300  1.00  0.00    +0.000 H 
BRANCH   81   82
ATOM     82  C59 UNL A   1      21.098  13.835   3.541  1.00  0.00    +0.000 C 
ATOM    126  H35 UNL A   1      20.470  14.596   3.129  1.00  0.00    +0.000 H 
ATOM    127  H36 UNL A   1      20.613  13.217   4.269  1.00  0.00    +0.000 H 
BRANCH   82   83
ATOM    129  H38 UNL A   1      19.759  11.677   2.743  1.00  0.00    +0.000 H 
ATOM    130  H39 UNL A   1      21.228  10.781   2.826  1.00  0.00    +0.000 H 
ATOM    131  H40 UNL A   1      19.593  11.389   0.483  1.00  0.00    +0.000 H 
ATOM    132  H41 UNL A   1      20.874  10.246   0.591  1.00  0.00    +0.000 H 
ATOM    133  H42 UNL A   1      21.174  12.455  -0.885  1.00  0.00    +0.000 H 
ATOM    134  H43 UNL A   1      22.520  11.888  -0.010  1.00  0.00    +0.000 H 
ATOM    135  H44 UNL A   1      20.537  14.057   0.816  1.00  0.00    +0.000 H 
ATOM     83  C60 UNL A   1      21.507  12.890   2.399  1.00  0.00    +0.000 C 
ATOM     84  C61 UNL A   1      20.728  11.568   2.303  1.00  0.00    +0.000 C 
ATOM     85  C62 UNL A   1      20.603  11.257   0.809  1.00  0.00    +0.000 C 
ATOM     86  C63 UNL A   1      21.519  12.248   0.107  1.00  0.00    +0.000 C 
ATOM     87  C64 UNL A   1      21.423  13.483   0.989  1.00  0.00    +0.000 C 
ATOM    128  H37 UNL A   1      22.520  12.717   2.693  1.00  0.00    +0.000 H 
BRANCH   87   88
ATOM    136  H45 UNL A   1      22.180  15.105   0.182  1.00  0.00    +0.000 H 
ATOM     88  O3  UNL A   1      22.489  14.383   0.750  1.00  0.00    +0.000 O 
ENDBRANCH   87   88
ENDBRANCH   82   83
ENDBRANCH   81   82
ENDBRANCH    2   78
ENDBRANCH    3    2
ENDBRANCH    5    3
ENDBRANCH    6    5
ENDBRANCH    7    6
ENDBRANCH    8    7
ENDBRANCH    9    8
ENDBRANCH   10    9
ENDBRANCH   11   10
ENDBRANCH   12   11
ENDBRANCH   13   12
ENDBRANCH   15   13
ENDBRANCH   19   18
BRANCH   23   24
ATOM     33  C24 UNL A   1      22.486   9.500   8.244  1.00  0.00    +0.000 C 
ATOM     34  F5  UNL A   1      21.642   9.779   9.250  1.00  0.00    +0.000 F 
ATOM     24  C19 UNL A   1      22.473  10.275   7.075  1.00  0.00    +0.000 C 
ATOM     25  C20 UNL A   1      23.380   9.943   6.057  1.00  0.00    +0.000 C 
ATOM     26  F1  UNL A   1      23.399  10.647   4.915  1.00  0.00    +0.000 F 
ATOM     27  C21 UNL A   1      24.254   8.868   6.198  1.00  0.00    +0.000 C 
ATOM     28  F2  UNL A   1      25.088   8.548   5.199  1.00  0.00    +0.000 F 
ATOM     29  C22 UNL A   1      24.258   8.123   7.369  1.00  0.00    +0.000 C 
ATOM     30  F3  UNL A   1      25.107   7.097   7.508  1.00  0.00    +0.000 F 
ATOM     31  C23 UNL A   1      23.378   8.441   8.393  1.00  0.00    +0.000 C 
ATOM     32  F4  UNL A   1      23.389   7.730   9.529  1.00  0.00    +0.000 F 
ENDBRANCH   23   24
BRANCH   40   41
ATOM     41  C30 UNL A   1      16.109  11.853   4.082  1.00  0.00    +0.000 C 
ATOM     42  C31 UNL A   1      16.172  11.745   2.686  1.00  0.00    +0.000 C 
ATOM     43  F6  UNL A   1      17.187  12.307   2.011  1.00  0.00    +0.000 F 
ATOM     44  C32 UNL A   1      15.167  11.099   1.972  1.00  0.00    +0.000 C 
ATOM     45  F7  UNL A   1      15.221  11.053   0.634  1.00  0.00    +0.000 F 
ATOM     46  C33 UNL A   1      14.099  10.521   2.642  1.00  0.00    +0.000 C 
ATOM     47  F8  UNL A   1      13.132   9.898   1.954  1.00  0.00    +0.000 F 
ATOM     48  C34 UNL A   1      14.028  10.595   4.025  1.00  0.00    +0.000 C 
ATOM     49  F9  UNL A   1      13.002  10.027   4.675  1.00  0.00    +0.000 F 
ATOM     50  C35 UNL A   1      15.018  11.264   4.740  1.00  0.00    +0.000 C 
ATOM     51  F10 UNL A   1      14.914  11.335   6.076  1.00  0.00    +0.000 F 
ENDBRANCH   40   41
BRANCH   55   56
ATOM     65  C44 UNL A   1      15.711  18.686   7.241  1.00  0.00    +0.000 C 
ATOM     66  F15 UNL A   1      15.460  17.844   8.254  1.00  0.00    +0.000 F 
ATOM     56  C39 UNL A   1      16.740  18.404   6.332  1.00  0.00    +0.000 C 
ATOM     57  C40 UNL A   1      16.957  19.314   5.288  1.00  0.00    +0.000 C 
ATOM     58  F11 UNL A   1      17.943  19.097   4.406  1.00  0.00    +0.000 F 
ATOM     59  C41 UNL A   1      16.194  20.473   5.174  1.00  0.00    +0.000 C 
ATOM     60  F12 UNL A   1      16.455  21.352   4.197  1.00  0.00    +0.000 F 
ATOM     61  C42 UNL A   1      15.179  20.730   6.083  1.00  0.00    +0.000 C 
ATOM     62  F13 UNL A   1      14.446  21.846   5.974  1.00  0.00    +0.000 F 
ATOM     63  C43 UNL A   1      14.930  19.832   7.111  1.00  0.00    +0.000 C 
ATOM     64  F14 UNL A   1      13.942  20.071   7.984  1.00  0.00    +0.000 F 
ENDBRANCH   55   56
TORSDOF 20
ENDMDL
MODEL 10
REMARK VINA RESULT:     -10.5      2.784      4.580
ROOT
ATOM     19  C15 UNL A   1      38.273  31.083  30.425  1.00  0.00    +0.000 C 
ATOM     20  C16 UNL A   1      38.551  31.378  31.872  1.00  0.00    +0.000 C 
ATOM     21  N3  UNL A   1      39.481  30.884  32.653  1.00  0.00    +0.000 N 
ATOM     22  C17 UNL A   1      39.316  31.510  33.881  1.00  0.00    +0.000 C 
ATOM     23  C18 UNL A   1      39.993  31.299  35.035  1.00  0.00    +0.000 C 
ATOM     35  C25 UNL A   1      41.058  30.344  35.192  1.00  0.00    +0.000 C 
ATOM     36  C26 UNL A   1      41.773  30.025  36.334  1.00  0.00    +0.000 C 
ATOM     37  C27 UNL A   1      42.731  29.062  35.998  1.00  0.00    +0.000 C 
ATOM     38  C28 UNL A   1      42.586  28.752  34.656  1.00  0.00    +0.000 C 
ATOM     39  N4  UNL A   1      41.562  29.549  34.172  1.00  0.00    +0.000 N 
ATOM     40  C29 UNL A   1      43.327  27.799  33.872  1.00  0.00    +0.000 C 
ATOM     52  C36 UNL A   1      43.118  27.547  32.556  1.00  0.00    +0.000 C 
ATOM     53  N5  UNL A   1      42.192  28.118  31.696  1.00  0.00    +0.000 N 
ATOM     54  C37 UNL A   1      42.399  27.565  30.526  1.00  0.00    +0.000 C 
ATOM     55  C38 UNL A   1      41.670  27.784  29.228  1.00  0.00    +0.000 C 
ATOM     67  C45 UNL A   1      40.635  28.644  29.191  1.00  0.00    +0.000 C 
ATOM     68  C46 UNL A   1      39.825  28.944  28.015  1.00  0.00    +0.000 C 
ATOM     69  C47 UNL A   1      38.904  29.864  28.339  1.00  0.00    +0.000 C 
ATOM     70  C48 UNL A   1      39.041  30.200  29.758  1.00  0.00    +0.000 C 
ATOM     71  N6  UNL A   1      40.094  29.428  30.182  1.00  0.00    +0.000 N 
ATOM     72  C49 UNL A   1      43.500  26.592  30.510  1.00  0.00    +0.000 C 
ATOM     73  C50 UNL A   1      43.876  26.588  31.780  1.00  0.00    +0.000 C 
ATOM     74  C51 UNL A   1      38.229  32.454  33.732  1.00  0.00    +0.000 C 
ATOM     75  C52 UNL A   1      37.687  32.373  32.525  1.00  0.00    +0.000 C 
ATOM    112  H21 UNL A   1      41.625  30.429  37.272  1.00  0.00    +0.000 H 
ATOM    113  H22 UNL A   1      43.426  28.653  36.641  1.00  0.00    +0.000 H 
ATOM    114  H23 UNL A   1      41.239  29.551  33.242  1.00  0.00    +0.000 H 
ATOM    115  H24 UNL A   1      39.942  28.516  27.082  1.00  0.00    +0.000 H 
ATOM    116  H25 UNL A   1      38.211  30.271  27.692  1.00  0.00    +0.000 H 
ATOM    117  H26 UNL A   1      40.429  29.434  31.107  1.00  0.00    +0.000 H 
ATOM    118  H27 UNL A   1      43.882  26.053  29.716  1.00  0.00    +0.000 H 
ATOM    119  H28 UNL A   1      44.614  25.980  32.168  1.00  0.00    +0.000 H 
ATOM    120  H29 UNL A   1      37.918  33.107  34.468  1.00  0.00    +0.000 H 
ATOM    121  H30 UNL A   1      36.870  32.875  32.143  1.00  0.00    +0.000 H 
ENDROOT
BRANCH   19   18
ATOM     76  C53 UNL A   1      35.910  31.224  29.612  1.00  0.00    +0.000 C 
ATOM     77  C54 UNL A   1      34.881  31.898  28.956  1.00  0.00    +0.000 C 
ATOM    110  H19 UNL A   1      36.541  34.690  28.115  1.00  0.00    +0.000 H 
ATOM     15  C11 UNL A   1      35.094  33.189  28.463  1.00  0.00    +0.000 C 
ATOM     16  C12 UNL A   1      36.371  33.755  28.519  1.00  0.00    +0.000 C 
ATOM     17  C13 UNL A   1      37.417  33.055  29.124  1.00  0.00    +0.000 C 
ATOM    111  H20 UNL A   1      38.365  33.463  29.143  1.00  0.00    +0.000 H 
ATOM     18  C14 UNL A   1      37.187  31.796  29.705  1.00  0.00    +0.000 C 
ATOM    122  H31 UNL A   1      35.731  30.298  30.033  1.00  0.00    +0.000 H 
ATOM    123  H32 UNL A   1      33.962  31.444  28.833  1.00  0.00    +0.000 H 
BRANCH   15   13
ATOM     13  C10 UNL A   1      33.997  33.975  27.854  1.00  0.00    +0.000 C 
ATOM     14  O2  UNL A   1      34.231  35.094  27.406  1.00  0.00    +0.000 O 
BRANCH   13   12
ATOM     12  N2  UNL A   1      32.723  33.470  27.809  1.00  0.00    +0.000 N 
ATOM    109  H18 UNL A   1      32.276  33.379  28.682  1.00  0.00    +0.000 H 
BRANCH   12   11
ATOM     11  C9  UNL A   1      31.935  33.050  26.662  1.00  0.00    +0.000 C 
ATOM    108  H17 UNL A   1      32.571  33.081  25.803  1.00  0.00    +0.000 H 
ATOM    107  H16 UNL A   1      31.100  33.711  26.560  1.00  0.00    +0.000 H 
BRANCH   11   10
ATOM    105  H14 UNL A   1      30.968  31.525  27.770  1.00  0.00    +0.000 H 
ATOM     10  C8  UNL A   1      31.414  31.621  26.802  1.00  0.00    +0.000 C 
ATOM    106  H15 UNL A   1      30.723  31.478  25.997  1.00  0.00    +0.000 H 
BRANCH   10    9
ATOM      9  C7  UNL A   1      32.469  30.523  26.656  1.00  0.00    +0.000 C 
ATOM    103  H12 UNL A   1      32.994  30.689  25.739  1.00  0.00    +0.000 H 
ATOM    104  H13 UNL A   1      33.092  30.594  27.524  1.00  0.00    +0.000 H 
BRANCH    9    8
ATOM    101  H10 UNL A   1      31.562  28.867  27.619  1.00  0.00    +0.000 H 
ATOM    102  H11 UNL A   1      31.172  29.075  25.882  1.00  0.00    +0.000 H 
ATOM      8  C6  UNL A   1      31.927  29.094  26.639  1.00  0.00    +0.000 C 
BRANCH    8    7
ATOM     99  H8  UNL A   1      33.295  28.224  25.264  1.00  0.00    +0.000 H 
ATOM    100  H9  UNL A   1      33.704  28.032  26.996  1.00  0.00    +0.000 H 
ATOM      7  C5  UNL A   1      32.939  28.006  26.250  1.00  0.00    +0.000 C 
BRANCH    7    6
ATOM     97  H6  UNL A   1      33.210  25.888  26.287  1.00  0.00    +0.000 H 
ATOM     98  H7  UNL A   1      31.758  26.459  27.106  1.00  0.00    +0.000 H 
ATOM      6  C4  UNL A   1      32.389  26.574  26.251  1.00  0.00    +0.000 C 
BRANCH    6    5
ATOM      5  N1  UNL A   1      31.600  26.303  25.063  1.00  0.00    +0.000 N 
ATOM     96  H5  UNL A   1      30.670  26.008  25.194  1.00  0.00    +0.000 H 
BRANCH    5    3
ATOM      3  C3  UNL A   1      32.054  26.427  23.775  1.00  0.00    +0.000 C 
ATOM      4  O1  UNL A   1      31.566  27.341  23.110  1.00  0.00    +0.000 O 
BRANCH    3    2
ATOM      2  C2  UNL A   1      33.144  25.464  23.266  1.00  0.00    +0.000 C 
ATOM     95  H4  UNL A   1      34.056  25.742  23.755  1.00  0.00    +0.000 H 
BRANCH    2    1
ATOM      1  C1  UNL A   1      33.222  25.626  21.743  1.00  0.00    +0.000 C 
ATOM     92  H1  UNL A   1      32.407  25.104  21.287  1.00  0.00    +0.000 H 
ATOM     93  H2  UNL A   1      34.147  25.222  21.388  1.00  0.00    +0.000 H 
ATOM     94  H3  UNL A   1      33.166  26.665  21.490  1.00  0.00    +0.000 H 
ENDBRANCH    2    1
BRANCH    2   78
ATOM    137  H46 UNL A   1      34.455  21.533  25.473  1.00  0.00    +0.000 H 
ATOM     78  C55 UNL A   1      32.993  23.985  23.662  1.00  0.00    +0.000 C 
ATOM     79  C56 UNL A   1      31.965  23.184  23.127  1.00  0.00    +0.000 C 
ATOM     80  C57 UNL A   1      31.844  21.825  23.429  1.00  0.00    +0.000 C 
ATOM     81  C58 UNL A   1      32.739  21.206  24.297  1.00  0.00    +0.000 C 
ATOM     89  C65 UNL A   1      33.767  21.977  24.845  1.00  0.00    +0.000 C 
ATOM     90  C66 UNL A   1      33.879  23.348  24.557  1.00  0.00    +0.000 C 
ATOM     91 Br1  UNL A   1      35.249  24.269  25.511  1.00  0.00    +0.000 Br
ATOM    124  H33 UNL A   1      31.278  23.616  22.491  1.00  0.00    +0.000 H 
ATOM    125  H34 UNL A   1      31.083  21.274  23.004  1.00  0.00    +0.000 H 
BRANCH   81   82
ATOM     82  C59 UNL A   1      32.577  19.750  24.658  1.00  0.00    +0.000 C 
ATOM    126  H35 UNL A   1      31.571  19.465  24.432  1.00  0.00    +0.000 H 
ATOM    127  H36 UNL A   1      32.826  19.678  25.697  1.00  0.00    +0.000 H 
BRANCH   82   83
ATOM    129  H38 UNL A   1      34.135  17.930  25.820  1.00  0.00    +0.000 H 
ATOM    130  H39 UNL A   1      35.454  18.516  24.879  1.00  0.00    +0.000 H 
ATOM    131  H40 UNL A   1      34.193  15.882  24.812  1.00  0.00    +0.000 H 
ATOM    132  H41 UNL A   1      35.688  16.339  24.095  1.00  0.00    +0.000 H 
ATOM    133  H42 UNL A   1      33.589  15.748  22.548  1.00  0.00    +0.000 H 
ATOM    134  H43 UNL A   1      34.615  17.014  22.054  1.00  0.00    +0.000 H 
ATOM    135  H44 UNL A   1      31.994  17.233  23.603  1.00  0.00    +0.000 H 
ATOM     83  C60 UNL A   1      33.518  18.774  23.934  1.00  0.00    +0.000 C 
ATOM     84  C61 UNL A   1      34.514  18.010  24.822  1.00  0.00    +0.000 C 
ATOM     85  C62 UNL A   1      34.661  16.620  24.197  1.00  0.00    +0.000 C 
ATOM     86  C63 UNL A   1      33.966  16.704  22.846  1.00  0.00    +0.000 C 
ATOM     87  C64 UNL A   1      32.831  17.682  23.110  1.00  0.00    +0.000 C 
ATOM    128  H37 UNL A   1      34.025  19.478  23.309  1.00  0.00    +0.000 H 
BRANCH   87   88
ATOM    136  H45 UNL A   1      32.547  17.630  21.167  1.00  0.00    +0.000 H 
ATOM     88  O3  UNL A   1      32.302  18.207  21.907  1.00  0.00    +0.000 O 
ENDBRANCH   87   88
ENDBRANCH   82   83
ENDBRANCH   81   82
ENDBRANCH    2   78
ENDBRANCH    3    2
ENDBRANCH    5    3
ENDBRANCH    6    5
ENDBRANCH    7    6
ENDBRANCH    8    7
ENDBRANCH    9    8
ENDBRANCH   10    9
ENDBRANCH   11   10
ENDBRANCH   12   11
ENDBRANCH   13   12
ENDBRANCH   15   13
ENDBRANCH   19   18
BRANCH   23   24
ATOM     33  C24 UNL A   1      38.496  31.723  37.022  1.00  0.00    +0.000 C 
ATOM     34  F5  UNL A   1      37.821  30.598  36.739  1.00  0.00    +0.000 F 
ATOM     24  C19 UNL A   1      39.592  32.106  36.234  1.00  0.00    +0.000 C 
ATOM     25  C20 UNL A   1      40.259  33.294  36.571  1.00  0.00    +0.000 C 
ATOM     26  F1  UNL A   1      41.320  33.697  35.856  1.00  0.00    +0.000 F 
ATOM     27  C21 UNL A   1      39.854  34.059  37.662  1.00  0.00    +0.000 C 
ATOM     28  F2  UNL A   1      40.527  35.172  37.985  1.00  0.00    +0.000 F 
ATOM     29  C22 UNL A   1      38.759  33.667  38.419  1.00  0.00    +0.000 C 
ATOM     30  F3  UNL A   1      38.363  34.410  39.461  1.00  0.00    +0.000 F 
ATOM     31  C23 UNL A   1      38.078  32.503  38.097  1.00  0.00    +0.000 C 
ATOM     32  F4  UNL A   1      37.013  32.129  38.820  1.00  0.00    +0.000 F 
ENDBRANCH   23   24
BRANCH   40   41
ATOM     41  C30 UNL A   1      44.401  27.006  34.556  1.00  0.00    +0.000 C 
ATOM     42  C31 UNL A   1      45.717  27.482  34.648  1.00  0.00    +0.000 C 
ATOM     43  F6  UNL A   1      46.052  28.653  34.084  1.00  0.00    +0.000 F 
ATOM     44  C32 UNL A   1      46.705  26.732  35.279  1.00  0.00    +0.000 C 
ATOM     45  F7  UNL A   1      47.967  27.182  35.311  1.00  0.00    +0.000 F 
ATOM     46  C33 UNL A   1      46.390  25.513  35.859  1.00  0.00    +0.000 C 
ATOM     47  F8  UNL A   1      47.342  24.792  36.469  1.00  0.00    +0.000 F 
ATOM     48  C34 UNL A   1      45.090  25.034  35.800  1.00  0.00    +0.000 C 
ATOM     49  F9  UNL A   1      44.781  23.860  36.369  1.00  0.00    +0.000 F 
ATOM     50  C35 UNL A   1      44.105  25.768  35.145  1.00  0.00    +0.000 C 
ATOM     51  F10 UNL A   1      42.860  25.272  35.089  1.00  0.00    +0.000 F 
ENDBRANCH   40   41
BRANCH   55   56
ATOM     65  C44 UNL A   1      41.534  25.785  27.704  1.00  0.00    +0.000 C 
ATOM     66  F15 UNL A   1      40.661  25.210  28.543  1.00  0.00    +0.000 F 
ATOM     56  C39 UNL A   1      42.070  27.046  28.003  1.00  0.00    +0.000 C 
ATOM     57  C40 UNL A   1      42.983  27.600  27.095  1.00  0.00    +0.000 C 
ATOM     58  F11 UNL A   1      43.505  28.813  27.328  1.00  0.00    +0.000 F 
ATOM     59  C41 UNL A   1      43.327  26.932  25.922  1.00  0.00    +0.000 C 
ATOM     60  F12 UNL A   1      44.163  27.507  25.047  1.00  0.00    +0.000 F 
ATOM     61  C42 UNL A   1      42.788  25.684  25.649  1.00  0.00    +0.000 C 
ATOM     62  F13 UNL A   1      43.117  25.043  24.520  1.00  0.00    +0.000 F 
ATOM     63  C43 UNL A   1      41.899  25.106  26.544  1.00  0.00    +0.000 C 
ATOM     64  F14 UNL A   1      41.387  23.894  26.290  1.00  0.00    +0.000 F 
ENDBRANCH   55   56
TORSDOF 20
ENDMDL
