MODEL 1
REMARK VINA RESULT:     -12.2      0.000      0.000
ROOT
ATOM    129  H35 UNL A   1      53.489  19.035   9.114  1.00  0.00    +0.000 H 
ATOM    130  H36 UNL A   1      55.153  19.606  12.881  1.00  0.00    +0.000 H 
ATOM    131  H37 UNL A   1      59.912  18.040  12.545  1.00  0.00    +0.000 H 
ATOM    132  H38 UNL A   1      60.166  18.736  14.996  1.00  0.00    +0.000 H 
ATOM    133  H39 UNL A   1      50.838  22.465  15.029  1.00  0.00    +0.000 H 
ATOM    134  H40 UNL A   1      50.402  21.354  12.763  1.00  0.00    +0.000 H 
ATOM     36  C30 UNL A   1      52.723  20.177  11.614  1.00  0.00    +0.000 C 
ATOM     37  C31 UNL A   1      52.581  20.764  12.987  1.00  0.00    +0.000 C 
ATOM     38  N4  UNL A   1      53.471  20.866  13.941  1.00  0.00    +0.000 N 
ATOM     39  C32 UNL A   1      52.840  21.551  14.969  1.00  0.00    +0.000 C 
ATOM     40  C33 UNL A   1      53.321  21.854  16.198  1.00  0.00    +0.000 C 
ATOM     52  C40 UNL A   1      54.635  21.490  16.660  1.00  0.00    +0.000 C 
ATOM     53  C41 UNL A   1      55.195  21.682  17.910  1.00  0.00    +0.000 C 
ATOM     54  C42 UNL A   1      56.508  21.196  17.877  1.00  0.00    +0.000 C 
ATOM     55  C43 UNL A   1      56.751  20.668  16.619  1.00  0.00    +0.000 C 
ATOM     56  N5  UNL A   1      55.595  20.858  15.882  1.00  0.00    +0.000 N 
ATOM     57  C44 UNL A   1      57.950  20.038  16.127  1.00  0.00    +0.000 C 
ATOM     69  C51 UNL A   1      58.108  19.513  14.886  1.00  0.00    +0.000 C 
ATOM     70  N6  UNL A   1      57.202  19.468  13.837  1.00  0.00    +0.000 N 
ATOM     71  C52 UNL A   1      57.828  18.878  12.847  1.00  0.00    +0.000 C 
ATOM     72  C53 UNL A   1      57.323  18.558  11.469  1.00  0.00    +0.000 C 
ATOM     84  C60 UNL A   1      56.039  18.825  11.165  1.00  0.00    +0.000 C 
ATOM     85  C61 UNL A   1      55.410  18.584   9.871  1.00  0.00    +0.000 C 
ATOM     86  C62 UNL A   1      54.153  19.052   9.904  1.00  0.00    +0.000 C 
ATOM     87  C63 UNL A   1      53.876  19.592  11.237  1.00  0.00    +0.000 C 
ATOM     88  N7  UNL A   1      55.041  19.381  11.929  1.00  0.00    +0.000 N 
ATOM     89  C64 UNL A   1      59.211  18.491  13.153  1.00  0.00    +0.000 C 
ATOM     90  C65 UNL A   1      59.322  18.874  14.418  1.00  0.00    +0.000 C 
ATOM     91  C66 UNL A   1      51.512  21.886  14.503  1.00  0.00    +0.000 C 
ATOM     92  C67 UNL A   1      51.275  21.354  13.314  1.00  0.00    +0.000 C 
ATOM    125  H31 UNL A   1      54.728  22.107  18.725  1.00  0.00    +0.000 H 
ATOM    126  H32 UNL A   1      57.181  21.225  18.660  1.00  0.00    +0.000 H 
ATOM    127  H33 UNL A   1      55.471  20.584  14.944  1.00  0.00    +0.000 H 
ATOM    128  H34 UNL A   1      55.860  18.128   9.062  1.00  0.00    +0.000 H 
ENDROOT
BRANCH   36   35
ATOM     33  C27 UNL A   1      49.849  19.494   9.243  1.00  0.00    +0.000 C 
ATOM     34  C28 UNL A   1      50.736  19.342  10.309  1.00  0.00    +0.000 C 
ATOM     35  C29 UNL A   1      51.645  20.366  10.616  1.00  0.00    +0.000 C 
ATOM    135  H41 UNL A   1      52.214  22.357  10.177  1.00  0.00    +0.000 H 
ATOM    136  H42 UNL A   1      50.515  22.695   8.483  1.00  0.00    +0.000 H 
ATOM    123  H29 UNL A   1      49.203  18.731   8.989  1.00  0.00    +0.000 H 
ATOM    124  H30 UNL A   1      50.724  18.477  10.870  1.00  0.00    +0.000 H 
ATOM     93  C68 UNL A   1      51.569  21.590   9.932  1.00  0.00    +0.000 C 
ATOM     94  C69 UNL A   1      50.630  21.771   8.927  1.00  0.00    +0.000 C 
ATOM     32  C26 UNL A   1      49.843  20.691   8.523  1.00  0.00    +0.000 C 
BRANCH   32   30
ATOM     30  C25 UNL A   1      49.054  20.773   7.278  1.00  0.00    +0.000 C 
ATOM     31  O3  UNL A   1      48.735  21.862   6.826  1.00  0.00    +0.000 O 
BRANCH   30   29
ATOM    122  H28 UNL A   1      49.387  18.990   6.428  1.00  0.00    +0.000 H 
ATOM     29  N3  UNL A   1      48.656  19.603   6.671  1.00  0.00    +0.000 N 
BRANCH   29   28
ATOM    121  H27 UNL A   1      47.002  19.677   5.466  1.00  0.00    +0.000 H 
ATOM     28  C24 UNL A   1      47.316  19.135   6.333  1.00  0.00    +0.000 C 
ATOM    120  H26 UNL A   1      46.676  19.308   7.173  1.00  0.00    +0.000 H 
BRANCH   28   27
ATOM     27  C23 UNL A   1      47.261  17.652   5.981  1.00  0.00    +0.000 C 
ATOM    118  H24 UNL A   1      48.008  17.143   6.555  1.00  0.00    +0.000 H 
ATOM    119  H25 UNL A   1      46.267  17.321   6.205  1.00  0.00    +0.000 H 
BRANCH   27   26
ATOM     26  C22 UNL A   1      47.500  17.345   4.509  1.00  0.00    +0.000 C 
ATOM    116  H22 UNL A   1      48.525  17.561   4.288  1.00  0.00    +0.000 H 
ATOM    117  H23 UNL A   1      47.240  16.315   4.377  1.00  0.00    +0.000 H 
BRANCH   26   25
ATOM     25  C21 UNL A   1      46.632  18.126   3.523  1.00  0.00    +0.000 C 
ATOM    114  H20 UNL A   1      46.529  19.125   3.889  1.00  0.00    +0.000 H 
ATOM    115  H21 UNL A   1      47.128  18.075   2.576  1.00  0.00    +0.000 H 
BRANCH   25   24
ATOM    113  H19 UNL A   1      45.065  16.854   4.113  1.00  0.00    +0.000 H 
ATOM    112  H18 UNL A   1      45.201  17.086   2.348  1.00  0.00    +0.000 H 
ATOM     24  C20 UNL A   1      45.231  17.546   3.313  1.00  0.00    +0.000 C 
BRANCH   24   23
ATOM    111  H17 UNL A   1      43.773  18.641   4.404  1.00  0.00    +0.000 H 
ATOM    110  H16 UNL A   1      43.300  18.258   2.751  1.00  0.00    +0.000 H 
ATOM     23  C19 UNL A   1      44.099  18.574   3.387  1.00  0.00    +0.000 C 
BRANCH   23   22
ATOM    109  H15 UNL A   1      45.050  20.438   3.606  1.00  0.00    +0.000 H 
ATOM     22  N2  UNL A   1      44.547  19.886   2.964  1.00  0.00    +0.000 N 
BRANCH   22    2
ATOM      1  O1  UNL A   1      45.106  20.350   0.790  1.00  0.00    +0.000 O 
ATOM      2  C1  UNL A   1      44.304  20.395   1.716  1.00  0.00    +0.000 C 
BRANCH    2    3
ATOM      3  C2  UNL A   1      42.947  21.049   1.567  1.00  0.00    +0.000 C 
ATOM     95  H1  UNL A   1      43.065  21.970   1.035  1.00  0.00    +0.000 H 
ATOM     96  H2  UNL A   1      42.552  21.212   2.548  1.00  0.00    +0.000 H 
BRANCH    3    4
ATOM     97  H3  UNL A   1      42.175  19.152   1.060  1.00  0.00    +0.000 H 
ATOM     98  H4  UNL A   1      42.100  20.410  -0.223  1.00  0.00    +0.000 H 
ATOM      4  C3  UNL A   1      41.961  20.171   0.811  1.00  0.00    +0.000 C 
BRANCH    4    5
ATOM      5  C4  UNL A   1      40.512  20.412   1.086  1.00  0.00    +0.000 C 
ATOM      6  N1  UNL A   1      39.868  20.136   2.204  1.00  0.00    +0.000 N 
ATOM      7  C5  UNL A   1      38.580  20.528   1.950  1.00  0.00    +0.000 C 
ATOM     14  C12 UNL A   1      38.492  21.085   0.688  1.00  0.00    +0.000 C 
ATOM     21  O2  UNL A   1      39.734  20.994   0.110  1.00  0.00    +0.000 O 
BRANCH    7    8
ATOM     99  H5  UNL A   1      37.276  22.571   3.101  1.00  0.00    +0.000 H 
ATOM    100  H6  UNL A   1      35.781  22.460   5.008  1.00  0.00    +0.000 H 
ATOM    101  H7  UNL A   1      35.092  20.303   5.879  1.00  0.00    +0.000 H 
ATOM    102  H8  UNL A   1      35.830  18.263   4.795  1.00  0.00    +0.000 H 
ATOM    103  H9  UNL A   1      37.344  18.368   2.901  1.00  0.00    +0.000 H 
ATOM      8  C6  UNL A   1      37.484  20.475   2.895  1.00  0.00    +0.000 C 
ATOM      9  C7  UNL A   1      36.992  21.654   3.480  1.00  0.00    +0.000 C 
ATOM     10  C8  UNL A   1      36.123  21.591   4.568  1.00  0.00    +0.000 C 
ATOM     11  C9  UNL A   1      35.717  20.352   5.059  1.00  0.00    +0.000 C 
ATOM     12  C10 UNL A   1      36.156  19.178   4.445  1.00  0.00    +0.000 C 
ATOM     13  C11 UNL A   1      37.031  19.237   3.360  1.00  0.00    +0.000 C 
ENDBRANCH    7    8
BRANCH   14   15
ATOM    104  H10 UNL A   1      35.889  20.399   0.460  1.00  0.00    +0.000 H 
ATOM    105  H11 UNL A   1      34.125  21.648  -0.644  1.00  0.00    +0.000 H 
ATOM    106  H12 UNL A   1      34.625  23.732  -1.777  1.00  0.00    +0.000 H 
ATOM    107  H13 UNL A   1      36.910  24.542  -1.873  1.00  0.00    +0.000 H 
ATOM    108  H14 UNL A   1      38.677  23.288  -0.795  1.00  0.00    +0.000 H 
ATOM     15  C13 UNL A   1      37.428  21.752  -0.049  1.00  0.00    +0.000 C 
ATOM     16  C14 UNL A   1      36.111  21.281  -0.027  1.00  0.00    +0.000 C 
ATOM     17  C15 UNL A   1      35.094  22.002  -0.664  1.00  0.00    +0.000 C 
ATOM     18  C16 UNL A   1      35.382  23.197  -1.325  1.00  0.00    +0.000 C 
ATOM     19  C17 UNL A   1      36.690  23.664  -1.375  1.00  0.00    +0.000 C 
ATOM     20  C18 UNL A   1      37.705  22.943  -0.747  1.00  0.00    +0.000 C 
ENDBRANCH   14   15
ENDBRANCH    4    5
ENDBRANCH    3    4
ENDBRANCH    2    3
ENDBRANCH   22    2
ENDBRANCH   23   22
ENDBRANCH   24   23
ENDBRANCH   25   24
ENDBRANCH   26   25
ENDBRANCH   27   26
ENDBRANCH   28   27
ENDBRANCH   29   28
ENDBRANCH   30   29
ENDBRANCH   32   30
ENDBRANCH   36   35
BRANCH   40   41
ATOM     41  C34 UNL A   1      52.414  22.611  17.122  1.00  0.00    +0.000 C 
ATOM     42  C35 UNL A   1      51.628  21.953  18.082  1.00  0.00    +0.000 C 
ATOM     43  F1  UNL A   1      51.666  20.616  18.183  1.00  0.00    +0.000 F 
ATOM     44  C36 UNL A   1      50.760  22.663  18.906  1.00  0.00    +0.000 C 
ATOM     45  F2  UNL A   1      49.974  22.007  19.772  1.00  0.00    +0.000 F 
ATOM     46  C37 UNL A   1      50.687  24.044  18.815  1.00  0.00    +0.000 C 
ATOM     47  F3  UNL A   1      49.847  24.725  19.607  1.00  0.00    +0.000 F 
ATOM     48  C38 UNL A   1      51.477  24.718  17.896  1.00  0.00    +0.000 C 
ATOM     49  F4  UNL A   1      51.414  26.055  17.814  1.00  0.00    +0.000 F 
ATOM     50  C39 UNL A   1      52.325  24.009  17.049  1.00  0.00    +0.000 C 
ATOM     51  F5  UNL A   1      53.056  24.688  16.152  1.00  0.00    +0.000 F 
ENDBRANCH   40   41
BRANCH   57   58
ATOM     65  C49 UNL A   1      60.418  18.664  18.672  1.00  0.00    +0.000 C 
ATOM     66  F9  UNL A   1      60.628  17.527  19.347  1.00  0.00    +0.000 F 
ATOM     67  C50 UNL A   1      59.369  18.749  17.763  1.00  0.00    +0.000 C 
ATOM     68  F10 UNL A   1      58.588  17.675  17.574  1.00  0.00    +0.000 F 
ATOM     58  C45 UNL A   1      59.118  19.938  17.062  1.00  0.00    +0.000 C 
ATOM     59  C46 UNL A   1      59.960  21.034  17.296  1.00  0.00    +0.000 C 
ATOM     60  F6  UNL A   1      59.769  22.187  16.636  1.00  0.00    +0.000 F 
ATOM     61  C47 UNL A   1      61.024  20.938  18.189  1.00  0.00    +0.000 C 
ATOM     62  F7  UNL A   1      61.839  21.986  18.372  1.00  0.00    +0.000 F 
ATOM     63  C48 UNL A   1      61.248  19.756  18.881  1.00  0.00    +0.000 C 
ATOM     64  F8  UNL A   1      62.267  19.669  19.746  1.00  0.00    +0.000 F 
ENDBRANCH   57   58
BRANCH   72   73
ATOM     73  C54 UNL A   1      58.202  17.933  10.450  1.00  0.00    +0.000 C 
ATOM     74  C55 UNL A   1      58.972  18.723   9.587  1.00  0.00    +0.000 C 
ATOM     75  F11 UNL A   1      58.880  20.059   9.642  1.00  0.00    +0.000 F 
ATOM     76  C56 UNL A   1      59.824  18.144   8.648  1.00  0.00    +0.000 C 
ATOM     77  F12 UNL A   1      60.530  18.921   7.816  1.00  0.00    +0.000 F 
ATOM     78  C57 UNL A   1      59.937  16.764   8.570  1.00  0.00    +0.000 C 
ATOM     79  F13 UNL A   1      60.765  16.206   7.676  1.00  0.00    +0.000 F 
ATOM     80  C58 UNL A   1      59.188  15.961   9.418  1.00  0.00    +0.000 C 
ATOM     81  F14 UNL A   1      59.307  14.628   9.356  1.00  0.00    +0.000 F 
ATOM     82  C59 UNL A   1      58.320  16.539  10.343  1.00  0.00    +0.000 C 
ATOM     83  F15 UNL A   1      57.611  15.741  11.152  1.00  0.00    +0.000 F 
ENDBRANCH   72   73
TORSDOF 19
ENDMDL
MODEL 2
REMARK VINA RESULT:     -12.1      0.511      2.049
ROOT
ATOM    129  H35 UNL A   1      53.484  19.125   9.114  1.00  0.00    +0.000 H 
ATOM    130  H36 UNL A   1      55.124  19.649  12.897  1.00  0.00    +0.000 H 
ATOM    131  H37 UNL A   1      59.847  17.970  12.605  1.00  0.00    +0.000 H 
ATOM    132  H38 UNL A   1      60.094  18.656  15.060  1.00  0.00    +0.000 H 
ATOM    133  H39 UNL A   1      50.857  22.607  15.008  1.00  0.00    +0.000 H 
ATOM    134  H40 UNL A   1      50.418  21.510  12.736  1.00  0.00    +0.000 H 
ATOM     36  C30 UNL A   1      52.722  20.281  11.608  1.00  0.00    +0.000 C 
ATOM     37  C31 UNL A   1      52.580  20.868  12.980  1.00  0.00    +0.000 C 
ATOM     38  N4  UNL A   1      53.463  20.948  13.943  1.00  0.00    +0.000 N 
ATOM     39  C32 UNL A   1      52.838  21.646  14.966  1.00  0.00    +0.000 C 
ATOM     40  C33 UNL A   1      53.314  21.935  16.201  1.00  0.00    +0.000 C 
ATOM     52  C40 UNL A   1      54.614  21.539  16.675  1.00  0.00    +0.000 C 
ATOM     53  C41 UNL A   1      55.166  21.715  17.931  1.00  0.00    +0.000 C 
ATOM     54  C42 UNL A   1      56.468  21.198  17.910  1.00  0.00    +0.000 C 
ATOM     55  C43 UNL A   1      56.710  20.666  16.653  1.00  0.00    +0.000 C 
ATOM     56  N5  UNL A   1      55.566  20.885  15.906  1.00  0.00    +0.000 N 
ATOM     57  C44 UNL A   1      57.899  20.009  16.171  1.00  0.00    +0.000 C 
ATOM     69  C51 UNL A   1      58.057  19.483  14.932  1.00  0.00    +0.000 C 
ATOM     70  N6  UNL A   1      57.160  19.461  13.874  1.00  0.00    +0.000 N 
ATOM     71  C52 UNL A   1      57.781  18.858  12.889  1.00  0.00    +0.000 C 
ATOM     72  C53 UNL A   1      57.282  18.552  11.505  1.00  0.00    +0.000 C 
ATOM     84  C60 UNL A   1      56.009  18.850  11.189  1.00  0.00    +0.000 C 
ATOM     85  C61 UNL A   1      55.387  18.626   9.888  1.00  0.00    +0.000 C 
ATOM     86  C62 UNL A   1      54.141  19.125   9.910  1.00  0.00    +0.000 C 
ATOM     87  C63 UNL A   1      53.864  19.668  11.241  1.00  0.00    +0.000 C 
ATOM     88  N7  UNL A   1      55.017  19.428  11.944  1.00  0.00    +0.000 N 
ATOM     89  C64 UNL A   1      59.151  18.437  13.208  1.00  0.00    +0.000 C 
ATOM     90  C65 UNL A   1      59.259  18.815  14.474  1.00  0.00    +0.000 C 
ATOM     91  C66 UNL A   1      51.523  22.013  14.488  1.00  0.00    +0.000 C 
ATOM     92  C67 UNL A   1      51.285  21.489  13.295  1.00  0.00    +0.000 C 
ATOM    125  H31 UNL A   1      54.701  22.150  18.741  1.00  0.00    +0.000 H 
ATOM    126  H32 UNL A   1      57.133  21.209  18.699  1.00  0.00    +0.000 H 
ATOM    127  H33 UNL A   1      55.446  20.616  14.965  1.00  0.00    +0.000 H 
ATOM    128  H34 UNL A   1      55.834  18.161   9.082  1.00  0.00    +0.000 H 
ENDROOT
BRANCH   36   35
ATOM     33  C27 UNL A   1      49.852  19.672   9.212  1.00  0.00    +0.000 C 
ATOM     34  C28 UNL A   1      50.724  19.497  10.286  1.00  0.00    +0.000 C 
ATOM     35  C29 UNL A   1      51.658  20.497  10.599  1.00  0.00    +0.000 C 
ATOM    135  H41 UNL A   1      52.286  22.470  10.162  1.00  0.00    +0.000 H 
ATOM    136  H42 UNL A   1      50.612  22.851   8.451  1.00  0.00    +0.000 H 
ATOM    123  H29 UNL A   1      49.186  18.926   8.954  1.00  0.00    +0.000 H 
ATOM    124  H30 UNL A   1      50.683  18.634  10.850  1.00  0.00    +0.000 H 
ATOM     93  C68 UNL A   1      51.622  21.720   9.912  1.00  0.00    +0.000 C 
ATOM     94  C69 UNL A   1      50.698  21.926   8.898  1.00  0.00    +0.000 C 
ATOM     32  C26 UNL A   1      49.885  20.867   8.489  1.00  0.00    +0.000 C 
BRANCH   32   30
ATOM     30  C25 UNL A   1      49.110  20.967   7.237  1.00  0.00    +0.000 C 
ATOM     31  O3  UNL A   1      48.244  21.819   7.121  1.00  0.00    +0.000 O 
BRANCH   30   29
ATOM    122  H28 UNL A   1      50.310  19.893   6.045  1.00  0.00    +0.000 H 
ATOM     29  N3  UNL A   1      49.357  20.057   6.233  1.00  0.00    +0.000 N 
BRANCH   29   28
ATOM    121  H27 UNL A   1      49.004  18.665   4.774  1.00  0.00    +0.000 H 
ATOM     28  C24 UNL A   1      48.422  19.302   5.407  1.00  0.00    +0.000 C 
ATOM    120  H26 UNL A   1      47.828  19.995   4.849  1.00  0.00    +0.000 H 
BRANCH   28   27
ATOM     27  C23 UNL A   1      47.487  18.404   6.213  1.00  0.00    +0.000 C 
ATOM    118  H24 UNL A   1      48.078  17.659   6.704  1.00  0.00    +0.000 H 
ATOM    119  H25 UNL A   1      46.967  19.042   6.898  1.00  0.00    +0.000 H 
BRANCH   27   26
ATOM     26  C22 UNL A   1      46.424  17.698   5.383  1.00  0.00    +0.000 C 
ATOM    116  H22 UNL A   1      46.384  16.675   5.697  1.00  0.00    +0.000 H 
ATOM    117  H23 UNL A   1      45.514  18.236   5.553  1.00  0.00    +0.000 H 
BRANCH   26   25
ATOM     25  C21 UNL A   1      46.645  17.718   3.872  1.00  0.00    +0.000 C 
ATOM    114  H20 UNL A   1      47.005  18.688   3.600  1.00  0.00    +0.000 H 
ATOM    115  H21 UNL A   1      47.344  16.936   3.658  1.00  0.00    +0.000 H 
BRANCH   25   24
ATOM    113  H19 UNL A   1      45.136  16.401   3.233  1.00  0.00    +0.000 H 
ATOM    112  H18 UNL A   1      45.621  17.612   2.014  1.00  0.00    +0.000 H 
ATOM     24  C20 UNL A   1      45.393  17.422   3.042  1.00  0.00    +0.000 C 
BRANCH   24   23
ATOM    111  H17 UNL A   1      44.036  18.199   4.481  1.00  0.00    +0.000 H 
ATOM    110  H16 UNL A   1      43.311  17.869   2.910  1.00  0.00    +0.000 H 
ATOM     23  C19 UNL A   1      44.167  18.256   3.421  1.00  0.00    +0.000 C 
BRANCH   23   22
ATOM    109  H15 UNL A   1      44.846  20.232   3.669  1.00  0.00    +0.000 H 
ATOM     22  N2  UNL A   1      44.341  19.649   3.058  1.00  0.00    +0.000 N 
BRANCH   22    2
ATOM      1  O1  UNL A   1      44.429  21.020   1.222  1.00  0.00    +0.000 O 
ATOM      2  C1  UNL A   1      43.836  20.193   1.906  1.00  0.00    +0.000 C 
BRANCH    2    3
ATOM      3  C2  UNL A   1      42.451  19.700   1.543  1.00  0.00    +0.000 C 
ATOM     95  H1  UNL A   1      41.822  19.775   2.406  1.00  0.00    +0.000 H 
ATOM     96  H2  UNL A   1      42.541  18.686   1.212  1.00  0.00    +0.000 H 
BRANCH    3    4
ATOM     97  H3  UNL A   1      41.922  19.930  -0.486  1.00  0.00    +0.000 H 
ATOM     98  H4  UNL A   1      42.359  21.434   0.398  1.00  0.00    +0.000 H 
ATOM      4  C3  UNL A   1      41.829  20.505   0.413  1.00  0.00    +0.000 C 
BRANCH    4    5
ATOM      5  C4  UNL A   1      40.389  20.869   0.573  1.00  0.00    +0.000 C 
ATOM      6  N1  UNL A   1      39.617  21.441  -0.332  1.00  0.00    +0.000 N 
ATOM      7  C5  UNL A   1      38.407  21.572   0.299  1.00  0.00    +0.000 C 
ATOM     14  C12 UNL A   1      38.469  21.021   1.566  1.00  0.00    +0.000 C 
ATOM     21  O2  UNL A   1      39.756  20.583   1.763  1.00  0.00    +0.000 O 
BRANCH    7    8
ATOM     99  H5  UNL A   1      36.003  20.403   0.076  1.00  0.00    +0.000 H 
ATOM    100  H6  UNL A   1      34.157  21.118  -1.325  1.00  0.00    +0.000 H 
ATOM    101  H7  UNL A   1      34.269  23.250  -2.477  1.00  0.00    +0.000 H 
ATOM    102  H8  UNL A   1      36.187  24.701  -2.163  1.00  0.00    +0.000 H 
ATOM    103  H9  UNL A   1      38.047  23.980  -0.780  1.00  0.00    +0.000 H 
ATOM      8  C6  UNL A   1      37.202  22.105  -0.299  1.00  0.00    +0.000 C 
ATOM      9  C7  UNL A   1      36.055  21.305  -0.424  1.00  0.00    +0.000 C 
ATOM     10  C8  UNL A   1      34.988  21.720  -1.219  1.00  0.00    +0.000 C 
ATOM     11  C9  UNL A   1      35.048  22.950  -1.869  1.00  0.00    +0.000 C 
ATOM     12  C10 UNL A   1      36.159  23.778  -1.702  1.00  0.00    +0.000 C 
ATOM     13  C11 UNL A   1      37.233  23.362  -0.912  1.00  0.00    +0.000 C 
ENDBRANCH    7    8
BRANCH   14   15
ATOM    104  H10 UNL A   1      37.505  18.676   2.499  1.00  0.00    +0.000 H 
ATOM    105  H11 UNL A   1      35.992  18.341   4.366  1.00  0.00    +0.000 H 
ATOM    106  H12 UNL A   1      35.105  20.243   5.580  1.00  0.00    +0.000 H 
ATOM    107  H13 UNL A   1      35.672  22.496   4.885  1.00  0.00    +0.000 H 
ATOM    108  H14 UNL A   1      37.162  22.837   3.008  1.00  0.00    +0.000 H 
ATOM     15  C13 UNL A   1      37.485  20.784   2.613  1.00  0.00    +0.000 C 
ATOM     16  C14 UNL A   1      37.126  19.491   3.005  1.00  0.00    +0.000 C 
ATOM     17  C15 UNL A   1      36.253  19.298   4.082  1.00  0.00    +0.000 C 
ATOM     18  C16 UNL A   1      35.734  20.392   4.776  1.00  0.00    +0.000 C 
ATOM     19  C17 UNL A   1      36.064  21.684   4.382  1.00  0.00    +0.000 C 
ATOM     20  C18 UNL A   1      36.927  21.876   3.304  1.00  0.00    +0.000 C 
ENDBRANCH   14   15
ENDBRANCH    4    5
ENDBRANCH    3    4
ENDBRANCH    2    3
ENDBRANCH   22    2
ENDBRANCH   23   22
ENDBRANCH   24   23
ENDBRANCH   25   24
ENDBRANCH   26   25
ENDBRANCH   27   26
ENDBRANCH   28   27
ENDBRANCH   29   28
ENDBRANCH   30   29
ENDBRANCH   32   30
ENDBRANCH   36   35
BRANCH   40   41
ATOM     41  C34 UNL A   1      52.416  22.712  17.117  1.00  0.00    +0.000 C 
ATOM     42  C35 UNL A   1      51.603  22.071  18.066  1.00  0.00    +0.000 C 
ATOM     43  F1  UNL A   1      51.605  20.733  18.162  1.00  0.00    +0.000 F 
ATOM     44  C36 UNL A   1      50.743  22.800  18.882  1.00  0.00    +0.000 C 
ATOM     45  F2  UNL A   1      49.931  22.161  19.737  1.00  0.00    +0.000 F 
ATOM     46  C37 UNL A   1      50.708  24.183  18.796  1.00  0.00    +0.000 C 
ATOM     47  F3  UNL A   1      49.876  24.883  19.581  1.00  0.00    +0.000 F 
ATOM     48  C38 UNL A   1      51.524  24.839  17.888  1.00  0.00    +0.000 C 
ATOM     49  F4  UNL A   1      51.497  26.178  17.811  1.00  0.00    +0.000 F 
ATOM     50  C39 UNL A   1      52.364  24.112  17.048  1.00  0.00    +0.000 C 
ATOM     51  F5  UNL A   1      53.122  24.775  16.162  1.00  0.00    +0.000 F 
ENDBRANCH   40   41
BRANCH   57   58
ATOM     65  C49 UNL A   1      60.327  18.560  18.714  1.00  0.00    +0.000 C 
ATOM     66  F9  UNL A   1      60.520  17.406  19.365  1.00  0.00    +0.000 F 
ATOM     67  C50 UNL A   1      59.289  18.673  17.795  1.00  0.00    +0.000 C 
ATOM     68  F10 UNL A   1      58.503  17.609  17.572  1.00  0.00    +0.000 F 
ATOM     58  C45 UNL A   1      59.054  19.880  17.118  1.00  0.00    +0.000 C 
ATOM     59  C46 UNL A   1      59.901  20.964  17.387  1.00  0.00    +0.000 C 
ATOM     60  F6  UNL A   1      59.726  22.132  16.751  1.00  0.00    +0.000 F 
ATOM     61  C47 UNL A   1      60.953  20.840  18.290  1.00  0.00    +0.000 C 
ATOM     62  F7  UNL A   1      61.774  21.878  18.507  1.00  0.00    +0.000 F 
ATOM     63  C48 UNL A   1      61.161  19.641  18.957  1.00  0.00    +0.000 C 
ATOM     64  F8  UNL A   1      62.170  19.527  19.832  1.00  0.00    +0.000 F 
ENDBRANCH   57   58
BRANCH   72   73
ATOM     73  C54 UNL A   1      58.156  17.907  10.493  1.00  0.00    +0.000 C 
ATOM     74  C55 UNL A   1      59.005  18.676   9.686  1.00  0.00    +0.000 C 
ATOM     75  F11 UNL A   1      58.994  20.013   9.787  1.00  0.00    +0.000 F 
ATOM     76  C56 UNL A   1      59.851  18.077   8.755  1.00  0.00    +0.000 C 
ATOM     77  F12 UNL A   1      60.633  18.835   7.977  1.00  0.00    +0.000 F 
ATOM     78  C57 UNL A   1      59.881  16.696   8.631  1.00  0.00    +0.000 C 
ATOM     79  F13 UNL A   1      60.703  16.118   7.745  1.00  0.00    +0.000 F 
ATOM     80  C58 UNL A   1      59.054  15.914   9.424  1.00  0.00    +0.000 C 
ATOM     81  F14 UNL A   1      59.091  14.579   9.317  1.00  0.00    +0.000 F 
ATOM     82  C59 UNL A   1      58.191  16.514  10.339  1.00  0.00    +0.000 C 
ATOM     83  F15 UNL A   1      57.405  15.735  11.095  1.00  0.00    +0.000 F 
ENDBRANCH   72   73
TORSDOF 19
ENDMDL
MODEL 3
REMARK VINA RESULT:     -12.1     44.907     49.989
ROOT
ATOM    129  H35 UNL A   1      12.439  52.260   7.356  1.00  0.00    +0.000 H 
ATOM    130  H36 UNL A   1      14.703  51.338   3.994  1.00  0.00    +0.000 H 
ATOM    131  H37 UNL A   1      13.638  46.560   2.874  1.00  0.00    +0.000 H 
ATOM    132  H38 UNL A   1      15.224  46.821   0.881  1.00  0.00    +0.000 H 
ATOM    133  H39 UNL A   1      16.486  56.559   3.006  1.00  0.00    +0.000 H 
ATOM    134  H40 UNL A   1      15.307  56.205   5.253  1.00  0.00    +0.000 H 
ATOM     36  C30 UNL A   1      14.182  53.609   5.544  1.00  0.00    +0.000 C 
ATOM     37  C31 UNL A   1      15.068  54.101   4.439  1.00  0.00    +0.000 C 
ATOM     38  N4  UNL A   1      15.510  53.463   3.385  1.00  0.00    +0.000 N 
ATOM     39  C32 UNL A   1      16.226  54.401   2.655  1.00  0.00    +0.000 C 
ATOM     40  C33 UNL A   1      16.929  54.218   1.512  1.00  0.00    +0.000 C 
ATOM     52  C40 UNL A   1      17.055  52.953   0.838  1.00  0.00    +0.000 C 
ATOM     53  C41 UNL A   1      17.803  52.641  -0.283  1.00  0.00    +0.000 C 
ATOM     54  C42 UNL A   1      17.584  51.293  -0.592  1.00  0.00    +0.000 C 
ATOM     55  C43 UNL A   1      16.730  50.757   0.359  1.00  0.00    +0.000 C 
ATOM     56  N5  UNL A   1      16.412  51.786   1.228  1.00  0.00    +0.000 N 
ATOM     57  C44 UNL A   1      16.242  49.406   0.466  1.00  0.00    +0.000 C 
ATOM     69  C51 UNL A   1      15.429  48.940   1.446  1.00  0.00    +0.000 C 
ATOM     70  N6  UNL A   1      14.887  49.622   2.526  1.00  0.00    +0.000 N 
ATOM     71  C52 UNL A   1      14.159  48.746   3.175  1.00  0.00    +0.000 C 
ATOM     72  C53 UNL A   1      13.349  48.934   4.427  1.00  0.00    +0.000 C 
ATOM     84  C60 UNL A   1      13.389  50.122   5.058  1.00  0.00    +0.000 C 
ATOM     85  C61 UNL A   1      12.651  50.458   6.271  1.00  0.00    +0.000 C 
ATOM     86  C62 UNL A   1      12.861  51.751   6.563  1.00  0.00    +0.000 C 
ATOM     87  C63 UNL A   1      13.780  52.324   5.578  1.00  0.00    +0.000 C 
ATOM     88  N7  UNL A   1      14.070  51.273   4.745  1.00  0.00    +0.000 N 
ATOM     89  C64 UNL A   1      14.146  47.407   2.573  1.00  0.00    +0.000 C 
ATOM     90  C65 UNL A   1      14.960  47.572   1.538  1.00  0.00    +0.000 C 
ATOM     91  C66 UNL A   1      16.115  55.661   3.357  1.00  0.00    +0.000 C 
ATOM     92  C67 UNL A   1      15.475  55.512   4.507  1.00  0.00    +0.000 C 
ATOM    125  H31 UNL A   1      18.416  53.289  -0.802  1.00  0.00    +0.000 H 
ATOM    126  H32 UNL A   1      17.991  50.784  -1.393  1.00  0.00    +0.000 H 
ATOM    127  H33 UNL A   1      15.817  51.703   2.009  1.00  0.00    +0.000 H 
ATOM    128  H34 UNL A   1      12.063  49.807   6.815  1.00  0.00    +0.000 H 
ENDROOT
BRANCH   36   35
ATOM     33  C27 UNL A   1      13.602  55.574   8.730  1.00  0.00    +0.000 C 
ATOM     34  C28 UNL A   1      14.245  54.801   7.764  1.00  0.00    +0.000 C 
ATOM     35  C29 UNL A   1      13.625  54.569   6.526  1.00  0.00    +0.000 C 
ATOM    135  H41 UNL A   1      11.979  55.079   5.298  1.00  0.00    +0.000 H 
ATOM    136  H42 UNL A   1      10.986  56.605   6.898  1.00  0.00    +0.000 H 
ATOM    123  H29 UNL A   1      14.036  55.720   9.655  1.00  0.00    +0.000 H 
ATOM    124  H30 UNL A   1      15.175  54.400   7.958  1.00  0.00    +0.000 H 
ATOM     93  C68 UNL A   1      12.421  55.222   6.219  1.00  0.00    +0.000 C 
ATOM     94  C69 UNL A   1      11.823  56.058   7.151  1.00  0.00    +0.000 C 
ATOM     32  C26 UNL A   1      12.365  56.152   8.434  1.00  0.00    +0.000 C 
BRANCH   32   30
ATOM     30  C25 UNL A   1      11.597  56.794   9.519  1.00  0.00    +0.000 C 
ATOM     31  O3  UNL A   1      11.265  57.965   9.423  1.00  0.00    +0.000 O 
BRANCH   30   29
ATOM    122  H28 UNL A   1      11.954  56.152  11.383  1.00  0.00    +0.000 H 
ATOM     29  N3  UNL A   1      11.307  56.059  10.646  1.00  0.00    +0.000 N 
BRANCH   29   28
ATOM    121  H27 UNL A   1       9.333  55.774  11.109  1.00  0.00    +0.000 H 
ATOM     28  C24 UNL A   1      10.188  55.162  10.914  1.00  0.00    +0.000 C 
ATOM    120  H26 UNL A   1      10.443  54.543  11.749  1.00  0.00    +0.000 H 
BRANCH   28   27
ATOM     27  C23 UNL A   1       9.837  54.259   9.735  1.00  0.00    +0.000 C 
ATOM    118  H24 UNL A   1       8.830  53.919   9.861  1.00  0.00    +0.000 H 
ATOM    119  H25 UNL A   1       9.970  54.847   8.850  1.00  0.00    +0.000 H 
BRANCH   27   26
ATOM     26  C22 UNL A   1      10.737  53.040   9.586  1.00  0.00    +0.000 C 
ATOM    116  H22 UNL A   1      11.027  52.966   8.558  1.00  0.00    +0.000 H 
ATOM    117  H23 UNL A   1      11.558  53.197  10.255  1.00  0.00    +0.000 H 
BRANCH   26   25
ATOM     25  C21 UNL A   1      10.114  51.707   9.996  1.00  0.00    +0.000 C 
ATOM    114  H20 UNL A   1      10.063  51.676  11.064  1.00  0.00    +0.000 H 
ATOM    115  H21 UNL A   1       9.152  51.665   9.528  1.00  0.00    +0.000 H 
BRANCH   25   24
ATOM    113  H19 UNL A   1      11.434  50.113  10.363  1.00  0.00    +0.000 H 
ATOM    112  H18 UNL A   1      11.511  50.764   8.702  1.00  0.00    +0.000 H 
ATOM     24  C20 UNL A   1      10.884  50.472   9.518  1.00  0.00    +0.000 C 
BRANCH   24   23
ATOM    111  H17 UNL A   1      10.543  48.749   8.322  1.00  0.00    +0.000 H 
ATOM    110  H16 UNL A   1       9.099  49.709   8.632  1.00  0.00    +0.000 H 
ATOM     23  C19 UNL A   1      10.000  49.313   9.051  1.00  0.00    +0.000 C 
BRANCH   23   22
ATOM    109  H15 UNL A   1       9.182  48.807  10.922  1.00  0.00    +0.000 H 
ATOM     22  N2  UNL A   1       9.660  48.430  10.148  1.00  0.00    +0.000 N 
BRANCH   22    2
ATOM      1  O1  UNL A   1       9.593  46.295   9.314  1.00  0.00    +0.000 O 
ATOM      2  C1  UNL A   1       9.972  47.095  10.162  1.00  0.00    +0.000 C 
BRANCH    2    3
ATOM      3  C2  UNL A   1      10.824  46.670  11.339  1.00  0.00    +0.000 C 
ATOM     95  H1  UNL A   1      10.379  45.808  11.791  1.00  0.00    +0.000 H 
ATOM     96  H2  UNL A   1      10.870  47.491  12.024  1.00  0.00    +0.000 H 
BRANCH    3    4
ATOM     97  H3  UNL A   1      12.202  45.813   9.990  1.00  0.00    +0.000 H 
ATOM     98  H4  UNL A   1      12.644  45.742  11.732  1.00  0.00    +0.000 H 
ATOM      4  C3  UNL A   1      12.247  46.327  10.928  1.00  0.00    +0.000 C 
BRANCH    4    5
ATOM      5  C4  UNL A   1      13.187  47.478  10.771  1.00  0.00    +0.000 C 
ATOM      6  N1  UNL A   1      14.211  47.550   9.941  1.00  0.00    +0.000 N 
ATOM      7  C5  UNL A   1      14.752  48.784  10.188  1.00  0.00    +0.000 C 
ATOM     14  C12 UNL A   1      14.000  49.453  11.136  1.00  0.00    +0.000 C 
ATOM     21  O2  UNL A   1      12.996  48.607  11.538  1.00  0.00    +0.000 O 
BRANCH    7    8
ATOM     99  H5  UNL A   1      17.229  49.239  11.113  1.00  0.00    +0.000 H 
ATOM    100  H6  UNL A   1      18.941  50.616  10.085  1.00  0.00    +0.000 H 
ATOM    101  H7  UNL A   1      18.601  51.500   7.852  1.00  0.00    +0.000 H 
ATOM    102  H8  UNL A   1      16.590  50.940   6.617  1.00  0.00    +0.000 H 
ATOM    103  H9  UNL A   1      14.864  49.582   7.650  1.00  0.00    +0.000 H 
ATOM      8  C6  UNL A   1      15.880  49.362   9.488  1.00  0.00    +0.000 C 
ATOM      9  C7  UNL A   1      17.080  49.626  10.167  1.00  0.00    +0.000 C 
ATOM     10  C8  UNL A   1      18.070  50.406   9.573  1.00  0.00    +0.000 C 
ATOM     11  C9  UNL A   1      17.880  50.902   8.285  1.00  0.00    +0.000 C 
ATOM     12  C10 UNL A   1      16.715  50.594   7.581  1.00  0.00    +0.000 C 
ATOM     13  C11 UNL A   1      15.718  49.818   8.176  1.00  0.00    +0.000 C 
ENDBRANCH    7    8
BRANCH   14   15
ATOM    104  H10 UNL A   1      14.273  50.232  13.708  1.00  0.00    +0.000 H 
ATOM    105  H11 UNL A   1      14.502  52.497  14.548  1.00  0.00    +0.000 H 
ATOM    106  H12 UNL A   1      14.422  54.382  13.024  1.00  0.00    +0.000 H 
ATOM    107  H13 UNL A   1      14.039  54.012  10.658  1.00  0.00    +0.000 H 
ATOM    108  H14 UNL A   1      13.785  51.756   9.818  1.00  0.00    +0.000 H 
ATOM     15  C13 UNL A   1      14.038  50.800  11.688  1.00  0.00    +0.000 C 
ATOM     16  C14 UNL A   1      14.230  51.029  13.055  1.00  0.00    +0.000 C 
ATOM     17  C15 UNL A   1      14.362  52.336  13.538  1.00  0.00    +0.000 C 
ATOM     18  C16 UNL A   1      14.306  53.422  12.664  1.00  0.00    +0.000 C 
ATOM     19  C17 UNL A   1      14.093  53.210  11.306  1.00  0.00    +0.000 C 
ATOM     20  C18 UNL A   1      13.954  51.909  10.825  1.00  0.00    +0.000 C 
ENDBRANCH   14   15
ENDBRANCH    4    5
ENDBRANCH    3    4
ENDBRANCH    2    3
ENDBRANCH   22    2
ENDBRANCH   23   22
ENDBRANCH   24   23
ENDBRANCH   25   24
ENDBRANCH   26   25
ENDBRANCH   27   26
ENDBRANCH   28   27
ENDBRANCH   29   28
ENDBRANCH   30   29
ENDBRANCH   32   30
ENDBRANCH   36   35
BRANCH   40   41
ATOM     41  C34 UNL A   1      17.615  55.419   0.930  1.00  0.00    +0.000 C 
ATOM     42  C35 UNL A   1      16.988  56.228  -0.031  1.00  0.00    +0.000 C 
ATOM     43  F1  UNL A   1      15.753  55.932  -0.461  1.00  0.00    +0.000 F 
ATOM     44  C36 UNL A   1      17.651  57.316  -0.594  1.00  0.00    +0.000 C 
ATOM     45  F2  UNL A   1      17.055  58.037  -1.555  1.00  0.00    +0.000 F 
ATOM     46  C37 UNL A   1      18.934  57.639  -0.181  1.00  0.00    +0.000 C 
ATOM     47  F3  UNL A   1      19.571  58.684  -0.728  1.00  0.00    +0.000 F 
ATOM     48  C38 UNL A   1      19.561  56.872   0.789  1.00  0.00    +0.000 C 
ATOM     49  F4  UNL A   1      20.798  57.189   1.196  1.00  0.00    +0.000 F 
ATOM     50  C39 UNL A   1      18.913  55.765   1.333  1.00  0.00    +0.000 C 
ATOM     51  F5  UNL A   1      19.557  55.028   2.250  1.00  0.00    +0.000 F 
ENDBRANCH   40   41
BRANCH   57   58
ATOM     65  C49 UNL A   1      18.387  46.985  -1.534  1.00  0.00    +0.000 C 
ATOM     66  F9  UNL A   1      19.622  46.471  -1.485  1.00  0.00    +0.000 F 
ATOM     67  C50 UNL A   1      17.957  47.856  -0.538  1.00  0.00    +0.000 C 
ATOM     68  F10 UNL A   1      18.796  48.156   0.465  1.00  0.00    +0.000 F 
ATOM     58  C45 UNL A   1      16.675  48.424  -0.581  1.00  0.00    +0.000 C 
ATOM     59  C46 UNL A   1      15.837  48.082  -1.652  1.00  0.00    +0.000 C 
ATOM     60  F6  UNL A   1      14.596  48.587  -1.726  1.00  0.00    +0.000 F 
ATOM     61  C47 UNL A   1      16.261  47.192  -2.634  1.00  0.00    +0.000 C 
ATOM     62  F7  UNL A   1      15.431  46.850  -3.629  1.00  0.00    +0.000 F 
ATOM     63  C48 UNL A   1      17.537  46.650  -2.578  1.00  0.00    +0.000 C 
ATOM     64  F8  UNL A   1      17.947  45.800  -3.530  1.00  0.00    +0.000 F 
ENDBRANCH   57   58
BRANCH   72   73
ATOM     73  C54 UNL A   1      12.532  47.831   4.992  1.00  0.00    +0.000 C 
ATOM     74  C55 UNL A   1      12.958  47.136   6.131  1.00  0.00    +0.000 C 
ATOM     75  F11 UNL A   1      14.140  47.429   6.692  1.00  0.00    +0.000 F 
ATOM     76  C56 UNL A   1      12.182  46.120   6.687  1.00  0.00    +0.000 C 
ATOM     77  F12 UNL A   1      12.624  45.452   7.760  1.00  0.00    +0.000 F 
ATOM     78  C57 UNL A   1      10.956  45.796   6.126  1.00  0.00    +0.000 C 
ATOM     79  F13 UNL A   1      10.204  44.828   6.666  1.00  0.00    +0.000 F 
ATOM     80  C58 UNL A   1      10.511  46.475   5.001  1.00  0.00    +0.000 C 
ATOM     81  F14 UNL A   1       9.319  46.176   4.466  1.00  0.00    +0.000 F 
ATOM     82  C59 UNL A   1      11.296  47.477   4.432  1.00  0.00    +0.000 C 
ATOM     83  F15 UNL A   1      10.841  48.119   3.347  1.00  0.00    +0.000 F 
ENDBRANCH   72   73
TORSDOF 19
ENDMDL
MODEL 4
REMARK VINA RESULT:     -12.0     19.375     22.829
ROOT
ATOM    129  H35 UNL A   1      38.592  26.737  27.669  1.00  0.00    +0.000 H 
ATOM    130  H36 UNL A   1      42.281  27.771  29.281  1.00  0.00    +0.000 H 
ATOM    131  H37 UNL A   1      45.438  24.085  27.993  1.00  0.00    +0.000 H 
ATOM    132  H38 UNL A   1      47.263  25.419  29.196  1.00  0.00    +0.000 H 
ATOM    133  H39 UNL A   1      40.816  32.933  30.898  1.00  0.00    +0.000 H 
ATOM    134  H40 UNL A   1      38.887  31.428  30.142  1.00  0.00    +0.000 H 
ATOM     36  C30 UNL A   1      39.747  28.939  29.066  1.00  0.00    +0.000 C 
ATOM     37  C31 UNL A   1      40.587  29.981  29.742  1.00  0.00    +0.000 C 
ATOM     38  N4  UNL A   1      41.874  29.981  29.982  1.00  0.00    +0.000 N 
ATOM     39  C32 UNL A   1      42.146  31.211  30.562  1.00  0.00    +0.000 C 
ATOM     40  C33 UNL A   1      43.325  31.671  31.046  1.00  0.00    +0.000 C 
ATOM     52  C40 UNL A   1      44.548  30.913  31.038  1.00  0.00    +0.000 C 
ATOM     53  C41 UNL A   1      45.779  31.254  31.569  1.00  0.00    +0.000 C 
ATOM     54  C42 UNL A   1      46.677  30.217  31.287  1.00  0.00    +0.000 C 
ATOM     55  C43 UNL A   1      45.995  29.215  30.614  1.00  0.00    +0.000 C 
ATOM     56  N5  UNL A   1      44.692  29.656  30.467  1.00  0.00    +0.000 N 
ATOM     57  C44 UNL A   1      46.497  27.950  30.142  1.00  0.00    +0.000 C 
ATOM     69  C51 UNL A   1      45.761  26.998  29.516  1.00  0.00    +0.000 C 
ATOM     70  N6  UNL A   1      44.415  27.016  29.183  1.00  0.00    +0.000 N 
ATOM     71  C52 UNL A   1      44.179  25.877  28.577  1.00  0.00    +0.000 C 
ATOM     72  C53 UNL A   1      42.888  25.360  28.008  1.00  0.00    +0.000 C 
ATOM     84  C60 UNL A   1      41.767  26.085  28.171  1.00  0.00    +0.000 C 
ATOM     85  C61 UNL A   1      40.446  25.722  27.667  1.00  0.00    +0.000 C 
ATOM     86  C62 UNL A   1      39.589  26.718  27.936  1.00  0.00    +0.000 C 
ATOM     87  C63 UNL A   1      40.292  27.774  28.667  1.00  0.00    +0.000 C 
ATOM     88  N7  UNL A   1      41.571  27.295  28.793  1.00  0.00    +0.000 N 
ATOM     89  C64 UNL A   1      45.357  25.009  28.445  1.00  0.00    +0.000 C 
ATOM     90  C65 UNL A   1      46.288  25.727  29.060  1.00  0.00    +0.000 C 
ATOM     91  C66 UNL A   1      40.904  31.952  30.590  1.00  0.00    +0.000 C 
ATOM     92  C67 UNL A   1      39.894  31.206  30.167  1.00  0.00    +0.000 C 
ATOM    125  H31 UNL A   1      45.998  32.121  32.083  1.00  0.00    +0.000 H 
ATOM    126  H32 UNL A   1      47.678  30.201  31.539  1.00  0.00    +0.000 H 
ATOM    127  H33 UNL A   1      43.972  29.153  30.021  1.00  0.00    +0.000 H 
ATOM    128  H34 UNL A   1      40.211  24.842  27.181  1.00  0.00    +0.000 H 
ENDROOT
BRANCH   36   35
ATOM     33  C27 UNL A   1      36.698  30.159  27.178  1.00  0.00    +0.000 C 
ATOM     34  C28 UNL A   1      37.997  29.716  27.427  1.00  0.00    +0.000 C 
ATOM     35  C29 UNL A   1      38.344  29.245  28.704  1.00  0.00    +0.000 C 
ATOM    135  H41 UNL A   1      37.594  28.724  30.613  1.00  0.00    +0.000 H 
ATOM    136  H42 UNL A   1      35.292  29.278  30.095  1.00  0.00    +0.000 H 
ATOM    123  H29 UNL A   1      36.446  30.540  26.252  1.00  0.00    +0.000 H 
ATOM    124  H30 UNL A   1      38.702  29.735  26.675  1.00  0.00    +0.000 H 
ATOM     93  C68 UNL A   1      37.349  29.100  29.683  1.00  0.00    +0.000 C 
ATOM     94  C69 UNL A   1      36.039  29.463  29.408  1.00  0.00    +0.000 C 
ATOM     32  C26 UNL A   1      35.741  30.080  28.192  1.00  0.00    +0.000 C 
BRANCH   32   30
ATOM     30  C25 UNL A   1      34.432  30.733  27.992  1.00  0.00    +0.000 C 
ATOM     31  O3  UNL A   1      34.218  31.834  28.476  1.00  0.00    +0.000 O 
BRANCH   30   29
ATOM    122  H28 UNL A   1      33.095  30.539  26.513  1.00  0.00    +0.000 H 
ATOM     29  N3  UNL A   1      33.457  30.058  27.293  1.00  0.00    +0.000 N 
BRANCH   29   28
ATOM    121  H27 UNL A   1      31.997  28.884  28.119  1.00  0.00    +0.000 H 
ATOM     28  C24 UNL A   1      32.880  28.740  27.532  1.00  0.00    +0.000 C 
ATOM    120  H26 UNL A   1      33.608  28.138  28.035  1.00  0.00    +0.000 H 
BRANCH   28   27
ATOM     27  C23 UNL A   1      32.458  28.020  26.254  1.00  0.00    +0.000 C 
ATOM    118  H24 UNL A   1      31.658  27.352  26.494  1.00  0.00    +0.000 H 
ATOM    119  H25 UNL A   1      32.170  28.780  25.556  1.00  0.00    +0.000 H 
BRANCH   27   26
ATOM     26  C22 UNL A   1      33.568  27.217  25.589  1.00  0.00    +0.000 C 
ATOM    116  H22 UNL A   1      34.468  27.372  26.147  1.00  0.00    +0.000 H 
ATOM    117  H23 UNL A   1      33.233  26.200  25.587  1.00  0.00    +0.000 H 
BRANCH   26   25
ATOM     25  C21 UNL A   1      33.853  27.567  24.130  1.00  0.00    +0.000 C 
ATOM    114  H20 UNL A   1      34.903  27.462  23.961  1.00  0.00    +0.000 H 
ATOM    115  H21 UNL A   1      33.264  26.898  23.538  1.00  0.00    +0.000 H 
BRANCH   25   24
ATOM    113  H19 UNL A   1      34.290  29.420  23.239  1.00  0.00    +0.000 H 
ATOM    112  H18 UNL A   1      33.146  29.512  24.608  1.00  0.00    +0.000 H 
ATOM     24  C20 UNL A   1      33.441  28.985  23.725  1.00  0.00    +0.000 C 
BRANCH   24   23
ATOM    111  H17 UNL A   1      32.695  29.243  21.752  1.00  0.00    +0.000 H 
ATOM    110  H16 UNL A   1      31.616  29.830  23.015  1.00  0.00    +0.000 H 
ATOM     23  C19 UNL A   1      32.287  29.050  22.722  1.00  0.00    +0.000 C 
BRANCH   23   22
ATOM    109  H15 UNL A   1      32.004  27.014  22.276  1.00  0.00    +0.000 H 
ATOM     22  N2  UNL A   1      31.559  27.798  22.670  1.00  0.00    +0.000 N 
BRANCH   22    2
ATOM      1  O1  UNL A   1      29.360  28.416  22.871  1.00  0.00    +0.000 O 
ATOM      2  C1  UNL A   1      30.281  27.653  23.142  1.00  0.00    +0.000 C 
BRANCH    2    3
ATOM      3  C2  UNL A   1      30.090  26.465  24.060  1.00  0.00    +0.000 C 
ATOM     95  H1  UNL A   1      29.191  26.605  24.623  1.00  0.00    +0.000 H 
ATOM     96  H2  UNL A   1      30.946  26.404  24.700  1.00  0.00    +0.000 H 
BRANCH    3    4
ATOM     97  H3  UNL A   1      30.055  25.379  22.252  1.00  0.00    +0.000 H 
ATOM     98  H4  UNL A   1      29.060  24.718  23.595  1.00  0.00    +0.000 H 
ATOM      4  C3  UNL A   1      29.990  25.154  23.296  1.00  0.00    +0.000 C 
BRANCH    4    5
ATOM      5  C4  UNL A   1      31.030  24.125  23.605  1.00  0.00    +0.000 C 
ATOM      6  N1  UNL A   1      30.863  22.816  23.612  1.00  0.00    +0.000 N 
ATOM      7  C5  UNL A   1      32.094  22.327  23.963  1.00  0.00    +0.000 C 
ATOM     14  C12 UNL A   1      32.995  23.365  24.110  1.00  0.00    +0.000 C 
ATOM     21  O2  UNL A   1      32.310  24.537  23.903  1.00  0.00    +0.000 O 
BRANCH    7    8
ATOM     99  H5  UNL A   1      32.117  20.478  22.019  1.00  0.00    +0.000 H 
ATOM    100  H6  UNL A   1      32.250  18.072  22.295  1.00  0.00    +0.000 H 
ATOM    101  H7  UNL A   1      32.693  17.129  24.485  1.00  0.00    +0.000 H 
ATOM    102  H8  UNL A   1      33.085  18.591  26.380  1.00  0.00    +0.000 H 
ATOM    103  H9  UNL A   1      32.930  20.999  26.115  1.00  0.00    +0.000 H 
ATOM      8  C6  UNL A   1      32.443  20.925  24.061  1.00  0.00    +0.000 C 
ATOM      9  C7  UNL A   1      32.293  20.076  22.953  1.00  0.00    +0.000 C 
ATOM     10  C8  UNL A   1      32.382  18.693  23.108  1.00  0.00    +0.000 C 
ATOM     11  C9  UNL A   1      32.650  18.153  24.364  1.00  0.00    +0.000 C 
ATOM     12  C10 UNL A   1      32.859  18.994  25.457  1.00  0.00    +0.000 C 
ATOM     13  C11 UNL A   1      32.764  20.379  25.307  1.00  0.00    +0.000 C 
ENDBRANCH    7    8
BRANCH   14   15
ATOM    104  H10 UNL A   1      34.302  24.111  26.354  1.00  0.00    +0.000 H 
ATOM    105  H11 UNL A   1      36.693  24.034  26.763  1.00  0.00    +0.000 H 
ATOM    106  H12 UNL A   1      38.210  23.293  25.023  1.00  0.00    +0.000 H 
ATOM    107  H13 UNL A   1      37.346  22.694  22.837  1.00  0.00    +0.000 H 
ATOM    108  H14 UNL A   1      34.965  22.792  22.415  1.00  0.00    +0.000 H 
ATOM     15  C13 UNL A   1      34.428  23.431  24.359  1.00  0.00    +0.000 C 
ATOM     16  C14 UNL A   1      34.941  23.802  25.605  1.00  0.00    +0.000 C 
ATOM     17  C15 UNL A   1      36.321  23.758  25.841  1.00  0.00    +0.000 C 
ATOM     18  C16 UNL A   1      37.196  23.341  24.837  1.00  0.00    +0.000 C 
ATOM     19  C17 UNL A   1      36.701  22.991  23.586  1.00  0.00    +0.000 C 
ATOM     20  C18 UNL A   1      35.329  23.043  23.348  1.00  0.00    +0.000 C 
ENDBRANCH   14   15
ENDBRANCH    4    5
ENDBRANCH    3    4
ENDBRANCH    2    3
ENDBRANCH   22    2
ENDBRANCH   23   22
ENDBRANCH   24   23
ENDBRANCH   25   24
ENDBRANCH   26   25
ENDBRANCH   27   26
ENDBRANCH   28   27
ENDBRANCH   29   28
ENDBRANCH   30   29
ENDBRANCH   32   30
ENDBRANCH   36   35
BRANCH   40   41
ATOM     41  C34 UNL A   1      43.335  33.055  31.625  1.00  0.00    +0.000 C 
ATOM     42  C35 UNL A   1      43.120  33.279  32.994  1.00  0.00    +0.000 C 
ATOM     43  F1  UNL A   1      42.886  32.247  33.818  1.00  0.00    +0.000 F 
ATOM     44  C36 UNL A   1      43.091  34.571  33.513  1.00  0.00    +0.000 C 
ATOM     45  F2  UNL A   1      42.822  34.763  34.812  1.00  0.00    +0.000 F 
ATOM     46  C37 UNL A   1      43.315  35.659  32.683  1.00  0.00    +0.000 C 
ATOM     47  F3  UNL A   1      43.282  36.902  33.185  1.00  0.00    +0.000 F 
ATOM     48  C38 UNL A   1      43.560  35.459  31.334  1.00  0.00    +0.000 C 
ATOM     49  F4  UNL A   1      43.786  36.510  30.533  1.00  0.00    +0.000 F 
ATOM     50  C39 UNL A   1      43.560  34.170  30.805  1.00  0.00    +0.000 C 
ATOM     51  F5  UNL A   1      43.774  34.013  29.490  1.00  0.00    +0.000 F 
ENDBRANCH   40   41
BRANCH   57   58
ATOM     65  C49 UNL A   1      50.252  27.693  29.602  1.00  0.00    +0.000 C 
ATOM     66  F9  UNL A   1      51.153  28.035  28.672  1.00  0.00    +0.000 F 
ATOM     67  C50 UNL A   1      48.911  28.016  29.422  1.00  0.00    +0.000 C 
ATOM     68  F10 UNL A   1      48.548  28.680  28.314  1.00  0.00    +0.000 F 
ATOM     58  C45 UNL A   1      47.947  27.647  30.372  1.00  0.00    +0.000 C 
ATOM     59  C46 UNL A   1      48.376  26.951  31.512  1.00  0.00    +0.000 C 
ATOM     60  F6  UNL A   1      47.492  26.593  32.456  1.00  0.00    +0.000 F 
ATOM     61  C47 UNL A   1      49.721  26.650  31.700  1.00  0.00    +0.000 C 
ATOM     62  F7  UNL A   1      50.115  26.017  32.813  1.00  0.00    +0.000 F 
ATOM     63  C48 UNL A   1      50.657  27.015  30.742  1.00  0.00    +0.000 C 
ATOM     64  F8  UNL A   1      51.951  26.717  30.921  1.00  0.00    +0.000 F 
ENDBRANCH   57   58
BRANCH   72   73
ATOM     73  C54 UNL A   1      42.823  24.059  27.298  1.00  0.00    +0.000 C 
ATOM     74  C55 UNL A   1      43.183  23.962  25.947  1.00  0.00    +0.000 C 
ATOM     75  F11 UNL A   1      43.543  25.062  25.270  1.00  0.00    +0.000 F 
ATOM     76  C56 UNL A   1      43.155  22.738  25.281  1.00  0.00    +0.000 C 
ATOM     77  F12 UNL A   1      43.479  22.677  23.983  1.00  0.00    +0.000 F 
ATOM     78  C57 UNL A   1      42.787  21.586  25.958  1.00  0.00    +0.000 C 
ATOM     79  F13 UNL A   1      42.771  20.407  25.321  1.00  0.00    +0.000 F 
ATOM     80  C58 UNL A   1      42.431  21.657  27.297  1.00  0.00    +0.000 C 
ATOM     81  F14 UNL A   1      42.090  20.543  27.959  1.00  0.00    +0.000 F 
ATOM     82  C59 UNL A   1      42.439  22.883  27.959  1.00  0.00    +0.000 C 
ATOM     83  F15 UNL A   1      42.093  22.923  29.254  1.00  0.00    +0.000 F 
ENDBRANCH   72   73
TORSDOF 19
ENDMDL
MODEL 5
REMARK VINA RESULT:     -12.0     40.166     46.427
ROOT
ATOM    129  H35 UNL A   1      26.398  34.388  43.683  1.00  0.00    +0.000 H 
ATOM    130  H36 UNL A   1      28.367  37.442  45.701  1.00  0.00    +0.000 H 
ATOM    131  H37 UNL A   1      33.030  37.550  43.843  1.00  0.00    +0.000 H 
ATOM    132  H38 UNL A   1      33.460  39.526  45.414  1.00  0.00    +0.000 H 
ATOM    133  H39 UNL A   1      23.838  39.476  48.302  1.00  0.00    +0.000 H 
ATOM    134  H40 UNL A   1      23.512  37.225  47.123  1.00  0.00    +0.000 H 
ATOM     36  C30 UNL A   1      25.767  36.414  45.590  1.00  0.00    +0.000 C 
ATOM     37  C31 UNL A   1      25.671  37.582  46.524  1.00  0.00    +0.000 C 
ATOM     38  N4  UNL A   1      26.580  38.471  46.836  1.00  0.00    +0.000 N 
ATOM     39  C32 UNL A   1      25.948  39.370  47.684  1.00  0.00    +0.000 C 
ATOM     40  C33 UNL A   1      26.481  40.437  48.326  1.00  0.00    +0.000 C 
ATOM     52  C40 UNL A   1      27.862  40.827  48.229  1.00  0.00    +0.000 C 
ATOM     53  C41 UNL A   1      28.522  41.845  48.895  1.00  0.00    +0.000 C 
ATOM     54  C42 UNL A   1      29.850  41.867  48.451  1.00  0.00    +0.000 C 
ATOM     55  C43 UNL A   1      30.026  40.839  47.538  1.00  0.00    +0.000 C 
ATOM     56  N5  UNL A   1      28.798  40.211  47.410  1.00  0.00    +0.000 N 
ATOM     57  C44 UNL A   1      31.225  40.459  46.835  1.00  0.00    +0.000 C 
ATOM     69  C51 UNL A   1      31.333  39.416  45.975  1.00  0.00    +0.000 C 
ATOM     70  N6  UNL A   1      30.360  38.513  45.573  1.00  0.00    +0.000 N 
ATOM     71  C52 UNL A   1      30.947  37.707  44.722  1.00  0.00    +0.000 C 
ATOM     72  C53 UNL A   1      30.369  36.536  43.978  1.00  0.00    +0.000 C 
ATOM     84  C60 UNL A   1      29.099  36.169  44.224  1.00  0.00    +0.000 C 
ATOM     85  C61 UNL A   1      28.397  35.066  43.575  1.00  0.00    +0.000 C 
ATOM     86  C62 UNL A   1      27.125  35.049  44.000  1.00  0.00    +0.000 C 
ATOM     87  C63 UNL A   1      26.932  36.117  44.983  1.00  0.00    +0.000 C 
ATOM     88  N7  UNL A   1      28.167  36.706  45.080  1.00  0.00    +0.000 N 
ATOM     89  C64 UNL A   1      32.362  38.014  44.478  1.00  0.00    +0.000 C 
ATOM     90  C65 UNL A   1      32.555  39.047  45.288  1.00  0.00    +0.000 C 
ATOM     91  C66 UNL A   1      24.568  38.951  47.795  1.00  0.00    +0.000 C 
ATOM     92  C67 UNL A   1      24.364  37.806  47.160  1.00  0.00    +0.000 C 
ATOM    125  H31 UNL A   1      28.108  42.478  49.596  1.00  0.00    +0.000 H 
ATOM    126  H32 UNL A   1      30.575  42.536  48.754  1.00  0.00    +0.000 H 
ATOM    127  H33 UNL A   1      28.616  39.441  46.823  1.00  0.00    +0.000 H 
ATOM    128  H34 UNL A   1      28.813  34.408  42.897  1.00  0.00    +0.000 H 
ENDROOT
BRANCH   36   35
ATOM     33  C27 UNL A   1      22.435  35.501  44.036  1.00  0.00    +0.000 C 
ATOM     34  C28 UNL A   1      23.660  36.138  44.235  1.00  0.00    +0.000 C 
ATOM     35  C29 UNL A   1      24.544  35.665  45.217  1.00  0.00    +0.000 C 
ATOM    135  H41 UNL A   1      24.911  34.108  46.603  1.00  0.00    +0.000 H 
ATOM    136  H42 UNL A   1      22.887  32.880  46.083  1.00  0.00    +0.000 H 
ATOM    123  H29 UNL A   1      21.765  35.866  43.340  1.00  0.00    +0.000 H 
ATOM    124  H30 UNL A   1      23.915  36.957  43.662  1.00  0.00    +0.000 H 
ATOM     93  C68 UNL A   1      24.248  34.477  45.903  1.00  0.00    +0.000 C 
ATOM     94  C69 UNL A   1      23.067  33.796  45.645  1.00  0.00    +0.000 C 
ATOM     32  C26 UNL A   1      22.124  34.364  44.785  1.00  0.00    +0.000 C 
BRANCH   32   30
ATOM     30  C25 UNL A   1      20.755  33.816  44.720  1.00  0.00    +0.000 C 
ATOM     31  O3  UNL A   1      19.922  34.339  43.995  1.00  0.00    +0.000 O 
BRANCH   30   29
ATOM    122  H28 UNL A   1      20.113  32.976  46.421  1.00  0.00    +0.000 H 
ATOM     29  N3  UNL A   1      20.434  32.743  45.520  1.00  0.00    +0.000 N 
BRANCH   29   28
ATOM    121  H27 UNL A   1      20.524  30.805  46.176  1.00  0.00    +0.000 H 
ATOM     28  C24 UNL A   1      20.501  31.314  45.236  1.00  0.00    +0.000 C 
ATOM    120  H26 UNL A   1      21.377  31.126  44.651  1.00  0.00    +0.000 H 
BRANCH   28   27
ATOM     27  C23 UNL A   1      19.289  30.790  44.470  1.00  0.00    +0.000 C 
ATOM    118  H24 UNL A   1      19.450  30.965  43.426  1.00  0.00    +0.000 H 
ATOM    119  H25 UNL A   1      19.204  29.749  44.709  1.00  0.00    +0.000 H 
BRANCH   27   26
ATOM     26  C22 UNL A   1      17.968  31.436  44.864  1.00  0.00    +0.000 C 
ATOM    116  H22 UNL A   1      17.647  30.997  45.786  1.00  0.00    +0.000 H 
ATOM    117  H23 UNL A   1      18.164  32.487  44.933  1.00  0.00    +0.000 H 
BRANCH   26   25
ATOM     25  C21 UNL A   1      16.834  31.288  43.852  1.00  0.00    +0.000 C 
ATOM    114  H20 UNL A   1      16.146  32.094  44.001  1.00  0.00    +0.000 H 
ATOM    115  H21 UNL A   1      17.289  31.299  42.883  1.00  0.00    +0.000 H 
BRANCH   25   24
ATOM    113  H19 UNL A   1      15.021  30.225  43.887  1.00  0.00    +0.000 H 
ATOM    112  H18 UNL A   1      16.317  29.503  44.881  1.00  0.00    +0.000 H 
ATOM     24  C20 UNL A   1      16.058  29.972  43.954  1.00  0.00    +0.000 C 
BRANCH   24   23
ATOM    111  H17 UNL A   1      17.064  29.412  42.169  1.00  0.00    +0.000 H 
ATOM    110  H16 UNL A   1      15.425  28.782  42.301  1.00  0.00    +0.000 H 
ATOM     23  C19 UNL A   1      16.337  28.980  42.823  1.00  0.00    +0.000 C 
BRANCH   23   22
ATOM    109  H15 UNL A   1      17.838  27.660  43.481  1.00  0.00    +0.000 H 
ATOM     22  N2  UNL A   1      16.867  27.731  43.332  1.00  0.00    +0.000 N 
BRANCH   22    2
ATOM      1  O1  UNL A   1      16.468  25.670  44.255  1.00  0.00    +0.000 O 
ATOM      2  C1  UNL A   1      16.083  26.643  43.616  1.00  0.00    +0.000 C 
BRANCH    2    3
ATOM      3  C2  UNL A   1      14.681  26.726  43.053  1.00  0.00    +0.000 C 
ATOM     95  H1  UNL A   1      14.740  26.999  42.020  1.00  0.00    +0.000 H 
ATOM     96  H2  UNL A   1      14.143  27.458  43.619  1.00  0.00    +0.000 H 
BRANCH    3    4
ATOM     97  H3  UNL A   1      12.903  25.633  43.362  1.00  0.00    +0.000 H 
ATOM     98  H4  UNL A   1      14.420  24.869  43.954  1.00  0.00    +0.000 H 
ATOM      4  C3  UNL A   1      13.932  25.408  43.169  1.00  0.00    +0.000 C 
BRANCH    4    5
ATOM      5  C4  UNL A   1      13.985  24.509  41.976  1.00  0.00    +0.000 C 
ATOM      6  N1  UNL A   1      14.537  24.783  40.808  1.00  0.00    +0.000 N 
ATOM      7  C5  UNL A   1      14.310  23.657  40.062  1.00  0.00    +0.000 C 
ATOM     14  C12 UNL A   1      13.663  22.702  40.824  1.00  0.00    +0.000 C 
ATOM     21  O2  UNL A   1      13.427  23.252  42.060  1.00  0.00    +0.000 O 
BRANCH    7    8
ATOM     99  H5  UNL A   1      16.107  21.870  39.181  1.00  0.00    +0.000 H 
ATOM    100  H6  UNL A   1      17.195  21.842  37.013  1.00  0.00    +0.000 H 
ATOM    101  H7  UNL A   1      16.463  23.365  35.273  1.00  0.00    +0.000 H 
ATOM    102  H8  UNL A   1      14.593  24.856  35.673  1.00  0.00    +0.000 H 
ATOM    103  H9  UNL A   1      13.515  24.906  37.847  1.00  0.00    +0.000 H 
ATOM      8  C6  UNL A   1      14.771  23.441  38.706  1.00  0.00    +0.000 C 
ATOM      9  C7  UNL A   1      15.804  22.526  38.444  1.00  0.00    +0.000 C 
ATOM     10  C8  UNL A   1      16.422  22.500  37.194  1.00  0.00    +0.000 C 
ATOM     11  C9  UNL A   1      15.992  23.367  36.192  1.00  0.00    +0.000 C 
ATOM     12  C10 UNL A   1      14.926  24.237  36.428  1.00  0.00    +0.000 C 
ATOM     13  C11 UNL A   1      14.310  24.270  37.680  1.00  0.00    +0.000 C 
ENDBRANCH    7    8
BRANCH   14   15
ATOM    104  H10 UNL A   1      12.449  21.604  38.675  1.00  0.00    +0.000 H 
ATOM    105  H11 UNL A   1      11.991  19.254  38.279  1.00  0.00    +0.000 H 
ATOM    106  H12 UNL A   1      12.569  17.595  39.950  1.00  0.00    +0.000 H 
ATOM    107  H13 UNL A   1      13.545  18.289  42.060  1.00  0.00    +0.000 H 
ATOM    108  H14 UNL A   1      13.981  20.634  42.470  1.00  0.00    +0.000 H 
ATOM     15  C13 UNL A   1      13.280  21.316  40.595  1.00  0.00    +0.000 C 
ATOM     16  C14 UNL A   1      12.691  20.906  39.394  1.00  0.00    +0.000 C 
ATOM     17  C15 UNL A   1      12.427  19.550  39.167  1.00  0.00    +0.000 C 
ATOM     18  C16 UNL A   1      12.750  18.595  40.132  1.00  0.00    +0.000 C 
ATOM     19  C17 UNL A   1      13.315  18.991  41.338  1.00  0.00    +0.000 C 
ATOM     20  C18 UNL A   1      13.571  20.342  41.569  1.00  0.00    +0.000 C 
ENDBRANCH   14   15
ENDBRANCH    4    5
ENDBRANCH    3    4
ENDBRANCH    2    3
ENDBRANCH   22    2
ENDBRANCH   23   22
ENDBRANCH   24   23
ENDBRANCH   25   24
ENDBRANCH   26   25
ENDBRANCH   27   26
ENDBRANCH   28   27
ENDBRANCH   29   28
ENDBRANCH   30   29
ENDBRANCH   32   30
ENDBRANCH   36   35
BRANCH   40   41
ATOM     41  C34 UNL A   1      25.559  41.247  49.189  1.00  0.00    +0.000 C 
ATOM     42  C35 UNL A   1      25.359  40.935  50.544  1.00  0.00    +0.000 C 
ATOM     43  F1  UNL A   1      25.987  39.885  51.094  1.00  0.00    +0.000 F 
ATOM     44  C36 UNL A   1      24.470  41.669  51.324  1.00  0.00    +0.000 C 
ATOM     45  F2  UNL A   1      24.249  41.313  52.598  1.00  0.00    +0.000 F 
ATOM     46  C37 UNL A   1      23.795  42.750  50.780  1.00  0.00    +0.000 C 
ATOM     47  F3  UNL A   1      22.937  43.453  51.532  1.00  0.00    +0.000 F 
ATOM     48  C38 UNL A   1      24.001  43.095  49.453  1.00  0.00    +0.000 C 
ATOM     49  F4  UNL A   1      23.355  44.147  48.928  1.00  0.00    +0.000 F 
ATOM     50  C39 UNL A   1      24.867  42.346  48.660  1.00  0.00    +0.000 C 
ATOM     51  F5  UNL A   1      25.023  42.689  47.373  1.00  0.00    +0.000 F 
ENDBRANCH   40   41
BRANCH   57   58
ATOM     65  C49 UNL A   1      33.791  43.259  46.658  1.00  0.00    +0.000 C 
ATOM     66  F9  UNL A   1      33.934  44.446  46.054  1.00  0.00    +0.000 F 
ATOM     67  C50 UNL A   1      32.624  42.524  46.477  1.00  0.00    +0.000 C 
ATOM     68  F10 UNL A   1      31.653  43.031  45.702  1.00  0.00    +0.000 F 
ATOM     58  C45 UNL A   1      32.462  41.269  47.082  1.00  0.00    +0.000 C 
ATOM     59  C46 UNL A   1      33.506  40.781  47.881  1.00  0.00    +0.000 C 
ATOM     60  F6  UNL A   1      33.389  39.592  48.493  1.00  0.00    +0.000 F 
ATOM     61  C47 UNL A   1      34.663  41.529  48.078  1.00  0.00    +0.000 C 
ATOM     62  F7  UNL A   1      35.633  41.061  48.875  1.00  0.00    +0.000 F 
ATOM     63  C48 UNL A   1      34.807  42.764  47.462  1.00  0.00    +0.000 C 
ATOM     64  F8  UNL A   1      35.925  43.479  47.647  1.00  0.00    +0.000 F 
ENDBRANCH   57   58
BRANCH   72   73
ATOM     73  C54 UNL A   1      31.178  35.766  43.001  1.00  0.00    +0.000 C 
ATOM     74  C55 UNL A   1      31.808  34.572  43.376  1.00  0.00    +0.000 C 
ATOM     75  F11 UNL A   1      31.726  34.142  44.643  1.00  0.00    +0.000 F 
ATOM     76  C56 UNL A   1      32.544  33.826  42.457  1.00  0.00    +0.000 C 
ATOM     77  F12 UNL A   1      33.158  32.703  42.847  1.00  0.00    +0.000 F 
ATOM     78  C57 UNL A   1      32.644  34.250  41.140  1.00  0.00    +0.000 C 
ATOM     79  F13 UNL A   1      33.341  33.527  40.252  1.00  0.00    +0.000 F 
ATOM     80  C58 UNL A   1      32.024  35.426  40.744  1.00  0.00    +0.000 C 
ATOM     81  F14 UNL A   1      32.106  35.829  39.469  1.00  0.00    +0.000 F 
ATOM     82  C59 UNL A   1      31.306  36.183  41.668  1.00  0.00    +0.000 C 
ATOM     83  F15 UNL A   1      30.715  37.314  41.258  1.00  0.00    +0.000 F 
ENDBRANCH   72   73
TORSDOF 19
ENDMDL
MODEL 6
REMARK VINA RESULT:     -11.9     19.400     22.877
ROOT
ATOM    129  H35 UNL A   1      38.575  26.779  27.715  1.00  0.00    +0.000 H 
ATOM    130  H36 UNL A   1      42.263  27.848  29.309  1.00  0.00    +0.000 H 
ATOM    131  H37 UNL A   1      45.442  24.179  28.029  1.00  0.00    +0.000 H 
ATOM    132  H38 UNL A   1      47.262  25.532  29.218  1.00  0.00    +0.000 H 
ATOM    133  H39 UNL A   1      40.767  33.008  30.904  1.00  0.00    +0.000 H 
ATOM    134  H40 UNL A   1      38.846  31.485  30.162  1.00  0.00    +0.000 H 
ATOM     36  C30 UNL A   1      39.720  28.997  29.097  1.00  0.00    +0.000 C 
ATOM     37  C31 UNL A   1      40.555  30.048  29.764  1.00  0.00    +0.000 C 
ATOM     38  N4  UNL A   1      41.842  30.059  29.999  1.00  0.00    +0.000 N 
ATOM     39  C32 UNL A   1      42.108  31.294  30.572  1.00  0.00    +0.000 C 
ATOM     40  C33 UNL A   1      43.285  31.765  31.049  1.00  0.00    +0.000 C 
ATOM     52  C40 UNL A   1      44.514  31.016  31.041  1.00  0.00    +0.000 C 
ATOM     53  C41 UNL A   1      45.744  31.369  31.565  1.00  0.00    +0.000 C 
ATOM     54  C42 UNL A   1      46.649  30.336  31.285  1.00  0.00    +0.000 C 
ATOM     55  C43 UNL A   1      45.971  29.326  30.621  1.00  0.00    +0.000 C 
ATOM     56  N5  UNL A   1      44.664  29.757  30.475  1.00  0.00    +0.000 N 
ATOM     57  C44 UNL A   1      46.480  28.062  30.153  1.00  0.00    +0.000 C 
ATOM     69  C51 UNL A   1      45.750  27.102  29.535  1.00  0.00    +0.000 C 
ATOM     70  N6  UNL A   1      44.402  27.108  29.207  1.00  0.00    +0.000 N 
ATOM     71  C52 UNL A   1      44.172  25.965  28.608  1.00  0.00    +0.000 C 
ATOM     72  C53 UNL A   1      42.883  25.435  28.047  1.00  0.00    +0.000 C 
ATOM     84  C60 UNL A   1      41.757  26.153  28.209  1.00  0.00    +0.000 C 
ATOM     85  C61 UNL A   1      40.437  25.778  27.712  1.00  0.00    +0.000 C 
ATOM     86  C62 UNL A   1      39.573  26.769  27.979  1.00  0.00    +0.000 C 
ATOM     87  C63 UNL A   1      40.272  27.834  28.702  1.00  0.00    +0.000 C 
ATOM     88  N7  UNL A   1      41.555  27.364  28.826  1.00  0.00    +0.000 N 
ATOM     89  C64 UNL A   1      45.355  25.105  28.476  1.00  0.00    +0.000 C 
ATOM     90  C65 UNL A   1      46.283  25.832  29.084  1.00  0.00    +0.000 C 
ATOM     91  C66 UNL A   1      40.860  32.026  30.600  1.00  0.00    +0.000 C 
ATOM     92  C67 UNL A   1      39.855  31.271  30.184  1.00  0.00    +0.000 C 
ATOM    125  H31 UNL A   1      45.959  32.240  32.074  1.00  0.00    +0.000 H 
ATOM    126  H32 UNL A   1      47.650  30.330  31.534  1.00  0.00    +0.000 H 
ATOM    127  H33 UNL A   1      43.946  29.246  30.035  1.00  0.00    +0.000 H 
ATOM    128  H34 UNL A   1      40.207  24.894  27.232  1.00  0.00    +0.000 H 
ENDROOT
BRANCH   36   35
ATOM     33  C27 UNL A   1      36.652  30.151  27.197  1.00  0.00    +0.000 C 
ATOM     34  C28 UNL A   1      37.954  29.716  27.449  1.00  0.00    +0.000 C 
ATOM     35  C29 UNL A   1      38.313  29.291  28.738  1.00  0.00    +0.000 C 
ATOM    135  H41 UNL A   1      37.582  28.839  30.672  1.00  0.00    +0.000 H 
ATOM    136  H42 UNL A   1      35.275  29.377  30.158  1.00  0.00    +0.000 H 
ATOM    123  H29 UNL A   1      36.391  30.498  26.260  1.00  0.00    +0.000 H 
ATOM    124  H30 UNL A   1      38.651  29.707  26.689  1.00  0.00    +0.000 H 
ATOM     93  C68 UNL A   1      37.329  29.183  29.732  1.00  0.00    +0.000 C 
ATOM     94  C69 UNL A   1      36.015  29.536  29.457  1.00  0.00    +0.000 C 
ATOM     32  C26 UNL A   1      35.705  30.109  28.223  1.00  0.00    +0.000 C 
BRANCH   32   30
ATOM     30  C25 UNL A   1      34.395  30.756  28.013  1.00  0.00    +0.000 C 
ATOM     31  O3  UNL A   1      34.168  31.850  28.505  1.00  0.00    +0.000 O 
BRANCH   30   29
ATOM    122  H28 UNL A   1      33.074  30.570  26.518  1.00  0.00    +0.000 H 
ATOM     29  N3  UNL A   1      33.434  30.082  27.294  1.00  0.00    +0.000 N 
BRANCH   29   28
ATOM    121  H27 UNL A   1      31.991  28.879  28.110  1.00  0.00    +0.000 H 
ATOM     28  C24 UNL A   1      32.867  28.755  27.509  1.00  0.00    +0.000 C 
ATOM    120  H26 UNL A   1      33.605  28.145  27.988  1.00  0.00    +0.000 H 
BRANCH   28   27
ATOM     27  C23 UNL A   1      32.434  28.063  26.219  1.00  0.00    +0.000 C 
ATOM    118  H24 UNL A   1      31.612  27.416  26.446  1.00  0.00    +0.000 H 
ATOM    119  H25 UNL A   1      32.173  28.839  25.529  1.00  0.00    +0.000 H 
BRANCH   27   26
ATOM     26  C22 UNL A   1      33.524  27.235  25.553  1.00  0.00    +0.000 C 
ATOM    116  H22 UNL A   1      34.408  27.309  26.152  1.00  0.00    +0.000 H 
ATOM    117  H23 UNL A   1      33.135  26.240  25.481  1.00  0.00    +0.000 H 
BRANCH   26   25
ATOM     25  C21 UNL A   1      33.886  27.647  24.127  1.00  0.00    +0.000 C 
ATOM    114  H20 UNL A   1      34.952  27.666  24.046  1.00  0.00    +0.000 H 
ATOM    115  H21 UNL A   1      33.429  26.929  23.479  1.00  0.00    +0.000 H 
BRANCH   25   24
ATOM    113  H19 UNL A   1      34.173  29.546  23.272  1.00  0.00    +0.000 H 
ATOM    112  H18 UNL A   1      32.951  29.502  24.573  1.00  0.00    +0.000 H 
ATOM     24  C20 UNL A   1      33.350  29.018  23.706  1.00  0.00    +0.000 C 
BRANCH   24   23
ATOM    111  H17 UNL A   1      32.711  29.099  21.681  1.00  0.00    +0.000 H 
ATOM    110  H16 UNL A   1      31.548  29.753  22.831  1.00  0.00    +0.000 H 
ATOM     23  C19 UNL A   1      32.253  28.972  22.639  1.00  0.00    +0.000 C 
BRANCH   23   22
ATOM    109  H15 UNL A   1      32.028  26.908  22.296  1.00  0.00    +0.000 H 
ATOM     22  N2  UNL A   1      31.559  27.699  22.647  1.00  0.00    +0.000 N 
BRANCH   22    2
ATOM      1  O1  UNL A   1      29.357  28.303  22.853  1.00  0.00    +0.000 O 
ATOM      2  C1  UNL A   1      30.282  27.544  23.120  1.00  0.00    +0.000 C 
BRANCH    2    3
ATOM      3  C2  UNL A   1      30.100  26.349  24.031  1.00  0.00    +0.000 C 
ATOM     95  H1  UNL A   1      29.166  26.448  24.545  1.00  0.00    +0.000 H 
ATOM     96  H2  UNL A   1      30.922  26.331  24.716  1.00  0.00    +0.000 H 
BRANCH    3    4
ATOM     97  H3  UNL A   1      30.115  25.263  22.223  1.00  0.00    +0.000 H 
ATOM     98  H4  UNL A   1      29.227  24.512  23.594  1.00  0.00    +0.000 H 
ATOM      4  C3  UNL A   1      30.102  25.034  23.269  1.00  0.00    +0.000 C 
BRANCH    4    5
ATOM      5  C4  UNL A   1      31.244  24.110  23.545  1.00  0.00    +0.000 C 
ATOM      6  N1  UNL A   1      32.492  24.456  23.798  1.00  0.00    +0.000 N 
ATOM      7  C5  UNL A   1      33.140  23.260  23.966  1.00  0.00    +0.000 C 
ATOM     14  C12 UNL A   1      32.244  22.213  23.859  1.00  0.00    +0.000 C 
ATOM     21  O2  UNL A   1      31.015  22.752  23.563  1.00  0.00    +0.000 O 
BRANCH    7    8
ATOM     99  H5  UNL A   1      34.262  23.312  26.402  1.00  0.00    +0.000 H 
ATOM    100  H6  UNL A   1      36.623  23.515  26.918  1.00  0.00    +0.000 H 
ATOM    101  H7  UNL A   1      38.265  23.383  25.137  1.00  0.00    +0.000 H 
ATOM    102  H8  UNL A   1      37.552  22.967  22.857  1.00  0.00    +0.000 H 
ATOM    103  H9  UNL A   1      35.189  22.787  22.331  1.00  0.00    +0.000 H 
ATOM      8  C6  UNL A   1      34.537  23.104  24.315  1.00  0.00    +0.000 C 
ATOM      9  C7  UNL A   1      34.960  23.269  25.643  1.00  0.00    +0.000 C 
ATOM     10  C8  UNL A   1      36.318  23.373  25.943  1.00  0.00    +0.000 C 
ATOM     11  C9  UNL A   1      37.260  23.284  24.921  1.00  0.00    +0.000 C 
ATOM     12  C10 UNL A   1      36.849  23.061  23.606  1.00  0.00    +0.000 C 
ATOM     13  C11 UNL A   1      35.490  22.963  23.302  1.00  0.00    +0.000 C 
ENDBRANCH    7    8
BRANCH   14   15
ATOM    104  H10 UNL A   1      32.100  20.236  22.024  1.00  0.00    +0.000 H 
ATOM    105  H11 UNL A   1      32.450  17.861  22.383  1.00  0.00    +0.000 H 
ATOM    106  H12 UNL A   1      32.917  17.015  24.606  1.00  0.00    +0.000 H 
ATOM    107  H13 UNL A   1      32.965  18.535  26.496  1.00  0.00    +0.000 H 
ATOM    108  H14 UNL A   1      32.593  20.901  26.148  1.00  0.00    +0.000 H 
ATOM     15  C13 UNL A   1      32.345  20.774  24.051  1.00  0.00    +0.000 C 
ATOM     16  C14 UNL A   1      32.290  19.883  22.974  1.00  0.00    +0.000 C 
ATOM     17  C15 UNL A   1      32.492  18.513  23.182  1.00  0.00    +0.000 C 
ATOM     18  C16 UNL A   1      32.751  18.023  24.463  1.00  0.00    +0.000 C 
ATOM     19  C17 UNL A   1      32.785  18.895  25.545  1.00  0.00    +0.000 C 
ATOM     20  C18 UNL A   1      32.577  20.258  25.340  1.00  0.00    +0.000 C 
ENDBRANCH   14   15
ENDBRANCH    4    5
ENDBRANCH    3    4
ENDBRANCH    2    3
ENDBRANCH   22    2
ENDBRANCH   23   22
ENDBRANCH   24   23
ENDBRANCH   25   24
ENDBRANCH   26   25
ENDBRANCH   27   26
ENDBRANCH   28   27
ENDBRANCH   29   28
ENDBRANCH   30   29
ENDBRANCH   32   30
ENDBRANCH   36   35
BRANCH   40   41
ATOM     41  C34 UNL A   1      43.287  33.152  31.621  1.00  0.00    +0.000 C 
ATOM     42  C35 UNL A   1      43.064  33.383  32.988  1.00  0.00    +0.000 C 
ATOM     43  F1  UNL A   1      42.830  32.354  33.816  1.00  0.00    +0.000 F 
ATOM     44  C36 UNL A   1      43.028  34.677  33.499  1.00  0.00    +0.000 C 
ATOM     45  F2  UNL A   1      42.752  34.875  34.796  1.00  0.00    +0.000 F 
ATOM     46  C37 UNL A   1      43.252  35.761  32.665  1.00  0.00    +0.000 C 
ATOM     47  F3  UNL A   1      43.213  37.007  33.159  1.00  0.00    +0.000 F 
ATOM     48  C38 UNL A   1      43.505  35.555  31.318  1.00  0.00    +0.000 C 
ATOM     49  F4  UNL A   1      43.731  36.603  30.512  1.00  0.00    +0.000 F 
ATOM     50  C39 UNL A   1      43.513  34.264  30.796  1.00  0.00    +0.000 C 
ATOM     51  F5  UNL A   1      43.733  34.100  29.483  1.00  0.00    +0.000 F 
ENDBRANCH   40   41
BRANCH   57   58
ATOM     65  C49 UNL A   1      50.231  27.799  29.587  1.00  0.00    +0.000 C 
ATOM     66  F9  UNL A   1      51.123  28.115  28.639  1.00  0.00    +0.000 F 
ATOM     67  C50 UNL A   1      48.888  28.113  29.409  1.00  0.00    +0.000 C 
ATOM     68  F10 UNL A   1      48.513  28.740  28.285  1.00  0.00    +0.000 F 
ATOM     58  C45 UNL A   1      47.934  27.771  30.379  1.00  0.00    +0.000 C 
ATOM     59  C46 UNL A   1      48.375  27.113  31.537  1.00  0.00    +0.000 C 
ATOM     60  F6  UNL A   1      47.500  26.782  32.499  1.00  0.00    +0.000 F 
ATOM     61  C47 UNL A   1      49.723  26.822  31.722  1.00  0.00    +0.000 C 
ATOM     62  F7  UNL A   1      50.128  26.225  32.851  1.00  0.00    +0.000 F 
ATOM     63  C48 UNL A   1      50.649  27.159  30.745  1.00  0.00    +0.000 C 
ATOM     64  F8  UNL A   1      51.946  26.870  30.922  1.00  0.00    +0.000 F 
ENDBRANCH   57   58
BRANCH   72   73
ATOM     73  C54 UNL A   1      42.825  24.130  27.343  1.00  0.00    +0.000 C 
ATOM     74  C55 UNL A   1      43.173  24.029  25.990  1.00  0.00    +0.000 C 
ATOM     75  F11 UNL A   1      43.513  25.130  25.303  1.00  0.00    +0.000 F 
ATOM     76  C56 UNL A   1      43.151  22.803  25.329  1.00  0.00    +0.000 C 
ATOM     77  F12 UNL A   1      43.462  22.738  24.029  1.00  0.00    +0.000 F 
ATOM     78  C57 UNL A   1      42.801  21.650  26.016  1.00  0.00    +0.000 C 
ATOM     79  F13 UNL A   1      42.792  20.468  25.385  1.00  0.00    +0.000 F 
ATOM     80  C58 UNL A   1      42.459  21.724  27.358  1.00  0.00    +0.000 C 
ATOM     81  F14 UNL A   1      42.136  20.609  28.029  1.00  0.00    +0.000 F 
ATOM     82  C59 UNL A   1      42.460  22.954  28.014  1.00  0.00    +0.000 C 
ATOM     83  F15 UNL A   1      42.127  22.996  29.312  1.00  0.00    +0.000 F 
ENDBRANCH   72   73
TORSDOF 19
ENDMDL
MODEL 7
REMARK VINA RESULT:     -11.9     39.911     46.863
ROOT
ATOM    129  H35 UNL A   1      23.317  35.576  46.697  1.00  0.00    +0.000 H 
ATOM    130  H36 UNL A   1      26.928  37.574  46.197  1.00  0.00    +0.000 H 
ATOM    131  H37 UNL A   1      26.907  41.330  49.528  1.00  0.00    +0.000 H 
ATOM    132  H38 UNL A   1      29.247  41.916  48.671  1.00  0.00    +0.000 H 
ATOM    133  H39 UNL A   1      29.214  33.839  42.698  1.00  0.00    +0.000 H 
ATOM    134  H40 UNL A   1      26.718  33.517  43.174  1.00  0.00    +0.000 H 
ATOM     36  C30 UNL A   1      25.712  35.269  45.177  1.00  0.00    +0.000 C 
ATOM     37  C31 UNL A   1      27.071  35.291  44.544  1.00  0.00    +0.000 C 
ATOM     38  N4  UNL A   1      28.076  36.098  44.767  1.00  0.00    +0.000 N 
ATOM     39  C32 UNL A   1      29.112  35.634  43.969  1.00  0.00    +0.000 C 
ATOM     40  C33 UNL A   1      30.346  36.166  43.798  1.00  0.00    +0.000 C 
ATOM     52  C40 UNL A   1      30.802  37.366  44.449  1.00  0.00    +0.000 C 
ATOM     53  C41 UNL A   1      32.004  38.033  44.290  1.00  0.00    +0.000 C 
ATOM     54  C42 UNL A   1      32.011  39.131  45.159  1.00  0.00    +0.000 C 
ATOM     55  C43 UNL A   1      30.798  39.169  45.830  1.00  0.00    +0.000 C 
ATOM     56  N5  UNL A   1      30.068  38.080  45.387  1.00  0.00    +0.000 N 
ATOM     57  C44 UNL A   1      30.342  40.128  46.803  1.00  0.00    +0.000 C 
ATOM     69  C51 UNL A   1      29.124  40.122  47.400  1.00  0.00    +0.000 C 
ATOM     70  N6  UNL A   1      28.078  39.227  47.235  1.00  0.00    +0.000 N 
ATOM     71  C52 UNL A   1      27.126  39.635  48.040  1.00  0.00    +0.000 C 
ATOM     72  C53 UNL A   1      25.763  39.044  48.266  1.00  0.00    +0.000 C 
ATOM     84  C60 UNL A   1      25.377  37.992  47.522  1.00  0.00    +0.000 C 
ATOM     85  C61 UNL A   1      24.094  37.305  47.633  1.00  0.00    +0.000 C 
ATOM     86  C62 UNL A   1      24.091  36.252  46.802  1.00  0.00    +0.000 C 
ATOM     87  C63 UNL A   1      25.358  36.213  46.069  1.00  0.00    +0.000 C 
ATOM     88  N7  UNL A   1      26.044  37.306  46.535  1.00  0.00    +0.000 N 
ATOM     89  C64 UNL A   1      27.467  40.833  48.819  1.00  0.00    +0.000 C 
ATOM     90  C65 UNL A   1      28.684  41.106  48.369  1.00  0.00    +0.000 C 
ATOM     91  C66 UNL A   1      28.633  34.444  43.300  1.00  0.00    +0.000 C 
ATOM     92  C67 UNL A   1      27.351  34.234  43.560  1.00  0.00    +0.000 C 
ATOM    125  H31 UNL A   1      32.762  37.768  43.644  1.00  0.00    +0.000 H 
ATOM    126  H32 UNL A   1      32.788  39.800  45.278  1.00  0.00    +0.000 H 
ATOM    127  H33 UNL A   1      29.161  37.846  45.692  1.00  0.00    +0.000 H 
ATOM    128  H34 UNL A   1      23.317  37.583  48.253  1.00  0.00    +0.000 H 
ENDROOT
BRANCH   36   35
ATOM     33  C27 UNL A   1      22.850  33.157  43.874  1.00  0.00    +0.000 C 
ATOM     34  C28 UNL A   1      23.796  34.179  43.956  1.00  0.00    +0.000 C 
ATOM     35  C29 UNL A   1      24.802  34.125  44.932  1.00  0.00    +0.000 C 
ATOM    135  H41 UNL A   1      25.689  32.924  46.432  1.00  0.00    +0.000 H 
ATOM    136  H42 UNL A   1      24.181  31.052  46.123  1.00  0.00    +0.000 H 
ATOM    123  H29 UNL A   1      22.086  33.208  43.181  1.00  0.00    +0.000 H 
ATOM    124  H30 UNL A   1      23.754  34.974  43.299  1.00  0.00    +0.000 H 
ATOM     93  C68 UNL A   1      24.930  32.981  45.735  1.00  0.00    +0.000 C 
ATOM     94  C69 UNL A   1      24.039  31.927  45.596  1.00  0.00    +0.000 C 
ATOM     32  C26 UNL A   1      22.948  32.063  44.736  1.00  0.00    +0.000 C 
BRANCH   32   30
ATOM     30  C25 UNL A   1      21.838  31.090  44.786  1.00  0.00    +0.000 C 
ATOM     31  O3  UNL A   1      22.075  29.893  44.822  1.00  0.00    +0.000 O 
BRANCH   30   29
ATOM    122  H28 UNL A   1      20.086  31.591  45.618  1.00  0.00    +0.000 H 
ATOM     29  N3  UNL A   1      20.545  31.562  44.747  1.00  0.00    +0.000 N 
BRANCH   29   28
ATOM    121  H27 UNL A   1      19.028  31.264  43.404  1.00  0.00    +0.000 H 
ATOM     28  C24 UNL A   1      19.753  32.023  43.613  1.00  0.00    +0.000 C 
ATOM    120  H26 UNL A   1      20.412  32.191  42.786  1.00  0.00    +0.000 H 
BRANCH   28   27
ATOM     27  C23 UNL A   1      18.987  33.313  43.890  1.00  0.00    +0.000 C 
ATOM    118  H24 UNL A   1      18.793  33.369  44.941  1.00  0.00    +0.000 H 
ATOM    119  H25 UNL A   1      19.603  34.116  43.537  1.00  0.00    +0.000 H 
BRANCH   27   26
ATOM     26  C22 UNL A   1      17.660  33.428  43.153  1.00  0.00    +0.000 C 
ATOM    116  H22 UNL A   1      17.593  34.415  42.743  1.00  0.00    +0.000 H 
ATOM    117  H23 UNL A   1      17.667  32.654  42.413  1.00  0.00    +0.000 H 
BRANCH   26   25
ATOM     25  C21 UNL A   1      16.412  33.185  44.000  1.00  0.00    +0.000 C 
ATOM    114  H20 UNL A   1      16.494  33.772  44.891  1.00  0.00    +0.000 H 
ATOM    115  H21 UNL A   1      15.575  33.459  43.392  1.00  0.00    +0.000 H 
BRANCH   25   24
ATOM    113  H19 UNL A   1      15.320  31.709  45.024  1.00  0.00    +0.000 H 
ATOM    112  H18 UNL A   1      17.073  31.386  44.916  1.00  0.00    +0.000 H 
ATOM     24  C20 UNL A   1      16.195  31.725  44.407  1.00  0.00    +0.000 C 
BRANCH   24   23
ATOM    111  H17 UNL A   1      16.205  31.263  42.333  1.00  0.00    +0.000 H 
ATOM    110  H16 UNL A   1      14.880  30.526  43.230  1.00  0.00    +0.000 H 
ATOM     23  C19 UNL A   1      15.921  30.773  43.241  1.00  0.00    +0.000 C 
BRANCH   23   22
ATOM    109  H15 UNL A   1      17.658  29.588  43.171  1.00  0.00    +0.000 H 
ATOM     22  N2  UNL A   1      16.693  29.552  43.360  1.00  0.00    +0.000 N 
BRANCH   22    2
ATOM      1  O1  UNL A   1      15.797  28.075  44.868  1.00  0.00    +0.000 O 
ATOM      2  C1  UNL A   1      16.144  28.351  43.725  1.00  0.00    +0.000 C 
BRANCH    2    3
ATOM      3  C2  UNL A   1      16.013  27.359  42.588  1.00  0.00    +0.000 C 
ATOM     95  H1  UNL A   1      16.667  26.534  42.774  1.00  0.00    +0.000 H 
ATOM     96  H2  UNL A   1      16.270  27.865  41.681  1.00  0.00    +0.000 H 
BRANCH    3    4
ATOM     97  H3  UNL A   1      14.008  27.602  41.978  1.00  0.00    +0.000 H 
ATOM     98  H4  UNL A   1      14.279  26.576  43.429  1.00  0.00    +0.000 H 
ATOM      4  C3  UNL A   1      14.594  26.834  42.440  1.00  0.00    +0.000 C 
BRANCH    4    5
ATOM      5  C4  UNL A   1      14.429  25.589  41.630  1.00  0.00    +0.000 C 
ATOM      6  N1  UNL A   1      13.770  24.501  41.984  1.00  0.00    +0.000 N 
ATOM      7  C5  UNL A   1      13.926  23.657  40.917  1.00  0.00    +0.000 C 
ATOM     14  C12 UNL A   1      14.641  24.284  39.913  1.00  0.00    +0.000 C 
ATOM     21  O2  UNL A   1      14.992  25.529  40.374  1.00  0.00    +0.000 O 
BRANCH    7    8
ATOM     99  H5  UNL A   1      14.217  21.552  42.555  1.00  0.00    +0.000 H 
ATOM    100  H6  UNL A   1      13.613  19.249  42.094  1.00  0.00    +0.000 H 
ATOM    101  H7  UNL A   1      12.353  18.707  40.094  1.00  0.00    +0.000 H 
ATOM    102  H8  UNL A   1      11.626  20.474  38.600  1.00  0.00    +0.000 H 
ATOM    103  H9  UNL A   1      12.248  22.778  39.045  1.00  0.00    +0.000 H 
ATOM      8  C6  UNL A   1      13.340  22.338  40.798  1.00  0.00    +0.000 C 
ATOM      9  C7  UNL A   1      13.691  21.319  41.698  1.00  0.00    +0.000 C 
ATOM     10  C8  UNL A   1      13.334  19.997  41.441  1.00  0.00    +0.000 C 
ATOM     11  C9  UNL A   1      12.599  19.689  40.298  1.00  0.00    +0.000 C 
ATOM     12  C10 UNL A   1      12.195  20.704  39.430  1.00  0.00    +0.000 C 
ATOM     13  C11 UNL A   1      12.557  22.029  39.682  1.00  0.00    +0.000 C 
ENDBRANCH    7    8
BRANCH   14   15
ATOM    104  H10 UNL A   1      13.944  25.475  37.591  1.00  0.00    +0.000 H 
ATOM    105  H11 UNL A   1      14.717  24.920  35.358  1.00  0.00    +0.000 H 
ATOM    106  H12 UNL A   1      16.234  23.061  35.014  1.00  0.00    +0.000 H 
ATOM    107  H13 UNL A   1      16.929  21.699  36.898  1.00  0.00    +0.000 H 
ATOM    108  H14 UNL A   1      16.142  22.233  39.123  1.00  0.00    +0.000 H 
ATOM     15  C13 UNL A   1      15.000  23.919  38.550  1.00  0.00    +0.000 C 
ATOM     16  C14 UNL A   1      14.583  24.677  37.452  1.00  0.00    +0.000 C 
ATOM     17  C15 UNL A   1      15.029  24.357  36.164  1.00  0.00    +0.000 C 
ATOM     18  C16 UNL A   1      15.894  23.280  35.964  1.00  0.00    +0.000 C 
ATOM     19  C17 UNL A   1      16.298  22.504  37.043  1.00  0.00    +0.000 C 
ATOM     20  C18 UNL A   1      15.848  22.818  38.325  1.00  0.00    +0.000 C 
ENDBRANCH   14   15
ENDBRANCH    4    5
ENDBRANCH    3    4
ENDBRANCH    2    3
ENDBRANCH   22    2
ENDBRANCH   23   22
ENDBRANCH   24   23
ENDBRANCH   25   24
ENDBRANCH   26   25
ENDBRANCH   27   26
ENDBRANCH   28   27
ENDBRANCH   29   28
ENDBRANCH   30   29
ENDBRANCH   32   30
ENDBRANCH   36   35
BRANCH   40   41
ATOM     41  C34 UNL A   1      31.279  35.450  42.867  1.00  0.00    +0.000 C 
ATOM     42  C35 UNL A   1      31.407  35.829  41.522  1.00  0.00    +0.000 C 
ATOM     43  F1  UNL A   1      30.679  36.845  41.034  1.00  0.00    +0.000 F 
ATOM     44  C36 UNL A   1      32.246  35.130  40.657  1.00  0.00    +0.000 C 
ATOM     45  F2  UNL A   1      32.304  35.472  39.362  1.00  0.00    +0.000 F 
ATOM     46  C37 UNL A   1      33.000  34.067  41.128  1.00  0.00    +0.000 C 
ATOM     47  F3  UNL A   1      33.803  33.393  40.292  1.00  0.00    +0.000 F 
ATOM     48  C38 UNL A   1      32.912  33.694  42.460  1.00  0.00    +0.000 C 
ATOM     49  F4  UNL A   1      33.648  32.671  42.918  1.00  0.00    +0.000 F 
ATOM     50  C39 UNL A   1      32.052  34.371  43.321  1.00  0.00    +0.000 C 
ATOM     51  F5  UNL A   1      31.970  33.969  44.598  1.00  0.00    +0.000 F 
ENDBRANCH   40   41
BRANCH   57   58
ATOM     65  C49 UNL A   1      32.016  43.540  46.945  1.00  0.00    +0.000 C 
ATOM     66  F9  UNL A   1      31.858  44.753  46.400  1.00  0.00    +0.000 F 
ATOM     67  C50 UNL A   1      31.120  42.520  46.640  1.00  0.00    +0.000 C 
ATOM     68  F10 UNL A   1      30.101  42.780  45.807  1.00  0.00    +0.000 F 
ATOM     58  C45 UNL A   1      31.280  41.236  47.182  1.00  0.00    +0.000 C 
ATOM     59  C46 UNL A   1      32.362  41.012  48.045  1.00  0.00    +0.000 C 
ATOM     60  F6  UNL A   1      32.544  39.804  48.600  1.00  0.00    +0.000 F 
ATOM     61  C47 UNL A   1      33.243  42.041  48.365  1.00  0.00    +0.000 C 
ATOM     62  F7  UNL A   1      34.249  41.816  49.221  1.00  0.00    +0.000 F 
ATOM     63  C48 UNL A   1      33.073  43.301  47.810  1.00  0.00    +0.000 C 
ATOM     64  F8  UNL A   1      33.927  44.288  48.114  1.00  0.00    +0.000 F 
ENDBRANCH   57   58
BRANCH   72   73
ATOM     73  C54 UNL A   1      24.831  39.613  49.270  1.00  0.00    +0.000 C 
ATOM     74  C55 UNL A   1      23.936  40.632  48.920  1.00  0.00    +0.000 C 
ATOM     75  F11 UNL A   1      23.952  41.140  47.679  1.00  0.00    +0.000 F 
ATOM     76  C56 UNL A   1      23.036  41.151  49.849  1.00  0.00    +0.000 C 
ATOM     77  F12 UNL A   1      22.209  42.143  49.496  1.00  0.00    +0.000 F 
ATOM     78  C57 UNL A   1      22.999  40.644  51.139  1.00  0.00    +0.000 C 
ATOM     79  F13 UNL A   1      22.125  41.134  52.030  1.00  0.00    +0.000 F 
ATOM     80  C58 UNL A   1      23.872  39.631  51.507  1.00  0.00    +0.000 C 
ATOM     81  F14 UNL A   1      23.828  39.128  52.749  1.00  0.00    +0.000 F 
ATOM     82  C59 UNL A   1      24.787  39.127  50.585  1.00  0.00    +0.000 C 
ATOM     83  F15 UNL A   1      25.617  38.146  50.966  1.00  0.00    +0.000 F 
ENDBRANCH   72   73
TORSDOF 19
ENDMDL
MODEL 8
REMARK VINA RESULT:     -11.9     40.133     46.355
ROOT
ATOM    129  H35 UNL A   1      26.325  34.345  43.726  1.00  0.00    +0.000 H 
ATOM    130  H36 UNL A   1      28.341  37.372  45.740  1.00  0.00    +0.000 H 
ATOM    131  H37 UNL A   1      33.008  37.400  43.887  1.00  0.00    +0.000 H 
ATOM    132  H38 UNL A   1      33.467  39.373  45.453  1.00  0.00    +0.000 H 
ATOM    133  H39 UNL A   1      23.842  39.485  48.329  1.00  0.00    +0.000 H 
ATOM    134  H40 UNL A   1      23.482  37.237  47.155  1.00  0.00    +0.000 H 
ATOM     36  C30 UNL A   1      25.724  36.385  45.627  1.00  0.00    +0.000 C 
ATOM     37  C31 UNL A   1      25.647  37.558  46.559  1.00  0.00    +0.000 C 
ATOM     38  N4  UNL A   1      26.569  38.432  46.869  1.00  0.00    +0.000 N 
ATOM     39  C32 UNL A   1      25.952  39.343  47.714  1.00  0.00    +0.000 C 
ATOM     40  C33 UNL A   1      26.500  40.403  48.354  1.00  0.00    +0.000 C 
ATOM     52  C40 UNL A   1      27.888  40.771  48.258  1.00  0.00    +0.000 C 
ATOM     53  C41 UNL A   1      28.563  41.780  48.922  1.00  0.00    +0.000 C 
ATOM     54  C42 UNL A   1      29.892  41.779  48.480  1.00  0.00    +0.000 C 
ATOM     55  C43 UNL A   1      30.052  40.746  47.569  1.00  0.00    +0.000 C 
ATOM     56  N5  UNL A   1      28.815  40.138  47.442  1.00  0.00    +0.000 N 
ATOM     57  C44 UNL A   1      31.246  40.344  46.869  1.00  0.00    +0.000 C 
ATOM     69  C51 UNL A   1      31.338  39.298  46.012  1.00  0.00    +0.000 C 
ATOM     70  N6  UNL A   1      30.351  38.410  45.611  1.00  0.00    +0.000 N 
ATOM     71  C52 UNL A   1      30.926  37.592  44.763  1.00  0.00    +0.000 C 
ATOM     72  C53 UNL A   1      30.330  36.429  44.021  1.00  0.00    +0.000 C 
ATOM     84  C60 UNL A   1      29.054  36.083  44.267  1.00  0.00    +0.000 C 
ATOM     85  C61 UNL A   1      28.336  34.991  43.619  1.00  0.00    +0.000 C 
ATOM     86  C62 UNL A   1      27.062  34.995  44.042  1.00  0.00    +0.000 C 
ATOM     87  C63 UNL A   1      26.885  36.068  45.023  1.00  0.00    +0.000 C 
ATOM     88  N7  UNL A   1      28.130  36.637  45.120  1.00  0.00    +0.000 N 
ATOM     89  C64 UNL A   1      32.346  37.876  44.520  1.00  0.00    +0.000 C 
ATOM     90  C65 UNL A   1      32.555  38.907  45.328  1.00  0.00    +0.000 C 
ATOM     91  C66 UNL A   1      24.564  38.947  47.824  1.00  0.00    +0.000 C 
ATOM     92  C67 UNL A   1      24.343  37.804  47.193  1.00  0.00    +0.000 C 
ATOM    125  H31 UNL A   1      28.159  42.421  49.621  1.00  0.00    +0.000 H 
ATOM    126  H32 UNL A   1      30.628  42.437  48.782  1.00  0.00    +0.000 H 
ATOM    127  H33 UNL A   1      28.621  39.369  46.857  1.00  0.00    +0.000 H 
ATOM    128  H34 UNL A   1      28.741  34.324  42.944  1.00  0.00    +0.000 H 
ENDROOT
BRANCH   36   35
ATOM     33  C27 UNL A   1      22.404  35.502  44.032  1.00  0.00    +0.000 C 
ATOM     34  C28 UNL A   1      23.642  36.114  44.235  1.00  0.00    +0.000 C 
ATOM     35  C29 UNL A   1      24.490  35.656  45.255  1.00  0.00    +0.000 C 
ATOM    135  H41 UNL A   1      24.783  34.144  46.707  1.00  0.00    +0.000 H 
ATOM    136  H42 UNL A   1      22.738  32.952  46.188  1.00  0.00    +0.000 H 
ATOM    123  H29 UNL A   1      21.761  35.857  43.307  1.00  0.00    +0.000 H 
ATOM    124  H30 UNL A   1      23.932  36.902  43.637  1.00  0.00    +0.000 H 
ATOM     93  C68 UNL A   1      24.146  34.503  45.979  1.00  0.00    +0.000 C 
ATOM     94  C69 UNL A   1      22.953  33.845  45.719  1.00  0.00    +0.000 C 
ATOM     32  C26 UNL A   1      22.046  34.404  44.816  1.00  0.00    +0.000 C 
BRANCH   32   30
ATOM     30  C25 UNL A   1      20.664  33.891  44.740  1.00  0.00    +0.000 C 
ATOM     31  O3  UNL A   1      19.861  34.409  43.979  1.00  0.00    +0.000 O 
BRANCH   30   29
ATOM    122  H28 UNL A   1      19.882  33.131  46.420  1.00  0.00    +0.000 H 
ATOM     29  N3  UNL A   1      20.297  32.856  45.570  1.00  0.00    +0.000 N 
BRANCH   29   28
ATOM    121  H27 UNL A   1      20.157  30.950  46.305  1.00  0.00    +0.000 H 
ATOM     28  C24 UNL A   1      20.431  31.416  45.382  1.00  0.00    +0.000 C 
ATOM    120  H26 UNL A   1      21.443  31.204  45.105  1.00  0.00    +0.000 H 
BRANCH   28   27
ATOM     27  C23 UNL A   1      19.508  30.855  44.303  1.00  0.00    +0.000 C 
ATOM    118  H24 UNL A   1      19.868  31.184  43.350  1.00  0.00    +0.000 H 
ATOM    119  H25 UNL A   1      19.527  29.790  44.410  1.00  0.00    +0.000 H 
BRANCH   27   26
ATOM     26  C22 UNL A   1      18.052  31.281  44.437  1.00  0.00    +0.000 C 
ATOM    116  H22 UNL A   1      17.545  30.543  45.023  1.00  0.00    +0.000 H 
ATOM    117  H23 UNL A   1      18.070  32.251  44.889  1.00  0.00    +0.000 H 
BRANCH   26   25
ATOM     25  C21 UNL A   1      17.290  31.445  43.124  1.00  0.00    +0.000 C 
ATOM    114  H20 UNL A   1      17.203  32.490  42.917  1.00  0.00    +0.000 H 
ATOM    115  H21 UNL A   1      17.849  30.915  42.381  1.00  0.00    +0.000 H 
BRANCH   25   24
ATOM    113  H19 UNL A   1      15.242  31.560  42.664  1.00  0.00    +0.000 H 
ATOM    112  H18 UNL A   1      15.614  30.624  44.139  1.00  0.00    +0.000 H 
ATOM     24  C20 UNL A   1      15.884  30.839  43.126  1.00  0.00    +0.000 C 
BRANCH   24   23
ATOM    111  H17 UNL A   1      16.684  29.348  41.840  1.00  0.00    +0.000 H 
ATOM    110  H16 UNL A   1      14.973  29.680  41.584  1.00  0.00    +0.000 H 
ATOM     23  C19 UNL A   1      15.746  29.550  42.312  1.00  0.00    +0.000 C 
BRANCH   23   22
ATOM    109  H15 UNL A   1      14.475  28.315  43.446  1.00  0.00    +0.000 H 
ATOM     22  N2  UNL A   1      15.410  28.422  43.158  1.00  0.00    +0.000 N 
BRANCH   22    2
ATOM      1  O1  UNL A   1      17.519  27.748  43.756  1.00  0.00    +0.000 O 
ATOM      2  C1  UNL A   1      16.332  27.498  43.577  1.00  0.00    +0.000 C 
BRANCH    2    3
ATOM      3  C2  UNL A   1      15.766  26.110  43.786  1.00  0.00    +0.000 C 
ATOM     95  H1  UNL A   1      15.631  25.948  44.835  1.00  0.00    +0.000 H 
ATOM     96  H2  UNL A   1      16.458  25.408  43.369  1.00  0.00    +0.000 H 
BRANCH    3    4
ATOM     97  H3  UNL A   1      14.190  26.833  42.585  1.00  0.00    +0.000 H 
ATOM     98  H4  UNL A   1      13.740  25.642  43.855  1.00  0.00    +0.000 H 
ATOM      4  C3  UNL A   1      14.431  25.918  43.085  1.00  0.00    +0.000 C 
BRANCH    4    5
ATOM      5  C4  UNL A   1      14.364  24.817  42.077  1.00  0.00    +0.000 C 
ATOM      6  N1  UNL A   1      13.768  23.649  42.226  1.00  0.00    +0.000 N 
ATOM      7  C5  UNL A   1      14.002  23.004  41.040  1.00  0.00    +0.000 C 
ATOM     14  C12 UNL A   1      14.697  23.830  40.176  1.00  0.00    +0.000 C 
ATOM     21  O2  UNL A   1      14.958  25.000  40.847  1.00  0.00    +0.000 O 
BRANCH    7    8
ATOM     99  H5  UNL A   1      13.761  20.838  42.605  1.00  0.00    +0.000 H 
ATOM    100  H6  UNL A   1      13.371  18.554  41.888  1.00  0.00    +0.000 H 
ATOM    101  H7  UNL A   1      12.848  18.090  39.565  1.00  0.00    +0.000 H 
ATOM    102  H8  UNL A   1      12.634  19.913  37.980  1.00  0.00    +0.000 H 
ATOM    103  H9  UNL A   1      13.046  22.198  38.688  1.00  0.00    +0.000 H 
ATOM      8  C6  UNL A   1      13.503  21.691  40.686  1.00  0.00    +0.000 C 
ATOM      9  C7  UNL A   1      13.550  20.639  41.615  1.00  0.00    +0.000 C 
ATOM     10  C8  UNL A   1      13.314  19.327  41.206  1.00  0.00    +0.000 C 
ATOM     11  C9  UNL A   1      13.001  19.063  39.875  1.00  0.00    +0.000 C 
ATOM     12  C10 UNL A   1      12.894  20.111  38.959  1.00  0.00    +0.000 C 
ATOM     13  C11 UNL A   1      13.136  21.425  39.364  1.00  0.00    +0.000 C 
ENDBRANCH    7    8
BRANCH   14   15
ATOM    104  H10 UNL A   1      16.458  22.116  39.054  1.00  0.00    +0.000 H 
ATOM    105  H11 UNL A   1      16.975  21.866  36.696  1.00  0.00    +0.000 H 
ATOM    106  H12 UNL A   1      15.920  23.301  35.052  1.00  0.00    +0.000 H 
ATOM    107  H13 UNL A   1      14.393  25.045  35.767  1.00  0.00    +0.000 H 
ATOM    108  H14 UNL A   1      13.892  25.315  38.120  1.00  0.00    +0.000 H 
ATOM     15  C13 UNL A   1      15.109  23.718  38.785  1.00  0.00    +0.000 C 
ATOM     16  C14 UNL A   1      16.011  22.736  38.362  1.00  0.00    +0.000 C 
ATOM     17  C15 UNL A   1      16.309  22.592  37.001  1.00  0.00    +0.000 C 
ATOM     18  C16 UNL A   1      15.709  23.424  36.055  1.00  0.00    +0.000 C 
ATOM     19  C17 UNL A   1      14.829  24.420  36.464  1.00  0.00    +0.000 C 
ATOM     20  C18 UNL A   1      14.538  24.569  37.819  1.00  0.00    +0.000 C 
ENDBRANCH   14   15
ENDBRANCH    4    5
ENDBRANCH    3    4
ENDBRANCH    2    3
ENDBRANCH   22    2
ENDBRANCH   23   22
ENDBRANCH   24   23
ENDBRANCH   25   24
ENDBRANCH   26   25
ENDBRANCH   27   26
ENDBRANCH   28   27
ENDBRANCH   29   28
ENDBRANCH   30   29
ENDBRANCH   32   30
ENDBRANCH   36   35
BRANCH   40   41
ATOM     41  C34 UNL A   1      25.591  41.230  49.215  1.00  0.00    +0.000 C 
ATOM     42  C35 UNL A   1      24.909  42.345  48.702  1.00  0.00    +0.000 C 
ATOM     43  F1  UNL A   1      25.070  42.704  47.420  1.00  0.00    +0.000 F 
ATOM     44  C36 UNL A   1      24.100  43.129  49.521  1.00  0.00    +0.000 C 
ATOM     45  F2  UNL A   1      23.509  44.225  49.024  1.00  0.00    +0.000 F 
ATOM     46  C37 UNL A   1      23.926  42.792  50.854  1.00  0.00    +0.000 C 
ATOM     47  F3  UNL A   1      23.150  43.551  51.641  1.00  0.00    +0.000 F 
ATOM     48  C38 UNL A   1      24.565  41.677  51.374  1.00  0.00    +0.000 C 
ATOM     49  F4  UNL A   1      24.389  41.346  52.661  1.00  0.00    +0.000 F 
ATOM     50  C39 UNL A   1      25.399  40.908  50.566  1.00  0.00    +0.000 C 
ATOM     51  F5  UNL A   1      26.024  39.851  51.106  1.00  0.00    +0.000 F 
ENDBRANCH   40   41
BRANCH   57   58
ATOM     65  C49 UNL A   1      34.595  41.432  48.303  1.00  0.00    +0.000 C 
ATOM     66  F9  UNL A   1      35.491  40.990  49.196  1.00  0.00    +0.000 F 
ATOM     67  C50 UNL A   1      33.458  40.680  48.030  1.00  0.00    +0.000 C 
ATOM     68  F10 UNL A   1      33.287  39.511  48.665  1.00  0.00    +0.000 F 
ATOM     58  C45 UNL A   1      32.496  41.135  47.116  1.00  0.00    +0.000 C 
ATOM     59  C46 UNL A   1      32.718  42.364  46.479  1.00  0.00    +0.000 C 
ATOM     60  F6  UNL A   1      31.834  42.832  45.584  1.00  0.00    +0.000 F 
ATOM     61  C47 UNL A   1      33.869  43.104  46.738  1.00  0.00    +0.000 C 
ATOM     62  F7  UNL A   1      34.080  44.259  46.092  1.00  0.00    +0.000 F 
ATOM     63  C48 UNL A   1      34.802  42.641  47.654  1.00  0.00    +0.000 C 
ATOM     64  F8  UNL A   1      35.906  43.358  47.908  1.00  0.00    +0.000 F 
ENDBRANCH   57   58
BRANCH   72   73
ATOM     73  C54 UNL A   1      31.128  35.644  43.047  1.00  0.00    +0.000 C 
ATOM     74  C55 UNL A   1      31.273  36.080  41.723  1.00  0.00    +0.000 C 
ATOM     75  F11 UNL A   1      30.644  37.191  41.312  1.00  0.00    +0.000 F 
ATOM     76  C56 UNL A   1      32.045  35.365  40.810  1.00  0.00    +0.000 C 
ATOM     77  F12 UNL A   1      32.146  35.788  39.544  1.00  0.00    +0.000 F 
ATOM     78  C57 UNL A   1      32.705  34.212  41.209  1.00  0.00    +0.000 C 
ATOM     79  F13 UNL A   1      33.458  33.531  40.335  1.00  0.00    +0.000 F 
ATOM     80  C58 UNL A   1      32.581  33.765  42.517  1.00  0.00    +0.000 C 
ATOM     81  F14 UNL A   1      33.230  32.660  42.910  1.00  0.00    +0.000 F 
ATOM     82  C59 UNL A   1      31.791  34.467  43.425  1.00  0.00    +0.000 C 
ATOM     83  F15 UNL A   1      31.691  34.014  44.682  1.00  0.00    +0.000 F 
ENDBRANCH   72   73
TORSDOF 19
ENDMDL
MODEL 9
REMARK VINA RESULT:     -11.8     20.834     25.495
ROOT
ATOM    129  H35 UNL A   1      37.842  28.254  28.012  1.00  0.00    +0.000 H 
ATOM    130  H36 UNL A   1      40.712  30.404  30.113  1.00  0.00    +0.000 H 
ATOM    131  H37 UNL A   1      38.390  34.516  31.820  1.00  0.00    +0.000 H 
ATOM    132  H38 UNL A   1      40.615  35.145  32.920  1.00  0.00    +0.000 H 
ATOM    133  H39 UNL A   1      44.670  26.438  29.974  1.00  0.00    +0.000 H 
ATOM    134  H40 UNL A   1      42.636  26.017  28.475  1.00  0.00    +0.000 H 
ATOM     36  C30 UNL A   1      40.555  27.923  28.827  1.00  0.00    +0.000 C 
ATOM     37  C31 UNL A   1      41.933  27.957  29.417  1.00  0.00    +0.000 C 
ATOM     38  N4  UNL A   1      42.475  28.847  30.208  1.00  0.00    +0.000 N 
ATOM     39  C32 UNL A   1      43.738  28.359  30.511  1.00  0.00    +0.000 C 
ATOM     40  C33 UNL A   1      44.712  28.945  31.248  1.00  0.00    +0.000 C 
ATOM     52  C40 UNL A   1      44.587  30.239  31.864  1.00  0.00    +0.000 C 
ATOM     53  C41 UNL A   1      45.537  30.957  32.568  1.00  0.00    +0.000 C 
ATOM     54  C42 UNL A   1      44.945  32.148  33.008  1.00  0.00    +0.000 C 
ATOM     55  C43 UNL A   1      43.638  32.187  32.545  1.00  0.00    +0.000 C 
ATOM     56  N5  UNL A   1      43.432  31.010  31.848  1.00  0.00    +0.000 N 
ATOM     57  C44 UNL A   1      42.654  33.223  32.727  1.00  0.00    +0.000 C 
ATOM     69  C51 UNL A   1      41.397  33.210  32.217  1.00  0.00    +0.000 C 
ATOM     70  N6  UNL A   1      40.781  32.237  31.443  1.00  0.00    +0.000 N 
ATOM     71  C52 UNL A   1      39.567  32.676  31.215  1.00  0.00    +0.000 C 
ATOM     72  C53 UNL A   1      38.463  32.030  30.426  1.00  0.00    +0.000 C 
ATOM     84  C60 UNL A   1      38.711  30.875  29.781  1.00  0.00    +0.000 C 
ATOM     85  C61 UNL A   1      37.741  30.126  28.988  1.00  0.00    +0.000 C 
ATOM     86  C62 UNL A   1      38.310  28.985  28.570  1.00  0.00    +0.000 C 
ATOM     87  C63 UNL A   1      39.698  28.942  29.033  1.00  0.00    +0.000 C 
ATOM     88  N7  UNL A   1      39.859  30.123  29.713  1.00  0.00    +0.000 N 
ATOM     89  C64 UNL A   1      39.269  33.975  31.831  1.00  0.00    +0.000 C 
ATOM     90  C65 UNL A   1      40.428  34.271  32.405  1.00  0.00    +0.000 C 
ATOM     91  C66 UNL A   1      43.862  27.072  29.863  1.00  0.00    +0.000 C 
ATOM     92  C67 UNL A   1      42.804  26.812  29.110  1.00  0.00    +0.000 C 
ATOM    125  H31 UNL A   1      46.511  30.667  32.739  1.00  0.00    +0.000 H 
ATOM    126  H32 UNL A   1      45.405  32.874  33.580  1.00  0.00    +0.000 H 
ATOM    127  H33 UNL A   1      42.589  30.756  31.405  1.00  0.00    +0.000 H 
ATOM    128  H34 UNL A   1      36.775  30.426  28.784  1.00  0.00    +0.000 H 
ENDROOT
BRANCH   36   35
ATOM     33  C27 UNL A   1      38.999  24.535  28.158  1.00  0.00    +0.000 C 
ATOM     34  C28 UNL A   1      39.281  25.750  28.784  1.00  0.00    +0.000 C 
ATOM     35  C29 UNL A   1      40.079  26.704  28.134  1.00  0.00    +0.000 C 
ATOM    135  H41 UNL A   1      41.041  27.198  26.314  1.00  0.00    +0.000 H 
ATOM    136  H42 UNL A   1      40.349  25.185  25.155  1.00  0.00    +0.000 H 
ATOM    123  H29 UNL A   1      38.442  23.815  28.645  1.00  0.00    +0.000 H 
ATOM    124  H30 UNL A   1      38.903  25.947  29.723  1.00  0.00    +0.000 H 
ATOM     93  C68 UNL A   1      40.481  26.485  26.807  1.00  0.00    +0.000 C 
ATOM     94  C69 UNL A   1      40.129  25.312  26.155  1.00  0.00    +0.000 C 
ATOM     32  C26 UNL A   1      39.475  24.304  26.866  1.00  0.00    +0.000 C 
BRANCH   32   30
ATOM     30  C25 UNL A   1      39.351  22.950  26.290  1.00  0.00    +0.000 C 
ATOM     31  O3  UNL A   1      40.340  22.243  26.172  1.00  0.00    +0.000 O 
BRANCH   30   29
ATOM    122  H28 UNL A   1      37.794  21.691  26.264  1.00  0.00    +0.000 H 
ATOM     29  N3  UNL A   1      38.115  22.528  25.857  1.00  0.00    +0.000 N 
BRANCH   29   28
ATOM    121  H27 UNL A   1      36.849  22.343  24.257  1.00  0.00    +0.000 H 
ATOM     28  C24 UNL A   1      37.211  23.131  24.884  1.00  0.00    +0.000 C 
ATOM    120  H26 UNL A   1      37.752  23.872  24.333  1.00  0.00    +0.000 H 
BRANCH   28   27
ATOM     27  C23 UNL A   1      35.993  23.797  25.518  1.00  0.00    +0.000 C 
ATOM    118  H24 UNL A   1      36.312  24.705  25.986  1.00  0.00    +0.000 H 
ATOM    119  H25 UNL A   1      35.289  23.962  24.728  1.00  0.00    +0.000 H 
BRANCH   27   26
ATOM     26  C22 UNL A   1      35.283  22.946  26.563  1.00  0.00    +0.000 C 
ATOM    116  H22 UNL A   1      35.274  21.934  26.214  1.00  0.00    +0.000 H 
ATOM    117  H23 UNL A   1      35.829  23.082  27.473  1.00  0.00    +0.000 H 
BRANCH   26   25
ATOM     25  C21 UNL A   1      33.843  23.348  26.874  1.00  0.00    +0.000 C 
ATOM    114  H20 UNL A   1      33.833  23.846  27.820  1.00  0.00    +0.000 H 
ATOM    115  H21 UNL A   1      33.522  23.974  26.067  1.00  0.00    +0.000 H 
BRANCH   25   24
ATOM    113  H19 UNL A   1      32.310  22.293  27.850  1.00  0.00    +0.000 H 
ATOM    112  H18 UNL A   1      33.414  21.268  26.892  1.00  0.00    +0.000 H 
ATOM     24  C20 UNL A   1      32.856  22.180  26.937  1.00  0.00    +0.000 C 
BRANCH   24   23
ATOM    111  H17 UNL A   1      31.934  23.054  25.234  1.00  0.00    +0.000 H 
ATOM    110  H16 UNL A   1      30.841  22.107  26.240  1.00  0.00    +0.000 H 
ATOM     23  C19 UNL A   1      31.819  22.161  25.811  1.00  0.00    +0.000 C 
BRANCH   23   22
ATOM    109  H15 UNL A   1      31.821  20.124  25.284  1.00  0.00    +0.000 H 
ATOM     22  N2  UNL A   1      32.011  21.024  24.933  1.00  0.00    +0.000 N 
BRANCH   22    2
ATOM      1  O1  UNL A   1      32.162  20.347  22.747  1.00  0.00    +0.000 O 
ATOM      2  C1  UNL A   1      32.444  21.141  23.638  1.00  0.00    +0.000 C 
BRANCH    2    3
ATOM      3  C2  UNL A   1      33.334  22.340  23.388  1.00  0.00    +0.000 C 
ATOM     95  H1  UNL A   1      34.229  22.010  22.904  1.00  0.00    +0.000 H 
ATOM     96  H2  UNL A   1      33.547  22.793  24.334  1.00  0.00    +0.000 H 
BRANCH    3    4
ATOM     97  H3  UNL A   1      31.760  22.958  22.127  1.00  0.00    +0.000 H 
ATOM     98  H4  UNL A   1      33.384  23.642  21.767  1.00  0.00    +0.000 H 
ATOM      4  C3  UNL A   1      32.662  23.387  22.514  1.00  0.00    +0.000 C 
BRANCH    4    5
ATOM      5  C4  UNL A   1      32.302  24.675  23.180  1.00  0.00    +0.000 C 
ATOM      6  N1  UNL A   1      32.862  25.184  24.262  1.00  0.00    +0.000 N 
ATOM      7  C5  UNL A   1      32.178  26.352  24.471  1.00  0.00    +0.000 C 
ATOM     14  C12 UNL A   1      31.247  26.546  23.467  1.00  0.00    +0.000 C 
ATOM     21  O2  UNL A   1      31.303  25.453  22.638  1.00  0.00    +0.000 O 
BRANCH    7    8
ATOM     99  H5  UNL A   1      30.861  26.714  26.780  1.00  0.00    +0.000 H 
ATOM    100  H6  UNL A   1      31.050  28.605  28.288  1.00  0.00    +0.000 H 
ATOM    101  H7  UNL A   1      32.775  30.271  27.926  1.00  0.00    +0.000 H 
ATOM    102  H8  UNL A   1      34.360  30.004  26.110  1.00  0.00    +0.000 H 
ATOM    103  H9  UNL A   1      34.162  28.126  24.585  1.00  0.00    +0.000 H 
ATOM      8  C6  UNL A   1      32.454  27.310  25.521  1.00  0.00    +0.000 C 
ATOM      9  C7  UNL A   1      31.587  27.430  26.620  1.00  0.00    +0.000 C 
ATOM     10  C8  UNL A   1      31.702  28.510  27.494  1.00  0.00    +0.000 C 
ATOM     11  C9  UNL A   1      32.702  29.459  27.293  1.00  0.00    +0.000 C 
ATOM     12  C10 UNL A   1      33.604  29.313  26.238  1.00  0.00    +0.000 C 
ATOM     13  C11 UNL A   1      33.487  28.237  25.357  1.00  0.00    +0.000 C 
ENDBRANCH    7    8
BRANCH   14   15
ATOM    104  H10 UNL A   1      31.796  28.903  22.266  1.00  0.00    +0.000 H 
ATOM    105  H11 UNL A   1      30.215  30.605  21.566  1.00  0.00    +0.000 H 
ATOM    106  H12 UNL A   1      27.845  30.326  21.994  1.00  0.00    +0.000 H 
ATOM    107  H13 UNL A   1      27.052  28.372  23.193  1.00  0.00    +0.000 H 
ATOM    108  H14 UNL A   1      28.627  26.682  23.915  1.00  0.00    +0.000 H 
ATOM     15  C13 UNL A   1      30.342  27.634  23.125  1.00  0.00    +0.000 C 
ATOM     16  C14 UNL A   1      30.790  28.780  22.460  1.00  0.00    +0.000 C 
ATOM     17  C15 UNL A   1      29.878  29.762  22.056  1.00  0.00    +0.000 C 
ATOM     18  C16 UNL A   1      28.514  29.607  22.311  1.00  0.00    +0.000 C 
ATOM     19  C17 UNL A   1      28.058  28.484  22.992  1.00  0.00    +0.000 C 
ATOM     20  C18 UNL A   1      28.967  27.510  23.400  1.00  0.00    +0.000 C 
ENDBRANCH   14   15
ENDBRANCH    4    5
ENDBRANCH    3    4
ENDBRANCH    2    3
ENDBRANCH   22    2
ENDBRANCH   23   22
ENDBRANCH   24   23
ENDBRANCH   25   24
ENDBRANCH   26   25
ENDBRANCH   27   26
ENDBRANCH   28   27
ENDBRANCH   29   28
ENDBRANCH   30   29
ENDBRANCH   32   30
ENDBRANCH   36   35
BRANCH   40   41
ATOM     41  C34 UNL A   1      45.994  28.185  31.417  1.00  0.00    +0.000 C 
ATOM     42  C35 UNL A   1      46.188  27.301  32.490  1.00  0.00    +0.000 C 
ATOM     43  F1  UNL A   1      45.221  27.128  33.404  1.00  0.00    +0.000 F 
ATOM     44  C36 UNL A   1      47.397  26.633  32.659  1.00  0.00    +0.000 C 
ATOM     45  F2  UNL A   1      47.580  25.842  33.727  1.00  0.00    +0.000 F 
ATOM     46  C37 UNL A   1      48.421  26.803  31.740  1.00  0.00    +0.000 C 
ATOM     47  F3  UNL A   1      49.586  26.162  31.908  1.00  0.00    +0.000 F 
ATOM     48  C38 UNL A   1      48.241  27.647  30.656  1.00  0.00    +0.000 C 
ATOM     49  F4  UNL A   1      49.227  27.805  29.761  1.00  0.00    +0.000 F 
ATOM     50  C39 UNL A   1      47.043  28.341  30.499  1.00  0.00    +0.000 C 
ATOM     51  F5  UNL A   1      46.911  29.171  29.453  1.00  0.00    +0.000 F 
ENDBRANCH   40   41
BRANCH   57   58
ATOM     65  C49 UNL A   1      43.981  36.665  33.648  1.00  0.00    +0.000 C 
ATOM     66  F9  UNL A   1      44.492  37.738  33.028  1.00  0.00    +0.000 F 
ATOM     67  C50 UNL A   1      43.564  35.567  32.904  1.00  0.00    +0.000 C 
ATOM     68  F10 UNL A   1      43.675  35.610  31.568  1.00  0.00    +0.000 F 
ATOM     58  C45 UNL A   1      43.048  34.424  33.533  1.00  0.00    +0.000 C 
ATOM     59  C46 UNL A   1      42.955  34.426  34.932  1.00  0.00    +0.000 C 
ATOM     60  F6  UNL A   1      42.451  33.362  35.577  1.00  0.00    +0.000 F 
ATOM     61  C47 UNL A   1      43.352  35.536  35.672  1.00  0.00    +0.000 C 
ATOM     62  F7  UNL A   1      43.221  35.531  37.006  1.00  0.00    +0.000 F 
ATOM     63  C48 UNL A   1      43.871  36.651  35.030  1.00  0.00    +0.000 C 
ATOM     64  F8  UNL A   1      44.259  37.716  35.745  1.00  0.00    +0.000 F 
ENDBRANCH   57   58
BRANCH   72   73
ATOM     73  C54 UNL A   1      37.120  32.652  30.324  1.00  0.00    +0.000 C 
ATOM     74  C55 UNL A   1      36.761  33.401  29.195  1.00  0.00    +0.000 C 
ATOM     75  F11 UNL A   1      37.655  33.604  28.216  1.00  0.00    +0.000 F 
ATOM     76  C56 UNL A   1      35.492  33.963  29.077  1.00  0.00    +0.000 C 
ATOM     77  F12 UNL A   1      35.183  34.696  28.000  1.00  0.00    +0.000 F 
ATOM     78  C57 UNL A   1      34.549  33.768  30.076  1.00  0.00    +0.000 C 
ATOM     79  F13 UNL A   1      33.324  34.298  29.958  1.00  0.00    +0.000 F 
ATOM     80  C58 UNL A   1      34.880  33.025  31.200  1.00  0.00    +0.000 C 
ATOM     81  F14 UNL A   1      33.967  32.822  32.160  1.00  0.00    +0.000 F 
ATOM     82  C59 UNL A   1      36.157  32.481  31.329  1.00  0.00    +0.000 C 
ATOM     83  F15 UNL A   1      36.448  31.766  32.424  1.00  0.00    +0.000 F 
ENDBRANCH   72   73
TORSDOF 19
ENDMDL
MODEL 10
REMARK VINA RESULT:     -11.8     45.103     49.801
ROOT
ATOM    129  H35 UNL A   1      12.333  52.040   7.374  1.00  0.00    +0.000 H 
ATOM    130  H36 UNL A   1      14.566  51.237   3.962  1.00  0.00    +0.000 H 
ATOM    131  H37 UNL A   1      13.308  46.587   2.545  1.00  0.00    +0.000 H 
ATOM    132  H38 UNL A   1      14.910  46.906   0.573  1.00  0.00    +0.000 H 
ATOM    133  H39 UNL A   1      16.566  56.431   3.303  1.00  0.00    +0.000 H 
ATOM    134  H40 UNL A   1      15.367  55.986   5.523  1.00  0.00    +0.000 H 
ATOM     36  C30 UNL A   1      14.134  53.427   5.651  1.00  0.00    +0.000 C 
ATOM     37  C31 UNL A   1      15.043  53.949   4.579  1.00  0.00    +0.000 C 
ATOM     38  N4  UNL A   1      15.462  53.361   3.487  1.00  0.00    +0.000 N 
ATOM     39  C32 UNL A   1      16.218  54.312   2.817  1.00  0.00    +0.000 C 
ATOM     40  C33 UNL A   1      16.917  54.172   1.665  1.00  0.00    +0.000 C 
ATOM     52  C40 UNL A   1      16.992  52.947   0.914  1.00  0.00    +0.000 C 
ATOM     53  C41 UNL A   1      17.730  52.676  -0.225  1.00  0.00    +0.000 C 
ATOM     54  C42 UNL A   1      17.456  51.359  -0.617  1.00  0.00    +0.000 C 
ATOM     55  C43 UNL A   1      16.578  50.801   0.299  1.00  0.00    +0.000 C 
ATOM     56  N5  UNL A   1      16.301  51.786   1.230  1.00  0.00    +0.000 N 
ATOM     57  C44 UNL A   1      16.034  49.467   0.320  1.00  0.00    +0.000 C 
ATOM     69  C51 UNL A   1      15.200  48.975   1.270  1.00  0.00    +0.000 C 
ATOM     70  N6  UNL A   1      14.683  49.610   2.389  1.00  0.00    +0.000 N 
ATOM     71  C52 UNL A   1      13.918  48.726   2.983  1.00  0.00    +0.000 C 
ATOM     72  C53 UNL A   1      13.113  48.869   4.244  1.00  0.00    +0.000 C 
ATOM     84  C60 UNL A   1      13.200  50.012   4.947  1.00  0.00    +0.000 C 
ATOM     85  C61 UNL A   1      12.473  50.302   6.179  1.00  0.00    +0.000 C 
ATOM     86  C62 UNL A   1      12.735  51.565   6.551  1.00  0.00    +0.000 C 
ATOM     87  C63 UNL A   1      13.680  52.159   5.605  1.00  0.00    +0.000 C 
ATOM     88  N7  UNL A   1      13.929  51.152   4.707  1.00  0.00    +0.000 N 
ATOM     89  C64 UNL A   1      13.852  47.429   2.297  1.00  0.00    +0.000 C 
ATOM     90  C65 UNL A   1      14.674  47.624   1.275  1.00  0.00    +0.000 C 
ATOM     91  C66 UNL A   1      16.157  55.529   3.597  1.00  0.00    +0.000 C 
ATOM     92  C67 UNL A   1      15.508  55.336   4.735  1.00  0.00    +0.000 C 
ATOM    125  H31 UNL A   1      18.370  53.328  -0.701  1.00  0.00    +0.000 H 
ATOM    126  H32 UNL A   1      17.845  50.885  -1.448  1.00  0.00    +0.000 H 
ATOM    127  H33 UNL A   1      15.700  51.679   2.004  1.00  0.00    +0.000 H 
ATOM    128  H34 UNL A   1      11.857  49.644   6.681  1.00  0.00    +0.000 H 
ENDROOT
BRANCH   36   35
ATOM     33  C27 UNL A   1      13.641  55.226   8.947  1.00  0.00    +0.000 C 
ATOM     34  C28 UNL A   1      14.253  54.490   7.932  1.00  0.00    +0.000 C 
ATOM     35  C29 UNL A   1      13.615  54.345   6.691  1.00  0.00    +0.000 C 
ATOM    135  H41 UNL A   1      11.973  54.970   5.511  1.00  0.00    +0.000 H 
ATOM    136  H42 UNL A   1      11.039  56.432   7.204  1.00  0.00    +0.000 H 
ATOM    123  H29 UNL A   1      14.088  55.307   9.875  1.00  0.00    +0.000 H 
ATOM    124  H30 UNL A   1      15.173  54.053   8.095  1.00  0.00    +0.000 H 
ATOM     93  C68 UNL A   1      12.428  55.048   6.434  1.00  0.00    +0.000 C 
ATOM     94  C69 UNL A   1      11.863  55.848   7.417  1.00  0.00    +0.000 C 
ATOM     32  C26 UNL A   1      12.419  55.854   8.697  1.00  0.00    +0.000 C 
BRANCH   32   30
ATOM     30  C25 UNL A   1      11.680  56.456   9.825  1.00  0.00    +0.000 C 
ATOM     31  O3  UNL A   1      11.312  57.619   9.763  1.00  0.00    +0.000 O 
BRANCH   30   29
ATOM    122  H28 UNL A   1      12.065  55.878  11.703  1.00  0.00    +0.000 H 
ATOM     29  N3  UNL A   1      11.458  55.694  10.950  1.00  0.00    +0.000 N 
BRANCH   29   28
ATOM    121  H27 UNL A   1       9.540  54.999  10.772  1.00  0.00    +0.000 H 
ATOM     28  C24 UNL A   1      10.462  54.657  11.194  1.00  0.00    +0.000 C 
ATOM    120  H26 UNL A   1      10.390  54.499  12.250  1.00  0.00    +0.000 H 
BRANCH   28   27
ATOM     27  C23 UNL A   1      10.796  53.325  10.528  1.00  0.00    +0.000 C 
ATOM    118  H24 UNL A   1       9.931  52.697  10.583  1.00  0.00    +0.000 H 
ATOM    119  H25 UNL A   1      11.084  53.550   9.521  1.00  0.00    +0.000 H 
BRANCH   27   26
ATOM     26  C22 UNL A   1      11.966  52.582  11.159  1.00  0.00    +0.000 C 
ATOM    116  H22 UNL A   1      12.582  53.300  11.660  1.00  0.00    +0.000 H 
ATOM    117  H23 UNL A   1      11.532  51.855  11.815  1.00  0.00    +0.000 H 
BRANCH   26   25
ATOM     25  C21 UNL A   1      12.848  51.798  10.191  1.00  0.00    +0.000 C 
ATOM    114  H20 UNL A   1      12.275  50.984   9.800  1.00  0.00    +0.000 H 
ATOM    115  H21 UNL A   1      13.161  52.490   9.437  1.00  0.00    +0.000 H 
BRANCH   25   24
ATOM    113  H19 UNL A   1      14.126  50.179  10.600  1.00  0.00    +0.000 H 
ATOM    112  H18 UNL A   1      14.109  51.441  11.863  1.00  0.00    +0.000 H 
ATOM     24  C20 UNL A   1      14.125  51.227  10.815  1.00  0.00    +0.000 C 
BRANCH   24   23
ATOM    111  H17 UNL A   1      16.243  51.403  10.801  1.00  0.00    +0.000 H 
ATOM    110  H16 UNL A   1      15.395  52.858  10.286  1.00  0.00    +0.000 H 
ATOM     23  C19 UNL A   1      15.424  51.790  10.233  1.00  0.00    +0.000 C 
BRANCH   23   22
ATOM    109  H15 UNL A   1      14.945  51.704   8.186  1.00  0.00    +0.000 H 
ATOM     22  N2  UNL A   1      15.601  51.393   8.850  1.00  0.00    +0.000 N 
BRANCH   22    2
ATOM      1  O1  UNL A   1      17.818  50.835   8.667  1.00  0.00    +0.000 O 
ATOM      2  C1  UNL A   1      16.638  50.605   8.423  1.00  0.00    +0.000 C 
BRANCH    2    3
ATOM      3  C2  UNL A   1      16.210  49.414   7.593  1.00  0.00    +0.000 C 
ATOM     95  H1  UNL A   1      16.905  49.288   6.789  1.00  0.00    +0.000 H 
ATOM     96  H2  UNL A   1      15.222  49.606   7.229  1.00  0.00    +0.000 H 
BRANCH    3    4
ATOM     97  H3  UNL A   1      16.971  48.158   9.107  1.00  0.00    +0.000 H 
ATOM     98  H4  UNL A   1      16.229  47.336   7.690  1.00  0.00    +0.000 H 
ATOM      4  C3  UNL A   1      16.164  48.130   8.405  1.00  0.00    +0.000 C 
BRANCH    4    5
ATOM      5  C4  UNL A   1      14.905  47.875   9.170  1.00  0.00    +0.000 C 
ATOM      6  N1  UNL A   1      14.787  47.782  10.481  1.00  0.00    +0.000 N 
ATOM      7  C5  UNL A   1      13.454  47.533  10.677  1.00  0.00    +0.000 C 
ATOM     14  C12 UNL A   1      12.786  47.534   9.467  1.00  0.00    +0.000 C 
ATOM     21  O2  UNL A   1      13.721  47.731   8.481  1.00  0.00    +0.000 O 
BRANCH    7    8
ATOM     99  H5  UNL A   1      13.069  45.304  12.120  1.00  0.00    +0.000 H 
ATOM    100  H6  UNL A   1      11.591  45.034  14.024  1.00  0.00    +0.000 H 
ATOM    101  H7  UNL A   1      10.506  46.974  14.995  1.00  0.00    +0.000 H 
ATOM    102  H8  UNL A   1      10.962  49.188  14.117  1.00  0.00    +0.000 H 
ATOM    103  H9  UNL A   1      12.423  49.461  12.198  1.00  0.00    +0.000 H 
ATOM      8  C6  UNL A   1      12.806  47.398  11.965  1.00  0.00    +0.000 C 
ATOM      9  C7  UNL A   1      12.598  46.127  12.526  1.00  0.00    +0.000 C 
ATOM     10  C8  UNL A   1      11.758  45.972  13.628  1.00  0.00    +0.000 C 
ATOM     11  C9  UNL A   1      11.146  47.089  14.194  1.00  0.00    +0.000 C 
ATOM     12  C10 UNL A   1      11.396  48.361  13.678  1.00  0.00    +0.000 C 
ATOM     13  C11 UNL A   1      12.231  48.519  12.570  1.00  0.00    +0.000 C 
ENDBRANCH    7    8
BRANCH   14   15
ATOM    104  H10 UNL A   1      11.067  45.479   9.813  1.00  0.00    +0.000 H 
ATOM    105  H11 UNL A   1       8.692  45.442   9.314  1.00  0.00    +0.000 H 
ATOM    106  H12 UNL A   1       7.620  47.375   8.318  1.00  0.00    +0.000 H 
ATOM    107  H13 UNL A   1       8.936  49.333   7.751  1.00  0.00    +0.000 H 
ATOM    108  H14 UNL A   1      11.308  49.366   8.225  1.00  0.00    +0.000 H 
ATOM     15  C13 UNL A   1      11.384  47.436   9.088  1.00  0.00    +0.000 C 
ATOM     16  C14 UNL A   1      10.620  46.303   9.383  1.00  0.00    +0.000 C 
ATOM     17  C15 UNL A   1       9.250  46.282   9.094  1.00  0.00    +0.000 C 
ATOM     18  C16 UNL A   1       8.633  47.391   8.512  1.00  0.00    +0.000 C 
ATOM     19  C17 UNL A   1       9.386  48.515   8.192  1.00  0.00    +0.000 C 
ATOM     20  C18 UNL A   1      10.751  48.533   8.473  1.00  0.00    +0.000 C 
ENDBRANCH   14   15
ENDBRANCH    4    5
ENDBRANCH    3    4
ENDBRANCH    2    3
ENDBRANCH   22    2
ENDBRANCH   23   22
ENDBRANCH   24   23
ENDBRANCH   25   24
ENDBRANCH   26   25
ENDBRANCH   27   26
ENDBRANCH   28   27
ENDBRANCH   29   28
ENDBRANCH   30   29
ENDBRANCH   32   30
ENDBRANCH   36   35
BRANCH   40   41
ATOM     41  C34 UNL A   1      17.653  55.377   1.160  1.00  0.00    +0.000 C 
ATOM     42  C35 UNL A   1      18.948  55.687   1.606  1.00  0.00    +0.000 C 
ATOM     43  F1  UNL A   1      19.553  54.908   2.515  1.00  0.00    +0.000 F 
ATOM     44  C36 UNL A   1      19.605  56.831   1.160  1.00  0.00    +0.000 C 
ATOM     45  F2  UNL A   1      20.815  57.139   1.649  1.00  0.00    +0.000 F 
ATOM     46  C37 UNL A   1      18.999  57.664   0.233  1.00  0.00    +0.000 C 
ATOM     47  F3  UNL A   1      19.632  58.767  -0.192  1.00  0.00    +0.000 F 
ATOM     48  C38 UNL A   1      17.734  57.361  -0.245  1.00  0.00    +0.000 C 
ATOM     49  F4  UNL A   1      17.152  58.161  -1.150  1.00  0.00    +0.000 F 
ATOM     50  C39 UNL A   1      17.061  56.234   0.220  1.00  0.00    +0.000 C 
ATOM     51  F5  UNL A   1      15.827  55.983  -0.242  1.00  0.00    +0.000 F 
ENDBRANCH   40   41
BRANCH   57   58
ATOM     65  C49 UNL A   1      15.928  47.454  -2.904  1.00  0.00    +0.000 C 
ATOM     66  F9  UNL A   1      15.105  47.280  -3.946  1.00  0.00    +0.000 F 
ATOM     67  C50 UNL A   1      15.594  48.355  -1.898  1.00  0.00    +0.000 C 
ATOM     68  F10 UNL A   1      14.448  49.044  -2.001  1.00  0.00    +0.000 F 
ATOM     58  C45 UNL A   1      16.430  48.536  -0.786  1.00  0.00    +0.000 C 
ATOM     59  C46 UNL A   1      17.615  47.790  -0.723  1.00  0.00    +0.000 C 
ATOM     60  F6  UNL A   1      18.455  47.943   0.314  1.00  0.00    +0.000 F 
ATOM     61  C47 UNL A   1      17.958  46.906  -1.742  1.00  0.00    +0.000 C 
ATOM     62  F7  UNL A   1      19.113  46.230  -1.680  1.00  0.00    +0.000 F 
ATOM     63  C48 UNL A   1      17.111  46.734  -2.828  1.00  0.00    +0.000 C 
ATOM     64  F8  UNL A   1      17.439  45.877  -3.805  1.00  0.00    +0.000 F 
ENDBRANCH   57   58
BRANCH   72   73
ATOM     73  C54 UNL A   1      12.249  47.768   4.738  1.00  0.00    +0.000 C 
ATOM     74  C55 UNL A   1      12.790  46.714   5.487  1.00  0.00    +0.000 C 
ATOM     75  F11 UNL A   1      14.110  46.667   5.718  1.00  0.00    +0.000 F 
ATOM     76  C56 UNL A   1      11.982  45.693   5.981  1.00  0.00    +0.000 C 
ATOM     77  F12 UNL A   1      12.528  44.683   6.671  1.00  0.00    +0.000 F 
ATOM     78  C57 UNL A   1      10.614  45.718   5.755  1.00  0.00    +0.000 C 
ATOM     79  F13 UNL A   1       9.834  44.742   6.241  1.00  0.00    +0.000 F 
ATOM     80  C58 UNL A   1      10.055  46.754   5.022  1.00  0.00    +0.000 C 
ATOM     81  F14 UNL A   1       8.731  46.789   4.815  1.00  0.00    +0.000 F 
ATOM     82  C59 UNL A   1      10.866  47.764   4.508  1.00  0.00    +0.000 C 
ATOM     83  F15 UNL A   1      10.299  48.755   3.805  1.00  0.00    +0.000 F 
ENDBRANCH   72   73
TORSDOF 19
ENDMDL
