MODEL 1
REMARK VINA RESULT:     -10.6      0.000      0.000
ROOT
ATOM     19  C15 UNL A   1      41.562  26.038  27.632  1.00  0.00    +0.000 C 
ATOM     20  C16 UNL A   1      40.850  27.123  28.389  1.00  0.00    +0.000 C 
ATOM     21  N3  UNL A   1      41.254  28.332  28.684  1.00  0.00    +0.000 N 
ATOM     22  C17 UNL A   1      40.184  28.938  29.330  1.00  0.00    +0.000 C 
ATOM     23  C18 UNL A   1      40.118  30.177  29.871  1.00  0.00    +0.000 C 
ATOM     35  C25 UNL A   1      41.211  31.112  29.885  1.00  0.00    +0.000 C 
ATOM     36  C26 UNL A   1      41.265  32.369  30.462  1.00  0.00    +0.000 C 
ATOM     37  C27 UNL A   1      42.523  32.918  30.195  1.00  0.00    +0.000 C 
ATOM     38  C28 UNL A   1      43.267  31.987  29.489  1.00  0.00    +0.000 C 
ATOM     39  N4  UNL A   1      42.448  30.887  29.299  1.00  0.00    +0.000 N 
ATOM     40  C29 UNL A   1      44.626  32.093  29.021  1.00  0.00    +0.000 C 
ATOM     52  C36 UNL A   1      45.287  31.138  28.323  1.00  0.00    +0.000 C 
ATOM     53  N5  UNL A   1      44.843  29.884  27.925  1.00  0.00    +0.000 N 
ATOM     54  C37 UNL A   1      45.843  29.335  27.281  1.00  0.00    +0.000 C 
ATOM     55  C38 UNL A   1      45.932  27.970  26.653  1.00  0.00    +0.000 C 
ATOM     67  C45 UNL A   1      44.895  27.120  26.774  1.00  0.00    +0.000 C 
ATOM     68  C46 UNL A   1      44.832  25.773  26.214  1.00  0.00    +0.000 C 
ATOM     69  C47 UNL A   1      43.620  25.251  26.461  1.00  0.00    +0.000 C 
ATOM     70  C48 UNL A   1      42.834  26.214  27.232  1.00  0.00    +0.000 C 
ATOM     71  N6  UNL A   1      43.682  27.280  27.400  1.00  0.00    +0.000 N 
ATOM     72  C49 UNL A   1      47.030  30.194  27.168  1.00  0.00    +0.000 C 
ATOM     73  C50 UNL A   1      46.649  31.269  27.848  1.00  0.00    +0.000 C 
ATOM     74  C51 UNL A   1      39.102  27.977  29.349  1.00  0.00    +0.000 C 
ATOM     75  C52 UNL A   1      39.486  26.815  28.846  1.00  0.00    +0.000 C 
ATOM    111  H21 UNL A   1      40.508  32.823  30.997  1.00  0.00    +0.000 H 
ATOM    112  H22 UNL A   1      42.844  33.858  30.476  1.00  0.00    +0.000 H 
ATOM    113  H23 UNL A   1      42.704  30.066  28.819  1.00  0.00    +0.000 H 
ATOM    114  H24 UNL A   1      45.596  25.299  25.708  1.00  0.00    +0.000 H 
ATOM    115  H25 UNL A   1      43.295  24.319  26.157  1.00  0.00    +0.000 H 
ATOM    116  H26 UNL A   1      43.444  28.083  27.918  1.00  0.00    +0.000 H 
ATOM    117  H27 UNL A   1      47.925  30.011  26.688  1.00  0.00    +0.000 H 
ATOM    118  H28 UNL A   1      47.247  32.092  28.016  1.00  0.00    +0.000 H 
ATOM    119  H29 UNL A   1      38.154  28.174  29.707  1.00  0.00    +0.000 H 
ATOM    120  H30 UNL A   1      38.965  25.925  28.788  1.00  0.00    +0.000 H 
ENDROOT
BRANCH   19   18
ATOM     76  C53 UNL A   1      39.792  24.915  26.292  1.00  0.00    +0.000 C 
ATOM    109  H19 UNL A   1      40.625  21.507  27.827  1.00  0.00    +0.000 H 
ATOM     77  C54 UNL A   1      39.051  23.793  25.936  1.00  0.00    +0.000 C 
ATOM     15  C11 UNL A   1      39.395  22.541  26.454  1.00  0.00    +0.000 C 
ATOM     16  C12 UNL A   1      40.402  22.428  27.416  1.00  0.00    +0.000 C 
ATOM     17  C13 UNL A   1      41.104  23.565  27.821  1.00  0.00    +0.000 C 
ATOM    110  H20 UNL A   1      41.833  23.489  28.547  1.00  0.00    +0.000 H 
ATOM     18  C14 UNL A   1      40.821  24.813  27.242  1.00  0.00    +0.000 C 
ATOM    121  H31 UNL A   1      39.584  25.827  25.858  1.00  0.00    +0.000 H 
ATOM    122  H32 UNL A   1      38.250  23.884  25.291  1.00  0.00    +0.000 H 
BRANCH   15   13
ATOM     13  C10 UNL A   1      38.701  21.321  25.993  1.00  0.00    +0.000 C 
ATOM     14  O2  UNL A   1      39.349  20.318  25.709  1.00  0.00    +0.000 O 
BRANCH   13   12
ATOM    108  H18 UNL A   1      36.831  21.572  26.678  1.00  0.00    +0.000 H 
ATOM     12  N2  UNL A   1      37.333  21.327  25.867  1.00  0.00    +0.000 N 
BRANCH   12   11
ATOM    106  H16 UNL A   1      37.168  20.994  23.837  1.00  0.00    +0.000 H 
ATOM     11  C9  UNL A   1      36.529  21.022  24.695  1.00  0.00    +0.000 C 
ATOM    107  H17 UNL A   1      36.056  20.076  24.861  1.00  0.00    +0.000 H 
BRANCH   11   10
ATOM    105  H15 UNL A   1      34.510  21.516  24.435  1.00  0.00    +0.000 H 
ATOM     10  C8  UNL A   1      35.434  22.055  24.458  1.00  0.00    +0.000 C 
ATOM    104  H14 UNL A   1      35.648  22.563  23.541  1.00  0.00    +0.000 H 
BRANCH   10    9
ATOM      9  C7  UNL A   1      35.295  23.105  25.562  1.00  0.00    +0.000 C 
ATOM    102  H12 UNL A   1      34.451  22.842  26.165  1.00  0.00    +0.000 H 
ATOM    103  H13 UNL A   1      36.220  23.098  26.098  1.00  0.00    +0.000 H 
BRANCH    9    8
ATOM    100  H10 UNL A   1      34.473  25.049  25.774  1.00  0.00    +0.000 H 
ATOM    101  H11 UNL A   1      36.077  24.961  24.982  1.00  0.00    +0.000 H 
ATOM      8  C6  UNL A   1      35.097  24.540  25.068  1.00  0.00    +0.000 C 
BRANCH    8    7
ATOM     98  H8  UNL A   1      35.230  24.661  22.949  1.00  0.00    +0.000 H 
ATOM     99  H9  UNL A   1      33.766  23.860  23.586  1.00  0.00    +0.000 H 
ATOM      7  C5  UNL A   1      34.452  24.677  23.683  1.00  0.00    +0.000 C 
BRANCH    7    6
ATOM     97  H7  UNL A   1      33.365  26.038  22.451  1.00  0.00    +0.000 H 
ATOM      6  C4  UNL A   1      33.632  25.958  23.484  1.00  0.00    +0.000 C 
ATOM     96  H6  UNL A   1      34.220  26.801  23.783  1.00  0.00    +0.000 H 
BRANCH    6    5
ATOM      5  N1  UNL A   1      32.417  25.921  24.276  1.00  0.00    +0.000 N 
ATOM     95  H5  UNL A   1      32.357  26.570  25.013  1.00  0.00    +0.000 H 
BRANCH    5    3
ATOM      3  C3  UNL A   1      31.344  25.086  24.115  1.00  0.00    +0.000 C 
ATOM      4  O1  UNL A   1      30.595  25.319  23.165  1.00  0.00    +0.000 O 
BRANCH    3    2
ATOM      2  C2  UNL A   1      31.107  23.949  25.130  1.00  0.00    +0.000 C 
ATOM     94  H4  UNL A   1      30.053  23.835  25.268  1.00  0.00    +0.000 H 
BRANCH    2    1
ATOM      1  C1  UNL A   1      31.757  24.341  26.464  1.00  0.00    +0.000 C 
ATOM     91  H1  UNL A   1      31.026  24.798  27.097  1.00  0.00    +0.000 H 
ATOM     92  H2  UNL A   1      32.553  25.032  26.284  1.00  0.00    +0.000 H 
ATOM     93  H3  UNL A   1      32.145  23.466  26.943  1.00  0.00    +0.000 H 
ENDBRANCH    2    1
BRANCH    2   78
ATOM    129  H39 UNL A   1      31.814  21.714  26.545  1.00  0.00    +0.000 H 
ATOM     78  C55 UNL A   1      31.566  22.569  24.631  1.00  0.00    +0.000 C 
ATOM     79  C56 UNL A   1      31.755  22.308  23.263  1.00  0.00    +0.000 C 
ATOM     80  C57 UNL A   1      32.125  21.036  22.810  1.00  0.00    +0.000 C 
ATOM     81  C58 UNL A   1      32.337  19.990  23.713  1.00  0.00    +0.000 C 
ATOM     89  C64 UNL A   1      32.235  20.257  25.082  1.00  0.00    +0.000 C 
ATOM     90  C65 UNL A   1      31.866  21.532  25.530  1.00  0.00    +0.000 C 
ATOM    123  H33 UNL A   1      31.619  23.068  22.579  1.00  0.00    +0.000 H 
ATOM    124  H34 UNL A   1      32.242  20.869  21.798  1.00  0.00    +0.000 H 
ATOM    128  H38 UNL A   1      32.431  19.509  25.766  1.00  0.00    +0.000 H 
BRANCH   81   82
ATOM     82  C59 UNL A   1      32.715  18.645  23.172  1.00  0.00    +0.000 C 
ATOM     83  O3  UNL A   1      32.357  18.363  22.029  1.00  0.00    +0.000 O 
BRANCH   82   84
ATOM     84  C60 UNL A   1      33.489  17.736  23.998  1.00  0.00    +0.000 C 
ATOM     85  C61 UNL A   1      34.851  17.698  24.233  1.00  0.00    +0.000 C 
ATOM     86  C62 UNL A   1      35.219  16.621  25.092  1.00  0.00    +0.000 C 
ATOM     87  C63 UNL A   1      34.125  15.886  25.494  1.00  0.00    +0.000 C 
ATOM     88  S1  UNL A   1      32.664  16.509  24.860  1.00  0.00    +0.000 S 
ATOM    125  H35 UNL A   1      35.523  18.371  23.833  1.00  0.00    +0.000 H 
ATOM    126  H36 UNL A   1      36.189  16.415  25.378  1.00  0.00    +0.000 H 
ATOM    127  H37 UNL A   1      34.181  15.058  26.107  1.00  0.00    +0.000 H 
ENDBRANCH   82   84
ENDBRANCH   81   82
ENDBRANCH    2   78
ENDBRANCH    3    2
ENDBRANCH    5    3
ENDBRANCH    6    5
ENDBRANCH    7    6
ENDBRANCH    8    7
ENDBRANCH    9    8
ENDBRANCH   10    9
ENDBRANCH   11   10
ENDBRANCH   12   11
ENDBRANCH   13   12
ENDBRANCH   15   13
ENDBRANCH   19   18
BRANCH   23   24
ATOM     33  C24 UNL A   1      38.612  30.472  31.870  1.00  0.00    +0.000 C 
ATOM     34  F5  UNL A   1      39.587  29.993  32.658  1.00  0.00    +0.000 F 
ATOM     24  C19 UNL A   1      38.813  30.590  30.487  1.00  0.00    +0.000 C 
ATOM     25  C20 UNL A   1      37.757  31.092  29.711  1.00  0.00    +0.000 C 
ATOM     26  F1  UNL A   1      37.905  31.237  28.385  1.00  0.00    +0.000 F 
ATOM     27  C21 UNL A   1      36.563  31.496  30.301  1.00  0.00    +0.000 C 
ATOM     28  F2  UNL A   1      35.591  32.026  29.547  1.00  0.00    +0.000 F 
ATOM     29  C22 UNL A   1      36.386  31.369  31.670  1.00  0.00    +0.000 C 
ATOM     30  F3  UNL A   1      35.236  31.759  32.238  1.00  0.00    +0.000 F 
ATOM     31  C23 UNL A   1      37.405  30.848  32.454  1.00  0.00    +0.000 C 
ATOM     32  F4  UNL A   1      37.232  30.716  33.776  1.00  0.00    +0.000 F 
ENDBRANCH   23   24
BRANCH   40   41
ATOM     41  C30 UNL A   1      45.377  33.346  29.356  1.00  0.00    +0.000 C 
ATOM     42  C31 UNL A   1      45.342  34.470  28.519  1.00  0.00    +0.000 C 
ATOM     43  F6  UNL A   1      44.683  34.422  27.351  1.00  0.00    +0.000 F 
ATOM     44  C32 UNL A   1      46.008  35.641  28.869  1.00  0.00    +0.000 C 
ATOM     45  F7  UNL A   1      45.989  36.694  28.040  1.00  0.00    +0.000 F 
ATOM     46  C33 UNL A   1      46.697  35.719  30.070  1.00  0.00    +0.000 C 
ATOM     47  F8  UNL A   1      47.329  36.851  30.411  1.00  0.00    +0.000 F 
ATOM     48  C34 UNL A   1      46.737  34.621  30.917  1.00  0.00    +0.000 C 
ATOM     49  F9  UNL A   1      47.393  34.698  32.084  1.00  0.00    +0.000 F 
ATOM     50  C35 UNL A   1      46.092  33.441  30.560  1.00  0.00    +0.000 C 
ATOM     51  F10 UNL A   1      46.150  32.394  31.395  1.00  0.00    +0.000 F 
ENDBRANCH   40   41
BRANCH   55   56
ATOM     65  C44 UNL A   1      47.272  27.668  24.543  1.00  0.00    +0.000 C 
ATOM     66  F15 UNL A   1      46.271  28.209  23.833  1.00  0.00    +0.000 F 
ATOM     56  C39 UNL A   1      47.156  27.537  25.933  1.00  0.00    +0.000 C 
ATOM     57  C40 UNL A   1      48.227  26.959  26.629  1.00  0.00    +0.000 C 
ATOM     58  F11 UNL A   1      48.167  26.831  27.962  1.00  0.00    +0.000 F 
ATOM     59  C41 UNL A   1      49.374  26.538  25.961  1.00  0.00    +0.000 C 
ATOM     60  F12 UNL A   1      50.396  26.017  26.652  1.00  0.00    +0.000 F 
ATOM     61  C42 UNL A   1      49.463  26.665  24.583  1.00  0.00    +0.000 C 
ATOM     62  F13 UNL A   1      50.562  26.251  23.938  1.00  0.00    +0.000 F 
ATOM     63  C43 UNL A   1      48.411  27.226  23.872  1.00  0.00    +0.000 C 
ATOM     64  F14 UNL A   1      48.487  27.337  22.539  1.00  0.00    +0.000 F 
ENDBRANCH   55   56
TORSDOF 19
ENDMDL
MODEL 2
REMARK VINA RESULT:     -10.6      4.809     10.161
ROOT
ATOM     19  C15 UNL A   1      37.752  30.502  30.155  1.00  0.00    +0.000 C 
ATOM     20  C16 UNL A   1      38.789  29.614  29.529  1.00  0.00    +0.000 C 
ATOM     21  N3  UNL A   1      39.877  29.111  30.053  1.00  0.00    +0.000 N 
ATOM     22  C17 UNL A   1      40.433  28.308  29.066  1.00  0.00    +0.000 C 
ATOM     23  C18 UNL A   1      41.589  27.604  29.103  1.00  0.00    +0.000 C 
ATOM     35  C25 UNL A   1      42.491  27.590  30.223  1.00  0.00    +0.000 C 
ATOM     36  C26 UNL A   1      43.717  26.958  30.337  1.00  0.00    +0.000 C 
ATOM     37  C27 UNL A   1      44.218  27.204  31.620  1.00  0.00    +0.000 C 
ATOM     38  C28 UNL A   1      43.323  28.023  32.290  1.00  0.00    +0.000 C 
ATOM     39  N4  UNL A   1      42.265  28.245  31.425  1.00  0.00    +0.000 N 
ATOM     40  C29 UNL A   1      43.426  28.562  33.622  1.00  0.00    +0.000 C 
ATOM     52  C36 UNL A   1      42.499  29.352  34.218  1.00  0.00    +0.000 C 
ATOM     53  N5  UNL A   1      41.297  29.822  33.706  1.00  0.00    +0.000 N 
ATOM     54  C37 UNL A   1      40.759  30.546  34.658  1.00  0.00    +0.000 C 
ATOM     55  C38 UNL A   1      39.467  31.317  34.647  1.00  0.00    +0.000 C 
ATOM     67  C45 UNL A   1      38.732  31.358  33.520  1.00  0.00    +0.000 C 
ATOM     68  C46 UNL A   1      37.459  32.054  33.361  1.00  0.00    +0.000 C 
ATOM     69  C47 UNL A   1      36.974  31.809  32.133  1.00  0.00    +0.000 C 
ATOM     70  C48 UNL A   1      37.924  30.968  31.405  1.00  0.00    +0.000 C 
ATOM     71  N6  UNL A   1      38.953  30.778  32.294  1.00  0.00    +0.000 N 
ATOM     72  C49 UNL A   1      41.547  30.591  35.897  1.00  0.00    +0.000 C 
ATOM     73  C50 UNL A   1      42.613  29.873  35.564  1.00  0.00    +0.000 C 
ATOM     74  C51 UNL A   1      39.542  28.359  27.927  1.00  0.00    +0.000 C 
ATOM     75  C52 UNL A   1      38.549  29.210  28.135  1.00  0.00    +0.000 C 
ATOM    111  H21 UNL A   1      44.183  26.402  29.603  1.00  0.00    +0.000 H 
ATOM    112  H22 UNL A   1      45.103  26.837  32.003  1.00  0.00    +0.000 H 
ATOM    113  H23 UNL A   1      41.470  28.788  31.631  1.00  0.00    +0.000 H 
ATOM    114  H24 UNL A   1      37.004  32.640  34.079  1.00  0.00    +0.000 H 
ATOM    115  H25 UNL A   1      36.076  32.158  31.762  1.00  0.00    +0.000 H 
ATOM    116  H26 UNL A   1      39.769  30.273  32.075  1.00  0.00    +0.000 H 
ATOM    117  H27 UNL A   1      41.331  31.057  36.792  1.00  0.00    +0.000 H 
ATOM    118  H28 UNL A   1      43.420  29.708  36.185  1.00  0.00    +0.000 H 
ATOM    119  H29 UNL A   1      39.665  27.804  27.065  1.00  0.00    +0.000 H 
ATOM    120  H30 UNL A   1      37.803  29.511  27.489  1.00  0.00    +0.000 H 
ENDROOT
BRANCH   19   18
ATOM     76  C53 UNL A   1      36.048  32.110  29.317  1.00  0.00    +0.000 C 
ATOM    109  H19 UNL A   1      33.995  29.293  27.732  1.00  0.00    +0.000 H 
ATOM     77  C54 UNL A   1      34.850  32.402  28.674  1.00  0.00    +0.000 C 
ATOM     15  C11 UNL A   1      34.132  31.378  28.047  1.00  0.00    +0.000 C 
ATOM     16  C12 UNL A   1      34.550  30.050  28.162  1.00  0.00    +0.000 C 
ATOM     17  C13 UNL A   1      35.721  29.750  28.863  1.00  0.00    +0.000 C 
ATOM    110  H20 UNL A   1      36.020  28.769  28.969  1.00  0.00    +0.000 H 
ATOM     18  C14 UNL A   1      36.492  30.782  29.423  1.00  0.00    +0.000 C 
ATOM    121  H31 UNL A   1      36.614  32.873  29.720  1.00  0.00    +0.000 H 
ATOM    122  H32 UNL A   1      34.492  33.370  28.659  1.00  0.00    +0.000 H 
BRANCH   15   13
ATOM     13  C10 UNL A   1      32.924  31.686  27.253  1.00  0.00    +0.000 C 
ATOM     14  O2  UNL A   1      32.665  32.849  26.960  1.00  0.00    +0.000 O 
BRANCH   13   12
ATOM    108  H18 UNL A   1      31.694  30.139  27.599  1.00  0.00    +0.000 H 
ATOM     12  N2  UNL A   1      32.090  30.666  26.868  1.00  0.00    +0.000 N 
BRANCH   12   11
ATOM    106  H16 UNL A   1      30.700  30.561  25.346  1.00  0.00    +0.000 H 
ATOM     11  C9  UNL A   1      31.713  30.262  25.523  1.00  0.00    +0.000 C 
ATOM    107  H17 UNL A   1      32.386  30.736  24.839  1.00  0.00    +0.000 H 
BRANCH   11   10
ATOM    105  H15 UNL A   1      31.372  28.546  24.370  1.00  0.00    +0.000 H 
ATOM     10  C8  UNL A   1      31.822  28.756  25.318  1.00  0.00    +0.000 C 
ATOM    104  H14 UNL A   1      31.328  28.272  26.135  1.00  0.00    +0.000 H 
BRANCH   10    9
ATOM      9  C7  UNL A   1      33.254  28.222  25.245  1.00  0.00    +0.000 C 
ATOM    102  H12 UNL A   1      33.501  28.077  24.214  1.00  0.00    +0.000 H 
ATOM    103  H13 UNL A   1      33.869  28.950  25.731  1.00  0.00    +0.000 H 
BRANCH    9    8
ATOM    100  H10 UNL A   1      34.030  26.250  25.324  1.00  0.00    +0.000 H 
ATOM    101  H11 UNL A   1      34.026  27.151  26.872  1.00  0.00    +0.000 H 
ATOM      8  C6  UNL A   1      33.490  26.901  25.980  1.00  0.00    +0.000 C 
BRANCH    8    7
ATOM     98  H8  UNL A   1      31.998  26.478  27.437  1.00  0.00    +0.000 H 
ATOM     99  H9  UNL A   1      31.455  26.421  25.737  1.00  0.00    +0.000 H 
ATOM      7  C5  UNL A   1      32.223  26.166  26.438  1.00  0.00    +0.000 C 
BRANCH    7    6
ATOM     97  H7  UNL A   1      31.361  24.222  26.597  1.00  0.00    +0.000 H 
ATOM      6  C4  UNL A   1      32.333  24.636  26.427  1.00  0.00    +0.000 C 
ATOM     96  H6  UNL A   1      33.009  24.327  27.196  1.00  0.00    +0.000 H 
BRANCH    6    5
ATOM      5  N1  UNL A   1      32.822  24.165  25.145  1.00  0.00    +0.000 N 
ATOM     95  H5  UNL A   1      33.796  24.053  25.065  1.00  0.00    +0.000 H 
BRANCH    5    3
ATOM      3  C3  UNL A   1      32.083  23.856  24.035  1.00  0.00    +0.000 C 
ATOM      4  O1  UNL A   1      31.480  22.781  24.049  1.00  0.00    +0.000 O 
BRANCH    3    2
ATOM      2  C2  UNL A   1      32.076  24.823  22.834  1.00  0.00    +0.000 C 
ATOM     94  H4  UNL A   1      31.802  24.272  21.959  1.00  0.00    +0.000 H 
BRANCH    2    1
ATOM      1  C1  UNL A   1      33.489  25.393  22.657  1.00  0.00    +0.000 C 
ATOM     91  H1  UNL A   1      33.885  25.671  23.611  1.00  0.00    +0.000 H 
ATOM     92  H2  UNL A   1      33.450  26.255  22.024  1.00  0.00    +0.000 H 
ATOM     93  H3  UNL A   1      34.120  24.653  22.212  1.00  0.00    +0.000 H 
ENDBRANCH    2    1
BRANCH    2   78
ATOM    129  H39 UNL A   1      32.016  27.326  21.725  1.00  0.00    +0.000 H 
ATOM     78  C55 UNL A   1      31.002  25.920  22.930  1.00  0.00    +0.000 C 
ATOM     79  C56 UNL A   1      29.860  25.762  23.732  1.00  0.00    +0.000 C 
ATOM     80  C57 UNL A   1      28.862  26.742  23.778  1.00  0.00    +0.000 C 
ATOM     81  C58 UNL A   1      28.985  27.921  23.037  1.00  0.00    +0.000 C 
ATOM     89  C64 UNL A   1      30.155  28.129  22.301  1.00  0.00    +0.000 C 
ATOM     90  C65 UNL A   1      31.152  27.146  22.260  1.00  0.00    +0.000 C 
ATOM    123  H33 UNL A   1      29.754  24.905  24.300  1.00  0.00    +0.000 H 
ATOM    124  H34 UNL A   1      28.026  26.592  24.364  1.00  0.00    +0.000 H 
ATOM    128  H38 UNL A   1      30.284  29.013  21.783  1.00  0.00    +0.000 H 
BRANCH   81   82
ATOM     82  C59 UNL A   1      27.879  28.929  23.110  1.00  0.00    +0.000 C 
ATOM     83  O3  UNL A   1      26.753  28.527  23.401  1.00  0.00    +0.000 O 
BRANCH   82   84
ATOM     84  C60 UNL A   1      28.170  30.327  22.849  1.00  0.00    +0.000 C 
ATOM     85  C61 UNL A   1      28.533  31.333  23.726  1.00  0.00    +0.000 C 
ATOM     86  C62 UNL A   1      28.702  32.586  23.066  1.00  0.00    +0.000 C 
ATOM     87  C63 UNL A   1      28.479  32.489  21.710  1.00  0.00    +0.000 C 
ATOM     88  S1  UNL A   1      28.094  30.892  21.235  1.00  0.00    +0.000 S 
ATOM    125  H35 UNL A   1      28.665  31.193  24.739  1.00  0.00    +0.000 H 
ATOM    126  H36 UNL A   1      28.960  33.461  23.547  1.00  0.00    +0.000 H 
ATOM    127  H37 UNL A   1      28.538  33.286  21.057  1.00  0.00    +0.000 H 
ENDBRANCH   82   84
ENDBRANCH   81   82
ENDBRANCH    2   78
ENDBRANCH    3    2
ENDBRANCH    5    3
ENDBRANCH    6    5
ENDBRANCH    7    6
ENDBRANCH    8    7
ENDBRANCH    9    8
ENDBRANCH   10    9
ENDBRANCH   11   10
ENDBRANCH   12   11
ENDBRANCH   13   12
ENDBRANCH   15   13
ENDBRANCH   19   18
BRANCH   23   24
ATOM     33  C24 UNL A   1      42.793  27.303  26.911  1.00  0.00    +0.000 C 
ATOM     34  F5  UNL A   1      43.316  28.532  27.045  1.00  0.00    +0.000 F 
ATOM     24  C19 UNL A   1      41.936  26.787  27.893  1.00  0.00    +0.000 C 
ATOM     25  C20 UNL A   1      41.414  25.499  27.698  1.00  0.00    +0.000 C 
ATOM     26  F1  UNL A   1      40.600  24.956  28.616  1.00  0.00    +0.000 F 
ATOM     27  C21 UNL A   1      41.768  24.744  26.583  1.00  0.00    +0.000 C 
ATOM     28  F2  UNL A   1      41.302  23.495  26.447  1.00  0.00    +0.000 F 
ATOM     29  C22 UNL A   1      42.616  25.275  25.624  1.00  0.00    +0.000 C 
ATOM     30  F3  UNL A   1      42.956  24.547  24.551  1.00  0.00    +0.000 F 
ATOM     31  C23 UNL A   1      43.121  26.557  25.781  1.00  0.00    +0.000 C 
ATOM     32  F4  UNL A   1      43.934  27.075  24.849  1.00  0.00    +0.000 F 
ENDBRANCH   23   24
BRANCH   40   41
ATOM     41  C30 UNL A   1      44.667  28.248  34.402  1.00  0.00    +0.000 C 
ATOM     42  C31 UNL A   1      45.786  29.092  34.376  1.00  0.00    +0.000 C 
ATOM     43  F6  UNL A   1      45.794  30.178  33.587  1.00  0.00    +0.000 F 
ATOM     44  C32 UNL A   1      46.912  28.808  35.143  1.00  0.00    +0.000 C 
ATOM     45  F7  UNL A   1      47.984  29.610  35.080  1.00  0.00    +0.000 F 
ATOM     46  C33 UNL A   1      46.931  27.693  35.967  1.00  0.00    +0.000 C 
ATOM     47  F8  UNL A   1      48.012  27.427  36.713  1.00  0.00    +0.000 F 
ATOM     48  C34 UNL A   1      45.831  26.849  36.015  1.00  0.00    +0.000 C 
ATOM     49  F9  UNL A   1      45.843  25.777  36.819  1.00  0.00    +0.000 F 
ATOM     50  C35 UNL A   1      44.712  27.117  35.232  1.00  0.00    +0.000 C 
ATOM     51  F10 UNL A   1      43.665  26.283  35.293  1.00  0.00    +0.000 F 
ENDBRANCH   40   41
BRANCH   55   56
ATOM     65  C44 UNL A   1      39.380  33.394  36.068  1.00  0.00    +0.000 C 
ATOM     66  F15 UNL A   1      40.149  34.034  35.176  1.00  0.00    +0.000 F 
ATOM     56  C39 UNL A   1      39.010  32.060  35.849  1.00  0.00    +0.000 C 
ATOM     57  C40 UNL A   1      38.211  31.434  36.815  1.00  0.00    +0.000 C 
ATOM     58  F11 UNL A   1      37.818  30.165  36.637  1.00  0.00    +0.000 F 
ATOM     59  C41 UNL A   1      37.788  32.119  37.951  1.00  0.00    +0.000 C 
ATOM     60  F12 UNL A   1      36.999  31.508  38.845  1.00  0.00    +0.000 F 
ATOM     61  C42 UNL A   1      38.176  33.435  38.155  1.00  0.00    +0.000 C 
ATOM     62  F13 UNL A   1      37.778  34.091  39.253  1.00  0.00    +0.000 F 
ATOM     63  C43 UNL A   1      38.975  34.072  37.217  1.00  0.00    +0.000 C 
ATOM     64  F14 UNL A   1      39.364  35.338  37.417  1.00  0.00    +0.000 F 
ENDBRANCH   55   56
TORSDOF 19
ENDMDL
MODEL 3
REMARK VINA RESULT:     -10.5      1.124      7.569
ROOT
ATOM     19  C15 UNL A   1      42.216  25.752  27.574  1.00  0.00    +0.000 C 
ATOM     20  C16 UNL A   1      43.533  26.209  27.012  1.00  0.00    +0.000 C 
ATOM     21  N3  UNL A   1      44.132  27.365  27.137  1.00  0.00    +0.000 N 
ATOM     22  C17 UNL A   1      45.349  27.230  26.483  1.00  0.00    +0.000 C 
ATOM     23  C18 UNL A   1      46.313  28.161  26.292  1.00  0.00    +0.000 C 
ATOM     35  C25 UNL A   1      46.219  29.524  26.742  1.00  0.00    +0.000 C 
ATOM     36  C26 UNL A   1      47.114  30.562  26.546  1.00  0.00    +0.000 C 
ATOM     37  C27 UNL A   1      46.612  31.698  27.189  1.00  0.00    +0.000 C 
ATOM     38  C28 UNL A   1      45.386  31.379  27.750  1.00  0.00    +0.000 C 
ATOM     39  N4  UNL A   1      45.161  30.041  27.475  1.00  0.00    +0.000 N 
ATOM     40  C29 UNL A   1      44.486  32.232  28.484  1.00  0.00    +0.000 C 
ATOM     52  C36 UNL A   1      43.301  31.844  29.015  1.00  0.00    +0.000 C 
ATOM     53  N5  UNL A   1      42.692  30.597  28.967  1.00  0.00    +0.000 N 
ATOM     54  C37 UNL A   1      41.564  30.722  29.622  1.00  0.00    +0.000 C 
ATOM     55  C38 UNL A   1      40.490  29.696  29.865  1.00  0.00    +0.000 C 
ATOM     67  C45 UNL A   1      40.613  28.471  29.321  1.00  0.00    +0.000 C 
ATOM     68  C46 UNL A   1      39.661  27.374  29.476  1.00  0.00    +0.000 C 
ATOM     69  C47 UNL A   1      40.149  26.281  28.867  1.00  0.00    +0.000 C 
ATOM     70  C48 UNL A   1      41.431  26.613  28.245  1.00  0.00    +0.000 C 
ATOM     71  N6  UNL A   1      41.610  27.942  28.538  1.00  0.00    +0.000 N 
ATOM     72  C49 UNL A   1      41.343  32.060  30.189  1.00  0.00    +0.000 C 
ATOM     73  C50 UNL A   1      42.417  32.713  29.762  1.00  0.00    +0.000 C 
ATOM     74  C51 UNL A   1      45.420  25.868  25.996  1.00  0.00    +0.000 C 
ATOM     75  C52 UNL A   1      44.291  25.217  26.234  1.00  0.00    +0.000 C 
ATOM    111  H21 UNL A   1      47.998  30.508  26.016  1.00  0.00    +0.000 H 
ATOM    112  H22 UNL A   1      47.077  32.618  27.239  1.00  0.00    +0.000 H 
ATOM    113  H23 UNL A   1      44.367  29.531  27.757  1.00  0.00    +0.000 H 
ATOM    114  H24 UNL A   1      38.760  27.430  29.974  1.00  0.00    +0.000 H 
ATOM    115  H25 UNL A   1      39.692  25.356  28.840  1.00  0.00    +0.000 H 
ATOM    116  H26 UNL A   1      42.381  28.466  28.219  1.00  0.00    +0.000 H 
ATOM    117  H27 UNL A   1      40.560  32.402  30.767  1.00  0.00    +0.000 H 
ATOM    118  H28 UNL A   1      42.598  33.713  29.941  1.00  0.00    +0.000 H 
ATOM    119  H29 UNL A   1      46.242  25.458  25.527  1.00  0.00    +0.000 H 
ATOM    120  H30 UNL A   1      44.016  24.264  25.948  1.00  0.00    +0.000 H 
ENDROOT
BRANCH   19   18
ATOM     76  C53 UNL A   1      40.925  23.934  26.472  1.00  0.00    +0.000 C 
ATOM    109  H19 UNL A   1      42.357  21.305  28.860  1.00  0.00    +0.000 H 
ATOM     77  C54 UNL A   1      40.514  22.608  26.373  1.00  0.00    +0.000 C 
ATOM     15  C11 UNL A   1      41.082  21.642  27.209  1.00  0.00    +0.000 C 
ATOM     16  C12 UNL A   1      41.971  22.017  28.219  1.00  0.00    +0.000 C 
ATOM     17  C13 UNL A   1      42.336  23.358  28.358  1.00  0.00    +0.000 C 
ATOM    110  H20 UNL A   1      42.975  23.641  29.117  1.00  0.00    +0.000 H 
ATOM     18  C14 UNL A   1      41.834  24.322  27.469  1.00  0.00    +0.000 C 
ATOM    121  H31 UNL A   1      40.559  24.635  25.811  1.00  0.00    +0.000 H 
ATOM    122  H32 UNL A   1      39.793  22.339  25.685  1.00  0.00    +0.000 H 
BRANCH   15   13
ATOM     13  C10 UNL A   1      40.752  20.212  27.035  1.00  0.00    +0.000 C 
ATOM     14  O2  UNL A   1      41.012  19.411  27.927  1.00  0.00    +0.000 O 
BRANCH   13   12
ATOM    108  H18 UNL A   1      40.742  19.839  25.063  1.00  0.00    +0.000 H 
ATOM     12  N2  UNL A   1      40.172  19.789  25.864  1.00  0.00    +0.000 N 
BRANCH   12   11
ATOM    106  H16 UNL A   1      38.897  18.298  25.222  1.00  0.00    +0.000 H 
ATOM     11  C9  UNL A   1      38.828  19.277  25.651  1.00  0.00    +0.000 C 
ATOM    107  H17 UNL A   1      38.332  19.254  26.599  1.00  0.00    +0.000 H 
BRANCH   11   10
ATOM    105  H15 UNL A   1      38.016  19.684  23.763  1.00  0.00    +0.000 H 
ATOM     10  C8  UNL A   1      38.011  20.164  24.719  1.00  0.00    +0.000 C 
ATOM    104  H14 UNL A   1      38.461  21.135  24.704  1.00  0.00    +0.000 H 
BRANCH   10    9
ATOM      9  C7  UNL A   1      36.542  20.327  25.113  1.00  0.00    +0.000 C 
ATOM    102  H12 UNL A   1      35.994  19.511  24.692  1.00  0.00    +0.000 H 
ATOM    103  H13 UNL A   1      36.521  20.346  26.183  1.00  0.00    +0.000 H 
BRANCH    9    8
ATOM    100  H10 UNL A   1      36.410  21.970  23.778  1.00  0.00    +0.000 H 
ATOM    101  H11 UNL A   1      34.859  21.395  24.467  1.00  0.00    +0.000 H 
ATOM      8  C6  UNL A   1      35.887  21.629  24.649  1.00  0.00    +0.000 C 
BRANCH    8    7
ATOM     98  H8  UNL A   1      35.082  22.605  26.359  1.00  0.00    +0.000 H 
ATOM     99  H9  UNL A   1      36.849  22.751  26.148  1.00  0.00    +0.000 H 
ATOM      7  C5  UNL A   1      35.888  22.770  25.676  1.00  0.00    +0.000 C 
BRANCH    7    6
ATOM     97  H7  UNL A   1      36.430  24.285  24.275  1.00  0.00    +0.000 H 
ATOM      6  C4  UNL A   1      35.727  24.171  25.074  1.00  0.00    +0.000 C 
ATOM     96  H6  UNL A   1      35.907  24.903  25.834  1.00  0.00    +0.000 H 
BRANCH    6    5
ATOM      5  N1  UNL A   1      34.389  24.354  24.545  1.00  0.00    +0.000 N 
ATOM     95  H5  UNL A   1      34.282  24.227  23.574  1.00  0.00    +0.000 H 
BRANCH    5    3
ATOM      3  C3  UNL A   1      33.256  24.682  25.240  1.00  0.00    +0.000 C 
ATOM      4  O1  UNL A   1      33.387  25.473  26.176  1.00  0.00    +0.000 O 
BRANCH    3    2
ATOM      2  C2  UNL A   1      31.913  24.030  24.856  1.00  0.00    +0.000 C 
ATOM     94  H4  UNL A   1      31.524  24.538  24.000  1.00  0.00    +0.000 H 
BRANCH    2    1
ATOM      1  C1  UNL A   1      30.938  24.189  26.031  1.00  0.00    +0.000 C 
ATOM     91  H1  UNL A   1      30.308  23.326  26.092  1.00  0.00    +0.000 H 
ATOM     92  H2  UNL A   1      30.336  25.059  25.880  1.00  0.00    +0.000 H 
ATOM     93  H3  UNL A   1      31.491  24.291  26.941  1.00  0.00    +0.000 H 
ENDBRANCH    2    1
BRANCH    2   78
ATOM    129  H39 UNL A   1      31.746  22.966  22.339  1.00  0.00    +0.000 H 
ATOM     78  C55 UNL A   1      32.046  22.570  24.391  1.00  0.00    +0.000 C 
ATOM     79  C56 UNL A   1      32.215  21.519  25.307  1.00  0.00    +0.000 C 
ATOM     80  C57 UNL A   1      32.386  20.198  24.875  1.00  0.00    +0.000 C 
ATOM     81  C58 UNL A   1      32.372  19.885  23.513  1.00  0.00    +0.000 C 
ATOM     89  C64 UNL A   1      32.120  20.908  22.594  1.00  0.00    +0.000 C 
ATOM     90  C65 UNL A   1      31.948  22.228  23.031  1.00  0.00    +0.000 C 
ATOM    123  H33 UNL A   1      32.214  21.724  26.319  1.00  0.00    +0.000 H 
ATOM    124  H34 UNL A   1      32.524  19.448  25.570  1.00  0.00    +0.000 H 
ATOM    128  H38 UNL A   1      32.062  20.689  21.587  1.00  0.00    +0.000 H 
BRANCH   81   82
ATOM     82  C59 UNL A   1      32.576  18.458  23.106  1.00  0.00    +0.000 C 
ATOM     83  O3  UNL A   1      32.089  18.087  22.039  1.00  0.00    +0.000 O 
BRANCH   82   84
ATOM     84  C60 UNL A   1      33.341  17.574  23.968  1.00  0.00    +0.000 C 
ATOM     85  C61 UNL A   1      34.705  17.357  24.024  1.00  0.00    +0.000 C 
ATOM     86  C62 UNL A   1      35.054  16.378  25.001  1.00  0.00    +0.000 C 
ATOM     87  C63 UNL A   1      33.949  15.896  25.665  1.00  0.00    +0.000 C 
ATOM     88  S1  UNL A   1      32.504  16.638  25.131  1.00  0.00    +0.000 S 
ATOM    125  H35 UNL A   1      35.391  17.847  23.428  1.00  0.00    +0.000 H 
ATOM    126  H36 UNL A   1      36.021  16.068  25.187  1.00  0.00    +0.000 H 
ATOM    127  H37 UNL A   1      33.988  15.172  26.399  1.00  0.00    +0.000 H 
ENDBRANCH   82   84
ENDBRANCH   81   82
ENDBRANCH    2   78
ENDBRANCH    3    2
ENDBRANCH    5    3
ENDBRANCH    6    5
ENDBRANCH    7    6
ENDBRANCH    8    7
ENDBRANCH    9    8
ENDBRANCH   10    9
ENDBRANCH   11   10
ENDBRANCH   12   11
ENDBRANCH   13   12
ENDBRANCH   15   13
ENDBRANCH   19   18
BRANCH   23   24
ATOM     33  C24 UNL A   1      47.591  27.718  24.167  1.00  0.00    +0.000 C 
ATOM     34  F5  UNL A   1      46.518  28.099  23.458  1.00  0.00    +0.000 F 
ATOM     24  C19 UNL A   1      47.555  27.729  25.568  1.00  0.00    +0.000 C 
ATOM     25  C20 UNL A   1      48.704  27.315  26.259  1.00  0.00    +0.000 C 
ATOM     26  F1  UNL A   1      48.723  27.320  27.600  1.00  0.00    +0.000 F 
ATOM     27  C21 UNL A   1      49.857  26.943  25.572  1.00  0.00    +0.000 C 
ATOM     28  F2  UNL A   1      50.961  26.607  26.254  1.00  0.00    +0.000 F 
ATOM     29  C22 UNL A   1      49.870  26.939  24.186  1.00  0.00    +0.000 C 
ATOM     30  F3  UNL A   1      50.981  26.581  23.526  1.00  0.00    +0.000 F 
ATOM     31  C23 UNL A   1      48.736  27.316  23.482  1.00  0.00    +0.000 C 
ATOM     32  F4  UNL A   1      48.745  27.303  22.142  1.00  0.00    +0.000 F 
ENDBRANCH   23   24
BRANCH   40   41
ATOM     41  C30 UNL A   1      44.878  33.670  28.650  1.00  0.00    +0.000 C 
ATOM     42  C31 UNL A   1      45.681  34.095  29.718  1.00  0.00    +0.000 C 
ATOM     43  F6  UNL A   1      46.061  33.223  30.665  1.00  0.00    +0.000 F 
ATOM     44  C32 UNL A   1      46.072  35.425  29.831  1.00  0.00    +0.000 C 
ATOM     45  F7  UNL A   1      46.813  35.818  30.877  1.00  0.00    +0.000 F 
ATOM     46  C33 UNL A   1      45.692  36.348  28.867  1.00  0.00    +0.000 C 
ATOM     47  F8  UNL A   1      46.079  37.627  28.972  1.00  0.00    +0.000 F 
ATOM     48  C34 UNL A   1      44.905  35.947  27.798  1.00  0.00    +0.000 C 
ATOM     49  F9  UNL A   1      44.547  36.835  26.860  1.00  0.00    +0.000 F 
ATOM     50  C35 UNL A   1      44.492  34.622  27.694  1.00  0.00    +0.000 C 
ATOM     51  F10 UNL A   1      43.729  34.263  26.653  1.00  0.00    +0.000 F 
ENDBRANCH   40   41
BRANCH   55   56
ATOM     65  C44 UNL A   1      39.246  29.818  32.050  1.00  0.00    +0.000 C 
ATOM     66  F15 UNL A   1      40.319  29.325  32.686  1.00  0.00    +0.000 F 
ATOM     56  C39 UNL A   1      39.284  30.027  30.665  1.00  0.00    +0.000 C 
ATOM     57  C40 UNL A   1      38.134  30.537  30.047  1.00  0.00    +0.000 C 
ATOM     58  F11 UNL A   1      38.131  30.769  28.727  1.00  0.00    +0.000 F 
ATOM     59  C41 UNL A   1      36.994  30.838  30.788  1.00  0.00    +0.000 C 
ATOM     60  F12 UNL A   1      35.918  31.353  30.179  1.00  0.00    +0.000 F 
ATOM     61  C42 UNL A   1      36.973  30.611  32.156  1.00  0.00    +0.000 C 
ATOM     62  F13 UNL A   1      35.873  30.891  32.868  1.00  0.00    +0.000 F 
ATOM     63  C43 UNL A   1      38.097  30.098  32.788  1.00  0.00    +0.000 C 
ATOM     64  F14 UNL A   1      38.076  29.865  34.107  1.00  0.00    +0.000 F 
ENDBRANCH   55   56
TORSDOF 19
ENDMDL
MODEL 4
REMARK VINA RESULT:     -10.4      5.332     10.699
ROOT
ATOM     19  C15 UNL A   1      37.821  32.295  31.082  1.00  0.00    +0.000 C 
ATOM     20  C16 UNL A   1      38.630  31.223  30.409  1.00  0.00    +0.000 C 
ATOM     21  N3  UNL A   1      39.606  30.496  30.887  1.00  0.00    +0.000 N 
ATOM     22  C17 UNL A   1      39.950  29.614  29.872  1.00  0.00    +0.000 C 
ATOM     23  C18 UNL A   1      40.935  28.685  29.858  1.00  0.00    +0.000 C 
ATOM     35  C25 UNL A   1      41.850  28.462  30.946  1.00  0.00    +0.000 C 
ATOM     36  C26 UNL A   1      42.921  27.587  31.008  1.00  0.00    +0.000 C 
ATOM     37  C27 UNL A   1      43.503  27.699  32.275  1.00  0.00    +0.000 C 
ATOM     38  C28 UNL A   1      42.820  28.672  32.987  1.00  0.00    +0.000 C 
ATOM     39  N4  UNL A   1      41.804  29.126  32.163  1.00  0.00    +0.000 N 
ATOM     40  C29 UNL A   1      43.075  29.153  34.321  1.00  0.00    +0.000 C 
ATOM     52  C36 UNL A   1      42.353  30.106  34.959  1.00  0.00    +0.000 C 
ATOM     53  N5  UNL A   1      41.259  30.825  34.497  1.00  0.00    +0.000 N 
ATOM     54  C37 UNL A   1      40.914  31.626  35.476  1.00  0.00    +0.000 C 
ATOM     55  C38 UNL A   1      39.811  32.648  35.520  1.00  0.00    +0.000 C 
ATOM     67  C45 UNL A   1      39.065  32.863  34.420  1.00  0.00    +0.000 C 
ATOM     68  C46 UNL A   1      37.960  33.811  34.316  1.00  0.00    +0.000 C 
ATOM     69  C47 UNL A   1      37.396  33.696  33.103  1.00  0.00    +0.000 C 
ATOM     70  C48 UNL A   1      38.126  32.691  32.331  1.00  0.00    +0.000 C 
ATOM     71  N6  UNL A   1      39.120  32.274  33.180  1.00  0.00    +0.000 N 
ATOM     72  C49 UNL A   1      41.734  31.481  36.687  1.00  0.00    +0.000 C 
ATOM     73  C50 UNL A   1      42.616  30.565  36.307  1.00  0.00    +0.000 C 
ATOM     74  C51 UNL A   1      39.053  29.871  28.765  1.00  0.00    +0.000 C 
ATOM     75  C52 UNL A   1      38.266  30.906  29.019  1.00  0.00    +0.000 C 
ATOM    111  H21 UNL A   1      43.237  26.962  30.251  1.00  0.00    +0.000 H 
ATOM    112  H22 UNL A   1      44.304  27.149  32.622  1.00  0.00    +0.000 H 
ATOM    113  H23 UNL A   1      41.146  29.819  32.404  1.00  0.00    +0.000 H 
ATOM    114  H24 UNL A   1      37.660  34.464  35.057  1.00  0.00    +0.000 H 
ATOM    115  H25 UNL A   1      36.579  34.231  32.769  1.00  0.00    +0.000 H 
ATOM    116  H26 UNL A   1      39.807  31.615  32.926  1.00  0.00    +0.000 H 
ATOM    117  H27 UNL A   1      41.648  31.965  37.594  1.00  0.00    +0.000 H 
ATOM    118  H28 UNL A   1      43.390  30.224  36.897  1.00  0.00    +0.000 H 
ATOM    119  H29 UNL A   1      39.030  29.320  27.893  1.00  0.00    +0.000 H 
ATOM    120  H30 UNL A   1      37.578  31.367  28.404  1.00  0.00    +0.000 H 
ENDROOT
BRANCH   19   18
ATOM     76  C53 UNL A   1      35.360  32.322  30.719  1.00  0.00    +0.000 C 
ATOM    109  H19 UNL A   1      35.654  35.110  28.111  1.00  0.00    +0.000 H 
ATOM     77  C54 UNL A   1      34.222  32.786  30.067  1.00  0.00    +0.000 C 
ATOM     15  C11 UNL A   1      34.326  33.843  29.157  1.00  0.00    +0.000 C 
ATOM     16  C12 UNL A   1      35.578  34.357  28.813  1.00  0.00    +0.000 C 
ATOM     17  C13 UNL A   1      36.728  33.848  29.422  1.00  0.00    +0.000 C 
ATOM    110  H20 UNL A   1      37.655  34.210  29.154  1.00  0.00    +0.000 H 
ATOM     18  C14 UNL A   1      36.623  32.844  30.399  1.00  0.00    +0.000 C 
ATOM    121  H31 UNL A   1      35.276  31.590  31.441  1.00  0.00    +0.000 H 
ATOM    122  H32 UNL A   1      33.304  32.351  30.254  1.00  0.00    +0.000 H 
BRANCH   15   13
ATOM     13  C10 UNL A   1      33.114  34.431  28.549  1.00  0.00    +0.000 C 
ATOM     14  O2  UNL A   1      32.771  35.571  28.848  1.00  0.00    +0.000 O 
BRANCH   13   12
ATOM    108  H18 UNL A   1      31.450  34.001  27.513  1.00  0.00    +0.000 H 
ATOM     12  N2  UNL A   1      32.370  33.686  27.667  1.00  0.00    +0.000 N 
BRANCH   12   11
ATOM    106  H16 UNL A   1      33.107  32.789  25.961  1.00  0.00    +0.000 H 
ATOM     11  C9  UNL A   1      32.761  32.495  26.931  1.00  0.00    +0.000 C 
ATOM    107  H17 UNL A   1      33.531  32.004  27.488  1.00  0.00    +0.000 H 
BRANCH   11   10
ATOM    105  H15 UNL A   1      31.204  31.684  25.788  1.00  0.00    +0.000 H 
ATOM     10  C8  UNL A   1      31.608  31.513  26.764  1.00  0.00    +0.000 C 
ATOM    104  H14 UNL A   1      30.902  31.691  27.548  1.00  0.00    +0.000 H 
BRANCH   10    9
ATOM      9  C7  UNL A   1      32.011  30.038  26.813  1.00  0.00    +0.000 C 
ATOM    102  H12 UNL A   1      32.947  29.967  27.324  1.00  0.00    +0.000 H 
ATOM    103  H13 UNL A   1      31.214  29.528  27.313  1.00  0.00    +0.000 H 
BRANCH    9    8
ATOM    100  H10 UNL A   1      31.355  28.668  25.332  1.00  0.00    +0.000 H 
ATOM    101  H11 UNL A   1      32.157  30.151  24.726  1.00  0.00    +0.000 H 
ATOM      8  C6  UNL A   1      32.162  29.362  25.448  1.00  0.00    +0.000 C 
BRANCH    8    7
ATOM     98  H8  UNL A   1      33.504  28.260  24.220  1.00  0.00    +0.000 H 
ATOM     99  H9  UNL A   1      34.266  29.282  25.470  1.00  0.00    +0.000 H 
ATOM      7  C5  UNL A   1      33.476  28.598  25.234  1.00  0.00    +0.000 C 
BRANCH    7    6
ATOM     97  H7  UNL A   1      33.243  27.606  27.108  1.00  0.00    +0.000 H 
ATOM      6  C4  UNL A   1      33.665  27.383  26.151  1.00  0.00    +0.000 C 
ATOM     96  H6  UNL A   1      34.711  27.174  26.245  1.00  0.00    +0.000 H 
BRANCH    6    5
ATOM      5  N1  UNL A   1      32.994  26.218  25.607  1.00  0.00    +0.000 N 
ATOM     95  H5  UNL A   1      32.190  25.914  26.087  1.00  0.00    +0.000 H 
BRANCH    5    3
ATOM      3  C3  UNL A   1      33.350  25.492  24.502  1.00  0.00    +0.000 C 
ATOM      4  O1  UNL A   1      34.538  25.183  24.398  1.00  0.00    +0.000 O 
BRANCH    3    2
ATOM      2  C2  UNL A   1      32.282  25.143  23.446  1.00  0.00    +0.000 C 
ATOM     94  H4  UNL A   1      31.789  24.244  23.749  1.00  0.00    +0.000 H 
BRANCH    2    1
ATOM      1  C1  UNL A   1      32.982  24.914  22.100  1.00  0.00    +0.000 C 
ATOM     91  H1  UNL A   1      32.255  24.654  21.359  1.00  0.00    +0.000 H 
ATOM     92  H2  UNL A   1      33.691  24.120  22.197  1.00  0.00    +0.000 H 
ATOM     93  H3  UNL A   1      33.487  25.809  21.803  1.00  0.00    +0.000 H 
ENDBRANCH    2    1
BRANCH    2   78
ATOM    129  H39 UNL A   1      32.193  27.551  22.145  1.00  0.00    +0.000 H 
ATOM     78  C55 UNL A   1      31.144  26.175  23.353  1.00  0.00    +0.000 C 
ATOM     79  C56 UNL A   1      29.938  26.002  24.053  1.00  0.00    +0.000 C 
ATOM     80  C57 UNL A   1      28.887  26.918  23.926  1.00  0.00    +0.000 C 
ATOM     81  C58 UNL A   1      29.018  28.046  23.111  1.00  0.00    +0.000 C 
ATOM     89  C64 UNL A   1      30.242  28.275  22.476  1.00  0.00    +0.000 C 
ATOM     90  C65 UNL A   1      31.291  27.356  22.607  1.00  0.00    +0.000 C 
ATOM    123  H33 UNL A   1      29.824  25.185  24.672  1.00  0.00    +0.000 H 
ATOM    124  H34 UNL A   1      28.006  26.758  24.440  1.00  0.00    +0.000 H 
ATOM    128  H38 UNL A   1      30.373  29.125  21.905  1.00  0.00    +0.000 H 
BRANCH   81   82
ATOM     82  C59 UNL A   1      27.855  28.985  22.999  1.00  0.00    +0.000 C 
ATOM     83  O3  UNL A   1      26.724  28.520  23.138  1.00  0.00    +0.000 O 
BRANCH   82   84
ATOM     84  C60 UNL A   1      28.098  30.393  22.745  1.00  0.00    +0.000 C 
ATOM     85  C61 UNL A   1      28.410  31.410  23.628  1.00  0.00    +0.000 C 
ATOM     86  C62 UNL A   1      28.542  32.670  22.973  1.00  0.00    +0.000 C 
ATOM     87  C63 UNL A   1      28.343  32.568  21.614  1.00  0.00    +0.000 C 
ATOM     88  S1  UNL A   1      28.024  30.959  21.131  1.00  0.00    +0.000 S 
ATOM    125  H35 UNL A   1      28.534  31.273  24.643  1.00  0.00    +0.000 H 
ATOM    126  H36 UNL A   1      28.761  33.553  23.459  1.00  0.00    +0.000 H 
ATOM    127  H37 UNL A   1      28.381  33.368  20.964  1.00  0.00    +0.000 H 
ENDBRANCH   82   84
ENDBRANCH   81   82
ENDBRANCH    2   78
ENDBRANCH    3    2
ENDBRANCH    5    3
ENDBRANCH    6    5
ENDBRANCH    7    6
ENDBRANCH    8    7
ENDBRANCH    9    8
ENDBRANCH   10    9
ENDBRANCH   11   10
ENDBRANCH   12   11
ENDBRANCH   13   12
ENDBRANCH   15   13
ENDBRANCH   19   18
BRANCH   23   24
ATOM     33  C24 UNL A   1      40.350  26.638  28.511  1.00  0.00    +0.000 C 
ATOM     34  F5  UNL A   1      39.536  26.237  29.500  1.00  0.00    +0.000 F 
ATOM     24  C19 UNL A   1      41.066  27.838  28.626  1.00  0.00    +0.000 C 
ATOM     25  C20 UNL A   1      41.907  28.206  27.564  1.00  0.00    +0.000 C 
ATOM     26  F1  UNL A   1      42.603  29.352  27.621  1.00  0.00    +0.000 F 
ATOM     27  C21 UNL A   1      41.995  27.423  26.417  1.00  0.00    +0.000 C 
ATOM     28  F2  UNL A   1      42.760  27.824  25.392  1.00  0.00    +0.000 F 
ATOM     29  C22 UNL A   1      41.279  26.239  26.325  1.00  0.00    +0.000 C 
ATOM     30  F3  UNL A   1      41.365  25.486  25.220  1.00  0.00    +0.000 F 
ATOM     31  C23 UNL A   1      40.464  25.841  27.375  1.00  0.00    +0.000 C 
ATOM     32  F4  UNL A   1      39.779  24.693  27.291  1.00  0.00    +0.000 F 
ENDBRANCH   23   24
BRANCH   40   41
ATOM     41  C30 UNL A   1      44.248  28.572  35.052  1.00  0.00    +0.000 C 
ATOM     42  C31 UNL A   1      45.515  29.171  35.004  1.00  0.00    +0.000 C 
ATOM     43  F6  UNL A   1      45.722  30.251  34.235  1.00  0.00    +0.000 F 
ATOM     44  C32 UNL A   1      46.581  28.644  35.727  1.00  0.00    +0.000 C 
ATOM     45  F7  UNL A   1      47.792  29.212  35.642  1.00  0.00    +0.000 F 
ATOM     46  C33 UNL A   1      46.395  27.528  36.530  1.00  0.00    +0.000 C 
ATOM     47  F8  UNL A   1      47.421  27.029  37.233  1.00  0.00    +0.000 F 
ATOM     48  C34 UNL A   1      45.148  26.925  36.599  1.00  0.00    +0.000 C 
ATOM     49  F9  UNL A   1      44.964  25.854  37.382  1.00  0.00    +0.000 F 
ATOM     50  C35 UNL A   1      44.085  27.436  35.859  1.00  0.00    +0.000 C 
ATOM     51  F10 UNL A   1      42.892  26.831  35.941  1.00  0.00    +0.000 F 
ENDBRANCH   40   41
BRANCH   55   56
ATOM     65  C44 UNL A   1      38.658  33.011  37.729  1.00  0.00    +0.000 C 
ATOM     66  F15 UNL A   1      38.017  31.843  37.583  1.00  0.00    +0.000 F 
ATOM     56  C39 UNL A   1      39.558  33.446  36.747  1.00  0.00    +0.000 C 
ATOM     57  C40 UNL A   1      40.198  34.678  36.943  1.00  0.00    +0.000 C 
ATOM     58  F11 UNL A   1      41.079  35.125  36.038  1.00  0.00    +0.000 F 
ATOM     59  C41 UNL A   1      39.957  35.439  38.084  1.00  0.00    +0.000 C 
ATOM     60  F12 UNL A   1      40.604  36.598  38.262  1.00  0.00    +0.000 F 
ATOM     61  C42 UNL A   1      39.053  34.996  39.038  1.00  0.00    +0.000 C 
ATOM     62  F13 UNL A   1      38.813  35.733  40.130  1.00  0.00    +0.000 F 
ATOM     63  C43 UNL A   1      38.400  33.784  38.860  1.00  0.00    +0.000 C 
ATOM     64  F14 UNL A   1      37.517  33.359  39.773  1.00  0.00    +0.000 F 
ENDBRANCH   55   56
TORSDOF 19
ENDMDL
MODEL 5
REMARK VINA RESULT:     -10.4      4.101      7.641
ROOT
ATOM     19  C15 UNL A   1      40.018  28.789  29.396  1.00  0.00    +0.000 C 
ATOM     20  C16 UNL A   1      40.889  29.709  30.203  1.00  0.00    +0.000 C 
ATOM     21  N3  UNL A   1      42.159  29.600  30.500  1.00  0.00    +0.000 N 
ATOM     22  C17 UNL A   1      42.480  30.753  31.204  1.00  0.00    +0.000 C 
ATOM     23  C18 UNL A   1      43.661  31.096  31.769  1.00  0.00    +0.000 C 
ATOM     35  C25 UNL A   1      44.837  30.267  31.749  1.00  0.00    +0.000 C 
ATOM     36  C26 UNL A   1      46.065  30.496  32.344  1.00  0.00    +0.000 C 
ATOM     37  C27 UNL A   1      46.909  29.426  32.030  1.00  0.00    +0.000 C 
ATOM     38  C28 UNL A   1      46.194  28.511  31.274  1.00  0.00    +0.000 C 
ATOM     39  N4  UNL A   1      44.927  29.043  31.103  1.00  0.00    +0.000 N 
ATOM     40  C29 UNL A   1      46.633  27.245  30.746  1.00  0.00    +0.000 C 
ATOM     52  C36 UNL A   1      45.875  26.404  30.002  1.00  0.00    +0.000 C 
ATOM     53  N5  UNL A   1      44.552  26.545  29.603  1.00  0.00    +0.000 N 
ATOM     54  C37 UNL A   1      44.270  25.473  28.905  1.00  0.00    +0.000 C 
ATOM     55  C38 UNL A   1      42.972  25.082  28.250  1.00  0.00    +0.000 C 
ATOM     67  C45 UNL A   1      41.892  25.871  28.404  1.00  0.00    +0.000 C 
ATOM     68  C46 UNL A   1      40.574  25.627  27.824  1.00  0.00    +0.000 C 
ATOM     69  C47 UNL A   1      39.768  26.660  28.118  1.00  0.00    +0.000 C 
ATOM     70  C48 UNL A   1      40.504  27.621  28.941  1.00  0.00    +0.000 C 
ATOM     71  N6  UNL A   1      41.745  27.053  29.088  1.00  0.00    +0.000 N 
ATOM     72  C49 UNL A   1      45.396  24.541  28.752  1.00  0.00    +0.000 C 
ATOM     73  C50 UNL A   1      46.340  25.141  29.467  1.00  0.00    +0.000 C 
ATOM     74  C51 UNL A   1      41.282  31.564  31.257  1.00  0.00    +0.000 C 
ATOM     75  C52 UNL A   1      40.252  30.931  30.716  1.00  0.00    +0.000 C 
ATOM    111  H21 UNL A   1      46.316  31.315  32.921  1.00  0.00    +0.000 H 
ATOM    112  H22 UNL A   1      47.898  29.333  32.311  1.00  0.00    +0.000 H 
ATOM    113  H23 UNL A   1      44.197  28.617  30.597  1.00  0.00    +0.000 H 
ATOM    114  H24 UNL A   1      40.306  24.795  27.276  1.00  0.00    +0.000 H 
ATOM    115  H25 UNL A   1      38.787  26.760  27.814  1.00  0.00    +0.000 H 
ATOM    116  H26 UNL A   1      42.462  27.456  29.630  1.00  0.00    +0.000 H 
ATOM    117  H27 UNL A   1      45.442  23.653  28.228  1.00  0.00    +0.000 H 
ATOM    118  H28 UNL A   1      47.284  24.756  29.622  1.00  0.00    +0.000 H 
ATOM    119  H29 UNL A   1      41.237  32.513  31.662  1.00  0.00    +0.000 H 
ATOM    120  H30 UNL A   1      39.262  31.219  30.668  1.00  0.00    +0.000 H 
ENDROOT
BRANCH   19   18
ATOM     76  C53 UNL A   1      38.436  29.762  27.740  1.00  0.00    +0.000 C 
ATOM    109  H19 UNL A   1      35.503  29.454  30.182  1.00  0.00    +0.000 H 
ATOM     77  C54 UNL A   1      37.175  30.216  27.370  1.00  0.00    +0.000 C 
ATOM     15  C11 UNL A   1      36.094  30.050  28.243  1.00  0.00    +0.000 C 
ATOM     16  C12 UNL A   1      36.296  29.537  29.526  1.00  0.00    +0.000 C 
ATOM     17  C13 UNL A   1      37.576  29.139  29.920  1.00  0.00    +0.000 C 
ATOM    110  H20 UNL A   1      37.732  28.780  30.874  1.00  0.00    +0.000 H 
ATOM     18  C14 UNL A   1      38.650  29.224  29.019  1.00  0.00    +0.000 C 
ATOM    121  H31 UNL A   1      39.219  29.820  27.071  1.00  0.00    +0.000 H 
ATOM    122  H32 UNL A   1      37.036  30.675  26.456  1.00  0.00    +0.000 H 
BRANCH   15   13
ATOM     13  C10 UNL A   1      34.726  30.413  27.820  1.00  0.00    +0.000 C 
ATOM     14  O2  UNL A   1      34.159  31.370  28.337  1.00  0.00    +0.000 O 
BRANCH   13   12
ATOM    108  H18 UNL A   1      34.000  30.084  25.977  1.00  0.00    +0.000 H 
ATOM     12  N2  UNL A   1      34.092  29.660  26.862  1.00  0.00    +0.000 N 
BRANCH   12   11
ATOM    106  H16 UNL A   1      33.928  27.865  27.867  1.00  0.00    +0.000 H 
ATOM     11  C9  UNL A   1      33.539  28.320  26.979  1.00  0.00    +0.000 C 
ATOM    107  H17 UNL A   1      32.474  28.409  27.019  1.00  0.00    +0.000 H 
BRANCH   11   10
ATOM    105  H15 UNL A   1      34.942  27.551  25.627  1.00  0.00    +0.000 H 
ATOM     10  C8  UNL A   1      33.890  27.442  25.784  1.00  0.00    +0.000 C 
ATOM    104  H14 UNL A   1      33.304  27.767  24.949  1.00  0.00    +0.000 H 
BRANCH   10    9
ATOM      9  C7  UNL A   1      33.635  25.948  25.990  1.00  0.00    +0.000 C 
ATOM    102  H12 UNL A   1      33.772  25.729  27.028  1.00  0.00    +0.000 H 
ATOM    103  H13 UNL A   1      32.640  25.765  25.645  1.00  0.00    +0.000 H 
BRANCH    9    8
ATOM    100  H10 UNL A   1      34.162  24.963  24.187  1.00  0.00    +0.000 H 
ATOM    101  H11 UNL A   1      35.527  25.443  25.243  1.00  0.00    +0.000 H 
ATOM      8  C6  UNL A   1      34.546  25.019  25.185  1.00  0.00    +0.000 C 
BRANCH    8    7
ATOM     98  H8  UNL A   1      34.789  22.926  24.892  1.00  0.00    +0.000 H 
ATOM     99  H9  UNL A   1      35.511  23.585  26.387  1.00  0.00    +0.000 H 
ATOM      7  C5  UNL A   1      34.669  23.588  25.724  1.00  0.00    +0.000 C 
BRANCH    7    6
ATOM     97  H7  UNL A   1      32.904  23.964  26.862  1.00  0.00    +0.000 H 
ATOM      6  C4  UNL A   1      33.466  23.109  26.547  1.00  0.00    +0.000 C 
ATOM     96  H6  UNL A   1      33.818  22.562  27.397  1.00  0.00    +0.000 H 
BRANCH    6    5
ATOM      5  N1  UNL A   1      32.606  22.254  25.752  1.00  0.00    +0.000 N 
ATOM     95  H5  UNL A   1      32.973  21.373  25.508  1.00  0.00    +0.000 H 
BRANCH    5    3
ATOM      3  C3  UNL A   1      31.343  22.529  25.304  1.00  0.00    +0.000 C 
ATOM      4  O1  UNL A   1      30.412  22.278  26.072  1.00  0.00    +0.000 O 
BRANCH    3    2
ATOM      2  C2  UNL A   1      31.147  23.086  23.879  1.00  0.00    +0.000 C 
ATOM     94  H4  UNL A   1      30.206  22.738  23.508  1.00  0.00    +0.000 H 
BRANCH    2    1
ATOM      1  C1  UNL A   1      32.276  22.555  22.986  1.00  0.00    +0.000 C 
ATOM     91  H1  UNL A   1      31.895  21.788  22.346  1.00  0.00    +0.000 H 
ATOM     92  H2  UNL A   1      33.055  22.152  23.599  1.00  0.00    +0.000 H 
ATOM     93  H3  UNL A   1      32.667  23.353  22.392  1.00  0.00    +0.000 H 
ENDBRANCH    2    1
BRANCH    2   78
ATOM    129  H39 UNL A   1      29.743  24.791  25.497  1.00  0.00    +0.000 H 
ATOM     78  C55 UNL A   1      31.021  24.618  23.826  1.00  0.00    +0.000 C 
ATOM     79  C56 UNL A   1      31.617  25.369  22.800  1.00  0.00    +0.000 C 
ATOM     80  C57 UNL A   1      31.542  26.767  22.784  1.00  0.00    +0.000 C 
ATOM     81  C58 UNL A   1      30.850  27.456  23.784  1.00  0.00    +0.000 C 
ATOM     89  C64 UNL A   1      30.181  26.717  24.765  1.00  0.00    +0.000 C 
ATOM     90  C65 UNL A   1      30.258  25.319  24.775  1.00  0.00    +0.000 C 
ATOM    123  H33 UNL A   1      32.121  24.882  22.042  1.00  0.00    +0.000 H 
ATOM    124  H34 UNL A   1      32.003  27.294  22.026  1.00  0.00    +0.000 H 
ATOM    128  H38 UNL A   1      29.628  27.206  25.487  1.00  0.00    +0.000 H 
BRANCH   81   82
ATOM     82  C59 UNL A   1      30.816  28.953  23.727  1.00  0.00    +0.000 C 
ATOM     83  O3  UNL A   1      31.849  29.563  23.999  1.00  0.00    +0.000 O 
BRANCH   82   84
ATOM     84  C60 UNL A   1      29.586  29.623  23.348  1.00  0.00    +0.000 C 
ATOM     85  C61 UNL A   1      28.516  29.156  22.607  1.00  0.00    +0.000 C 
ATOM     86  C62 UNL A   1      27.507  30.149  22.433  1.00  0.00    +0.000 C 
ATOM     87  C63 UNL A   1      27.833  31.331  23.061  1.00  0.00    +0.000 C 
ATOM     88  S1  UNL A   1      29.334  31.233  23.874  1.00  0.00    +0.000 S 
ATOM    125  H35 UNL A   1      28.455  28.200  22.224  1.00  0.00    +0.000 H 
ATOM    126  H36 UNL A   1      26.635  29.999  21.901  1.00  0.00    +0.000 H 
ATOM    127  H37 UNL A   1      27.241  32.175  23.043  1.00  0.00    +0.000 H 
ENDBRANCH   82   84
ENDBRANCH   81   82
ENDBRANCH    2   78
ENDBRANCH    3    2
ENDBRANCH    5    3
ENDBRANCH    6    5
ENDBRANCH    7    6
ENDBRANCH    8    7
ENDBRANCH    9    8
ENDBRANCH   10    9
ENDBRANCH   11   10
ENDBRANCH   12   11
ENDBRANCH   13   12
ENDBRANCH   15   13
ENDBRANCH   19   18
BRANCH   23   24
ATOM     33  C24 UNL A   1      43.408  32.553  33.809  1.00  0.00    +0.000 C 
ATOM     34  F5  UNL A   1      43.027  31.477  34.514  1.00  0.00    +0.000 F 
ATOM     24  C19 UNL A   1      43.737  32.431  32.452  1.00  0.00    +0.000 C 
ATOM     25  C20 UNL A   1      44.123  33.591  31.762  1.00  0.00    +0.000 C 
ATOM     26  F1  UNL A   1      44.461  33.523  30.465  1.00  0.00    +0.000 F 
ATOM     27  C21 UNL A   1      44.214  34.816  32.416  1.00  0.00    +0.000 C 
ATOM     28  F2  UNL A   1      44.641  35.898  31.751  1.00  0.00    +0.000 F 
ATOM     29  C22 UNL A   1      43.883  34.914  33.759  1.00  0.00    +0.000 C 
ATOM     30  F3  UNL A   1      43.971  36.094  34.388  1.00  0.00    +0.000 F 
ATOM     31  C23 UNL A   1      43.470  33.786  34.453  1.00  0.00    +0.000 C 
ATOM     32  F4  UNL A   1      43.141  33.882  35.749  1.00  0.00    +0.000 F 
ENDBRANCH   23   24
BRANCH   40   41
ATOM     41  C30 UNL A   1      48.032  26.810  31.068  1.00  0.00    +0.000 C 
ATOM     42  C31 UNL A   1      48.308  25.965  32.152  1.00  0.00    +0.000 C 
ATOM     43  F6  UNL A   1      47.322  25.582  32.978  1.00  0.00    +0.000 F 
ATOM     44  C32 UNL A   1      49.607  25.535  32.408  1.00  0.00    +0.000 C 
ATOM     45  F7  UNL A   1      49.856  24.754  33.469  1.00  0.00    +0.000 F 
ATOM     46  C33 UNL A   1      50.645  25.916  31.571  1.00  0.00    +0.000 C 
ATOM     47  F8  UNL A   1      51.893  25.492  31.813  1.00  0.00    +0.000 F 
ATOM     48  C34 UNL A   1      50.392  26.744  30.488  1.00  0.00    +0.000 C 
ATOM     49  F9  UNL A   1      51.393  27.105  29.672  1.00  0.00    +0.000 F 
ATOM     50  C35 UNL A   1      49.099  27.196  30.242  1.00  0.00    +0.000 C 
ATOM     51  F10 UNL A   1      48.883  27.998  29.190  1.00  0.00    +0.000 F 
ENDBRANCH   40   41
BRANCH   55   56
ATOM     65  C44 UNL A   1      42.446  22.627  28.065  1.00  0.00    +0.000 C 
ATOM     66  F15 UNL A   1      42.126  22.600  29.367  1.00  0.00    +0.000 F 
ATOM     56  C39 UNL A   1      42.859  23.825  27.468  1.00  0.00    +0.000 C 
ATOM     57  C40 UNL A   1      43.188  23.799  26.106  1.00  0.00    +0.000 C 
ATOM     58  F11 UNL A   1      43.571  24.926  25.488  1.00  0.00    +0.000 F 
ATOM     59  C41 UNL A   1      43.097  22.622  25.367  1.00  0.00    +0.000 C 
ATOM     60  F12 UNL A   1      43.388  22.630  24.059  1.00  0.00    +0.000 F 
ATOM     61  C42 UNL A   1      42.698  21.444  25.981  1.00  0.00    +0.000 C 
ATOM     62  F13 UNL A   1      42.619  20.310  25.273  1.00  0.00    +0.000 F 
ATOM     63  C43 UNL A   1      42.376  21.444  27.330  1.00  0.00    +0.000 C 
ATOM     64  F14 UNL A   1      42.003  20.306  27.930  1.00  0.00    +0.000 F 
ENDBRANCH   55   56
TORSDOF 19
ENDMDL
MODEL 6
REMARK VINA RESULT:     -10.4      4.077      9.018
ROOT
ATOM     19  C15 UNL A   1      38.166  30.182  29.823  1.00  0.00    +0.000 C 
ATOM     20  C16 UNL A   1      39.205  29.251  29.264  1.00  0.00    +0.000 C 
ATOM     21  N3  UNL A   1      40.279  28.767  29.834  1.00  0.00    +0.000 N 
ATOM     22  C17 UNL A   1      40.843  27.907  28.902  1.00  0.00    +0.000 C 
ATOM     23  C18 UNL A   1      41.991  27.195  28.997  1.00  0.00    +0.000 C 
ATOM     35  C25 UNL A   1      42.873  27.232  30.133  1.00  0.00    +0.000 C 
ATOM     36  C26 UNL A   1      44.091  26.596  30.303  1.00  0.00    +0.000 C 
ATOM     37  C27 UNL A   1      44.571  26.906  31.579  1.00  0.00    +0.000 C 
ATOM     38  C28 UNL A   1      43.673  27.768  32.189  1.00  0.00    +0.000 C 
ATOM     39  N4  UNL A   1      42.633  27.954  31.294  1.00  0.00    +0.000 N 
ATOM     40  C29 UNL A   1      43.758  28.377  33.491  1.00  0.00    +0.000 C 
ATOM     52  C36 UNL A   1      42.829  29.206  34.027  1.00  0.00    +0.000 C 
ATOM     53  N5  UNL A   1      41.641  29.660  33.469  1.00  0.00    +0.000 N 
ATOM     54  C37 UNL A   1      41.094  30.438  34.371  1.00  0.00    +0.000 C 
ATOM     55  C38 UNL A   1      39.811  31.220  34.296  1.00  0.00    +0.000 C 
ATOM     67  C45 UNL A   1      39.096  31.207  33.154  1.00  0.00    +0.000 C 
ATOM     68  C46 UNL A   1      37.833  31.906  32.936  1.00  0.00    +0.000 C 
ATOM     69  C47 UNL A   1      37.368  31.600  31.714  1.00  0.00    +0.000 C 
ATOM     70  C48 UNL A   1      38.322  30.712  31.049  1.00  0.00    +0.000 C 
ATOM     71  N6  UNL A   1      39.332  30.560  31.966  1.00  0.00    +0.000 N 
ATOM     72  C49 UNL A   1      41.861  30.542  35.620  1.00  0.00    +0.000 C 
ATOM     73  C50 UNL A   1      42.925  29.798  35.345  1.00  0.00    +0.000 C 
ATOM     74  C51 UNL A   1      39.973  27.905  27.745  1.00  0.00    +0.000 C 
ATOM     75  C52 UNL A   1      38.986  28.775  27.890  1.00  0.00    +0.000 C 
ATOM    111  H21 UNL A   1      44.563  25.997  29.608  1.00  0.00    +0.000 H 
ATOM    112  H22 UNL A   1      45.445  26.552  31.998  1.00  0.00    +0.000 H 
ATOM    113  H23 UNL A   1      41.840  28.514  31.456  1.00  0.00    +0.000 H 
ATOM    114  H24 UNL A   1      37.371  32.534  33.613  1.00  0.00    +0.000 H 
ATOM    115  H25 UNL A   1      36.480  31.937  31.309  1.00  0.00    +0.000 H 
ATOM    116  H26 UNL A   1      40.147  30.037  31.788  1.00  0.00    +0.000 H 
ATOM    117  H27 UNL A   1      41.633  31.058  36.485  1.00  0.00    +0.000 H 
ATOM    118  H28 UNL A   1      43.719  29.658  35.989  1.00  0.00    +0.000 H 
ATOM    119  H29 UNL A   1      40.105  27.303  26.917  1.00  0.00    +0.000 H 
ATOM    120  H30 UNL A   1      38.254  29.048  27.215  1.00  0.00    +0.000 H 
ENDROOT
BRANCH   19   18
ATOM     76  C53 UNL A   1      36.026  29.373  28.848  1.00  0.00    +0.000 C 
ATOM    109  H19 UNL A   1      35.229  32.835  27.419  1.00  0.00    +0.000 H 
ATOM     77  C54 UNL A   1      34.871  29.565  28.097  1.00  0.00    +0.000 C 
ATOM     15  C11 UNL A   1      34.554  30.843  27.626  1.00  0.00    +0.000 C 
ATOM     16  C12 UNL A   1      35.447  31.902  27.804  1.00  0.00    +0.000 C 
ATOM     17  C13 UNL A   1      36.638  31.694  28.505  1.00  0.00    +0.000 C 
ATOM    110  H20 UNL A   1      37.309  32.468  28.619  1.00  0.00    +0.000 H 
ATOM     18  C14 UNL A   1      36.922  30.433  29.054  1.00  0.00    +0.000 C 
ATOM    121  H31 UNL A   1      36.225  28.446  29.255  1.00  0.00    +0.000 H 
ATOM    122  H32 UNL A   1      34.249  28.767  27.888  1.00  0.00    +0.000 H 
BRANCH   15   13
ATOM     13  C10 UNL A   1      33.272  31.091  26.934  1.00  0.00    +0.000 C 
ATOM     14  O2  UNL A   1      32.569  32.038  27.271  1.00  0.00    +0.000 O 
BRANCH   13   12
ATOM    108  H18 UNL A   1      33.463  30.203  25.144  1.00  0.00    +0.000 H 
ATOM     12  N2  UNL A   1      32.870  30.245  25.930  1.00  0.00    +0.000 N 
BRANCH   12   11
ATOM    106  H16 UNL A   1      30.820  30.017  26.004  1.00  0.00    +0.000 H 
ATOM     11  C9  UNL A   1      31.687  29.402  25.873  1.00  0.00    +0.000 C 
ATOM    107  H17 UNL A   1      31.680  28.913  24.922  1.00  0.00    +0.000 H 
BRANCH   11   10
ATOM    105  H15 UNL A   1      30.685  28.252  27.309  1.00  0.00    +0.000 H 
ATOM     10  C8  UNL A   1      31.691  28.325  26.952  1.00  0.00    +0.000 C 
ATOM    104  H14 UNL A   1      32.387  28.617  27.711  1.00  0.00    +0.000 H 
BRANCH   10    9
ATOM      9  C7  UNL A   1      32.079  26.929  26.462  1.00  0.00    +0.000 C 
ATOM    102  H12 UNL A   1      31.779  26.222  27.205  1.00  0.00    +0.000 H 
ATOM    103  H13 UNL A   1      31.585  26.795  25.523  1.00  0.00    +0.000 H 
BRANCH    9    8
ATOM    100  H10 UNL A   1      34.070  27.658  26.386  1.00  0.00    +0.000 H 
ATOM    101  H11 UNL A   1      33.885  25.934  26.835  1.00  0.00    +0.000 H 
ATOM      8  C6  UNL A   1      33.572  26.730  26.192  1.00  0.00    +0.000 C 
BRANCH    8    7
ATOM     98  H8  UNL A   1      34.965  26.018  24.751  1.00  0.00    +0.000 H 
ATOM     99  H9  UNL A   1      33.279  25.476  24.527  1.00  0.00    +0.000 H 
ATOM      7  C5  UNL A   1      33.931  26.291  24.766  1.00  0.00    +0.000 C 
BRANCH    7    6
ATOM     97  H7  UNL A   1      34.628  27.548  23.190  1.00  0.00    +0.000 H 
ATOM      6  C4  UNL A   1      33.702  27.361  23.691  1.00  0.00    +0.000 C 
ATOM     96  H6  UNL A   1      33.345  28.256  24.158  1.00  0.00    +0.000 H 
BRANCH    6    5
ATOM      5  N1  UNL A   1      32.727  26.911  22.716  1.00  0.00    +0.000 N 
ATOM     95  H5  UNL A   1      33.082  26.419  21.941  1.00  0.00    +0.000 H 
BRANCH    5    3
ATOM      3  C3  UNL A   1      31.371  27.092  22.750  1.00  0.00    +0.000 C 
ATOM      4  O1  UNL A   1      30.958  28.240  22.580  1.00  0.00    +0.000 O 
BRANCH    3    2
ATOM      2  C2  UNL A   1      30.450  25.888  23.036  1.00  0.00    +0.000 C 
ATOM     94  H4  UNL A   1      29.941  25.631  22.132  1.00  0.00    +0.000 H 
BRANCH    2    1
ATOM      1  C1  UNL A   1      29.426  26.298  24.102  1.00  0.00    +0.000 C 
ATOM     91  H1  UNL A   1      29.873  26.996  24.778  1.00  0.00    +0.000 H 
ATOM     92  H2  UNL A   1      29.108  25.432  24.644  1.00  0.00    +0.000 H 
ATOM     93  H3  UNL A   1      28.581  26.752  23.628  1.00  0.00    +0.000 H 
ENDBRANCH    2    1
BRANCH    2   78
ATOM    129  H39 UNL A   1      32.311  24.471  21.613  1.00  0.00    +0.000 H 
ATOM     78  C55 UNL A   1      31.211  24.604  23.409  1.00  0.00    +0.000 C 
ATOM     79  C56 UNL A   1      30.954  23.920  24.609  1.00  0.00    +0.000 C 
ATOM     80  C57 UNL A   1      31.683  22.780  24.967  1.00  0.00    +0.000 C 
ATOM     81  C58 UNL A   1      32.680  22.277  24.126  1.00  0.00    +0.000 C 
ATOM     89  C64 UNL A   1      32.889  22.898  22.891  1.00  0.00    +0.000 C 
ATOM     90  C65 UNL A   1      32.155  24.038  22.536  1.00  0.00    +0.000 C 
ATOM    123  H33 UNL A   1      30.213  24.264  25.240  1.00  0.00    +0.000 H 
ATOM    124  H34 UNL A   1      31.484  22.307  25.862  1.00  0.00    +0.000 H 
ATOM    128  H38 UNL A   1      33.590  22.515  22.237  1.00  0.00    +0.000 H 
BRANCH   81   82
ATOM     82  C59 UNL A   1      33.442  21.065  24.566  1.00  0.00    +0.000 C 
ATOM     83  O3  UNL A   1      34.288  21.205  25.448  1.00  0.00    +0.000 O 
BRANCH   82   84
ATOM     84  C60 UNL A   1      33.152  19.780  23.955  1.00  0.00    +0.000 C 
ATOM     85  C61 UNL A   1      32.314  19.472  22.899  1.00  0.00    +0.000 C 
ATOM     86  C62 UNL A   1      32.289  18.073  22.622  1.00  0.00    +0.000 C 
ATOM     87  C63 UNL A   1      33.120  17.367  23.464  1.00  0.00    +0.000 C 
ATOM     88  S1  UNL A   1      33.941  18.388  24.562  1.00  0.00    +0.000 S 
ATOM    125  H35 UNL A   1      31.771  20.173  22.373  1.00  0.00    +0.000 H 
ATOM    126  H36 UNL A   1      31.717  17.642  21.880  1.00  0.00    +0.000 H 
ATOM    127  H37 UNL A   1      33.232  16.342  23.435  1.00  0.00    +0.000 H 
ENDBRANCH   82   84
ENDBRANCH   81   82
ENDBRANCH    2   78
ENDBRANCH    3    2
ENDBRANCH    5    3
ENDBRANCH    6    5
ENDBRANCH    7    6
ENDBRANCH    8    7
ENDBRANCH    9    8
ENDBRANCH   10    9
ENDBRANCH   11   10
ENDBRANCH   12   11
ENDBRANCH   13   12
ENDBRANCH   15   13
ENDBRANCH   19   18
BRANCH   23   24
ATOM     33  C24 UNL A   1      41.776  25.040  27.711  1.00  0.00    +0.000 C 
ATOM     34  F5  UNL A   1      40.893  24.601  28.621  1.00  0.00    +0.000 F 
ATOM     24  C19 UNL A   1      42.351  26.311  27.839  1.00  0.00    +0.000 C 
ATOM     25  C20 UNL A   1      43.273  26.717  26.861  1.00  0.00    +0.000 C 
ATOM     26  F1  UNL A   1      43.841  27.930  26.931  1.00  0.00    +0.000 F 
ATOM     27  C21 UNL A   1      43.575  25.896  25.778  1.00  0.00    +0.000 C 
ATOM     28  F2  UNL A   1      44.414  26.328  24.826  1.00  0.00    +0.000 F 
ATOM     29  C22 UNL A   1      42.995  24.641  25.673  1.00  0.00    +0.000 C 
ATOM     30  F3  UNL A   1      43.286  23.852  24.629  1.00  0.00    +0.000 F 
ATOM     31  C23 UNL A   1      42.103  24.208  26.643  1.00  0.00    +0.000 C 
ATOM     32  F4  UNL A   1      41.549  22.992  26.547  1.00  0.00    +0.000 F 
ENDBRANCH   23   24
BRANCH   40   41
ATOM     41  C30 UNL A   1      44.981  28.093  34.309  1.00  0.00    +0.000 C 
ATOM     42  C31 UNL A   1      46.109  28.924  34.259  1.00  0.00    +0.000 C 
ATOM     43  F6  UNL A   1      46.143  29.965  33.412  1.00  0.00    +0.000 F 
ATOM     44  C32 UNL A   1      47.219  28.671  35.060  1.00  0.00    +0.000 C 
ATOM     45  F7  UNL A   1      48.300  29.458  34.973  1.00  0.00    +0.000 F 
ATOM     46  C33 UNL A   1      47.211  27.601  35.943  1.00  0.00    +0.000 C 
ATOM     47  F8  UNL A   1      48.276  27.365  36.721  1.00  0.00    +0.000 F 
ATOM     48  C34 UNL A   1      46.102  26.772  36.015  1.00  0.00    +0.000 C 
ATOM     49  F9  UNL A   1      46.089  25.744  36.876  1.00  0.00    +0.000 F 
ATOM     50  C35 UNL A   1      45.000  27.008  35.199  1.00  0.00    +0.000 C 
ATOM     51  F10 UNL A   1      43.943  26.188  35.286  1.00  0.00    +0.000 F 
ENDBRANCH   40   41
BRANCH   55   56
ATOM     65  C44 UNL A   1      38.478  31.497  36.414  1.00  0.00    +0.000 C 
ATOM     66  F15 UNL A   1      38.072  30.222  36.322  1.00  0.00    +0.000 F 
ATOM     56  C39 UNL A   1      39.340  32.031  35.447  1.00  0.00    +0.000 C 
ATOM     57  C40 UNL A   1      39.730  33.370  35.584  1.00  0.00    +0.000 C 
ATOM     58  F11 UNL A   1      40.568  33.918  34.693  1.00  0.00    +0.000 F 
ATOM     59  C41 UNL A   1      39.284  34.142  36.654  1.00  0.00    +0.000 C 
ATOM     60  F12 UNL A   1      39.695  35.411  36.780  1.00  0.00    +0.000 F 
ATOM     61  C42 UNL A   1      38.420  33.598  37.593  1.00  0.00    +0.000 C 
ATOM     62  F13 UNL A   1      37.983  34.343  38.617  1.00  0.00    +0.000 F 
ATOM     63  C43 UNL A   1      38.014  32.277  37.472  1.00  0.00    +0.000 C 
ATOM     64  F14 UNL A   1      37.169  31.751  38.369  1.00  0.00    +0.000 F 
ENDBRANCH   55   56
TORSDOF 19
ENDMDL
MODEL 7
REMARK VINA RESULT:     -10.3     20.412     26.181
ROOT
ATOM     19  C15 UNL A   1      25.908  35.453  45.377  1.00  0.00    +0.000 C 
ATOM     20  C16 UNL A   1      27.230  35.464  44.663  1.00  0.00    +0.000 C 
ATOM     21  N3  UNL A   1      28.258  36.255  44.833  1.00  0.00    +0.000 N 
ATOM     22  C17 UNL A   1      29.239  35.786  43.969  1.00  0.00    +0.000 C 
ATOM     23  C18 UNL A   1      30.473  36.293  43.740  1.00  0.00    +0.000 C 
ATOM     35  C25 UNL A   1      30.992  37.476  44.373  1.00  0.00    +0.000 C 
ATOM     36  C26 UNL A   1      32.207  38.105  44.164  1.00  0.00    +0.000 C 
ATOM     37  C27 UNL A   1      32.283  39.204  45.026  1.00  0.00    +0.000 C 
ATOM     38  C28 UNL A   1      31.099  39.283  45.742  1.00  0.00    +0.000 C 
ATOM     39  N4  UNL A   1      30.320  38.213  45.337  1.00  0.00    +0.000 N 
ATOM     40  C29 UNL A   1      30.707  40.263  46.723  1.00  0.00    +0.000 C 
ATOM     52  C36 UNL A   1      29.529  40.268  47.393  1.00  0.00    +0.000 C 
ATOM     53  N5  UNL A   1      28.463  39.385  47.288  1.00  0.00    +0.000 N 
ATOM     54  C37 UNL A   1      27.559  39.810  48.136  1.00  0.00    +0.000 C 
ATOM     55  C38 UNL A   1      26.191  39.251  48.423  1.00  0.00    +0.000 C 
ATOM     67  C45 UNL A   1      25.746  38.199  47.711  1.00  0.00    +0.000 C 
ATOM     68  C46 UNL A   1      24.451  37.546  47.882  1.00  0.00    +0.000 C 
ATOM     69  C47 UNL A   1      24.383  36.485  47.062  1.00  0.00    +0.000 C 
ATOM     70  C48 UNL A   1      25.617  36.408  46.279  1.00  0.00    +0.000 C 
ATOM     71  N6  UNL A   1      26.353  37.484  46.708  1.00  0.00    +0.000 N 
ATOM     72  C49 UNL A   1      27.964  40.997  48.903  1.00  0.00    +0.000 C 
ATOM     73  C50 UNL A   1      29.160  41.254  48.388  1.00  0.00    +0.000 C 
ATOM     74  C51 UNL A   1      28.696  34.621  43.304  1.00  0.00    +0.000 C 
ATOM     75  C52 UNL A   1      27.432  34.423  43.644  1.00  0.00    +0.000 C 
ATOM    111  H21 UNL A   1      32.931  37.815  43.489  1.00  0.00    +0.000 H 
ATOM    112  H22 UNL A   1      33.085  39.847  45.115  1.00  0.00    +0.000 H 
ATOM    113  H23 UNL A   1      29.421  38.004  45.681  1.00  0.00    +0.000 H 
ATOM    114  H24 UNL A   1      23.708  37.850  48.530  1.00  0.00    +0.000 H 
ATOM    115  H25 UNL A   1      23.589  35.830  46.993  1.00  0.00    +0.000 H 
ATOM    116  H26 UNL A   1      27.232  37.721  46.332  1.00  0.00    +0.000 H 
ATOM    117  H27 UNL A   1      27.454  41.499  49.645  1.00  0.00    +0.000 H 
ATOM    118  H28 UNL A   1      29.751  42.054  48.661  1.00  0.00    +0.000 H 
ATOM    119  H29 UNL A   1      29.226  34.022  42.652  1.00  0.00    +0.000 H 
ATOM    120  H30 UNL A   1      26.763  33.722  43.288  1.00  0.00    +0.000 H 
ENDROOT
BRANCH   19   18
ATOM     76  C53 UNL A   1      25.140  33.142  45.884  1.00  0.00    +0.000 C 
ATOM    109  H19 UNL A   1      22.274  33.411  43.359  1.00  0.00    +0.000 H 
ATOM     77  C54 UNL A   1      24.301  32.054  45.668  1.00  0.00    +0.000 C 
ATOM     15  C11 UNL A   1      23.221  32.175  44.788  1.00  0.00    +0.000 C 
ATOM     16  C12 UNL A   1      23.049  33.341  44.038  1.00  0.00    +0.000 C 
ATOM     17  C13 UNL A   1      23.930  34.411  44.209  1.00  0.00    +0.000 C 
ATOM    110  H20 UNL A   1      23.819  35.265  43.641  1.00  0.00    +0.000 H 
ATOM     18  C14 UNL A   1      24.967  34.328  45.153  1.00  0.00    +0.000 C 
ATOM    121  H31 UNL A   1      25.895  33.077  46.584  1.00  0.00    +0.000 H 
ATOM    122  H32 UNL A   1      24.474  31.161  46.156  1.00  0.00    +0.000 H 
BRANCH   15   13
ATOM     13  C10 UNL A   1      22.247  31.074  44.640  1.00  0.00    +0.000 C 
ATOM     14  O2  UNL A   1      22.618  29.909  44.753  1.00  0.00    +0.000 O 
BRANCH   13   12
ATOM    108  H18 UNL A   1      20.785  31.949  43.579  1.00  0.00    +0.000 H 
ATOM     12  N2  UNL A   1      20.935  31.364  44.357  1.00  0.00    +0.000 N 
BRANCH   12   11
ATOM    106  H16 UNL A   1      19.204  30.242  44.422  1.00  0.00    +0.000 H 
ATOM     11  C9  UNL A   1      19.738  30.922  45.053  1.00  0.00    +0.000 C 
ATOM    107  H17 UNL A   1      20.044  30.452  45.964  1.00  0.00    +0.000 H 
BRANCH   11   10
ATOM    105  H15 UNL A   1      19.451  32.911  45.648  1.00  0.00    +0.000 H 
ATOM     10  C8  UNL A   1      18.816  32.081  45.414  1.00  0.00    +0.000 C 
ATOM    104  H14 UNL A   1      18.203  31.776  46.236  1.00  0.00    +0.000 H 
BRANCH   10    9
ATOM      9  C7  UNL A   1      17.897  32.545  44.283  1.00  0.00    +0.000 C 
ATOM    102  H12 UNL A   1      17.021  32.974  44.722  1.00  0.00    +0.000 H 
ATOM    103  H13 UNL A   1      18.466  33.241  43.703  1.00  0.00    +0.000 H 
BRANCH    9    8
ATOM    100  H10 UNL A   1      17.034  31.914  42.451  1.00  0.00    +0.000 H 
ATOM    101  H11 UNL A   1      18.328  30.864  43.108  1.00  0.00    +0.000 H 
ATOM      8  C6  UNL A   1      17.453  31.444  43.317  1.00  0.00    +0.000 C 
BRANCH    8    7
ATOM     98  H8  UNL A   1      16.933  29.622  44.284  1.00  0.00    +0.000 H 
ATOM     99  H9  UNL A   1      15.844  31.002  44.599  1.00  0.00    +0.000 H 
ATOM      7  C5  UNL A   1      16.413  30.461  43.871  1.00  0.00    +0.000 C 
BRANCH    7    6
ATOM     97  H7  UNL A   1      15.314  30.668  42.055  1.00  0.00    +0.000 H 
ATOM      6  C4  UNL A   1      15.410  29.941  42.834  1.00  0.00    +0.000 C 
ATOM     96  H6  UNL A   1      14.465  29.780  43.310  1.00  0.00    +0.000 H 
BRANCH    6    5
ATOM      5  N1  UNL A   1      15.869  28.694  42.253  1.00  0.00    +0.000 N 
ATOM     95  H5  UNL A   1      16.803  28.676  41.940  1.00  0.00    +0.000 H 
BRANCH    5    3
ATOM      3  C3  UNL A   1      15.154  27.538  42.090  1.00  0.00    +0.000 C 
ATOM      4  O1  UNL A   1      14.849  27.231  40.936  1.00  0.00    +0.000 O 
BRANCH    3    2
ATOM      2  C2  UNL A   1      14.738  26.721  43.330  1.00  0.00    +0.000 C 
ATOM     94  H4  UNL A   1      13.943  27.239  43.823  1.00  0.00    +0.000 H 
BRANCH    2    1
ATOM      1  C1  UNL A   1      15.943  26.615  44.273  1.00  0.00    +0.000 C 
ATOM     91  H1  UNL A   1      15.735  27.146  45.179  1.00  0.00    +0.000 H 
ATOM     92  H2  UNL A   1      16.804  27.039  43.802  1.00  0.00    +0.000 H 
ATOM     93  H3  UNL A   1      16.130  25.586  44.499  1.00  0.00    +0.000 H 
ENDBRANCH    2    1
BRANCH    2   78
ATOM    129  H39 UNL A   1      15.961  24.300  42.953  1.00  0.00    +0.000 H 
ATOM     78  C55 UNL A   1      14.129  25.350  42.989  1.00  0.00    +0.000 C 
ATOM     79  C56 UNL A   1      12.755  25.196  42.745  1.00  0.00    +0.000 C 
ATOM     80  C57 UNL A   1      12.199  23.938  42.484  1.00  0.00    +0.000 C 
ATOM     81  C58 UNL A   1      13.005  22.796  42.441  1.00  0.00    +0.000 C 
ATOM     89  C64 UNL A   1      14.386  22.946  42.599  1.00  0.00    +0.000 C 
ATOM     90  C65 UNL A   1      14.937  24.208  42.857  1.00  0.00    +0.000 C 
ATOM    123  H33 UNL A   1      12.142  26.026  42.757  1.00  0.00    +0.000 H 
ATOM    124  H34 UNL A   1      11.183  23.852  42.324  1.00  0.00    +0.000 H 
ATOM    128  H38 UNL A   1      15.003  22.122  42.526  1.00  0.00    +0.000 H 
BRANCH   81   82
ATOM     82  C59 UNL A   1      12.355  21.473  42.175  1.00  0.00    +0.000 C 
ATOM     83  O3  UNL A   1      11.491  21.087  42.962  1.00  0.00    +0.000 O 
BRANCH   82   84
ATOM     84  C60 UNL A   1      12.751  20.705  41.009  1.00  0.00    +0.000 C 
ATOM     85  C61 UNL A   1      13.003  19.351  40.885  1.00  0.00    +0.000 C 
ATOM     86  C62 UNL A   1      13.398  18.996  39.561  1.00  0.00    +0.000 C 
ATOM     87  C63 UNL A   1      13.418  20.087  38.719  1.00  0.00    +0.000 C 
ATOM     88  S1  UNL A   1      12.939  21.522  39.516  1.00  0.00    +0.000 S 
ATOM    125  H35 UNL A   1      12.915  18.677  41.660  1.00  0.00    +0.000 H 
ATOM    126  H36 UNL A   1      13.641  18.037  39.269  1.00  0.00    +0.000 H 
ATOM    127  H37 UNL A   1      13.690  20.042  37.725  1.00  0.00    +0.000 H 
ENDBRANCH   82   84
ENDBRANCH   81   82
ENDBRANCH    2   78
ENDBRANCH    3    2
ENDBRANCH    5    3
ENDBRANCH    6    5
ENDBRANCH    7    6
ENDBRANCH    8    7
ENDBRANCH    9    8
ENDBRANCH   10    9
ENDBRANCH   11   10
ENDBRANCH   12   11
ENDBRANCH   13   12
ENDBRANCH   15   13
ENDBRANCH   19   18
BRANCH   23   24
ATOM     33  C24 UNL A   1      32.114  34.463  43.183  1.00  0.00    +0.000 C 
ATOM     34  F5  UNL A   1      32.070  34.055  44.461  1.00  0.00    +0.000 F 
ATOM     24  C19 UNL A   1      31.348  35.560  42.764  1.00  0.00    +0.000 C 
ATOM     25  C20 UNL A   1      31.436  35.947  41.418  1.00  0.00    +0.000 C 
ATOM     26  F1  UNL A   1      30.712  36.982  40.965  1.00  0.00    +0.000 F 
ATOM     27  C21 UNL A   1      32.231  35.240  40.520  1.00  0.00    +0.000 C 
ATOM     28  F2  UNL A   1      32.255  35.593  39.228  1.00  0.00    +0.000 F 
ATOM     29  C22 UNL A   1      32.982  34.159  40.957  1.00  0.00    +0.000 C 
ATOM     30  F3  UNL A   1      33.746  33.478  40.092  1.00  0.00    +0.000 F 
ATOM     31  C23 UNL A   1      32.932  33.776  42.290  1.00  0.00    +0.000 C 
ATOM     32  F4  UNL A   1      33.664  32.738  42.715  1.00  0.00    +0.000 F 
ENDBRANCH   23   24
BRANCH   40   41
ATOM     41  C30 UNL A   1      31.667  41.379  47.006  1.00  0.00    +0.000 C 
ATOM     42  C31 UNL A   1      31.425  42.687  46.562  1.00  0.00    +0.000 C 
ATOM     43  F6  UNL A   1      30.350  42.955  45.804  1.00  0.00    +0.000 F 
ATOM     44  C32 UNL A   1      32.304  43.720  46.874  1.00  0.00    +0.000 C 
ATOM     45  F7  UNL A   1      32.072  44.957  46.413  1.00  0.00    +0.000 F 
ATOM     46  C33 UNL A   1      33.423  43.472  47.655  1.00  0.00    +0.000 C 
ATOM     47  F8  UNL A   1      34.262  44.470  47.963  1.00  0.00    +0.000 F 
ATOM     48  C34 UNL A   1      33.676  42.187  48.112  1.00  0.00    +0.000 C 
ATOM     49  F9  UNL A   1      34.751  41.947  48.876  1.00  0.00    +0.000 F 
ATOM     50  C35 UNL A   1      32.812  41.147  47.782  1.00  0.00    +0.000 C 
ATOM     51  F10 UNL A   1      33.083  39.914  48.233  1.00  0.00    +0.000 F 
ENDBRANCH   40   41
BRANCH   55   56
ATOM     65  C44 UNL A   1      25.323  39.414  50.781  1.00  0.00    +0.000 C 
ATOM     66  F15 UNL A   1      26.145  38.420  51.149  1.00  0.00    +0.000 F 
ATOM     56  C39 UNL A   1      25.316  39.864  49.454  1.00  0.00    +0.000 C 
ATOM     57  C40 UNL A   1      24.434  40.900  49.118  1.00  0.00    +0.000 C 
ATOM     58  F11 UNL A   1      24.406  41.375  47.865  1.00  0.00    +0.000 F 
ATOM     59  C41 UNL A   1      23.600  41.472  50.076  1.00  0.00    +0.000 C 
ATOM     60  F12 UNL A   1      22.787  42.482  49.736  1.00  0.00    +0.000 F 
ATOM     61  C42 UNL A   1      23.614  41.003  51.380  1.00  0.00    +0.000 C 
ATOM     62  F13 UNL A   1      22.804  41.546  52.300  1.00  0.00    +0.000 F 
ATOM     63  C43 UNL A   1      24.472  39.972  51.734  1.00  0.00    +0.000 C 
ATOM     64  F14 UNL A   1      24.479  39.506  52.990  1.00  0.00    +0.000 F 
ENDBRANCH   55   56
TORSDOF 19
ENDMDL
MODEL 8
REMARK VINA RESULT:     -10.3     23.628     29.269
ROOT
ATOM     19  C15 UNL A   1      21.614  38.267  49.493  1.00  0.00    +0.000 C 
ATOM     20  C16 UNL A   1      22.377  39.560  49.517  1.00  0.00    +0.000 C 
ATOM     21  N3  UNL A   1      23.494  39.876  48.914  1.00  0.00    +0.000 N 
ATOM     22  C17 UNL A   1      23.719  41.213  49.215  1.00  0.00    +0.000 C 
ATOM     23  C18 UNL A   1      24.769  41.992  48.864  1.00  0.00    +0.000 C 
ATOM     35  C25 UNL A   1      25.895  41.532  48.096  1.00  0.00    +0.000 C 
ATOM     36  C26 UNL A   1      27.038  42.226  47.739  1.00  0.00    +0.000 C 
ATOM     37  C27 UNL A   1      27.842  41.378  46.970  1.00  0.00    +0.000 C 
ATOM     38  C28 UNL A   1      27.218  40.143  46.883  1.00  0.00    +0.000 C 
ATOM     39  N4  UNL A   1      26.022  40.254  47.572  1.00  0.00    +0.000 N 
ATOM     40  C29 UNL A   1      27.680  38.950  46.221  1.00  0.00    +0.000 C 
ATOM     52  C36 UNL A   1      27.006  37.775  46.169  1.00  0.00    +0.000 C 
ATOM     53  N5  UNL A   1      25.777  37.450  46.730  1.00  0.00    +0.000 N 
ATOM     54  C37 UNL A   1      25.554  36.200  46.406  1.00  0.00    +0.000 C 
ATOM     55  C38 UNL A   1      24.386  35.323  46.766  1.00  0.00    +0.000 C 
ATOM     67  C45 UNL A   1      23.422  35.805  47.574  1.00  0.00    +0.000 C 
ATOM     68  C46 UNL A   1      22.230  35.077  48.001  1.00  0.00    +0.000 C 
ATOM     69  C47 UNL A   1      21.455  35.896  48.731  1.00  0.00    +0.000 C 
ATOM     70  C48 UNL A   1      22.116  37.195  48.854  1.00  0.00    +0.000 C 
ATOM     71  N6  UNL A   1      23.293  37.038  48.164  1.00  0.00    +0.000 N 
ATOM     72  C49 UNL A   1      26.603  35.598  45.573  1.00  0.00    +0.000 C 
ATOM     73  C50 UNL A   1      27.480  36.591  45.485  1.00  0.00    +0.000 C 
ATOM     74  C51 UNL A   1      22.603  41.658  50.022  1.00  0.00    +0.000 C 
ATOM     75  C52 UNL A   1      21.783  40.656  50.299  1.00  0.00    +0.000 C 
ATOM    111  H21 UNL A   1      27.260  43.201  47.996  1.00  0.00    +0.000 H 
ATOM    112  H22 UNL A   1      28.745  41.629  46.539  1.00  0.00    +0.000 H 
ATOM    113  H23 UNL A   1      25.359  39.533  47.675  1.00  0.00    +0.000 H 
ATOM    114  H24 UNL A   1      22.018  34.093  47.777  1.00  0.00    +0.000 H 
ATOM    115  H25 UNL A   1      20.540  35.648  49.140  1.00  0.00    +0.000 H 
ATOM    116  H26 UNL A   1      23.977  37.743  48.098  1.00  0.00    +0.000 H 
ATOM    117  H27 UNL A   1      26.648  34.652  45.163  1.00  0.00    +0.000 H 
ATOM    118  H28 UNL A   1      28.384  36.526  44.992  1.00  0.00    +0.000 H 
ATOM    119  H29 UNL A   1      22.465  42.631  50.340  1.00  0.00    +0.000 H 
ATOM    120  H30 UNL A   1      20.947  40.646  50.903  1.00  0.00    +0.000 H 
ENDROOT
BRANCH   19   18
ATOM     76  C53 UNL A   1      19.148  38.529  49.298  1.00  0.00    +0.000 C 
ATOM    109  H19 UNL A   1      18.631  37.532  52.958  1.00  0.00    +0.000 H 
ATOM     77  C54 UNL A   1      17.867  38.523  49.842  1.00  0.00    +0.000 C 
ATOM     15  C11 UNL A   1      17.676  38.104  51.162  1.00  0.00    +0.000 C 
ATOM     16  C12 UNL A   1      18.774  37.802  51.972  1.00  0.00    +0.000 C 
ATOM     17  C13 UNL A   1      20.065  37.868  51.443  1.00  0.00    +0.000 C 
ATOM    110  H20 UNL A   1      20.878  37.668  52.045  1.00  0.00    +0.000 H 
ATOM     18  C14 UNL A   1      20.258  38.207  50.094  1.00  0.00    +0.000 C 
ATOM    121  H31 UNL A   1      19.282  38.771  48.304  1.00  0.00    +0.000 H 
ATOM    122  H32 UNL A   1      17.061  38.828  49.273  1.00  0.00    +0.000 H 
BRANCH   15   13
ATOM     13  C10 UNL A   1      16.314  37.972  51.717  1.00  0.00    +0.000 C 
ATOM     14  O2  UNL A   1      16.160  37.701  52.904  1.00  0.00    +0.000 O 
BRANCH   13   12
ATOM    108  H18 UNL A   1      15.289  38.881  50.251  1.00  0.00    +0.000 H 
ATOM     12  N2  UNL A   1      15.228  38.137  50.893  1.00  0.00    +0.000 N 
BRANCH   12   11
ATOM    106  H16 UNL A   1      14.249  36.320  50.937  1.00  0.00    +0.000 H 
ATOM     11  C9  UNL A   1      14.001  37.357  50.841  1.00  0.00    +0.000 C 
ATOM    107  H17 UNL A   1      13.372  37.685  51.642  1.00  0.00    +0.000 H 
BRANCH   11   10
ATOM    105  H15 UNL A   1      13.524  38.525  49.168  1.00  0.00    +0.000 H 
ATOM     10  C8  UNL A   1      13.240  37.561  49.537  1.00  0.00    +0.000 C 
ATOM    104  H14 UNL A   1      12.194  37.482  49.746  1.00  0.00    +0.000 H 
BRANCH   10    9
ATOM      9  C7  UNL A   1      13.581  36.558  48.433  1.00  0.00    +0.000 C 
ATOM    102  H12 UNL A   1      13.004  35.673  48.600  1.00  0.00    +0.000 H 
ATOM    103  H13 UNL A   1      13.355  37.045  47.508  1.00  0.00    +0.000 H 
BRANCH    9    8
ATOM    100  H10 UNL A   1      15.539  36.500  49.248  1.00  0.00    +0.000 H 
ATOM    101  H11 UNL A   1      15.067  35.093  48.245  1.00  0.00    +0.000 H 
ATOM      8  C6  UNL A   1      15.056  36.157  48.356  1.00  0.00    +0.000 C 
BRANCH    8    7
ATOM     98  H8  UNL A   1      15.260  37.520  46.736  1.00  0.00    +0.000 H 
ATOM     99  H9  UNL A   1      16.784  37.028  47.527  1.00  0.00    +0.000 H 
ATOM      7  C5  UNL A   1      15.829  36.717  47.154  1.00  0.00    +0.000 C 
BRANCH    7    6
ATOM     97  H7  UNL A   1      15.234  35.609  45.431  1.00  0.00    +0.000 H 
ATOM      6  C4  UNL A   1      16.108  35.697  46.043  1.00  0.00    +0.000 C 
ATOM     96  H6  UNL A   1      16.349  34.753  46.485  1.00  0.00    +0.000 H 
BRANCH    6    5
ATOM      5  N1  UNL A   1      17.215  36.131  45.212  1.00  0.00    +0.000 N 
ATOM     95  H5  UNL A   1      17.158  35.903  44.256  1.00  0.00    +0.000 H 
BRANCH    5    3
ATOM      3  C3  UNL A   1      18.330  36.821  45.604  1.00  0.00    +0.000 C 
ATOM      4  O1  UNL A   1      18.197  38.031  45.793  1.00  0.00    +0.000 O 
BRANCH    3    2
ATOM      2  C2  UNL A   1      19.673  36.077  45.745  1.00  0.00    +0.000 C 
ATOM     94  H4  UNL A   1      19.967  36.103  46.773  1.00  0.00    +0.000 H 
BRANCH    2    1
ATOM      1  C1  UNL A   1      20.725  36.803  44.895  1.00  0.00    +0.000 C 
ATOM     91  H1  UNL A   1      20.240  37.504  44.249  1.00  0.00    +0.000 H 
ATOM     92  H2  UNL A   1      21.263  36.089  44.307  1.00  0.00    +0.000 H 
ATOM     93  H3  UNL A   1      21.406  37.322  45.537  1.00  0.00    +0.000 H 
ENDBRANCH    2    1
BRANCH    2   78
ATOM    129  H39 UNL A   1      19.584  33.921  47.430  1.00  0.00    +0.000 H 
ATOM     78  C55 UNL A   1      19.585  34.576  45.423  1.00  0.00    +0.000 C 
ATOM     79  C56 UNL A   1      19.613  34.105  44.100  1.00  0.00    +0.000 C 
ATOM     80  C57 UNL A   1      19.483  32.742  43.810  1.00  0.00    +0.000 C 
ATOM     81  C58 UNL A   1      19.340  31.804  44.838  1.00  0.00    +0.000 C 
ATOM     89  C64 UNL A   1      19.395  32.249  46.162  1.00  0.00    +0.000 C 
ATOM     90  C65 UNL A   1      19.528  33.615  46.446  1.00  0.00    +0.000 C 
ATOM    123  H33 UNL A   1      19.732  34.777  43.325  1.00  0.00    +0.000 H 
ATOM    124  H34 UNL A   1      19.491  32.426  42.828  1.00  0.00    +0.000 H 
ATOM    128  H38 UNL A   1      19.336  31.567  46.934  1.00  0.00    +0.000 H 
BRANCH   81   82
ATOM     82  C59 UNL A   1      19.187  30.360  44.470  1.00  0.00    +0.000 C 
ATOM     83  O3  UNL A   1      20.142  29.611  44.667  1.00  0.00    +0.000 O 
BRANCH   82   84
ATOM     84  C60 UNL A   1      17.930  29.897  43.910  1.00  0.00    +0.000 C 
ATOM     85  C61 UNL A   1      16.847  30.622  43.447  1.00  0.00    +0.000 C 
ATOM     86  C62 UNL A   1      15.788  29.779  42.999  1.00  0.00    +0.000 C 
ATOM     87  C63 UNL A   1      16.104  28.444  43.119  1.00  0.00    +0.000 C 
ATOM     88  S1  UNL A   1      17.679  28.212  43.744  1.00  0.00    +0.000 S 
ATOM    125  H35 UNL A   1      16.811  31.653  43.428  1.00  0.00    +0.000 H 
ATOM    126  H36 UNL A   1      14.890  30.129  42.628  1.00  0.00    +0.000 H 
ATOM    127  H37 UNL A   1      15.467  27.675  42.862  1.00  0.00    +0.000 H 
ENDBRANCH   82   84
ENDBRANCH   81   82
ENDBRANCH    2   78
ENDBRANCH    3    2
ENDBRANCH    5    3
ENDBRANCH    6    5
ENDBRANCH    7    6
ENDBRANCH    8    7
ENDBRANCH    9    8
ENDBRANCH   10    9
ENDBRANCH   11   10
ENDBRANCH   12   11
ENDBRANCH   13   12
ENDBRANCH   15   13
ENDBRANCH   19   18
BRANCH   23   24
ATOM     33  C24 UNL A   1      25.290  43.800  50.539  1.00  0.00    +0.000 C 
ATOM     34  F5  UNL A   1      25.853  42.879  51.337  1.00  0.00    +0.000 F 
ATOM     24  C19 UNL A   1      24.740  43.426  49.305  1.00  0.00    +0.000 C 
ATOM     25  C20 UNL A   1      24.158  44.429  48.514  1.00  0.00    +0.000 C 
ATOM     26  F1  UNL A   1      23.630  44.124  47.319  1.00  0.00    +0.000 F 
ATOM     27  C21 UNL A   1      24.164  45.759  48.926  1.00  0.00    +0.000 C 
ATOM     28  F2  UNL A   1      23.655  46.708  48.128  1.00  0.00    +0.000 F 
ATOM     29  C22 UNL A   1      24.712  46.106  50.151  1.00  0.00    +0.000 C 
ATOM     30  F3  UNL A   1      24.718  47.386  50.547  1.00  0.00    +0.000 F 
ATOM     31  C23 UNL A   1      25.266  45.127  50.963  1.00  0.00    +0.000 C 
ATOM     32  F4  UNL A   1      25.788  45.459  52.151  1.00  0.00    +0.000 F 
ENDBRANCH   23   24
BRANCH   40   41
ATOM     41  C30 UNL A   1      29.024  39.003  45.558  1.00  0.00    +0.000 C 
ATOM     42  C31 UNL A   1      30.141  38.357  46.108  1.00  0.00    +0.000 C 
ATOM     43  F6  UNL A   1      30.044  37.730  47.290  1.00  0.00    +0.000 F 
ATOM     44  C32 UNL A   1      31.369  38.378  45.455  1.00  0.00    +0.000 C 
ATOM     45  F7  UNL A   1      32.433  37.783  46.012  1.00  0.00    +0.000 F 
ATOM     46  C33 UNL A   1      31.499  39.020  44.232  1.00  0.00    +0.000 C 
ATOM     47  F8  UNL A   1      32.680  39.030  43.600  1.00  0.00    +0.000 F 
ATOM     48  C34 UNL A   1      30.404  39.657  43.667  1.00  0.00    +0.000 C 
ATOM     49  F9  UNL A   1      30.524  40.269  42.480  1.00  0.00    +0.000 F 
ATOM     50  C35 UNL A   1      29.180  39.659  44.328  1.00  0.00    +0.000 C 
ATOM     51  F10 UNL A   1      28.139  40.286  43.760  1.00  0.00    +0.000 F 
ENDBRANCH   40   41
BRANCH   55   56
ATOM     65  C44 UNL A   1      23.503  33.587  45.170  1.00  0.00    +0.000 C 
ATOM     66  F15 UNL A   1      22.812  34.537  44.524  1.00  0.00    +0.000 F 
ATOM     56  C39 UNL A   1      24.299  33.925  46.273  1.00  0.00    +0.000 C 
ATOM     57  C40 UNL A   1      24.996  32.895  46.919  1.00  0.00    +0.000 C 
ATOM     58  F11 UNL A   1      25.783  33.174  47.967  1.00  0.00    +0.000 F 
ATOM     59  C41 UNL A   1      24.910  31.578  46.471  1.00  0.00    +0.000 C 
ATOM     60  F12 UNL A   1      25.611  30.616  47.086  1.00  0.00    +0.000 F 
ATOM     61  C42 UNL A   1      24.107  31.264  45.385  1.00  0.00    +0.000 C 
ATOM     62  F13 UNL A   1      24.016  29.997  44.960  1.00  0.00    +0.000 F 
ATOM     63  C43 UNL A   1      23.400  32.266  44.736  1.00  0.00    +0.000 C 
ATOM     64  F14 UNL A   1      22.613  31.964  43.695  1.00  0.00    +0.000 F 
ENDBRANCH   55   56
TORSDOF 19
ENDMDL
MODEL 9
REMARK VINA RESULT:     -10.3      3.628      7.103
ROOT
ATOM     19  C15 UNL A   1      39.781  28.928  29.129  1.00  0.00    +0.000 C 
ATOM     20  C16 UNL A   1      40.616  29.933  29.869  1.00  0.00    +0.000 C 
ATOM     21  N3  UNL A   1      41.895  29.909  30.144  1.00  0.00    +0.000 N 
ATOM     22  C17 UNL A   1      42.165  31.113  30.781  1.00  0.00    +0.000 C 
ATOM     23  C18 UNL A   1      43.337  31.548  31.302  1.00  0.00    +0.000 C 
ATOM     35  C25 UNL A   1      44.555  30.784  31.299  1.00  0.00    +0.000 C 
ATOM     36  C26 UNL A   1      45.781  31.110  31.854  1.00  0.00    +0.000 C 
ATOM     37  C27 UNL A   1      46.676  30.072  31.576  1.00  0.00    +0.000 C 
ATOM     38  C28 UNL A   1      45.998  29.081  30.883  1.00  0.00    +0.000 C 
ATOM     39  N4  UNL A   1      44.700  29.535  30.714  1.00  0.00    +0.000 N 
ATOM     40  C29 UNL A   1      46.496  27.815  30.411  1.00  0.00    +0.000 C 
ATOM     52  C36 UNL A   1      45.771  26.897  29.727  1.00  0.00    +0.000 C 
ATOM     53  N5  UNL A   1      44.435  26.945  29.351  1.00  0.00    +0.000 N 
ATOM     54  C37 UNL A   1      44.199  25.825  28.714  1.00  0.00    +0.000 C 
ATOM     55  C38 UNL A   1      42.913  25.331  28.109  1.00  0.00    +0.000 C 
ATOM     67  C45 UNL A   1      41.794  26.067  28.246  1.00  0.00    +0.000 C 
ATOM     68  C46 UNL A   1      40.481  25.723  27.708  1.00  0.00    +0.000 C 
ATOM     69  C47 UNL A   1      39.625  26.725  27.967  1.00  0.00    +0.000 C 
ATOM     70  C48 UNL A   1      40.322  27.765  28.724  1.00  0.00    +0.000 C 
ATOM     71  N6  UNL A   1      41.595  27.274  28.872  1.00  0.00    +0.000 N 
ATOM     72  C49 UNL A   1      45.372  24.948  28.585  1.00  0.00    +0.000 C 
ATOM     73  C50 UNL A   1      46.295  25.635  29.247  1.00  0.00    +0.000 C 
ATOM     74  C51 UNL A   1      40.925  31.860  30.819  1.00  0.00    +0.000 C 
ATOM     75  C52 UNL A   1      39.922  31.145  30.334  1.00  0.00    +0.000 C 
ATOM    111  H21 UNL A   1      45.997  31.969  32.383  1.00  0.00    +0.000 H 
ATOM    112  H22 UNL A   1      47.673  30.047  31.840  1.00  0.00    +0.000 H 
ATOM    113  H23 UNL A   1      43.985  29.044  30.246  1.00  0.00    +0.000 H 
ATOM    114  H24 UNL A   1      40.248  24.851  27.209  1.00  0.00    +0.000 H 
ATOM    115  H25 UNL A   1      38.634  26.756  27.679  1.00  0.00    +0.000 H 
ATOM    116  H26 UNL A   1      42.299  27.742  29.377  1.00  0.00    +0.000 H 
ATOM    117  H27 UNL A   1      45.457  24.038  28.105  1.00  0.00    +0.000 H 
ATOM    118  H28 UNL A   1      47.262  25.310  29.401  1.00  0.00    +0.000 H 
ATOM    119  H29 UNL A   1      40.836  32.824  31.176  1.00  0.00    +0.000 H 
ATOM    120  H30 UNL A   1      38.917  31.376  30.292  1.00  0.00    +0.000 H 
ENDROOT
BRANCH   19   18
ATOM     76  C53 UNL A   1      38.125  29.781  27.480  1.00  0.00    +0.000 C 
ATOM    109  H19 UNL A   1      35.238  29.296  29.948  1.00  0.00    +0.000 H 
ATOM     77  C54 UNL A   1      36.833  30.148  27.118  1.00  0.00    +0.000 C 
ATOM     15  C11 UNL A   1      35.773  29.916  28.000  1.00  0.00    +0.000 C 
ATOM     16  C12 UNL A   1      36.019  29.427  29.285  1.00  0.00    +0.000 C 
ATOM     17  C13 UNL A   1      37.325  29.117  29.671  1.00  0.00    +0.000 C 
ATOM    110  H20 UNL A   1      37.513  28.777  30.627  1.00  0.00    +0.000 H 
ATOM     18  C14 UNL A   1      38.384  29.268  28.761  1.00  0.00    +0.000 C 
ATOM    121  H31 UNL A   1      38.898  29.886  26.804  1.00  0.00    +0.000 H 
ATOM    122  H32 UNL A   1      36.658  30.590  26.202  1.00  0.00    +0.000 H 
BRANCH   15   13
ATOM     13  C10 UNL A   1      34.381  30.184  27.586  1.00  0.00    +0.000 C 
ATOM     14  O2  UNL A   1      33.828  31.223  27.933  1.00  0.00    +0.000 O 
BRANCH   13   12
ATOM    108  H18 UNL A   1      33.858  29.307  25.858  1.00  0.00    +0.000 H 
ATOM     12  N2  UNL A   1      33.709  29.255  26.830  1.00  0.00    +0.000 N 
BRANCH   12   11
ATOM    106  H16 UNL A   1      33.024  27.976  28.298  1.00  0.00    +0.000 H 
ATOM     11  C9  UNL A   1      32.808  28.204  27.274  1.00  0.00    +0.000 C 
ATOM    107  H17 UNL A   1      31.806  28.560  27.156  1.00  0.00    +0.000 H 
BRANCH   11   10
ATOM    105  H15 UNL A   1      33.702  26.341  26.929  1.00  0.00    +0.000 H 
ATOM     10  C8  UNL A   1      32.951  26.931  26.448  1.00  0.00    +0.000 C 
ATOM    104  H14 UNL A   1      33.212  27.211  25.448  1.00  0.00    +0.000 H 
BRANCH   10    9
ATOM      9  C7  UNL A   1      31.693  26.063  26.386  1.00  0.00    +0.000 C 
ATOM    102  H12 UNL A   1      31.202  26.123  27.334  1.00  0.00    +0.000 H 
ATOM    103  H13 UNL A   1      31.105  26.447  25.578  1.00  0.00    +0.000 H 
BRANCH    9    8
ATOM    100  H10 UNL A   1      31.041  24.047  26.288  1.00  0.00    +0.000 H 
ATOM    101  H11 UNL A   1      32.224  24.548  25.040  1.00  0.00    +0.000 H 
ATOM      8  C6  UNL A   1      31.940  24.586  26.071  1.00  0.00    +0.000 C 
BRANCH    8    7
ATOM     98  H8  UNL A   1      33.917  23.810  26.190  1.00  0.00    +0.000 H 
ATOM     99  H9  UNL A   1      33.298  24.576  27.679  1.00  0.00    +0.000 H 
ATOM      7  C5  UNL A   1      33.086  23.929  26.852  1.00  0.00    +0.000 C 
BRANCH    7    6
ATOM     97  H7  UNL A   1      31.800  22.240  27.065  1.00  0.00    +0.000 H 
ATOM      6  C4  UNL A   1      32.747  22.557  27.449  1.00  0.00    +0.000 C 
ATOM     96  H6  UNL A   1      32.707  22.639  28.516  1.00  0.00    +0.000 H 
BRANCH    6    5
ATOM      5  N1  UNL A   1      33.750  21.575  27.085  1.00  0.00    +0.000 N 
ATOM     95  H5  UNL A   1      34.512  21.481  27.700  1.00  0.00    +0.000 H 
BRANCH    5    3
ATOM      3  C3  UNL A   1      33.758  20.764  25.982  1.00  0.00    +0.000 C 
ATOM      4  O1  UNL A   1      33.065  19.746  26.035  1.00  0.00    +0.000 O 
BRANCH    3    2
ATOM      2  C2  UNL A   1      34.644  21.130  24.775  1.00  0.00    +0.000 C 
ATOM     94  H4  UNL A   1      34.641  20.307  24.092  1.00  0.00    +0.000 H 
BRANCH    2    1
ATOM      1  C1  UNL A   1      36.075  21.374  25.274  1.00  0.00    +0.000 C 
ATOM     91  H1  UNL A   1      36.116  21.212  26.331  1.00  0.00    +0.000 H 
ATOM     92  H2  UNL A   1      36.361  22.381  25.058  1.00  0.00    +0.000 H 
ATOM     93  H3  UNL A   1      36.744  20.699  24.784  1.00  0.00    +0.000 H 
ENDBRANCH    2    1
BRANCH    2   78
ATOM    129  H39 UNL A   1      32.329  21.333  23.328  1.00  0.00    +0.000 H 
ATOM     78  C55 UNL A   1      34.100  22.303  23.942  1.00  0.00    +0.000 C 
ATOM     79  C56 UNL A   1      34.840  23.484  23.765  1.00  0.00    +0.000 C 
ATOM     80  C57 UNL A   1      34.319  24.568  23.048  1.00  0.00    +0.000 C 
ATOM     81  C58 UNL A   1      33.049  24.496  22.469  1.00  0.00    +0.000 C 
ATOM     89  C64 UNL A   1      32.336  23.297  22.566  1.00  0.00    +0.000 C 
ATOM     90  C65 UNL A   1      32.862  22.215  23.283  1.00  0.00    +0.000 C 
ATOM    123  H33 UNL A   1      35.786  23.555  24.171  1.00  0.00    +0.000 H 
ATOM    124  H34 UNL A   1      34.879  25.429  22.946  1.00  0.00    +0.000 H 
ATOM    128  H38 UNL A   1      31.415  23.210  22.107  1.00  0.00    +0.000 H 
BRANCH   81   82
ATOM     82  C59 UNL A   1      32.534  25.691  21.727  1.00  0.00    +0.000 C 
ATOM     83  O3  UNL A   1      32.666  25.711  20.504  1.00  0.00    +0.000 O 
BRANCH   82   84
ATOM     84  C60 UNL A   1      31.895  26.767  22.464  1.00  0.00    +0.000 C 
ATOM     85  C61 UNL A   1      30.612  26.849  22.973  1.00  0.00    +0.000 C 
ATOM     86  C62 UNL A   1      30.367  28.100  23.614  1.00  0.00    +0.000 C 
ATOM     87  C63 UNL A   1      31.475  28.919  23.586  1.00  0.00    +0.000 C 
ATOM     88  S1  UNL A   1      32.806  28.173  22.815  1.00  0.00    +0.000 S 
ATOM    125  H35 UNL A   1      29.914  26.094  22.898  1.00  0.00    +0.000 H 
ATOM    126  H36 UNL A   1      29.468  28.360  24.047  1.00  0.00    +0.000 H 
ATOM    127  H37 UNL A   1      31.498  29.870  23.984  1.00  0.00    +0.000 H 
ENDBRANCH   82   84
ENDBRANCH   81   82
ENDBRANCH    2   78
ENDBRANCH    3    2
ENDBRANCH    5    3
ENDBRANCH    6    5
ENDBRANCH    7    6
ENDBRANCH    8    7
ENDBRANCH    9    8
ENDBRANCH   10    9
ENDBRANCH   11   10
ENDBRANCH   12   11
ENDBRANCH   13   12
ENDBRANCH   15   13
ENDBRANCH   19   18
BRANCH   23   24
ATOM     33  C24 UNL A   1      43.606  34.046  31.122  1.00  0.00    +0.000 C 
ATOM     34  F5  UNL A   1      43.834  33.913  29.806  1.00  0.00    +0.000 F 
ATOM     24  C19 UNL A   1      43.351  32.918  31.914  1.00  0.00    +0.000 C 
ATOM     25  C20 UNL A   1      43.125  33.116  33.285  1.00  0.00    +0.000 C 
ATOM     26  F1  UNL A   1      42.863  32.070  34.083  1.00  0.00    +0.000 F 
ATOM     27  C21 UNL A   1      43.115  34.396  33.832  1.00  0.00    +0.000 C 
ATOM     28  F2  UNL A   1      42.839  34.565  35.132  1.00  0.00    +0.000 F 
ATOM     29  C22 UNL A   1      43.370  35.498  33.029  1.00  0.00    +0.000 C 
ATOM     30  F3  UNL A   1      43.360  36.730  33.557  1.00  0.00    +0.000 F 
ATOM     31  C23 UNL A   1      43.625  35.323  31.677  1.00  0.00    +0.000 C 
ATOM     32  F4  UNL A   1      43.882  36.387  30.902  1.00  0.00    +0.000 F 
ENDBRANCH   23   24
BRANCH   40   41
ATOM     41  C30 UNL A   1      47.922  27.473  30.723  1.00  0.00    +0.000 C 
ATOM     42  C31 UNL A   1      48.270  26.745  31.870  1.00  0.00    +0.000 C 
ATOM     43  F6  UNL A   1      47.327  26.396  32.759  1.00  0.00    +0.000 F 
ATOM     44  C32 UNL A   1      49.594  26.397  32.120  1.00  0.00    +0.000 C 
ATOM     45  F7  UNL A   1      49.911  25.729  33.238  1.00  0.00    +0.000 F 
ATOM     46  C33 UNL A   1      50.589  26.746  31.218  1.00  0.00    +0.000 C 
ATOM     47  F8  UNL A   1      51.862  26.401  31.455  1.00  0.00    +0.000 F 
ATOM     48  C34 UNL A   1      50.265  27.459  30.073  1.00  0.00    +0.000 C 
ATOM     49  F9  UNL A   1      51.223  27.788  29.195  1.00  0.00    +0.000 F 
ATOM     50  C35 UNL A   1      48.946  27.829  29.832  1.00  0.00    +0.000 C 
ATOM     51  F10 UNL A   1      48.661  28.521  28.719  1.00  0.00    +0.000 F 
ENDBRANCH   40   41
BRANCH   55   56
ATOM     65  C44 UNL A   1      42.497  22.849  28.055  1.00  0.00    +0.000 C 
ATOM     66  F15 UNL A   1      42.183  22.876  29.359  1.00  0.00    +0.000 F 
ATOM     56  C39 UNL A   1      42.854  24.031  27.394  1.00  0.00    +0.000 C 
ATOM     57  C40 UNL A   1      43.180  23.949  26.033  1.00  0.00    +0.000 C 
ATOM     58  F11 UNL A   1      43.510  25.057  25.356  1.00  0.00    +0.000 F 
ATOM     59  C41 UNL A   1      43.140  22.731  25.357  1.00  0.00    +0.000 C 
ATOM     60  F12 UNL A   1      43.426  22.683  24.049  1.00  0.00    +0.000 F 
ATOM     61  C42 UNL A   1      42.796  21.571  26.034  1.00  0.00    +0.000 C 
ATOM     62  F13 UNL A   1      42.767  20.398  25.387  1.00  0.00    +0.000 F 
ATOM     63  C43 UNL A   1      42.479  21.627  27.384  1.00  0.00    +0.000 C 
ATOM     64  F14 UNL A   1      42.160  20.506  28.044  1.00  0.00    +0.000 F 
ENDBRANCH   55   56
TORSDOF 19
ENDMDL
MODEL 10
REMARK VINA RESULT:     -10.2      3.902      8.926
ROOT
ATOM     19  C15 UNL A   1      40.588  28.108  28.924  1.00  0.00    +0.000 C 
ATOM     20  C16 UNL A   1      41.986  28.238  29.459  1.00  0.00    +0.000 C 
ATOM     21  N3  UNL A   1      42.504  29.177  30.210  1.00  0.00    +0.000 N 
ATOM     22  C17 UNL A   1      43.806  28.772  30.471  1.00  0.00    +0.000 C 
ATOM     23  C18 UNL A   1      44.767  29.423  31.168  1.00  0.00    +0.000 C 
ATOM     35  C25 UNL A   1      44.594  30.719  31.767  1.00  0.00    +0.000 C 
ATOM     36  C26 UNL A   1      45.525  31.490  32.442  1.00  0.00    +0.000 C 
ATOM     37  C27 UNL A   1      44.893  32.663  32.869  1.00  0.00    +0.000 C 
ATOM     38  C28 UNL A   1      43.580  32.640  32.425  1.00  0.00    +0.000 C 
ATOM     39  N4  UNL A   1      43.409  31.440  31.757  1.00  0.00    +0.000 N 
ATOM     40  C29 UNL A   1      42.558  33.641  32.596  1.00  0.00    +0.000 C 
ATOM     52  C36 UNL A   1      41.286  33.543  32.139  1.00  0.00    +0.000 C 
ATOM     53  N5  UNL A   1      40.696  32.515  31.417  1.00  0.00    +0.000 N 
ATOM     54  C37 UNL A   1      39.456  32.885  31.210  1.00  0.00    +0.000 C 
ATOM     55  C38 UNL A   1      38.366  32.170  30.458  1.00  0.00    +0.000 C 
ATOM     67  C45 UNL A   1      38.644  31.005  29.842  1.00  0.00    +0.000 C 
ATOM     68  C46 UNL A   1      37.692  30.196  29.087  1.00  0.00    +0.000 C 
ATOM     69  C47 UNL A   1      38.297  29.067  28.686  1.00  0.00    +0.000 C 
ATOM     70  C48 UNL A   1      39.692  29.091  29.125  1.00  0.00    +0.000 C 
ATOM     71  N6  UNL A   1      39.817  30.294  29.774  1.00  0.00    +0.000 N 
ATOM     72  C49 UNL A   1      39.108  34.181  31.808  1.00  0.00    +0.000 C 
ATOM     73  C50 UNL A   1      40.268  34.554  32.335  1.00  0.00    +0.000 C 
ATOM     74  C51 UNL A   1      43.987  27.487  29.831  1.00  0.00    +0.000 C 
ATOM     75  C52 UNL A   1      42.916  27.147  29.131  1.00  0.00    +0.000 C 
ATOM    111  H21 UNL A   1      46.514  31.244  32.603  1.00  0.00    +0.000 H 
ATOM    112  H22 UNL A   1      45.329  33.416  33.423  1.00  0.00    +0.000 H 
ATOM    113  H23 UNL A   1      42.570  31.140  31.337  1.00  0.00    +0.000 H 
ATOM    114  H24 UNL A   1      36.711  30.452  28.893  1.00  0.00    +0.000 H 
ATOM    115  H25 UNL A   1      37.849  28.304  28.153  1.00  0.00    +0.000 H 
ATOM    116  H26 UNL A   1      40.666  30.615  30.156  1.00  0.00    +0.000 H 
ATOM    117  H27 UNL A   1      38.201  34.673  31.817  1.00  0.00    +0.000 H 
ATOM    118  H28 UNL A   1      40.424  35.450  32.822  1.00  0.00    +0.000 H 
ATOM    119  H29 UNL A   1      44.840  26.911  29.911  1.00  0.00    +0.000 H 
ATOM    120  H30 UNL A   1      42.771  26.330  28.517  1.00  0.00    +0.000 H 
ENDROOT
BRANCH   19   18
ATOM     76  C53 UNL A   1      40.537  26.636  26.920  1.00  0.00    +0.000 C 
ATOM    109  H19 UNL A   1      38.507  23.974  28.778  1.00  0.00    +0.000 H 
ATOM     77  C54 UNL A   1      40.131  25.484  26.255  1.00  0.00    +0.000 C 
ATOM     15  C11 UNL A   1      39.439  24.488  26.952  1.00  0.00    +0.000 C 
ATOM     16  C12 UNL A   1      39.053  24.695  28.279  1.00  0.00    +0.000 C 
ATOM     17  C13 UNL A   1      39.408  25.880  28.928  1.00  0.00    +0.000 C 
ATOM    110  H20 UNL A   1      39.105  26.044  29.900  1.00  0.00    +0.000 H 
ATOM     18  C14 UNL A   1      40.175  26.847  28.260  1.00  0.00    +0.000 C 
ATOM    121  H31 UNL A   1      41.108  27.340  26.426  1.00  0.00    +0.000 H 
ATOM    122  H32 UNL A   1      40.339  25.364  25.251  1.00  0.00    +0.000 H 
BRANCH   15   13
ATOM     13  C10 UNL A   1      39.108  23.206  26.297  1.00  0.00    +0.000 C 
ATOM     14  O2  UNL A   1      39.936  22.300  26.272  1.00  0.00    +0.000 O 
BRANCH   13   12
ATOM    108  H18 UNL A   1      37.214  23.742  25.908  1.00  0.00    +0.000 H 
ATOM     12  N2  UNL A   1      37.880  23.046  25.704  1.00  0.00    +0.000 N 
BRANCH   12   11
ATOM    106  H16 UNL A   1      38.276  21.378  24.555  1.00  0.00    +0.000 H 
ATOM     11  C9  UNL A   1      37.434  21.987  24.813  1.00  0.00    +0.000 C 
ATOM    107  H17 UNL A   1      36.685  21.422  25.327  1.00  0.00    +0.000 H 
BRANCH   11   10
ATOM    105  H15 UNL A   1      36.731  21.703  22.860  1.00  0.00    +0.000 H 
ATOM     10  C8  UNL A   1      36.811  22.531  23.533  1.00  0.00    +0.000 C 
ATOM    104  H14 UNL A   1      37.440  23.315  23.164  1.00  0.00    +0.000 H 
BRANCH   10    9
ATOM      9  C7  UNL A   1      35.398  23.093  23.697  1.00  0.00    +0.000 C 
ATOM    102  H12 UNL A   1      35.426  23.842  24.460  1.00  0.00    +0.000 H 
ATOM    103  H13 UNL A   1      35.116  23.474  22.738  1.00  0.00    +0.000 H 
BRANCH    9    8
ATOM    100  H10 UNL A   1      34.731  21.089  23.889  1.00  0.00    +0.000 H 
ATOM    101  H11 UNL A   1      34.107  22.241  25.110  1.00  0.00    +0.000 H 
ATOM      8  C6  UNL A   1      34.332  22.064  24.080  1.00  0.00    +0.000 C 
BRANCH    8    7
ATOM     98  H8  UNL A   1      33.117  22.916  22.555  1.00  0.00    +0.000 H 
ATOM     99  H9  UNL A   1      32.777  21.208  22.948  1.00  0.00    +0.000 H 
ATOM      7  C5  UNL A   1      33.000  22.184  23.327  1.00  0.00    +0.000 C 
BRANCH    7    6
ATOM     97  H7  UNL A   1      31.322  21.711  24.555  1.00  0.00    +0.000 H 
ATOM      6  C4  UNL A   1      31.808  22.595  24.200  1.00  0.00    +0.000 C 
ATOM     96  H6  UNL A   1      31.130  23.182  23.615  1.00  0.00    +0.000 H 
BRANCH    6    5
ATOM      5  N1  UNL A   1      32.249  23.374  25.341  1.00  0.00    +0.000 N 
ATOM     95  H5  UNL A   1      32.584  22.864  26.114  1.00  0.00    +0.000 H 
BRANCH    5    3
ATOM      3  C3  UNL A   1      32.253  24.737  25.467  1.00  0.00    +0.000 C 
ATOM      4  O1  UNL A   1      32.091  25.191  26.601  1.00  0.00    +0.000 O 
BRANCH    3    2
ATOM      2  C2  UNL A   1      32.413  25.616  24.211  1.00  0.00    +0.000 C 
ATOM     94  H4  UNL A   1      32.464  24.976  23.355  1.00  0.00    +0.000 H 
BRANCH    2    1
ATOM      1  C1  UNL A   1      33.719  26.412  24.333  1.00  0.00    +0.000 C 
ATOM     91  H1  UNL A   1      33.653  27.301  23.741  1.00  0.00    +0.000 H 
ATOM     92  H2  UNL A   1      34.535  25.813  23.986  1.00  0.00    +0.000 H 
ATOM     93  H3  UNL A   1      33.881  26.676  25.356  1.00  0.00    +0.000 H 
ENDBRANCH    2    1
BRANCH    2   78
ATOM    129  H39 UNL A   1      32.303  28.279  23.583  1.00  0.00    +0.000 H 
ATOM     78  C55 UNL A   1      31.197  26.515  23.927  1.00  0.00    +0.000 C 
ATOM     79  C56 UNL A   1      29.883  26.030  24.039  1.00  0.00    +0.000 C 
ATOM     80  C57 UNL A   1      28.781  26.837  23.732  1.00  0.00    +0.000 C 
ATOM     81  C58 UNL A   1      28.960  28.162  23.322  1.00  0.00    +0.000 C 
ATOM     89  C64 UNL A   1      30.257  28.683  23.287  1.00  0.00    +0.000 C 
ATOM     90  C65 UNL A   1      31.355  27.871  23.597  1.00  0.00    +0.000 C 
ATOM    123  H33 UNL A   1      29.726  25.060  24.354  1.00  0.00    +0.000 H 
ATOM    124  H34 UNL A   1      27.828  26.450  23.808  1.00  0.00    +0.000 H 
ATOM    128  H38 UNL A   1      30.405  29.672  23.030  1.00  0.00    +0.000 H 
BRANCH   81   82
ATOM     82  C59 UNL A   1      27.746  28.976  22.989  1.00  0.00    +0.000 C 
ATOM     83  O3  UNL A   1      26.646  28.524  23.304  1.00  0.00    +0.000 O 
BRANCH   82   84
ATOM     84  C60 UNL A   1      27.907  30.257  22.325  1.00  0.00    +0.000 C 
ATOM     85  C61 UNL A   1      28.012  30.547  20.978  1.00  0.00    +0.000 C 
ATOM     86  C62 UNL A   1      28.189  31.943  20.740  1.00  0.00    +0.000 C 
ATOM     87  C63 UNL A   1      28.196  32.668  21.912  1.00  0.00    +0.000 C 
ATOM     88  S1  UNL A   1      27.965  31.674  23.284  1.00  0.00    +0.000 S 
ATOM    125  H35 UNL A   1      27.968  29.837  20.231  1.00  0.00    +0.000 H 
ATOM    126  H36 UNL A   1      28.299  32.359  19.803  1.00  0.00    +0.000 H 
ATOM    127  H37 UNL A   1      28.325  33.690  21.955  1.00  0.00    +0.000 H 
ENDBRANCH   82   84
ENDBRANCH   81   82
ENDBRANCH    2   78
ENDBRANCH    3    2
ENDBRANCH    5    3
ENDBRANCH    6    5
ENDBRANCH    7    6
ENDBRANCH    8    7
ENDBRANCH    9    8
ENDBRANCH   10    9
ENDBRANCH   11   10
ENDBRANCH   12   11
ENDBRANCH   13   12
ENDBRANCH   15   13
ENDBRANCH   19   18
BRANCH   23   24
ATOM     33  C24 UNL A   1      46.335  27.904  32.426  1.00  0.00    +0.000 C 
ATOM     34  F5  UNL A   1      45.385  27.714  33.354  1.00  0.00    +0.000 F 
ATOM     24  C19 UNL A   1      46.092  28.733  31.322  1.00  0.00    +0.000 C 
ATOM     25  C20 UNL A   1      47.123  28.900  30.385  1.00  0.00    +0.000 C 
ATOM     26  F1  UNL A   1      46.934  29.673  29.305  1.00  0.00    +0.000 F 
ATOM     27  C21 UNL A   1      48.336  28.231  30.529  1.00  0.00    +0.000 C 
ATOM     28  F2  UNL A   1      49.285  28.361  29.591  1.00  0.00    +0.000 F 
ATOM     29  C22 UNL A   1      48.555  27.417  31.629  1.00  0.00    +0.000 C 
ATOM     30  F3  UNL A   1      49.723  26.774  31.766  1.00  0.00    +0.000 F 
ATOM     31  C23 UNL A   1      47.561  27.261  32.583  1.00  0.00    +0.000 C 
ATOM     32  F4  UNL A   1      47.776  26.481  33.652  1.00  0.00    +0.000 F 
ENDBRANCH   23   24
BRANCH   40   41
ATOM     41  C30 UNL A   1      42.938  34.902  33.314  1.00  0.00    +0.000 C 
ATOM     42  C31 UNL A   1      43.382  36.037  32.621  1.00  0.00    +0.000 C 
ATOM     43  F6  UNL A   1      43.546  35.994  31.290  1.00  0.00    +0.000 F 
ATOM     44  C32 UNL A   1      43.686  37.213  33.300  1.00  0.00    +0.000 C 
ATOM     45  F7  UNL A   1      44.141  38.277  32.624  1.00  0.00    +0.000 F 
ATOM     46  C33 UNL A   1      43.527  37.285  34.676  1.00  0.00    +0.000 C 
ATOM     47  F8  UNL A   1      43.810  38.422  35.327  1.00  0.00    +0.000 F 
ATOM     48  C34 UNL A   1      43.080  36.176  35.379  1.00  0.00    +0.000 C 
ATOM     49  F9  UNL A   1      42.915  36.247  36.708  1.00  0.00    +0.000 F 
ATOM     50  C35 UNL A   1      42.797  34.991  34.707  1.00  0.00    +0.000 C 
ATOM     51  F10 UNL A   1      42.371  33.934  35.412  1.00  0.00    +0.000 F 
ENDBRANCH   40   41
BRANCH   55   56
ATOM     65  C44 UNL A   1      36.622  33.544  29.272  1.00  0.00    +0.000 C 
ATOM     66  F15 UNL A   1      37.493  33.789  28.282  1.00  0.00    +0.000 F 
ATOM     56  C39 UNL A   1      37.001  32.746  30.359  1.00  0.00    +0.000 C 
ATOM     57  C40 UNL A   1      36.057  32.524  31.371  1.00  0.00    +0.000 C 
ATOM     58  F11 UNL A   1      36.370  31.752  32.420  1.00  0.00    +0.000 F 
ATOM     59  C41 UNL A   1      34.778  33.071  31.292  1.00  0.00    +0.000 C 
ATOM     60  F12 UNL A   1      33.883  32.820  32.257  1.00  0.00    +0.000 F 
ATOM     61  C42 UNL A   1      34.428  33.869  30.213  1.00  0.00    +0.000 C 
ATOM     62  F13 UNL A   1      33.201  34.403  30.142  1.00  0.00    +0.000 F 
ATOM     63  C43 UNL A   1      35.350  34.109  29.204  1.00  0.00    +0.000 C 
ATOM     64  F14 UNL A   1      35.019  34.890  28.167  1.00  0.00    +0.000 F 
ENDBRANCH   55   56
TORSDOF 19
ENDMDL
