MODEL 1
REMARK VINA RESULT:     -11.1      0.000      0.000
ROOT
ATOM     19  C15 UNL A   1      37.972  30.084  29.971  1.00  0.00    +0.000 C 
ATOM     20  C16 UNL A   1      38.258  30.567  31.366  1.00  0.00    +0.000 C 
ATOM     21  N3  UNL A   1      39.288  30.318  32.135  1.00  0.00    +0.000 N 
ATOM     22  C17 UNL A   1      39.077  31.049  33.296  1.00  0.00    +0.000 C 
ATOM     23  C18 UNL A   1      39.828  31.081  34.423  1.00  0.00    +0.000 C 
ATOM     35  C25 UNL A   1      41.033  30.316  34.616  1.00  0.00    +0.000 C 
ATOM     36  C26 UNL A   1      41.828  30.225  35.744  1.00  0.00    +0.000 C 
ATOM     37  C27 UNL A   1      42.914  29.394  35.448  1.00  0.00    +0.000 C 
ATOM     38  C28 UNL A   1      42.771  28.930  34.150  1.00  0.00    +0.000 C 
ATOM     39  N4  UNL A   1      41.615  29.508  33.650  1.00  0.00    +0.000 N 
ATOM     40  C29 UNL A   1      43.625  28.029  33.419  1.00  0.00    +0.000 C 
ATOM     52  C36 UNL A   1      43.413  27.619  32.145  1.00  0.00    +0.000 C 
ATOM     53  N5  UNL A   1      42.371  27.940  31.286  1.00  0.00    +0.000 N 
ATOM     54  C37 UNL A   1      42.616  27.304  30.167  1.00  0.00    +0.000 C 
ATOM     55  C38 UNL A   1      41.804  27.256  28.901  1.00  0.00    +0.000 C 
ATOM     67  C45 UNL A   1      40.648  27.943  28.836  1.00  0.00    +0.000 C 
ATOM     68  C46 UNL A   1      39.748  27.982  27.687  1.00  0.00    +0.000 C 
ATOM     69  C47 UNL A   1      38.704  28.777  27.976  1.00  0.00    +0.000 C 
ATOM     70  C48 UNL A   1      38.848  29.278  29.343  1.00  0.00    +0.000 C 
ATOM     71  N6  UNL A   1      40.036  28.742  29.771  1.00  0.00    +0.000 N 
ATOM     72  C49 UNL A   1      43.865  26.528  30.180  1.00  0.00    +0.000 C 
ATOM     73  C50 UNL A   1      44.288  26.721  31.420  1.00  0.00    +0.000 C 
ATOM     74  C51 UNL A   1      37.848  31.790  33.114  1.00  0.00    +0.000 C 
ATOM     75  C52 UNL A   1      37.266  31.473  31.967  1.00  0.00    +0.000 C 
ATOM    112  H21 UNL A   1      41.651  30.690  36.648  1.00  0.00    +0.000 H 
ATOM    113  H22 UNL A   1      43.691  29.166  36.088  1.00  0.00    +0.000 H 
ATOM    114  H23 UNL A   1      41.259  29.365  32.744  1.00  0.00    +0.000 H 
ATOM    115  H24 UNL A   1      39.890  27.480  26.798  1.00  0.00    +0.000 H 
ATOM    116  H25 UNL A   1      37.926  28.999  27.335  1.00  0.00    +0.000 H 
ATOM    117  H26 UNL A   1      40.415  28.913  30.664  1.00  0.00    +0.000 H 
ATOM    118  H27 UNL A   1      44.298  25.979  29.420  1.00  0.00    +0.000 H 
ATOM    119  H28 UNL A   1      45.135  26.286  31.819  1.00  0.00    +0.000 H 
ATOM    120  H29 UNL A   1      37.475  32.477  33.788  1.00  0.00    +0.000 H 
ATOM    121  H30 UNL A   1      36.355  31.781  31.593  1.00  0.00    +0.000 H 
ENDROOT
BRANCH   19   18
ATOM     76  C53 UNL A   1      35.717  29.631  29.002  1.00  0.00    +0.000 C 
ATOM     77  C54 UNL A   1      34.585  30.033  28.297  1.00  0.00    +0.000 C 
ATOM    110  H19 UNL A   1      35.359  33.273  27.881  1.00  0.00    +0.000 H 
ATOM     15  C11 UNL A   1      34.431  31.375  27.934  1.00  0.00    +0.000 C 
ATOM     16  C12 UNL A   1      35.459  32.290  28.178  1.00  0.00    +0.000 C 
ATOM     17  C13 UNL A   1      36.623  31.870  28.824  1.00  0.00    +0.000 C 
ATOM    111  H20 UNL A   1      37.394  32.538  28.981  1.00  0.00    +0.000 H 
ATOM     18  C14 UNL A   1      36.752  30.541  29.261  1.00  0.00    +0.000 C 
ATOM    122  H31 UNL A   1      35.794  28.657  29.336  1.00  0.00    +0.000 H 
ATOM    123  H32 UNL A   1      33.863  29.342  28.042  1.00  0.00    +0.000 H 
BRANCH   15   13
ATOM     13  C10 UNL A   1      33.203  31.849  27.260  1.00  0.00    +0.000 C 
ATOM     14  O2  UNL A   1      32.975  33.052  27.182  1.00  0.00    +0.000 O 
BRANCH   13   12
ATOM     12  N2  UNL A   1      32.313  30.945  26.737  1.00  0.00    +0.000 N 
ATOM    109  H18 UNL A   1      31.392  31.013  27.077  1.00  0.00    +0.000 H 
BRANCH   12   11
ATOM     11  C9  UNL A   1      32.538  29.901  25.751  1.00  0.00    +0.000 C 
ATOM    108  H17 UNL A   1      33.588  29.692  25.727  1.00  0.00    +0.000 H 
ATOM    107  H16 UNL A   1      32.189  30.243  24.800  1.00  0.00    +0.000 H 
BRANCH   11   10
ATOM    105  H14 UNL A   1      31.317  28.750  27.045  1.00  0.00    +0.000 H 
ATOM     10  C8  UNL A   1      31.811  28.609  26.106  1.00  0.00    +0.000 C 
ATOM    106  H15 UNL A   1      31.134  28.411  25.301  1.00  0.00    +0.000 H 
BRANCH   10    9
ATOM      9  C7  UNL A   1      32.716  27.381  26.223  1.00  0.00    +0.000 C 
ATOM    103  H12 UNL A   1      33.266  27.459  27.137  1.00  0.00    +0.000 H 
ATOM    104  H13 UNL A   1      32.069  26.528  26.190  1.00  0.00    +0.000 H 
BRANCH    9    8
ATOM    101  H10 UNL A   1      33.256  27.549  24.177  1.00  0.00    +0.000 H 
ATOM    102  H11 UNL A   1      34.588  27.762  25.353  1.00  0.00    +0.000 H 
ATOM      8  C6  UNL A   1      33.718  27.203  25.078  1.00  0.00    +0.000 C 
BRANCH    8    7
ATOM     99  H8  UNL A   1      33.721  25.390  23.960  1.00  0.00    +0.000 H 
ATOM    100  H9  UNL A   1      35.259  25.796  24.760  1.00  0.00    +0.000 H 
ATOM      7  C5  UNL A   1      34.193  25.761  24.846  1.00  0.00    +0.000 C 
BRANCH    7    6
ATOM     97  H6  UNL A   1      34.754  24.263  26.261  1.00  0.00    +0.000 H 
ATOM     98  H7  UNL A   1      33.529  25.383  26.835  1.00  0.00    +0.000 H 
ATOM      6  C4  UNL A   1      33.871  24.809  25.999  1.00  0.00    +0.000 C 
BRANCH    6    5
ATOM      5  N1  UNL A   1      32.832  23.877  25.619  1.00  0.00    +0.000 N 
ATOM     96  H5  UNL A   1      33.145  22.978  25.367  1.00  0.00    +0.000 H 
BRANCH    5    3
ATOM      3  C3  UNL A   1      31.480  24.058  25.559  1.00  0.00    +0.000 C 
ATOM      4  O1  UNL A   1      30.889  24.187  26.633  1.00  0.00    +0.000 O 
BRANCH    3    2
ATOM      2  C2  UNL A   1      30.767  24.013  24.202  1.00  0.00    +0.000 C 
ATOM     95  H4  UNL A   1      29.823  23.541  24.378  1.00  0.00    +0.000 H 
BRANCH    2    1
ATOM      1  C1  UNL A   1      31.484  23.140  23.164  1.00  0.00    +0.000 C 
ATOM     92  H1  UNL A   1      31.022  22.176  23.131  1.00  0.00    +0.000 H 
ATOM     93  H2  UNL A   1      32.513  23.034  23.438  1.00  0.00    +0.000 H 
ATOM     94  H3  UNL A   1      31.417  23.602  22.202  1.00  0.00    +0.000 H 
ENDBRANCH    2    1
BRANCH    2   78
ATOM    137  H46 UNL A   1      28.538  28.099  24.101  1.00  0.00    +0.000 H 
ATOM     78  C55 UNL A   1      30.511  25.414  23.667  1.00  0.00    +0.000 C 
ATOM     79  C56 UNL A   1      31.305  25.922  22.630  1.00  0.00    +0.000 C 
ATOM     80  C57 UNL A   1      31.124  27.230  22.173  1.00  0.00    +0.000 C 
ATOM     81  C58 UNL A   1      30.165  28.066  22.756  1.00  0.00    +0.000 C 
ATOM     89  C65 UNL A   1      29.305  27.526  23.718  1.00  0.00    +0.000 C 
ATOM     90  C66 UNL A   1      29.480  26.219  24.161  1.00  0.00    +0.000 C 
ATOM     91  F16 UNL A   1      28.655  25.761  25.113  1.00  0.00    +0.000 F 
ATOM    124  H33 UNL A   1      32.029  25.325  22.201  1.00  0.00    +0.000 H 
ATOM    125  H34 UNL A   1      31.704  27.583  21.396  1.00  0.00    +0.000 H 
BRANCH   81   82
ATOM     82  C59 UNL A   1      30.065  29.523  22.386  1.00  0.00    +0.000 C 
ATOM    126  H35 UNL A   1      30.361  29.615  21.361  1.00  0.00    +0.000 H 
ATOM    127  H36 UNL A   1      30.691  30.028  23.090  1.00  0.00    +0.000 H 
BRANCH   82   83
ATOM    129  H38 UNL A   1      26.959  30.357  21.251  1.00  0.00    +0.000 H 
ATOM    130  H39 UNL A   1      28.425  30.035  20.391  1.00  0.00    +0.000 H 
ATOM    131  H40 UNL A   1      27.269  32.569  20.837  1.00  0.00    +0.000 H 
ATOM    132  H41 UNL A   1      28.842  32.288  20.179  1.00  0.00    +0.000 H 
ATOM    133  H42 UNL A   1      28.340  33.518  22.618  1.00  0.00    +0.000 H 
ATOM    134  H43 UNL A   1      29.863  32.854  22.190  1.00  0.00    +0.000 H 
ATOM    135  H44 UNL A   1      27.654  31.607  23.810  1.00  0.00    +0.000 H 
ATOM     83  C60 UNL A   1      28.682  30.203  22.530  1.00  0.00    +0.000 C 
ATOM     84  C61 UNL A   1      28.005  30.583  21.206  1.00  0.00    +0.000 C 
ATOM     85  C62 UNL A   1      28.208  32.090  21.017  1.00  0.00    +0.000 C 
ATOM     86  C63 UNL A   1      28.826  32.617  22.308  1.00  0.00    +0.000 C 
ATOM     87  C64 UNL A   1      28.604  31.508  23.330  1.00  0.00    +0.000 C 
ATOM    128  H37 UNL A   1      28.198  29.405  23.052  1.00  0.00    +0.000 H 
BRANCH   87   88
ATOM    136  H45 UNL A   1      29.973  30.721  24.495  1.00  0.00    +0.000 H 
ATOM     88  O3  UNL A   1      29.494  31.562  24.425  1.00  0.00    +0.000 O 
ENDBRANCH   87   88
ENDBRANCH   82   83
ENDBRANCH   81   82
ENDBRANCH    2   78
ENDBRANCH    3    2
ENDBRANCH    5    3
ENDBRANCH    6    5
ENDBRANCH    7    6
ENDBRANCH    8    7
ENDBRANCH    9    8
ENDBRANCH   10    9
ENDBRANCH   11   10
ENDBRANCH   12   11
ENDBRANCH   13   12
ENDBRANCH   15   13
ENDBRANCH   19   18
BRANCH   23   24
ATOM     33  C24 UNL A   1      39.825  33.297  35.627  1.00  0.00    +0.000 C 
ATOM     34  F5  UNL A   1      40.671  33.783  34.706  1.00  0.00    +0.000 F 
ATOM     24  C19 UNL A   1      39.367  31.974  35.538  1.00  0.00    +0.000 C 
ATOM     25  C20 UNL A   1      38.487  31.517  36.532  1.00  0.00    +0.000 C 
ATOM     26  F1  UNL A   1      38.010  30.265  36.487  1.00  0.00    +0.000 F 
ATOM     27  C21 UNL A   1      38.057  32.362  37.552  1.00  0.00    +0.000 C 
ATOM     28  F2  UNL A   1      37.174  31.919  38.459  1.00  0.00    +0.000 F 
ATOM     29  C22 UNL A   1      38.527  33.664  37.622  1.00  0.00    +0.000 C 
ATOM     30  F3  UNL A   1      38.115  34.476  38.606  1.00  0.00    +0.000 F 
ATOM     31  C23 UNL A   1      39.417  34.130  36.665  1.00  0.00    +0.000 C 
ATOM     32  F4  UNL A   1      39.881  35.385  36.738  1.00  0.00    +0.000 F 
ENDBRANCH   23   24
BRANCH   40   41
ATOM     41  C30 UNL A   1      44.829  27.479  34.125  1.00  0.00    +0.000 C 
ATOM     42  C31 UNL A   1      46.063  28.145  34.106  1.00  0.00    +0.000 C 
ATOM     43  F6  UNL A   1      46.205  29.282  33.408  1.00  0.00    +0.000 F 
ATOM     44  C32 UNL A   1      47.168  27.621  34.771  1.00  0.00    +0.000 C 
ATOM     45  F7  UNL A   1      48.350  28.249  34.699  1.00  0.00    +0.000 F 
ATOM     46  C33 UNL A   1      47.053  26.443  35.494  1.00  0.00    +0.000 C 
ATOM     47  F8  UNL A   1      48.117  25.943  36.137  1.00  0.00    +0.000 F 
ATOM     48  C34 UNL A   1      45.836  25.779  35.544  1.00  0.00    +0.000 C 
ATOM     49  F9  UNL A   1      45.719  24.647  36.251  1.00  0.00    +0.000 F 
ATOM     50  C35 UNL A   1      44.737  26.284  34.856  1.00  0.00    +0.000 C 
ATOM     51  F10 UNL A   1      43.577  25.613  34.911  1.00  0.00    +0.000 F 
ENDBRANCH   40   41
BRANCH   55   56
ATOM     65  C44 UNL A   1      43.160  26.910  26.806  1.00  0.00    +0.000 C 
ATOM     66  F15 UNL A   1      43.661  28.147  26.928  1.00  0.00    +0.000 F 
ATOM     56  C39 UNL A   1      42.240  26.428  27.748  1.00  0.00    +0.000 C 
ATOM     57  C40 UNL A   1      41.743  25.129  27.573  1.00  0.00    +0.000 C 
ATOM     58  F11 UNL A   1      40.877  24.617  28.460  1.00  0.00    +0.000 F 
ATOM     59  C41 UNL A   1      42.163  24.336  26.507  1.00  0.00    +0.000 C 
ATOM     60  F12 UNL A   1      41.705  23.082  26.386  1.00  0.00    +0.000 F 
ATOM     61  C42 UNL A   1      43.067  24.836  25.581  1.00  0.00    +0.000 C 
ATOM     62  F13 UNL A   1      43.469  24.075  24.555  1.00  0.00    +0.000 F 
ATOM     63  C43 UNL A   1      43.559  26.125  25.727  1.00  0.00    +0.000 C 
ATOM     64  F14 UNL A   1      44.422  26.617  24.827  1.00  0.00    +0.000 F 
ENDBRANCH   55   56
TORSDOF 20
ENDMDL
MODEL 2
REMARK VINA RESULT:     -10.8      4.075      9.069
ROOT
ATOM     19  C15 UNL A   1      40.689  27.837  28.440  1.00  0.00    +0.000 C 
ATOM     20  C16 UNL A   1      42.137  28.071  28.773  1.00  0.00    +0.000 C 
ATOM     21  N3  UNL A   1      42.703  29.117  29.320  1.00  0.00    +0.000 N 
ATOM     22  C17 UNL A   1      44.047  28.794  29.449  1.00  0.00    +0.000 C 
ATOM     23  C18 UNL A   1      45.063  29.567  29.903  1.00  0.00    +0.000 C 
ATOM     35  C25 UNL A   1      44.909  30.928  30.346  1.00  0.00    +0.000 C 
ATOM     36  C26 UNL A   1      45.883  31.819  30.759  1.00  0.00    +0.000 C 
ATOM     37  C27 UNL A   1      45.256  33.012  31.135  1.00  0.00    +0.000 C 
ATOM     38  C28 UNL A   1      43.895  32.880  30.913  1.00  0.00    +0.000 C 
ATOM     39  N4  UNL A   1      43.695  31.596  30.433  1.00  0.00    +0.000 N 
ATOM     40  C29 UNL A   1      42.852  33.853  31.123  1.00  0.00    +0.000 C 
ATOM     52  C36 UNL A   1      41.536  33.647  30.875  1.00  0.00    +0.000 C 
ATOM     53  N5  UNL A   1      40.908  32.514  30.376  1.00  0.00    +0.000 N 
ATOM     54  C37 UNL A   1      39.630  32.803  30.326  1.00  0.00    +0.000 C 
ATOM     55  C38 UNL A   1      38.484  31.962  29.833  1.00  0.00    +0.000 C 
ATOM     67  C45 UNL A   1      38.730  30.726  29.362  1.00  0.00    +0.000 C 
ATOM     68  C46 UNL A   1      37.728  29.802  28.839  1.00  0.00    +0.000 C 
ATOM     69  C47 UNL A   1      38.334  28.659  28.475  1.00  0.00    +0.000 C 
ATOM     70  C48 UNL A   1      39.772  28.784  28.712  1.00  0.00    +0.000 C 
ATOM     71  N6  UNL A   1      39.913  30.037  29.251  1.00  0.00    +0.000 N 
ATOM     72  C49 UNL A   1      39.299  34.147  30.821  1.00  0.00    +0.000 C 
ATOM     73  C50 UNL A   1      40.499  34.632  31.103  1.00  0.00    +0.000 C 
ATOM     74  C51 UNL A   1      44.205  27.438  28.971  1.00  0.00    +0.000 C 
ATOM     75  C52 UNL A   1      43.068  26.971  28.476  1.00  0.00    +0.000 C 
ATOM    112  H21 UNL A   1      46.899  31.635  30.786  1.00  0.00    +0.000 H 
ATOM    113  H22 UNL A   1      45.728  33.847  31.515  1.00  0.00    +0.000 H 
ATOM    114  H23 UNL A   1      42.822  31.214  30.189  1.00  0.00    +0.000 H 
ATOM    115  H24 UNL A   1      36.718  29.995  28.760  1.00  0.00    +0.000 H 
ATOM    116  H25 UNL A   1      37.860  27.827  28.091  1.00  0.00    +0.000 H 
ATOM    117  H26 UNL A   1      40.781  30.409  29.532  1.00  0.00    +0.000 H 
ATOM    118  H27 UNL A   1      38.374  34.593  30.923  1.00  0.00    +0.000 H 
ATOM    119  H28 UNL A   1      40.673  35.591  31.442  1.00  0.00    +0.000 H 
ATOM    120  H29 UNL A   1      45.087  26.904  29.011  1.00  0.00    +0.000 H 
ATOM    121  H30 UNL A   1      42.884  26.072  28.005  1.00  0.00    +0.000 H 
ENDROOT
BRANCH   19   18
ATOM     76  C53 UNL A   1      40.566  26.234  26.531  1.00  0.00    +0.000 C 
ATOM     77  C54 UNL A   1      40.130  25.039  25.963  1.00  0.00    +0.000 C 
ATOM    110  H19 UNL A   1      38.637  23.700  28.655  1.00  0.00    +0.000 H 
ATOM     15  C11 UNL A   1      39.471  24.091  26.753  1.00  0.00    +0.000 C 
ATOM     16  C12 UNL A   1      39.151  24.387  28.081  1.00  0.00    +0.000 C 
ATOM     17  C13 UNL A   1      39.529  25.614  28.630  1.00  0.00    +0.000 C 
ATOM    111  H20 UNL A   1      39.269  25.844  29.602  1.00  0.00    +0.000 H 
ATOM     18  C14 UNL A   1      40.259  26.539  27.865  1.00  0.00    +0.000 C 
ATOM    122  H31 UNL A   1      41.119  26.898  25.967  1.00  0.00    +0.000 H 
ATOM    123  H32 UNL A   1      40.292  24.854  24.961  1.00  0.00    +0.000 H 
BRANCH   15   13
ATOM     13  C10 UNL A   1      39.072  22.779  26.200  1.00  0.00    +0.000 C 
ATOM     14  O2  UNL A   1      39.898  21.875  26.120  1.00  0.00    +0.000 O 
BRANCH   13   12
ATOM     12  N2  UNL A   1      37.787  22.578  25.765  1.00  0.00    +0.000 N 
ATOM    109  H18 UNL A   1      37.380  21.722  26.029  1.00  0.00    +0.000 H 
BRANCH   12   11
ATOM     11  C9  UNL A   1      36.941  23.451  24.968  1.00  0.00    +0.000 C 
ATOM    108  H17 UNL A   1      36.485  22.858  24.202  1.00  0.00    +0.000 H 
ATOM    107  H16 UNL A   1      37.544  24.229  24.550  1.00  0.00    +0.000 H 
BRANCH   11   10
ATOM    105  H14 UNL A   1      35.336  23.308  26.344  1.00  0.00    +0.000 H 
ATOM     10  C8  UNL A   1      35.827  24.083  25.795  1.00  0.00    +0.000 C 
ATOM    106  H15 UNL A   1      36.294  24.812  26.425  1.00  0.00    +0.000 H 
BRANCH   10    9
ATOM      9  C7  UNL A   1      34.772  24.831  24.976  1.00  0.00    +0.000 C 
ATOM    103  H12 UNL A   1      35.231  25.704  24.561  1.00  0.00    +0.000 H 
ATOM    104  H13 UNL A   1      34.425  24.141  24.235  1.00  0.00    +0.000 H 
BRANCH    9    8
ATOM    101  H10 UNL A   1      32.668  24.925  25.241  1.00  0.00    +0.000 H 
ATOM    102  H11 UNL A   1      33.638  24.852  26.743  1.00  0.00    +0.000 H 
ATOM      8  C6  UNL A   1      33.534  25.272  25.764  1.00  0.00    +0.000 C 
BRANCH    8    7
ATOM     99  H8  UNL A   1      34.040  27.083  26.763  1.00  0.00    +0.000 H 
ATOM    100  H9  UNL A   1      33.658  27.248  25.032  1.00  0.00    +0.000 H 
ATOM      7  C5  UNL A   1      33.395  26.788  25.962  1.00  0.00    +0.000 C 
BRANCH    7    6
ATOM     97  H6  UNL A   1      31.323  26.392  26.297  1.00  0.00    +0.000 H 
ATOM     98  H7  UNL A   1      31.977  27.707  27.260  1.00  0.00    +0.000 H 
ATOM      6  C4  UNL A   1      31.972  27.243  26.296  1.00  0.00    +0.000 C 
BRANCH    6    5
ATOM      5  N1  UNL A   1      31.499  28.201  25.321  1.00  0.00    +0.000 N 
ATOM     96  H5  UNL A   1      30.900  28.898  25.673  1.00  0.00    +0.000 H 
BRANCH    5    3
ATOM      3  C3  UNL A   1      31.763  28.283  23.983  1.00  0.00    +0.000 C 
ATOM      4  O1  UNL A   1      32.688  29.023  23.644  1.00  0.00    +0.000 O 
BRANCH    3    2
ATOM      2  C2  UNL A   1      30.869  27.535  22.986  1.00  0.00    +0.000 C 
ATOM     95  H4  UNL A   1      31.032  27.999  22.035  1.00  0.00    +0.000 H 
BRANCH    2    1
ATOM      1  C1  UNL A   1      29.370  27.690  23.274  1.00  0.00    +0.000 C 
ATOM     92  H1  UNL A   1      28.909  28.233  22.476  1.00  0.00    +0.000 H 
ATOM     93  H2  UNL A   1      29.237  28.223  24.193  1.00  0.00    +0.000 H 
ATOM     94  H3  UNL A   1      28.921  26.723  23.355  1.00  0.00    +0.000 H 
ENDBRANCH    2    1
BRANCH    2   78
ATOM    137  H46 UNL A   1      33.618  24.046  21.592  1.00  0.00    +0.000 H 
ATOM     78  C55 UNL A   1      31.266  26.071  22.880  1.00  0.00    +0.000 C 
ATOM     79  C56 UNL A   1      30.481  25.088  23.500  1.00  0.00    +0.000 C 
ATOM     80  C57 UNL A   1      30.868  23.746  23.466  1.00  0.00    +0.000 C 
ATOM     81  C58 UNL A   1      32.057  23.359  22.837  1.00  0.00    +0.000 C 
ATOM     89  C65 UNL A   1      32.785  24.325  22.132  1.00  0.00    +0.000 C 
ATOM     90  C66 UNL A   1      32.388  25.657  22.157  1.00  0.00    +0.000 C 
ATOM     91  F16 UNL A   1      33.141  26.550  21.499  1.00  0.00    +0.000 F 
ATOM    124  H33 UNL A   1      29.611  25.358  23.983  1.00  0.00    +0.000 H 
ATOM    125  H34 UNL A   1      30.271  23.032  23.910  1.00  0.00    +0.000 H 
BRANCH   81   82
ATOM     82  C59 UNL A   1      32.569  21.945  22.928  1.00  0.00    +0.000 C 
ATOM    126  H35 UNL A   1      33.632  21.980  22.807  1.00  0.00    +0.000 H 
ATOM    127  H36 UNL A   1      32.040  21.413  22.166  1.00  0.00    +0.000 H 
BRANCH   82   83
ATOM    129  H38 UNL A   1      32.411  21.648  26.321  1.00  0.00    +0.000 H 
ATOM    130  H39 UNL A   1      33.421  22.635  25.321  1.00  0.00    +0.000 H 
ATOM    131  H40 UNL A   1      34.195  20.290  26.684  1.00  0.00    +0.000 H 
ATOM    132  H41 UNL A   1      35.150  21.128  25.513  1.00  0.00    +0.000 H 
ATOM    133  H42 UNL A   1      34.133  18.564  25.188  1.00  0.00    +0.000 H 
ATOM    134  H43 UNL A   1      34.680  19.536  23.885  1.00  0.00    +0.000 H 
ATOM    135  H44 UNL A   1      31.871  19.146  24.894  1.00  0.00    +0.000 H 
ATOM     83  C60 UNL A   1      32.277  21.162  24.230  1.00  0.00    +0.000 C 
ATOM     84  C61 UNL A   1      33.053  21.642  25.464  1.00  0.00    +0.000 C 
ATOM     85  C62 UNL A   1      34.205  20.655  25.679  1.00  0.00    +0.000 C 
ATOM     86  C63 UNL A   1      33.989  19.505  24.701  1.00  0.00    +0.000 C 
ATOM     87  C64 UNL A   1      32.545  19.653  24.236  1.00  0.00    +0.000 C 
ATOM    128  H37 UNL A   1      31.227  21.364  24.271  1.00  0.00    +0.000 H 
BRANCH   87   88
ATOM    136  H45 UNL A   1      31.650  19.553  22.492  1.00  0.00    +0.000 H 
ATOM     88  O3  UNL A   1      32.281  19.019  23.001  1.00  0.00    +0.000 O 
ENDBRANCH   87   88
ENDBRANCH   82   83
ENDBRANCH   81   82
ENDBRANCH    2   78
ENDBRANCH    3    2
ENDBRANCH    5    3
ENDBRANCH    6    5
ENDBRANCH    7    6
ENDBRANCH    8    7
ENDBRANCH    9    8
ENDBRANCH   10    9
ENDBRANCH   11   10
ENDBRANCH   12   11
ENDBRANCH   13   12
ENDBRANCH   15   13
ENDBRANCH   19   18
BRANCH   23   24
ATOM     33  C24 UNL A   1      47.271  29.013  28.819  1.00  0.00    +0.000 C 
ATOM     34  F5  UNL A   1      46.861  29.629  27.700  1.00  0.00    +0.000 F 
ATOM     24  C19 UNL A   1      46.433  28.956  29.943  1.00  0.00    +0.000 C 
ATOM     25  C20 UNL A   1      46.913  28.296  31.085  1.00  0.00    +0.000 C 
ATOM     26  F1  UNL A   1      46.156  28.223  32.190  1.00  0.00    +0.000 F 
ATOM     27  C21 UNL A   1      48.191  27.745  31.110  1.00  0.00    +0.000 C 
ATOM     28  F2  UNL A   1      48.647  27.167  32.231  1.00  0.00    +0.000 F 
ATOM     29  C22 UNL A   1      49.000  27.810  29.987  1.00  0.00    +0.000 C 
ATOM     30  F3  UNL A   1      50.230  27.278  30.011  1.00  0.00    +0.000 F 
ATOM     31  C23 UNL A   1      48.538  28.435  28.838  1.00  0.00    +0.000 C 
ATOM     32  F4  UNL A   1      49.314  28.489  27.747  1.00  0.00    +0.000 F 
ENDBRANCH   23   24
BRANCH   40   41
ATOM     41  C30 UNL A   1      43.252  35.207  31.628  1.00  0.00    +0.000 C 
ATOM     42  C31 UNL A   1      43.286  35.502  32.999  1.00  0.00    +0.000 C 
ATOM     43  F6  UNL A   1      42.915  34.577  33.897  1.00  0.00    +0.000 F 
ATOM     44  C32 UNL A   1      43.663  36.763  33.450  1.00  0.00    +0.000 C 
ATOM     45  F7  UNL A   1      43.642  37.038  34.762  1.00  0.00    +0.000 F 
ATOM     46  C33 UNL A   1      44.045  37.742  32.544  1.00  0.00    +0.000 C 
ATOM     47  F8  UNL A   1      44.412  38.954  32.981  1.00  0.00    +0.000 F 
ATOM     48  C34 UNL A   1      44.038  37.466  31.185  1.00  0.00    +0.000 C 
ATOM     49  F9  UNL A   1      44.418  38.406  30.309  1.00  0.00    +0.000 F 
ATOM     50  C35 UNL A   1      43.634  36.215  30.729  1.00  0.00    +0.000 C 
ATOM     51  F10 UNL A   1      43.624  35.982  29.409  1.00  0.00    +0.000 F 
ENDBRANCH   40   41
BRANCH   55   56
ATOM     65  C44 UNL A   1      36.218  32.284  30.888  1.00  0.00    +0.000 C 
ATOM     66  F15 UNL A   1      36.616  31.572  31.953  1.00  0.00    +0.000 F 
ATOM     56  C39 UNL A   1      37.099  32.499  29.819  1.00  0.00    +0.000 C 
ATOM     57  C40 UNL A   1      36.633  33.246  28.727  1.00  0.00    +0.000 C 
ATOM     58  F11 UNL A   1      37.446  33.495  27.690  1.00  0.00    +0.000 F 
ATOM     59  C41 UNL A   1      35.343  33.772  28.714  1.00  0.00    +0.000 C 
ATOM     60  F12 UNL A   1      34.937  34.518  27.678  1.00  0.00    +0.000 F 
ATOM     61  C42 UNL A   1      34.485  33.538  29.779  1.00  0.00    +0.000 C 
ATOM     62  F13 UNL A   1      33.244  34.042  29.766  1.00  0.00    +0.000 F 
ATOM     63  C43 UNL A   1      34.921  32.789  30.862  1.00  0.00    +0.000 C 
ATOM     64  F14 UNL A   1      34.091  32.550  31.887  1.00  0.00    +0.000 F 
ENDBRANCH   55   56
TORSDOF 20
ENDMDL
MODEL 3
REMARK VINA RESULT:     -10.6      1.064      2.102
ROOT
ATOM     19  C15 UNL A   1      38.226  29.895  29.828  1.00  0.00    +0.000 C 
ATOM     20  C16 UNL A   1      38.455  30.419  31.219  1.00  0.00    +0.000 C 
ATOM     21  N3  UNL A   1      39.493  30.265  32.003  1.00  0.00    +0.000 N 
ATOM     22  C17 UNL A   1      39.210  30.992  33.151  1.00  0.00    +0.000 C 
ATOM     23  C18 UNL A   1      39.942  31.101  34.285  1.00  0.00    +0.000 C 
ATOM     35  C25 UNL A   1      41.201  30.437  34.503  1.00  0.00    +0.000 C 
ATOM     36  C26 UNL A   1      41.988  30.426  35.641  1.00  0.00    +0.000 C 
ATOM     37  C27 UNL A   1      43.140  29.681  35.370  1.00  0.00    +0.000 C 
ATOM     38  C28 UNL A   1      43.051  29.189  34.078  1.00  0.00    +0.000 C 
ATOM     39  N4  UNL A   1      41.858  29.665  33.556  1.00  0.00    +0.000 N 
ATOM     40  C29 UNL A   1      43.983  28.349  33.369  1.00  0.00    +0.000 C 
ATOM     52  C36 UNL A   1      43.820  27.905  32.100  1.00  0.00    +0.000 C 
ATOM     53  N5  UNL A   1      42.766  28.129  31.225  1.00  0.00    +0.000 N 
ATOM     54  C37 UNL A   1      43.075  27.499  30.118  1.00  0.00    +0.000 C 
ATOM     55  C38 UNL A   1      42.285  27.368  28.844  1.00  0.00    +0.000 C 
ATOM     67  C45 UNL A   1      41.079  27.959  28.756  1.00  0.00    +0.000 C 
ATOM     68  C46 UNL A   1      40.192  27.910  27.596  1.00  0.00    +0.000 C 
ATOM     69  C47 UNL A   1      39.085  28.623  27.861  1.00  0.00    +0.000 C 
ATOM     70  C48 UNL A   1      39.172  29.153  29.222  1.00  0.00    +0.000 C 
ATOM     71  N6  UNL A   1      40.393  28.719  29.671  1.00  0.00    +0.000 N 
ATOM     72  C49 UNL A   1      44.382  26.826  30.156  1.00  0.00    +0.000 C 
ATOM     73  C50 UNL A   1      44.773  27.069  31.398  1.00  0.00    +0.000 C 
ATOM     74  C51 UNL A   1      37.928  31.630  32.943  1.00  0.00    +0.000 C 
ATOM     75  C52 UNL A   1      37.387  31.252  31.795  1.00  0.00    +0.000 C 
ATOM    112  H21 UNL A   1      41.763  30.889  36.536  1.00  0.00    +0.000 H 
ATOM    113  H22 UNL A   1      43.925  29.525  36.022  1.00  0.00    +0.000 H 
ATOM    114  H23 UNL A   1      41.526  29.481  32.648  1.00  0.00    +0.000 H 
ATOM    115  H24 UNL A   1      40.386  27.408  26.716  1.00  0.00    +0.000 H 
ATOM    116  H25 UNL A   1      38.300  28.772  27.209  1.00  0.00    +0.000 H 
ATOM    117  H26 UNL A   1      40.746  28.934  30.566  1.00  0.00    +0.000 H 
ATOM    118  H27 UNL A   1      44.866  26.303  29.410  1.00  0.00    +0.000 H 
ATOM    119  H28 UNL A   1      45.646  26.709  31.814  1.00  0.00    +0.000 H 
ATOM    120  H29 UNL A   1      37.493  32.294  33.603  1.00  0.00    +0.000 H 
ATOM    121  H30 UNL A   1      36.459  31.480  31.406  1.00  0.00    +0.000 H 
ENDROOT
BRANCH   19   18
ATOM     76  C53 UNL A   1      35.991  29.268  28.912  1.00  0.00    +0.000 C 
ATOM     77  C54 UNL A   1      34.838  29.566  28.190  1.00  0.00    +0.000 C 
ATOM    110  H19 UNL A   1      35.454  32.802  27.541  1.00  0.00    +0.000 H 
ATOM     15  C11 UNL A   1      34.618  30.870  27.734  1.00  0.00    +0.000 C 
ATOM     16  C12 UNL A   1      35.603  31.848  27.905  1.00  0.00    +0.000 C 
ATOM     17  C13 UNL A   1      36.788  31.529  28.570  1.00  0.00    +0.000 C 
ATOM    111  H20 UNL A   1      37.527  32.243  28.673  1.00  0.00    +0.000 H 
ATOM     18  C14 UNL A   1      36.983  30.243  29.098  1.00  0.00    +0.000 C 
ATOM    122  H31 UNL A   1      36.116  28.326  29.313  1.00  0.00    +0.000 H 
ATOM    123  H32 UNL A   1      34.148  28.826  27.990  1.00  0.00    +0.000 H 
BRANCH   15   13
ATOM     13  C10 UNL A   1      33.365  31.237  27.039  1.00  0.00    +0.000 C 
ATOM     14  O2  UNL A   1      32.767  32.260  27.359  1.00  0.00    +0.000 O 
BRANCH   13   12
ATOM     12  N2  UNL A   1      32.865  30.428  26.050  1.00  0.00    +0.000 N 
ATOM    109  H18 UNL A   1      33.166  30.641  25.138  1.00  0.00    +0.000 H 
BRANCH   12   11
ATOM     11  C9  UNL A   1      31.954  29.301  26.160  1.00  0.00    +0.000 C 
ATOM    108  H17 UNL A   1      31.185  29.427  25.426  1.00  0.00    +0.000 H 
ATOM    107  H16 UNL A   1      31.547  29.281  27.149  1.00  0.00    +0.000 H 
BRANCH   11   10
ATOM    105  H14 UNL A   1      33.475  27.881  26.560  1.00  0.00    +0.000 H 
ATOM     10  C8  UNL A   1      32.648  27.972  25.887  1.00  0.00    +0.000 C 
ATOM    106  H15 UNL A   1      31.910  27.210  26.025  1.00  0.00    +0.000 H 
BRANCH   10    9
ATOM      9  C7  UNL A   1      33.175  27.810  24.459  1.00  0.00    +0.000 C 
ATOM    103  H12 UNL A   1      32.360  27.965  23.784  1.00  0.00    +0.000 H 
ATOM    104  H13 UNL A   1      33.960  28.530  24.347  1.00  0.00    +0.000 H 
BRANCH    9    8
ATOM    101  H10 UNL A   1      33.140  25.924  23.487  1.00  0.00    +0.000 H 
ATOM    102  H11 UNL A   1      34.760  26.646  23.725  1.00  0.00    +0.000 H 
ATOM      8  C6  UNL A   1      33.798  26.446  24.149  1.00  0.00    +0.000 C 
BRANCH    8    7
ATOM     99  H8  UNL A   1      34.406  26.167  26.171  1.00  0.00    +0.000 H 
ATOM    100  H9  UNL A   1      33.119  25.076  25.605  1.00  0.00    +0.000 H 
ATOM      7  C5  UNL A   1      34.049  25.552  25.373  1.00  0.00    +0.000 C 
BRANCH    7    6
ATOM     97  H6  UNL A   1      35.727  24.731  24.337  1.00  0.00    +0.000 H 
ATOM     98  H7  UNL A   1      35.624  24.275  26.029  1.00  0.00    +0.000 H 
ATOM      6  C4  UNL A   1      35.069  24.437  25.129  1.00  0.00    +0.000 C 
BRANCH    6    5
ATOM      5  N1  UNL A   1      34.405  23.206  24.763  1.00  0.00    +0.000 N 
ATOM     96  H5  UNL A   1      34.706  22.801  23.918  1.00  0.00    +0.000 H 
BRANCH    5    3
ATOM      3  C3  UNL A   1      33.421  22.520  25.417  1.00  0.00    +0.000 C 
ATOM      4  O1  UNL A   1      33.705  22.067  26.527  1.00  0.00    +0.000 O 
BRANCH    3    2
ATOM      2  C2  UNL A   1      32.073  22.282  24.726  1.00  0.00    +0.000 C 
ATOM     95  H4  UNL A   1      31.544  21.582  25.339  1.00  0.00    +0.000 H 
BRANCH    2    1
ATOM      1  C1  UNL A   1      32.202  21.619  23.349  1.00  0.00    +0.000 C 
ATOM     92  H1  UNL A   1      33.104  21.949  22.878  1.00  0.00    +0.000 H 
ATOM     93  H2  UNL A   1      31.363  21.890  22.743  1.00  0.00    +0.000 H 
ATOM     94  H3  UNL A   1      32.228  20.556  23.466  1.00  0.00    +0.000 H 
ENDBRANCH    2    1
BRANCH    2   78
ATOM    137  H46 UNL A   1      29.751  25.868  26.577  1.00  0.00    +0.000 H 
ATOM     78  C55 UNL A   1      31.258  23.565  24.650  1.00  0.00    +0.000 C 
ATOM     79  C56 UNL A   1      30.952  24.125  23.402  1.00  0.00    +0.000 C 
ATOM     80  C57 UNL A   1      30.260  25.336  23.318  1.00  0.00    +0.000 C 
ATOM     81  C58 UNL A   1      29.882  26.026  24.476  1.00  0.00    +0.000 C 
ATOM     89  C65 UNL A   1      30.097  25.416  25.717  1.00  0.00    +0.000 C 
ATOM     90  C66 UNL A   1      30.773  24.203  25.795  1.00  0.00    +0.000 C 
ATOM     91  F16 UNL A   1      30.989  23.680  27.010  1.00  0.00    +0.000 F 
ATOM    124  H33 UNL A   1      31.239  23.639  22.539  1.00  0.00    +0.000 H 
ATOM    125  H34 UNL A   1      30.026  25.726  22.393  1.00  0.00    +0.000 H 
BRANCH   81   82
ATOM     82  C59 UNL A   1      29.279  27.405  24.406  1.00  0.00    +0.000 C 
ATOM    126  H35 UNL A   1      29.943  28.071  24.917  1.00  0.00    +0.000 H 
ATOM    127  H36 UNL A   1      28.309  27.302  24.844  1.00  0.00    +0.000 H 
BRANCH   82   83
ATOM    129  H38 UNL A   1      30.290  28.785  21.456  1.00  0.00    +0.000 H 
ATOM    130  H39 UNL A   1      31.011  28.831  23.028  1.00  0.00    +0.000 H 
ATOM    131  H40 UNL A   1      29.610  30.929  21.768  1.00  0.00    +0.000 H 
ATOM    132  H41 UNL A   1      30.120  30.917  23.419  1.00  0.00    +0.000 H 
ATOM    133  H42 UNL A   1      27.474  30.924  22.577  1.00  0.00    +0.000 H 
ATOM    134  H43 UNL A   1      27.961  30.467  24.157  1.00  0.00    +0.000 H 
ATOM    135  H44 UNL A   1      27.379  28.708  21.784  1.00  0.00    +0.000 H 
ATOM     83  C60 UNL A   1      29.017  27.999  23.002  1.00  0.00    +0.000 C 
ATOM     84  C61 UNL A   1      30.095  28.965  22.494  1.00  0.00    +0.000 C 
ATOM     85  C62 UNL A   1      29.552  30.384  22.687  1.00  0.00    +0.000 C 
ATOM     86  C63 UNL A   1      28.096  30.243  23.120  1.00  0.00    +0.000 C 
ATOM     87  C64 UNL A   1      27.728  28.801  22.791  1.00  0.00    +0.000 C 
ATOM    128  H37 UNL A   1      28.980  27.071  22.472  1.00  0.00    +0.000 H 
BRANCH   87   88
ATOM    136  H45 UNL A   1      25.931  28.022  22.919  1.00  0.00    +0.000 H 
ATOM     88  O3  UNL A   1      26.625  28.317  23.530  1.00  0.00    +0.000 O 
ENDBRANCH   87   88
ENDBRANCH   82   83
ENDBRANCH   81   82
ENDBRANCH    2   78
ENDBRANCH    3    2
ENDBRANCH    5    3
ENDBRANCH    6    5
ENDBRANCH    7    6
ENDBRANCH    8    7
ENDBRANCH    9    8
ENDBRANCH   10    9
ENDBRANCH   11   10
ENDBRANCH   12   11
ENDBRANCH   13   12
ENDBRANCH   15   13
ENDBRANCH   19   18
BRANCH   23   24
ATOM     33  C24 UNL A   1      38.546  31.433  36.359  1.00  0.00    +0.000 C 
ATOM     34  F5  UNL A   1      38.224  30.132  36.335  1.00  0.00    +0.000 F 
ATOM     24  C19 UNL A   1      39.397  31.970  35.381  1.00  0.00    +0.000 C 
ATOM     25  C20 UNL A   1      39.697  33.339  35.453  1.00  0.00    +0.000 C 
ATOM     26  F1  UNL A   1      40.514  33.900  34.549  1.00  0.00    +0.000 F 
ATOM     27  C21 UNL A   1      39.194  34.130  36.483  1.00  0.00    +0.000 C 
ATOM     28  F2  UNL A   1      39.539  35.423  36.562  1.00  0.00    +0.000 F 
ATOM     29  C22 UNL A   1      38.353  33.579  37.436  1.00  0.00    +0.000 C 
ATOM     30  F3  UNL A   1      37.867  34.341  38.426  1.00  0.00    +0.000 F 
ATOM     31  C23 UNL A   1      38.021  32.234  37.371  1.00  0.00    +0.000 C 
ATOM     32  F4  UNL A   1      37.198  31.702  38.285  1.00  0.00    +0.000 F 
ENDBRANCH   23   24
BRANCH   40   41
ATOM     41  C30 UNL A   1      45.218  27.907  34.098  1.00  0.00    +0.000 C 
ATOM     42  C31 UNL A   1      45.249  26.718  34.840  1.00  0.00    +0.000 C 
ATOM     43  F6  UNL A   1      44.146  25.963  34.951  1.00  0.00    +0.000 F 
ATOM     44  C32 UNL A   1      46.405  26.321  35.506  1.00  0.00    +0.000 C 
ATOM     45  F7  UNL A   1      46.399  25.206  36.249  1.00  0.00    +0.000 F 
ATOM     46  C33 UNL A   1      47.559  27.086  35.415  1.00  0.00    +0.000 C 
ATOM     47  F8  UNL A   1      48.672  26.699  36.054  1.00  0.00    +0.000 F 
ATOM     48  C34 UNL A   1      47.556  28.255  34.670  1.00  0.00    +0.000 C 
ATOM     49  F9  UNL A   1      48.673  28.989  34.571  1.00  0.00    +0.000 F 
ATOM     50  C35 UNL A   1      46.394  28.669  34.027  1.00  0.00    +0.000 C 
ATOM     51  F10 UNL A   1      46.417  29.812  33.325  1.00  0.00    +0.000 F 
ENDBRANCH   40   41
BRANCH   55   56
ATOM     65  C44 UNL A   1      43.660  27.112  26.749  1.00  0.00    +0.000 C 
ATOM     66  F15 UNL A   1      44.030  28.398  26.837  1.00  0.00    +0.000 F 
ATOM     56  C39 UNL A   1      42.800  26.561  27.709  1.00  0.00    +0.000 C 
ATOM     57  C40 UNL A   1      42.440  25.213  27.569  1.00  0.00    +0.000 C 
ATOM     58  F11 UNL A   1      41.636  24.637  28.474  1.00  0.00    +0.000 F 
ATOM     59  C41 UNL A   1      42.936  24.442  26.520  1.00  0.00    +0.000 C 
ATOM     60  F12 UNL A   1      42.610  23.145  26.433  1.00  0.00    +0.000 F 
ATOM     61  C42 UNL A   1      43.779  25.011  25.576  1.00  0.00    +0.000 C 
ATOM     62  F13 UNL A   1      44.253  24.270  24.566  1.00  0.00    +0.000 F 
ATOM     63  C43 UNL A   1      44.135  26.347  25.686  1.00  0.00    +0.000 C 
ATOM     64  F14 UNL A   1      44.938  26.903  24.769  1.00  0.00    +0.000 F 
ENDBRANCH   55   56
TORSDOF 20
ENDMDL
MODEL 4
REMARK VINA RESULT:     -10.5      1.859      4.048
ROOT
ATOM     19  C15 UNL A   1      38.259  29.828  29.873  1.00  0.00    +0.000 C 
ATOM     20  C16 UNL A   1      38.491  30.370  31.256  1.00  0.00    +0.000 C 
ATOM     21  N3  UNL A   1      39.525  30.213  32.045  1.00  0.00    +0.000 N 
ATOM     22  C17 UNL A   1      39.249  30.962  33.181  1.00  0.00    +0.000 C 
ATOM     23  C18 UNL A   1      39.980  31.078  34.316  1.00  0.00    +0.000 C 
ATOM     35  C25 UNL A   1      41.229  30.401  34.547  1.00  0.00    +0.000 C 
ATOM     36  C26 UNL A   1      42.013  30.397  35.687  1.00  0.00    +0.000 C 
ATOM     37  C27 UNL A   1      43.156  29.632  35.430  1.00  0.00    +0.000 C 
ATOM     38  C28 UNL A   1      43.063  29.122  34.145  1.00  0.00    +0.000 C 
ATOM     39  N4  UNL A   1      41.878  29.605  33.613  1.00  0.00    +0.000 N 
ATOM     40  C29 UNL A   1      43.985  28.258  33.453  1.00  0.00    +0.000 C 
ATOM     52  C36 UNL A   1      43.819  27.797  32.189  1.00  0.00    +0.000 C 
ATOM     53  N5  UNL A   1      42.770  28.022  31.308  1.00  0.00    +0.000 N 
ATOM     54  C37 UNL A   1      43.074  27.371  30.212  1.00  0.00    +0.000 C 
ATOM     55  C38 UNL A   1      42.285  27.231  28.938  1.00  0.00    +0.000 C 
ATOM     67  C45 UNL A   1      41.087  27.837  28.837  1.00  0.00    +0.000 C 
ATOM     68  C46 UNL A   1      40.203  27.782  27.677  1.00  0.00    +0.000 C 
ATOM     69  C47 UNL A   1      39.105  28.514  27.928  1.00  0.00    +0.000 C 
ATOM     70  C48 UNL A   1      39.195  29.063  29.281  1.00  0.00    +0.000 C 
ATOM     71  N6  UNL A   1      40.410  28.620  29.739  1.00  0.00    +0.000 N 
ATOM     72  C49 UNL A   1      44.371  26.681  30.264  1.00  0.00    +0.000 C 
ATOM     73  C50 UNL A   1      44.762  26.938  31.503  1.00  0.00    +0.000 C 
ATOM     74  C51 UNL A   1      37.976  31.614  32.960  1.00  0.00    +0.000 C 
ATOM     75  C52 UNL A   1      37.433  31.225  31.816  1.00  0.00    +0.000 C 
ATOM    112  H21 UNL A   1      41.792  30.876  36.574  1.00  0.00    +0.000 H 
ATOM    113  H22 UNL A   1      43.936  29.476  36.087  1.00  0.00    +0.000 H 
ATOM    114  H23 UNL A   1      41.546  29.412  32.707  1.00  0.00    +0.000 H 
ATOM    115  H24 UNL A   1      40.392  27.264  26.805  1.00  0.00    +0.000 H 
ATOM    116  H25 UNL A   1      38.323  28.664  27.271  1.00  0.00    +0.000 H 
ATOM    117  H26 UNL A   1      40.763  28.844  30.632  1.00  0.00    +0.000 H 
ATOM    118  H27 UNL A   1      44.850  26.140  29.528  1.00  0.00    +0.000 H 
ATOM    119  H28 UNL A   1      45.630  26.573  31.926  1.00  0.00    +0.000 H 
ATOM    120  H29 UNL A   1      37.549  32.294  33.608  1.00  0.00    +0.000 H 
ATOM    121  H30 UNL A   1      36.509  31.460  31.422  1.00  0.00    +0.000 H 
ENDROOT
BRANCH   19   18
ATOM     76  C53 UNL A   1      36.017  29.218  28.962  1.00  0.00    +0.000 C 
ATOM     77  C54 UNL A   1      34.870  29.520  28.232  1.00  0.00    +0.000 C 
ATOM    110  H19 UNL A   1      35.532  32.735  27.532  1.00  0.00    +0.000 H 
ATOM     15  C11 UNL A   1      34.669  30.819  27.755  1.00  0.00    +0.000 C 
ATOM     16  C12 UNL A   1      35.667  31.786  27.912  1.00  0.00    +0.000 C 
ATOM     17  C13 UNL A   1      36.846  31.461  28.585  1.00  0.00    +0.000 C 
ATOM    111  H20 UNL A   1      37.595  32.166  28.678  1.00  0.00    +0.000 H 
ATOM     18  C14 UNL A   1      37.021  30.181  29.134  1.00  0.00    +0.000 C 
ATOM    122  H31 UNL A   1      36.127  28.280  29.378  1.00  0.00    +0.000 H 
ATOM    123  H32 UNL A   1      34.169  28.786  28.042  1.00  0.00    +0.000 H 
BRANCH   15   13
ATOM     13  C10 UNL A   1      33.423  31.192  27.051  1.00  0.00    +0.000 C 
ATOM     14  O2  UNL A   1      32.815  32.205  27.382  1.00  0.00    +0.000 O 
BRANCH   13   12
ATOM     12  N2  UNL A   1      32.941  30.400  26.039  1.00  0.00    +0.000 N 
ATOM    109  H18 UNL A   1      33.512  30.341  25.240  1.00  0.00    +0.000 H 
BRANCH   12   11
ATOM     11  C9  UNL A   1      31.706  29.636  25.982  1.00  0.00    +0.000 C 
ATOM    108  H17 UNL A   1      31.630  29.206  25.004  1.00  0.00    +0.000 H 
ATOM    107  H16 UNL A   1      30.884  30.292  26.182  1.00  0.00    +0.000 H 
BRANCH   11   10
ATOM    105  H14 UNL A   1      32.313  28.772  27.819  1.00  0.00    +0.000 H 
ATOM     10  C8  UNL A   1      31.685  28.499  26.996  1.00  0.00    +0.000 C 
ATOM    106  H15 UNL A   1      30.662  28.362  27.278  1.00  0.00    +0.000 H 
BRANCH   10    9
ATOM      9  C7  UNL A   1      32.170  27.152  26.453  1.00  0.00    +0.000 C 
ATOM    103  H12 UNL A   1      32.042  26.419  27.222  1.00  0.00    +0.000 H 
ATOM    104  H13 UNL A   1      31.585  26.955  25.579  1.00  0.00    +0.000 H 
BRANCH    9    8
ATOM    101  H10 UNL A   1      33.951  28.133  25.844  1.00  0.00    +0.000 H 
ATOM    102  H11 UNL A   1      34.174  26.626  26.784  1.00  0.00    +0.000 H 
ATOM      8  C6  UNL A   1      33.634  27.124  26.006  1.00  0.00    +0.000 C 
BRANCH    8    7
ATOM     99  H8  UNL A   1      34.934  26.029  24.722  1.00  0.00    +0.000 H 
ATOM    100  H9  UNL A   1      33.236  25.495  24.724  1.00  0.00    +0.000 H 
ATOM      7  C5  UNL A   1      33.907  26.328  24.721  1.00  0.00    +0.000 C 
BRANCH    7    6
ATOM     97  H6  UNL A   1      33.826  28.151  23.610  1.00  0.00    +0.000 H 
ATOM     98  H7  UNL A   1      34.276  26.742  22.664  1.00  0.00    +0.000 H 
ATOM      6  C4  UNL A   1      33.634  27.113  23.435  1.00  0.00    +0.000 C 
BRANCH    6    5
ATOM      5  N1  UNL A   1      32.259  26.948  23.017  1.00  0.00    +0.000 N 
ATOM     96  H5  UNL A   1      31.650  27.675  23.279  1.00  0.00    +0.000 H 
BRANCH    5    3
ATOM      3  C3  UNL A   1      31.681  25.933  22.310  1.00  0.00    +0.000 C 
ATOM      4  O1  UNL A   1      31.856  25.935  21.090  1.00  0.00    +0.000 O 
BRANCH    3    2
ATOM      2  C2  UNL A   1      30.797  24.910  23.035  1.00  0.00    +0.000 C 
ATOM     95  H4  UNL A   1      30.215  24.430  22.277  1.00  0.00    +0.000 H 
BRANCH    2    1
ATOM      1  C1  UNL A   1      29.788  25.549  23.997  1.00  0.00    +0.000 C 
ATOM     92  H1  UNL A   1      30.312  26.111  24.741  1.00  0.00    +0.000 H 
ATOM     93  H2  UNL A   1      29.212  24.781  24.470  1.00  0.00    +0.000 H 
ATOM     94  H3  UNL A   1      29.136  26.198  23.451  1.00  0.00    +0.000 H 
ENDBRANCH    2    1
BRANCH    2   78
ATOM    137  H46 UNL A   1      33.951  21.487  23.148  1.00  0.00    +0.000 H 
ATOM     78  C55 UNL A   1      31.638  23.853  23.735  1.00  0.00    +0.000 C 
ATOM     79  C56 UNL A   1      31.540  23.689  25.123  1.00  0.00    +0.000 C 
ATOM     80  C57 UNL A   1      32.352  22.767  25.788  1.00  0.00    +0.000 C 
ATOM     81  C58 UNL A   1      33.297  22.008  25.087  1.00  0.00    +0.000 C 
ATOM     89  C65 UNL A   1      33.321  22.098  23.691  1.00  0.00    +0.000 C 
ATOM     90  C66 UNL A   1      32.501  23.007  23.031  1.00  0.00    +0.000 C 
ATOM     91  F16 UNL A   1      32.591  23.083  21.696  1.00  0.00    +0.000 F 
ATOM    124  H33 UNL A   1      30.862  24.253  25.659  1.00  0.00    +0.000 H 
ATOM    125  H34 UNL A   1      32.256  22.644  26.808  1.00  0.00    +0.000 H 
BRANCH   81   82
ATOM     82  C59 UNL A   1      34.287  21.128  25.805  1.00  0.00    +0.000 C 
ATOM    126  H35 UNL A   1      34.465  20.274  25.186  1.00  0.00    +0.000 H 
ATOM    127  H36 UNL A   1      33.834  20.922  26.751  1.00  0.00    +0.000 H 
BRANCH   82   83
ATOM    129  H38 UNL A   1      36.298  23.670  26.866  1.00  0.00    +0.000 H 
ATOM    130  H39 UNL A   1      34.765  23.705  26.064  1.00  0.00    +0.000 H 
ATOM    131  H40 UNL A   1      37.276  24.249  24.900  1.00  0.00    +0.000 H 
ATOM    132  H41 UNL A   1      35.792  24.064  24.035  1.00  0.00    +0.000 H 
ATOM    133  H42 UNL A   1      37.971  22.355  23.827  1.00  0.00    +0.000 H 
ATOM    134  H43 UNL A   1      36.385  21.929  23.329  1.00  0.00    +0.000 H 
ATOM    135  H44 UNL A   1      37.771  21.315  25.930  1.00  0.00    +0.000 H 
ATOM     83  C60 UNL A   1      35.665  21.742  26.154  1.00  0.00    +0.000 C 
ATOM     84  C61 UNL A   1      35.742  23.270  26.043  1.00  0.00    +0.000 C 
ATOM     85  C62 UNL A   1      36.455  23.586  24.725  1.00  0.00    +0.000 C 
ATOM     86  C63 UNL A   1      36.961  22.260  24.168  1.00  0.00    +0.000 C 
ATOM     87  C64 UNL A   1      36.880  21.287  25.339  1.00  0.00    +0.000 C 
ATOM    128  H37 UNL A   1      35.719  21.375  27.158  1.00  0.00    +0.000 H 
BRANCH   87   88
ATOM    136  H45 UNL A   1      36.360  19.857  24.100  1.00  0.00    +0.000 H 
ATOM     88  O3  UNL A   1      36.832  19.931  24.945  1.00  0.00    +0.000 O 
ENDBRANCH   87   88
ENDBRANCH   82   83
ENDBRANCH   81   82
ENDBRANCH    2   78
ENDBRANCH    3    2
ENDBRANCH    5    3
ENDBRANCH    6    5
ENDBRANCH    7    6
ENDBRANCH    8    7
ENDBRANCH    9    8
ENDBRANCH   10    9
ENDBRANCH   11   10
ENDBRANCH   12   11
ENDBRANCH   13   12
ENDBRANCH   15   13
ENDBRANCH   19   18
BRANCH   23   24
ATOM     33  C24 UNL A   1      39.842  33.314  35.473  1.00  0.00    +0.000 C 
ATOM     34  F5  UNL A   1      40.696  33.819  34.570  1.00  0.00    +0.000 F 
ATOM     24  C19 UNL A   1      39.443  31.971  35.396  1.00  0.00    +0.000 C 
ATOM     25  C20 UNL A   1      38.552  31.495  36.370  1.00  0.00    +0.000 C 
ATOM     26  F1  UNL A   1      38.130  30.223  36.335  1.00  0.00    +0.000 F 
ATOM     27  C21 UNL A   1      38.053  32.340  37.359  1.00  0.00    +0.000 C 
ATOM     28  F2  UNL A   1      37.160  31.876  38.245  1.00  0.00    +0.000 F 
ATOM     29  C22 UNL A   1      38.464  33.662  37.417  1.00  0.00    +0.000 C 
ATOM     30  F3  UNL A   1      37.985  34.474  38.371  1.00  0.00    +0.000 F 
ATOM     31  C23 UNL A   1      39.364  34.148  36.481  1.00  0.00    +0.000 C 
ATOM     32  F4  UNL A   1      39.771  35.423  36.543  1.00  0.00    +0.000 F 
ENDBRANCH   23   24
BRANCH   40   41
ATOM     41  C30 UNL A   1      45.212  27.811  34.191  1.00  0.00    +0.000 C 
ATOM     42  C31 UNL A   1      46.403  28.550  34.155  1.00  0.00    +0.000 C 
ATOM     43  F6  UNL A   1      46.484  29.665  33.414  1.00  0.00    +0.000 F 
ATOM     44  C32 UNL A   1      47.531  28.121  34.850  1.00  0.00    +0.000 C 
ATOM     45  F7  UNL A   1      48.673  28.817  34.763  1.00  0.00    +0.000 F 
ATOM     46  C33 UNL A   1      47.480  26.967  35.618  1.00  0.00    +0.000 C 
ATOM     47  F8  UNL A   1      48.565  26.559  36.289  1.00  0.00    +0.000 F 
ATOM     48  C34 UNL A   1      46.306  26.232  35.684  1.00  0.00    +0.000 C 
ATOM     49  F9  UNL A   1      46.250  25.124  36.435  1.00  0.00    +0.000 F 
ATOM     50  C35 UNL A   1      45.185  26.642  34.967  1.00  0.00    +0.000 C 
ATOM     51  F10 UNL A   1      44.068  25.903  35.038  1.00  0.00    +0.000 F 
ENDBRANCH   40   41
BRANCH   55   56
ATOM     65  C44 UNL A   1      42.450  25.046  27.694  1.00  0.00    +0.000 C 
ATOM     66  F15 UNL A   1      41.653  24.469  28.606  1.00  0.00    +0.000 F 
ATOM     56  C39 UNL A   1      42.792  26.400  27.817  1.00  0.00    +0.000 C 
ATOM     57  C40 UNL A   1      43.631  26.954  26.839  1.00  0.00    +0.000 C 
ATOM     58  F11 UNL A   1      43.969  28.251  26.903  1.00  0.00    +0.000 F 
ATOM     59  C41 UNL A   1      44.094  26.189  25.772  1.00  0.00    +0.000 C 
ATOM     60  F12 UNL A   1      44.860  26.754  24.828  1.00  0.00    +0.000 F 
ATOM     61  C42 UNL A   1      43.750  24.849  25.675  1.00  0.00    +0.000 C 
ATOM     62  F13 UNL A   1      44.198  24.112  24.650  1.00  0.00    +0.000 F 
ATOM     63  C43 UNL A   1      42.934  24.276  26.640  1.00  0.00    +0.000 C 
ATOM     64  F14 UNL A   1      42.611  22.978  26.557  1.00  0.00    +0.000 F 
ENDBRANCH   55   56
TORSDOF 20
ENDMDL
MODEL 5
REMARK VINA RESULT:     -10.5     24.852     33.772
ROOT
ATOM     19  C15 UNL A   1      21.491  19.205   5.380  1.00  0.00    +0.000 C 
ATOM     20  C16 UNL A   1      21.224  20.190   4.276  1.00  0.00    +0.000 C 
ATOM     21  N3  UNL A   1      20.104  20.784   3.947  1.00  0.00    +0.000 N 
ATOM     22  C17 UNL A   1      20.420  21.628   2.892  1.00  0.00    +0.000 C 
ATOM     23  C18 UNL A   1      19.593  22.414   2.161  1.00  0.00    +0.000 C 
ATOM     35  C25 UNL A   1      18.171  22.503   2.365  1.00  0.00    +0.000 C 
ATOM     36  C26 UNL A   1      17.236  23.215   1.635  1.00  0.00    +0.000 C 
ATOM     37  C27 UNL A   1      15.983  23.031   2.231  1.00  0.00    +0.000 C 
ATOM     38  C28 UNL A   1      16.130  22.168   3.304  1.00  0.00    +0.000 C 
ATOM     39  N4  UNL A   1      17.478  21.855   3.377  1.00  0.00    +0.000 N 
ATOM     40  C29 UNL A   1      15.118  21.665   4.198  1.00  0.00    +0.000 C 
ATOM     52  C36 UNL A   1      15.344  20.814   5.228  1.00  0.00    +0.000 C 
ATOM     53  N5  UNL A   1      16.539  20.243   5.644  1.00  0.00    +0.000 N 
ATOM     54  C37 UNL A   1      16.243  19.504   6.685  1.00  0.00    +0.000 C 
ATOM     55  C38 UNL A   1      17.141  18.629   7.517  1.00  0.00    +0.000 C 
ATOM     67  C45 UNL A   1      18.448  18.545   7.207  1.00  0.00    +0.000 C 
ATOM     68  C46 UNL A   1      19.436  17.730   7.908  1.00  0.00    +0.000 C 
ATOM     69  C47 UNL A   1      20.637  17.906   7.332  1.00  0.00    +0.000 C 
ATOM     70  C48 UNL A   1      20.495  18.822   6.199  1.00  0.00    +0.000 C 
ATOM     71  N6  UNL A   1      19.165  19.160   6.210  1.00  0.00    +0.000 N 
ATOM     72  C49 UNL A   1      14.825  19.550   7.069  1.00  0.00    +0.000 C 
ATOM     73  C50 UNL A   1      14.316  20.327   6.125  1.00  0.00    +0.000 C 
ATOM     74  C51 UNL A   1      21.844  21.511   2.667  1.00  0.00    +0.000 C 
ATOM     75  C52 UNL A   1      22.376  20.582   3.448  1.00  0.00    +0.000 C 
ATOM    112  H21 UNL A   1      17.429  23.784   0.796  1.00  0.00    +0.000 H 
ATOM    113  H22 UNL A   1      15.099  23.467   1.923  1.00  0.00    +0.000 H 
ATOM    114  H23 UNL A   1      17.884  21.261   4.049  1.00  0.00    +0.000 H 
ATOM    115  H24 UNL A   1      19.243  17.119   8.716  1.00  0.00    +0.000 H 
ATOM    116  H25 UNL A   1      21.518  17.465   7.639  1.00  0.00    +0.000 H 
ATOM    117  H26 UNL A   1      18.762  19.785   5.563  1.00  0.00    +0.000 H 
ATOM    118  H27 UNL A   1      14.351  19.095   7.866  1.00  0.00    +0.000 H 
ATOM    119  H28 UNL A   1      13.313  20.557   6.040  1.00  0.00    +0.000 H 
ATOM    120  H29 UNL A   1      22.376  22.077   1.987  1.00  0.00    +0.000 H 
ATOM    121  H30 UNL A   1      23.344  20.227   3.470  1.00  0.00    +0.000 H 
ENDROOT
BRANCH   19   18
ATOM     76  C53 UNL A   1      23.333  17.602   4.862  1.00  0.00    +0.000 C 
ATOM     77  C54 UNL A   1      24.605  17.084   5.094  1.00  0.00    +0.000 C 
ATOM    110  H19 UNL A   1      25.627  19.252   7.444  1.00  0.00    +0.000 H 
ATOM     15  C11 UNL A   1      25.462  17.719   5.999  1.00  0.00    +0.000 C 
ATOM     16  C12 UNL A   1      25.006  18.804   6.753  1.00  0.00    +0.000 C 
ATOM     17  C13 UNL A   1      23.706  19.280   6.569  1.00  0.00    +0.000 C 
ATOM    111  H20 UNL A   1      23.360  20.063   7.144  1.00  0.00    +0.000 H 
ATOM     18  C14 UNL A   1      22.866  18.696   5.606  1.00  0.00    +0.000 C 
ATOM    122  H31 UNL A   1      22.731  17.179   4.139  1.00  0.00    +0.000 H 
ATOM    123  H32 UNL A   1      24.914  16.233   4.600  1.00  0.00    +0.000 H 
BRANCH   15   13
ATOM     13  C10 UNL A   1      26.847  17.243   6.203  1.00  0.00    +0.000 C 
ATOM     14  O2  UNL A   1      27.669  17.355   5.300  1.00  0.00    +0.000 O 
BRANCH   13   12
ATOM     12  N2  UNL A   1      27.208  16.665   7.394  1.00  0.00    +0.000 N 
ATOM    109  H18 UNL A   1      26.699  15.860   7.645  1.00  0.00    +0.000 H 
BRANCH   12   11
ATOM     11  C9  UNL A   1      28.234  17.074   8.339  1.00  0.00    +0.000 C 
ATOM    108  H17 UNL A   1      29.166  17.114   7.814  1.00  0.00    +0.000 H 
ATOM    107  H16 UNL A   1      28.269  16.364   9.139  1.00  0.00    +0.000 H 
BRANCH   11   10
ATOM    105  H14 UNL A   1      28.813  18.749   9.499  1.00  0.00    +0.000 H 
ATOM     10  C8  UNL A   1      27.962  18.457   8.919  1.00  0.00    +0.000 C 
ATOM    106  H15 UNL A   1      27.779  19.104   8.088  1.00  0.00    +0.000 H 
BRANCH   10    9
ATOM      9  C7  UNL A   1      26.724  18.539   9.815  1.00  0.00    +0.000 C 
ATOM    103  H12 UNL A   1      25.904  18.096   9.289  1.00  0.00    +0.000 H 
ATOM    104  H13 UNL A   1      26.974  18.025  10.720  1.00  0.00    +0.000 H 
BRANCH    9    8
ATOM    101  H10 UNL A   1      27.177  20.446  10.631  1.00  0.00    +0.000 H 
ATOM    102  H11 UNL A   1      25.935  20.426   9.343  1.00  0.00    +0.000 H 
ATOM      8  C6  UNL A   1      26.315  19.957  10.226  1.00  0.00    +0.000 C 
BRANCH    8    7
ATOM     99  H8  UNL A   1      24.667  20.957  11.131  1.00  0.00    +0.000 H 
ATOM    100  H9  UNL A   1      24.565  19.179  11.113  1.00  0.00    +0.000 H 
ATOM      7  C5  UNL A   1      25.190  20.034  11.268  1.00  0.00    +0.000 C 
BRANCH    7    6
ATOM     97  H6  UNL A   1      26.649  19.514  12.739  1.00  0.00    +0.000 H 
ATOM     98  H7  UNL A   1      25.729  20.964  13.108  1.00  0.00    +0.000 H 
ATOM      6  C4  UNL A   1      25.680  19.969  12.717  1.00  0.00    +0.000 C 
BRANCH    6    5
ATOM      5  N1  UNL A   1      24.771  19.192  13.530  1.00  0.00    +0.000 N 
ATOM     96  H5  UNL A   1      25.193  18.498  14.086  1.00  0.00    +0.000 H 
BRANCH    5    3
ATOM      3  C3  UNL A   1      23.413  19.281  13.644  1.00  0.00    +0.000 C 
ATOM      4  O1  UNL A   1      22.950  20.390  13.915  1.00  0.00    +0.000 O 
BRANCH    3    2
ATOM      2  C2  UNL A   1      22.556  18.016  13.513  1.00  0.00    +0.000 C 
ATOM     95  H4  UNL A   1      21.537  18.341  13.557  1.00  0.00    +0.000 H 
BRANCH    2    1
ATOM      1  C1  UNL A   1      22.733  17.035  14.679  1.00  0.00    +0.000 C 
ATOM     92  H1  UNL A   1      22.109  17.337  15.494  1.00  0.00    +0.000 H 
ATOM     93  H2  UNL A   1      23.756  17.036  14.993  1.00  0.00    +0.000 H 
ATOM     94  H3  UNL A   1      22.457  16.052  14.363  1.00  0.00    +0.000 H 
ENDBRANCH    2    1
BRANCH    2   78
ATOM    137  H46 UNL A   1      22.445  17.802   8.863  1.00  0.00    +0.000 H 
ATOM     78  C55 UNL A   1      22.784  17.332  12.173  1.00  0.00    +0.000 C 
ATOM     79  C56 UNL A   1      23.340  16.046  12.131  1.00  0.00    +0.000 C 
ATOM     80  C57 UNL A   1      23.615  15.432  10.906  1.00  0.00    +0.000 C 
ATOM     81  C58 UNL A   1      23.364  16.096   9.700  1.00  0.00    +0.000 C 
ATOM     89  C65 UNL A   1      22.714  17.334   9.742  1.00  0.00    +0.000 C 
ATOM     90  C66 UNL A   1      22.430  17.937  10.963  1.00  0.00    +0.000 C 
ATOM     91  F16 UNL A   1      21.843  19.141  10.950  1.00  0.00    +0.000 F 
ATOM    124  H33 UNL A   1      23.548  15.550  13.011  1.00  0.00    +0.000 H 
ATOM    125  H34 UNL A   1      24.007  14.478  10.891  1.00  0.00    +0.000 H 
BRANCH   81   82
ATOM     82  C59 UNL A   1      23.800  15.516   8.379  1.00  0.00    +0.000 C 
ATOM    126  H35 UNL A   1      24.532  14.763   8.585  1.00  0.00    +0.000 H 
ATOM    127  H36 UNL A   1      24.152  16.354   7.815  1.00  0.00    +0.000 H 
BRANCH   82   83
ATOM    129  H38 UNL A   1      20.624  14.435   7.770  1.00  0.00    +0.000 H 
ATOM    130  H39 UNL A   1      21.500  14.578   9.254  1.00  0.00    +0.000 H 
ATOM    131  H40 UNL A   1      20.944  12.189   7.863  1.00  0.00    +0.000 H 
ATOM    132  H41 UNL A   1      22.012  12.335   9.214  1.00  0.00    +0.000 H 
ATOM    133  H42 UNL A   1      22.797  11.648   6.640  1.00  0.00    +0.000 H 
ATOM    134  H43 UNL A   1      23.883  12.218   7.839  1.00  0.00    +0.000 H 
ATOM    135  H44 UNL A   1      22.525  13.764   5.642  1.00  0.00    +0.000 H 
ATOM     83  C60 UNL A   1      22.711  14.871   7.488  1.00  0.00    +0.000 C 
ATOM     84  C61 UNL A   1      21.554  14.213   8.251  1.00  0.00    +0.000 C 
ATOM     85  C62 UNL A   1      21.807  12.702   8.231  1.00  0.00    +0.000 C 
ATOM     86  C63 UNL A   1      22.993  12.467   7.301  1.00  0.00    +0.000 C 
ATOM     87  C64 UNL A   1      23.140  13.766   6.517  1.00  0.00    +0.000 C 
ATOM    128  H37 UNL A   1      22.434  15.758   6.959  1.00  0.00    +0.000 H 
BRANCH   87   88
ATOM    136  H45 UNL A   1      24.731  14.856   6.155  1.00  0.00    +0.000 H 
ATOM     88  O3  UNL A   1      24.429  13.952   5.970  1.00  0.00    +0.000 O 
ENDBRANCH   87   88
ENDBRANCH   82   83
ENDBRANCH   81   82
ENDBRANCH    2   78
ENDBRANCH    3    2
ENDBRANCH    5    3
ENDBRANCH    6    5
ENDBRANCH    7    6
ENDBRANCH    8    7
ENDBRANCH    9    8
ENDBRANCH   10    9
ENDBRANCH   11   10
ENDBRANCH   12   11
ENDBRANCH   13   12
ENDBRANCH   15   13
ENDBRANCH   19   18
BRANCH   23   24
ATOM     33  C24 UNL A   1      20.188  22.794  -0.260  1.00  0.00    +0.000 C 
ATOM     34  F5  UNL A   1      19.602  21.629  -0.573  1.00  0.00    +0.000 F 
ATOM     24  C19 UNL A   1      20.209  23.241   1.070  1.00  0.00    +0.000 C 
ATOM     25  C20 UNL A   1      20.840  24.465   1.340  1.00  0.00    +0.000 C 
ATOM     26  F1  UNL A   1      20.878  24.943   2.593  1.00  0.00    +0.000 F 
ATOM     27  C21 UNL A   1      21.396  25.227   0.316  1.00  0.00    +0.000 C 
ATOM     28  F2  UNL A   1      21.945  26.419   0.591  1.00  0.00    +0.000 F 
ATOM     29  C22 UNL A   1      21.367  24.764  -0.990  1.00  0.00    +0.000 C 
ATOM     30  F3  UNL A   1      21.904  25.496  -1.976  1.00  0.00    +0.000 F 
ATOM     31  C23 UNL A   1      20.771  23.544  -1.278  1.00  0.00    +0.000 C 
ATOM     32  F4  UNL A   1      20.753  23.090  -2.539  1.00  0.00    +0.000 F 
ENDBRANCH   23   24
BRANCH   40   41
ATOM     41  C30 UNL A   1      13.700  22.091   3.958  1.00  0.00    +0.000 C 
ATOM     42  C31 UNL A   1      12.887  21.446   3.014  1.00  0.00    +0.000 C 
ATOM     43  F6  UNL A   1      13.383  20.450   2.265  1.00  0.00    +0.000 F 
ATOM     44  C32 UNL A   1      11.571  21.852   2.808  1.00  0.00    +0.000 C 
ATOM     45  F7  UNL A   1      10.828  21.254   1.867  1.00  0.00    +0.000 F 
ATOM     46  C33 UNL A   1      11.034  22.885   3.562  1.00  0.00    +0.000 C 
ATOM     47  F8  UNL A   1       9.767  23.271   3.364  1.00  0.00    +0.000 F 
ATOM     48  C34 UNL A   1      11.814  23.522   4.515  1.00  0.00    +0.000 C 
ATOM     49  F9  UNL A   1      11.294  24.513   5.253  1.00  0.00    +0.000 F 
ATOM     50  C35 UNL A   1      13.138  23.138   4.704  1.00  0.00    +0.000 C 
ATOM     51  F10 UNL A   1      13.872  23.783   5.622  1.00  0.00    +0.000 F 
ENDBRANCH   40   41
BRANCH   55   56
ATOM     65  C44 UNL A   1      16.343  16.455   8.510  1.00  0.00    +0.000 C 
ATOM     66  F15 UNL A   1      16.591  15.835   7.347  1.00  0.00    +0.000 F 
ATOM     56  C39 UNL A   1      16.593  17.828   8.641  1.00  0.00    +0.000 C 
ATOM     57  C40 UNL A   1      16.312  18.429   9.877  1.00  0.00    +0.000 C 
ATOM     58  F11 UNL A   1      16.555  19.736  10.056  1.00  0.00    +0.000 F 
ATOM     59  C41 UNL A   1      15.819  17.682  10.944  1.00  0.00    +0.000 C 
ATOM     60  F12 UNL A   1      15.599  18.272  12.127  1.00  0.00    +0.000 F 
ATOM     61  C42 UNL A   1      15.570  16.326  10.788  1.00  0.00    +0.000 C 
ATOM     62  F13 UNL A   1      15.093  15.609  11.814  1.00  0.00    +0.000 F 
ATOM     63  C43 UNL A   1      15.825  15.715   9.570  1.00  0.00    +0.000 C 
ATOM     64  F14 UNL A   1      15.574  14.408   9.412  1.00  0.00    +0.000 F 
ENDBRANCH   55   56
TORSDOF 20
ENDMDL
MODEL 6
REMARK VINA RESULT:     -10.5      1.193      2.026
ROOT
ATOM     19  C15 UNL A   1      38.377  29.838  29.942  1.00  0.00    +0.000 C 
ATOM     20  C16 UNL A   1      38.628  30.384  31.320  1.00  0.00    +0.000 C 
ATOM     21  N3  UNL A   1      39.659  30.208  32.108  1.00  0.00    +0.000 N 
ATOM     22  C17 UNL A   1      39.406  30.973  33.238  1.00  0.00    +0.000 C 
ATOM     23  C18 UNL A   1      40.143  31.079  34.370  1.00  0.00    +0.000 C 
ATOM     35  C25 UNL A   1      41.376  30.373  34.602  1.00  0.00    +0.000 C 
ATOM     36  C26 UNL A   1      42.163  30.357  35.740  1.00  0.00    +0.000 C 
ATOM     37  C27 UNL A   1      43.286  29.562  35.486  1.00  0.00    +0.000 C 
ATOM     38  C28 UNL A   1      43.176  29.045  34.205  1.00  0.00    +0.000 C 
ATOM     39  N4  UNL A   1      42.001  29.553  33.673  1.00  0.00    +0.000 N 
ATOM     40  C29 UNL A   1      44.074  28.153  33.517  1.00  0.00    +0.000 C 
ATOM     52  C36 UNL A   1      43.892  27.686  32.258  1.00  0.00    +0.000 C 
ATOM     53  N5  UNL A   1      42.847  27.931  31.378  1.00  0.00    +0.000 N 
ATOM     54  C37 UNL A   1      43.130  27.263  30.286  1.00  0.00    +0.000 C 
ATOM     55  C38 UNL A   1      42.334  27.134  29.016  1.00  0.00    +0.000 C 
ATOM     67  C45 UNL A   1      41.152  27.769  28.914  1.00  0.00    +0.000 C 
ATOM     68  C46 UNL A   1      40.263  27.727  27.756  1.00  0.00    +0.000 C 
ATOM     69  C47 UNL A   1      39.184  28.488  28.005  1.00  0.00    +0.000 C 
ATOM     70  C48 UNL A   1      39.292  29.046  29.353  1.00  0.00    +0.000 C 
ATOM     71  N6  UNL A   1      40.497  28.576  29.812  1.00  0.00    +0.000 N 
ATOM     72  C49 UNL A   1      44.410  26.542  30.339  1.00  0.00    +0.000 C 
ATOM     73  C50 UNL A   1      44.812  26.799  31.575  1.00  0.00    +0.000 C 
ATOM     74  C51 UNL A   1      38.149  31.654  33.016  1.00  0.00    +0.000 C 
ATOM     75  C52 UNL A   1      37.593  31.270  31.877  1.00  0.00    +0.000 C 
ATOM    112  H21 UNL A   1      41.957  30.849  36.624  1.00  0.00    +0.000 H 
ATOM    113  H22 UNL A   1      44.064  29.392  36.141  1.00  0.00    +0.000 H 
ATOM    114  H23 UNL A   1      41.662  29.362  32.770  1.00  0.00    +0.000 H 
ATOM    115  H24 UNL A   1      40.435  27.198  26.888  1.00  0.00    +0.000 H 
ATOM    116  H25 UNL A   1      38.404  28.653  27.349  1.00  0.00    +0.000 H 
ATOM    117  H26 UNL A   1      40.859  28.797  30.701  1.00  0.00    +0.000 H 
ATOM    118  H27 UNL A   1      44.873  25.983  29.606  1.00  0.00    +0.000 H 
ATOM    119  H28 UNL A   1      45.671  26.415  31.999  1.00  0.00    +0.000 H 
ATOM    120  H29 UNL A   1      37.741  32.350  33.660  1.00  0.00    +0.000 H 
ATOM    121  H30 UNL A   1      36.674  31.525  31.483  1.00  0.00    +0.000 H 
ENDROOT
BRANCH   19   18
ATOM     76  C53 UNL A   1      36.069  29.320  29.146  1.00  0.00    +0.000 C 
ATOM     77  C54 UNL A   1      34.925  29.642  28.420  1.00  0.00    +0.000 C 
ATOM    110  H19 UNL A   1      35.800  32.722  27.410  1.00  0.00    +0.000 H 
ATOM     15  C11 UNL A   1      34.805  30.905  27.830  1.00  0.00    +0.000 C 
ATOM     16  C12 UNL A   1      35.876  31.802  27.873  1.00  0.00    +0.000 C 
ATOM     17  C13 UNL A   1      37.049  31.451  28.544  1.00  0.00    +0.000 C 
ATOM    111  H20 UNL A   1      37.850  32.102  28.553  1.00  0.00    +0.000 H 
ATOM     18  C14 UNL A   1      37.147  30.216  29.204  1.00  0.00    +0.000 C 
ATOM    122  H31 UNL A   1      36.123  28.418  29.644  1.00  0.00    +0.000 H 
ATOM    123  H32 UNL A   1      34.167  28.950  28.316  1.00  0.00    +0.000 H 
BRANCH   15   13
ATOM     13  C10 UNL A   1      33.569  31.306  27.125  1.00  0.00    +0.000 C 
ATOM     14  O2  UNL A   1      33.012  32.359  27.422  1.00  0.00    +0.000 O 
BRANCH   13   12
ATOM     12  N2  UNL A   1      33.038  30.497  26.152  1.00  0.00    +0.000 N 
ATOM    109  H18 UNL A   1      32.231  30.844  25.709  1.00  0.00    +0.000 H 
BRANCH   12   11
ATOM     11  C9  UNL A   1      33.498  29.201  25.685  1.00  0.00    +0.000 C 
ATOM    108  H17 UNL A   1      34.466  29.024  26.106  1.00  0.00    +0.000 H 
ATOM    107  H16 UNL A   1      33.537  29.213  24.616  1.00  0.00    +0.000 H 
BRANCH   11   10
ATOM    105  H14 UNL A   1      32.120  28.355  27.054  1.00  0.00    +0.000 H 
ATOM     10  C8  UNL A   1      32.579  28.069  26.131  1.00  0.00    +0.000 C 
ATOM    106  H15 UNL A   1      31.875  27.921  25.340  1.00  0.00    +0.000 H 
BRANCH   10    9
ATOM      9  C7  UNL A   1      33.281  26.726  26.345  1.00  0.00    +0.000 C 
ATOM    103  H12 UNL A   1      34.020  26.855  27.107  1.00  0.00    +0.000 H 
ATOM    104  H13 UNL A   1      32.515  26.027  26.612  1.00  0.00    +0.000 H 
BRANCH    9    8
ATOM    101  H10 UNL A   1      33.221  25.969  24.363  1.00  0.00    +0.000 H 
ATOM    102  H11 UNL A   1      34.699  26.877  24.805  1.00  0.00    +0.000 H 
ATOM      8  C6  UNL A   1      33.971  26.152  25.103  1.00  0.00    +0.000 C 
BRANCH    8    7
ATOM     99  H8  UNL A   1      35.695  25.084  25.755  1.00  0.00    +0.000 H 
ATOM    100  H9  UNL A   1      34.143  24.242  25.987  1.00  0.00    +0.000 H 
ATOM      7  C5  UNL A   1      34.741  24.843  25.334  1.00  0.00    +0.000 C 
BRANCH    7    6
ATOM     97  H6  UNL A   1      34.282  24.349  23.307  1.00  0.00    +0.000 H 
ATOM     98  H7  UNL A   1      35.976  24.172  23.733  1.00  0.00    +0.000 H 
ATOM      6  C4  UNL A   1      34.969  24.024  24.061  1.00  0.00    +0.000 C 
BRANCH    6    5
ATOM      5  N1  UNL A   1      34.763  22.615  24.316  1.00  0.00    +0.000 N 
ATOM     96  H5  UNL A   1      35.247  22.005  23.713  1.00  0.00    +0.000 H 
BRANCH    5    3
ATOM      3  C3  UNL A   1      34.000  22.006  25.270  1.00  0.00    +0.000 C 
ATOM      4  O1  UNL A   1      34.556  21.731  26.334  1.00  0.00    +0.000 O 
BRANCH    3    2
ATOM      2  C2  UNL A   1      32.547  21.628  24.952  1.00  0.00    +0.000 C 
ATOM     95  H4  UNL A   1      32.197  21.065  25.792  1.00  0.00    +0.000 H 
BRANCH    2    1
ATOM      1  C1  UNL A   1      32.409  20.699  23.739  1.00  0.00    +0.000 C 
ATOM     92  H1  UNL A   1      33.359  20.260  23.518  1.00  0.00    +0.000 H 
ATOM     93  H2  UNL A   1      32.072  21.264  22.895  1.00  0.00    +0.000 H 
ATOM     94  H3  UNL A   1      31.702  19.929  23.959  1.00  0.00    +0.000 H 
ENDBRANCH    2    1
BRANCH    2   78
ATOM    137  H46 UNL A   1      30.118  25.241  26.602  1.00  0.00    +0.000 H 
ATOM     78  C55 UNL A   1      31.675  22.866  24.806  1.00  0.00    +0.000 C 
ATOM     79  C56 UNL A   1      31.312  23.317  23.530  1.00  0.00    +0.000 C 
ATOM     80  C57 UNL A   1      30.566  24.489  23.378  1.00  0.00    +0.000 C 
ATOM     81  C58 UNL A   1      30.188  25.247  24.492  1.00  0.00    +0.000 C 
ATOM     89  C65 UNL A   1      30.461  24.741  25.768  1.00  0.00    +0.000 C 
ATOM     90  C66 UNL A   1      31.193  23.567  25.915  1.00  0.00    +0.000 C 
ATOM     91  F16 UNL A   1      31.463  23.145  27.158  1.00  0.00    +0.000 F 
ATOM    124  H33 UNL A   1      31.598  22.781  22.697  1.00  0.00    +0.000 H 
ATOM    125  H34 UNL A   1      30.291  24.799  22.433  1.00  0.00    +0.000 H 
BRANCH   81   82
ATOM     82  C59 UNL A   1      29.523  26.590  24.339  1.00  0.00    +0.000 C 
ATOM    126  H35 UNL A   1      29.900  27.225  25.114  1.00  0.00    +0.000 H 
ATOM    127  H36 UNL A   1      28.475  26.384  24.386  1.00  0.00    +0.000 H 
BRANCH   82   83
ATOM    129  H38 UNL A   1      31.432  27.784  21.778  1.00  0.00    +0.000 H 
ATOM    130  H39 UNL A   1      31.827  27.490  23.437  1.00  0.00    +0.000 H 
ATOM    131  H40 UNL A   1      31.377  30.006  22.244  1.00  0.00    +0.000 H 
ATOM    132  H41 UNL A   1      31.541  29.718  23.940  1.00  0.00    +0.000 H 
ATOM    133  H42 UNL A   1      29.224  30.618  22.703  1.00  0.00    +0.000 H 
ATOM    134  H43 UNL A   1      29.248  29.921  24.270  1.00  0.00    +0.000 H 
ATOM    135  H44 UNL A   1      28.623  28.607  21.635  1.00  0.00    +0.000 H 
ATOM     83  C60 UNL A   1      29.717  27.334  22.996  1.00  0.00    +0.000 C 
ATOM     84  C61 UNL A   1      31.110  27.944  22.787  1.00  0.00    +0.000 C 
ATOM     85  C62 UNL A   1      30.987  29.445  23.067  1.00  0.00    +0.000 C 
ATOM     86  C63 UNL A   1      29.502  29.740  23.247  1.00  0.00    +0.000 C 
ATOM     87  C64 UNL A   1      28.789  28.514  22.688  1.00  0.00    +0.000 C 
ATOM    128  H37 UNL A   1      29.505  26.504  22.355  1.00  0.00    +0.000 H 
BRANCH   87   88
ATOM    136  H45 UNL A   1      27.311  28.997  23.886  1.00  0.00    +0.000 H 
ATOM     88  O3  UNL A   1      27.474  28.352  23.179  1.00  0.00    +0.000 O 
ENDBRANCH   87   88
ENDBRANCH   82   83
ENDBRANCH   81   82
ENDBRANCH    2   78
ENDBRANCH    3    2
ENDBRANCH    5    3
ENDBRANCH    6    5
ENDBRANCH    7    6
ENDBRANCH    8    7
ENDBRANCH    9    8
ENDBRANCH   10    9
ENDBRANCH   11   10
ENDBRANCH   12   11
ENDBRANCH   13   12
ENDBRANCH   15   13
ENDBRANCH   19   18
BRANCH   23   24
ATOM     33  C24 UNL A   1      40.108  33.310  35.544  1.00  0.00    +0.000 C 
ATOM     34  F5  UNL A   1      41.012  33.771  34.668  1.00  0.00    +0.000 F 
ATOM     24  C19 UNL A   1      39.633  31.993  35.445  1.00  0.00    +0.000 C 
ATOM     25  C20 UNL A   1      38.690  31.563  36.392  1.00  0.00    +0.000 C 
ATOM     26  F1  UNL A   1      38.196  30.318  36.335  1.00  0.00    +0.000 F 
ATOM     27  C21 UNL A   1      38.217  32.428  37.376  1.00  0.00    +0.000 C 
ATOM     28  F2  UNL A   1      37.276  32.010  38.235  1.00  0.00    +0.000 F 
ATOM     29  C22 UNL A   1      38.703  33.723  37.457  1.00  0.00    +0.000 C 
ATOM     30  F3  UNL A   1      38.248  34.554  38.406  1.00  0.00    +0.000 F 
ATOM     31  C23 UNL A   1      39.654  34.163  36.548  1.00  0.00    +0.000 C 
ATOM     32  F4  UNL A   1      40.134  35.411  36.632  1.00  0.00    +0.000 F 
ENDBRANCH   23   24
BRANCH   40   41
ATOM     41  C30 UNL A   1      45.292  27.681  34.254  1.00  0.00    +0.000 C 
ATOM     42  C31 UNL A   1      46.503  28.384  34.203  1.00  0.00    +0.000 C 
ATOM     43  F6  UNL A   1      46.612  29.487  33.446  1.00  0.00    +0.000 F 
ATOM     44  C32 UNL A   1      47.622  27.933  34.897  1.00  0.00    +0.000 C 
ATOM     45  F7  UNL A   1      48.784  28.594  34.795  1.00  0.00    +0.000 F 
ATOM     46  C33 UNL A   1      47.542  26.792  35.682  1.00  0.00    +0.000 C 
ATOM     47  F8  UNL A   1      48.619  26.362  36.353  1.00  0.00    +0.000 F 
ATOM     48  C34 UNL A   1      46.348  26.092  35.764  1.00  0.00    +0.000 C 
ATOM     49  F9  UNL A   1      46.265  24.996  36.531  1.00  0.00    +0.000 F 
ATOM     50  C35 UNL A   1      45.235  26.524  35.047  1.00  0.00    +0.000 C 
ATOM     51  F10 UNL A   1      44.098  25.819  35.135  1.00  0.00    +0.000 F 
ENDBRANCH   40   41
BRANCH   55   56
ATOM     65  C44 UNL A   1      42.459  24.930  27.801  1.00  0.00    +0.000 C 
ATOM     66  F15 UNL A   1      41.670  24.374  28.732  1.00  0.00    +0.000 F 
ATOM     56  C39 UNL A   1      42.817  26.282  27.899  1.00  0.00    +0.000 C 
ATOM     57  C40 UNL A   1      43.647  26.813  26.902  1.00  0.00    +0.000 C 
ATOM     58  F11 UNL A   1      43.998  28.107  26.942  1.00  0.00    +0.000 F 
ATOM     59  C41 UNL A   1      44.087  26.028  25.839  1.00  0.00    +0.000 C 
ATOM     60  F12 UNL A   1      44.845  26.572  24.876  1.00  0.00    +0.000 F 
ATOM     61  C42 UNL A   1      43.728  24.690  25.767  1.00  0.00    +0.000 C 
ATOM     62  F13 UNL A   1      44.154  23.934  24.746  1.00  0.00    +0.000 F 
ATOM     63  C43 UNL A   1      42.921  24.139  26.751  1.00  0.00    +0.000 C 
ATOM     64  F14 UNL A   1      42.583  22.844  26.692  1.00  0.00    +0.000 F 
ENDBRANCH   55   56
TORSDOF 20
ENDMDL
MODEL 7
REMARK VINA RESULT:     -10.4      1.214      7.531
ROOT
ATOM     19  C15 UNL A   1      37.924  30.036  29.925  1.00  0.00    +0.000 C 
ATOM     20  C16 UNL A   1      38.967  29.120  29.346  1.00  0.00    +0.000 C 
ATOM     21  N3  UNL A   1      40.078  28.683  29.885  1.00  0.00    +0.000 N 
ATOM     22  C17 UNL A   1      40.642  27.831  28.946  1.00  0.00    +0.000 C 
ATOM     23  C18 UNL A   1      41.826  27.175  29.003  1.00  0.00    +0.000 C 
ATOM     35  C25 UNL A   1      42.749  27.263  30.105  1.00  0.00    +0.000 C 
ATOM     36  C26 UNL A   1      44.003  26.695  30.230  1.00  0.00    +0.000 C 
ATOM     37  C27 UNL A   1      44.509  27.022  31.493  1.00  0.00    +0.000 C 
ATOM     38  C28 UNL A   1      43.589  27.833  32.137  1.00  0.00    +0.000 C 
ATOM     39  N4  UNL A   1      42.511  27.970  31.275  1.00  0.00    +0.000 N 
ATOM     40  C29 UNL A   1      43.683  28.439  33.441  1.00  0.00    +0.000 C 
ATOM     52  C36 UNL A   1      42.735  29.229  34.001  1.00  0.00    +0.000 C 
ATOM     53  N5  UNL A   1      41.514  29.632  33.479  1.00  0.00    +0.000 N 
ATOM     54  C37 UNL A   1      40.955  30.378  34.401  1.00  0.00    +0.000 C 
ATOM     55  C38 UNL A   1      39.641  31.111  34.366  1.00  0.00    +0.000 C 
ATOM     67  C45 UNL A   1      38.875  31.035  33.262  1.00  0.00    +0.000 C 
ATOM     68  C46 UNL A   1      37.589  31.699  33.074  1.00  0.00    +0.000 C 
ATOM     69  C47 UNL A   1      37.108  31.385  31.859  1.00  0.00    +0.000 C 
ATOM     70  C48 UNL A   1      38.070  30.523  31.171  1.00  0.00    +0.000 C 
ATOM     71  N6  UNL A   1      39.080  30.358  32.084  1.00  0.00    +0.000 N 
ATOM     72  C49 UNL A   1      41.749  30.504  35.632  1.00  0.00    +0.000 C 
ATOM     73  C50 UNL A   1      42.840  29.821  35.319  1.00  0.00    +0.000 C 
ATOM     74  C51 UNL A   1      39.729  27.771  27.825  1.00  0.00    +0.000 C 
ATOM     75  C52 UNL A   1      38.714  28.604  27.992  1.00  0.00    +0.000 C 
ATOM    112  H21 UNL A   1      44.484  26.126  29.515  1.00  0.00    +0.000 H 
ATOM    113  H22 UNL A   1      45.414  26.711  31.879  1.00  0.00    +0.000 H 
ATOM    114  H23 UNL A   1      41.699  28.491  31.466  1.00  0.00    +0.000 H 
ATOM    115  H24 UNL A   1      37.125  32.310  33.762  1.00  0.00    +0.000 H 
ATOM    116  H25 UNL A   1      36.205  31.703  31.473  1.00  0.00    +0.000 H 
ATOM    117  H26 UNL A   1      39.878  29.805  31.912  1.00  0.00    +0.000 H 
ATOM    118  H27 UNL A   1      41.516  30.996  36.509  1.00  0.00    +0.000 H 
ATOM    119  H28 UNL A   1      43.661  29.723  35.936  1.00  0.00    +0.000 H 
ATOM    120  H29 UNL A   1      39.854  27.158  27.003  1.00  0.00    +0.000 H 
ATOM    121  H30 UNL A   1      37.946  28.833  27.341  1.00  0.00    +0.000 H 
ENDROOT
BRANCH   19   18
ATOM     76  C53 UNL A   1      36.553  31.639  28.590  1.00  0.00    +0.000 C 
ATOM     77  C54 UNL A   1      35.393  31.972  27.895  1.00  0.00    +0.000 C 
ATOM    110  H19 UNL A   1      33.816  29.014  28.069  1.00  0.00    +0.000 H 
ATOM     15  C11 UNL A   1      34.417  30.999  27.660  1.00  0.00    +0.000 C 
ATOM     16  C12 UNL A   1      34.551  29.723  28.216  1.00  0.00    +0.000 C 
ATOM     17  C13 UNL A   1      35.683  29.411  28.971  1.00  0.00    +0.000 C 
ATOM    111  H20 UNL A   1      35.770  28.478  29.404  1.00  0.00    +0.000 H 
ATOM     18  C14 UNL A   1      36.704  30.360  29.146  1.00  0.00    +0.000 C 
ATOM    122  H31 UNL A   1      37.306  32.337  28.697  1.00  0.00    +0.000 H 
ATOM    123  H32 UNL A   1      35.254  32.936  27.555  1.00  0.00    +0.000 H 
BRANCH   15   13
ATOM     13  C10 UNL A   1      33.215  31.300  26.852  1.00  0.00    +0.000 C 
ATOM     14  O2  UNL A   1      32.603  32.346  27.039  1.00  0.00    +0.000 O 
BRANCH   13   12
ATOM     12  N2  UNL A   1      32.779  30.406  25.908  1.00  0.00    +0.000 N 
ATOM    109  H18 UNL A   1      33.172  30.512  25.012  1.00  0.00    +0.000 H 
BRANCH   12   11
ATOM     11  C9  UNL A   1      31.818  29.324  26.043  1.00  0.00    +0.000 C 
ATOM    108  H17 UNL A   1      31.145  29.376  25.212  1.00  0.00    +0.000 H 
ATOM    107  H16 UNL A   1      31.298  29.438  26.971  1.00  0.00    +0.000 H 
BRANCH   11   10
ATOM    105  H14 UNL A   1      33.004  27.818  26.946  1.00  0.00    +0.000 H 
ATOM     10  C8  UNL A   1      32.487  27.954  26.019  1.00  0.00    +0.000 C 
ATOM    106  H15 UNL A   1      31.707  27.238  25.865  1.00  0.00    +0.000 H 
BRANCH   10    9
ATOM      9  C7  UNL A   1      33.489  27.755  24.880  1.00  0.00    +0.000 C 
ATOM    103  H12 UNL A   1      33.088  28.215  24.001  1.00  0.00    +0.000 H 
ATOM    104  H13 UNL A   1      34.407  28.198  25.208  1.00  0.00    +0.000 H 
BRANCH    9    8
ATOM    101  H10 UNL A   1      32.946  25.860  24.093  1.00  0.00    +0.000 H 
ATOM    102  H11 UNL A   1      34.667  26.316  23.908  1.00  0.00    +0.000 H 
ATOM      8  C6  UNL A   1      33.811  26.295  24.549  1.00  0.00    +0.000 C 
BRANCH    8    7
ATOM     99  H8  UNL A   1      34.705  26.044  26.466  1.00  0.00    +0.000 H 
ATOM    100  H9  UNL A   1      33.296  25.006  26.140  1.00  0.00    +0.000 H 
ATOM      7  C5  UNL A   1      34.202  25.425  25.753  1.00  0.00    +0.000 C 
BRANCH    7    6
ATOM     97  H6  UNL A   1      35.277  24.236  24.342  1.00  0.00    +0.000 H 
ATOM     98  H7  UNL A   1      36.050  24.378  25.912  1.00  0.00    +0.000 H 
ATOM      6  C4  UNL A   1      35.119  24.252  25.401  1.00  0.00    +0.000 C 
BRANCH    6    5
ATOM      5  N1  UNL A   1      34.528  22.998  25.812  1.00  0.00    +0.000 N 
ATOM     96  H5  UNL A   1      34.394  22.895  26.782  1.00  0.00    +0.000 H 
BRANCH    5    3
ATOM      3  C3  UNL A   1      34.124  21.936  25.054  1.00  0.00    +0.000 C 
ATOM      4  O1  UNL A   1      34.996  21.350  24.411  1.00  0.00    +0.000 O 
BRANCH    3    2
ATOM      2  C2  UNL A   1      32.633  21.582  24.976  1.00  0.00    +0.000 C 
ATOM     95  H4  UNL A   1      32.395  21.095  25.899  1.00  0.00    +0.000 H 
BRANCH    2    1
ATOM      1  C1  UNL A   1      32.303  20.571  23.872  1.00  0.00    +0.000 C 
ATOM     92  H1  UNL A   1      32.962  20.722  23.043  1.00  0.00    +0.000 H 
ATOM     93  H2  UNL A   1      31.291  20.709  23.553  1.00  0.00    +0.000 H 
ATOM     94  H3  UNL A   1      32.425  19.578  24.249  1.00  0.00    +0.000 H 
ENDBRANCH    2    1
BRANCH    2   78
ATOM    137  H46 UNL A   1      30.116  25.095  26.708  1.00  0.00    +0.000 H 
ATOM     78  C55 UNL A   1      31.775  22.833  24.859  1.00  0.00    +0.000 C 
ATOM     79  C56 UNL A   1      31.494  23.370  23.595  1.00  0.00    +0.000 C 
ATOM     80  C57 UNL A   1      30.761  24.554  23.475  1.00  0.00    +0.000 C 
ATOM     81  C58 UNL A   1      30.316  25.240  24.612  1.00  0.00    +0.000 C 
ATOM     89  C65 UNL A   1      30.509  24.649  25.865  1.00  0.00    +0.000 C 
ATOM     90  C66 UNL A   1      31.226  23.463  25.980  1.00  0.00    +0.000 C 
ATOM     91  F16 UNL A   1      31.417  22.958  27.206  1.00  0.00    +0.000 F 
ATOM    124  H33 UNL A   1      31.830  22.888  22.748  1.00  0.00    +0.000 H 
ATOM    125  H34 UNL A   1      30.546  24.928  22.538  1.00  0.00    +0.000 H 
BRANCH   81   82
ATOM     82  C59 UNL A   1      29.666  26.595  24.507  1.00  0.00    +0.000 C 
ATOM    126  H35 UNL A   1      30.249  27.277  25.091  1.00  0.00    +0.000 H 
ATOM    127  H36 UNL A   1      28.663  26.444  24.846  1.00  0.00    +0.000 H 
BRANCH   82   83
ATOM    129  H38 UNL A   1      30.900  27.644  21.506  1.00  0.00    +0.000 H 
ATOM    130  H39 UNL A   1      31.649  27.550  23.062  1.00  0.00    +0.000 H 
ATOM    131  H40 UNL A   1      30.746  29.893  21.778  1.00  0.00    +0.000 H 
ATOM    132  H41 UNL A   1      31.279  29.793  23.419  1.00  0.00    +0.000 H 
ATOM    133  H42 UNL A   1      28.687  30.403  22.628  1.00  0.00    +0.000 H 
ATOM    134  H43 UNL A   1      29.093  29.875  24.209  1.00  0.00    +0.000 H 
ATOM    135  H44 UNL A   1      28.059  28.256  21.891  1.00  0.00    +0.000 H 
ATOM     83  C60 UNL A   1      29.516  27.207  23.093  1.00  0.00    +0.000 C 
ATOM     84  C61 UNL A   1      30.777  27.885  22.542  1.00  0.00    +0.000 C 
ATOM     85  C62 UNL A   1      30.584  29.395  22.711  1.00  0.00    +0.000 C 
ATOM     86  C63 UNL A   1      29.147  29.606  23.175  1.00  0.00    +0.000 C 
ATOM     87  C64 UNL A   1      28.444  28.284  22.888  1.00  0.00    +0.000 C 
ATOM    128  H37 UNL A   1      29.251  26.303  22.587  1.00  0.00    +0.000 H 
BRANCH   87   88
ATOM    136  H45 UNL A   1      27.484  28.218  24.598  1.00  0.00    +0.000 H 
ATOM     88  O3  UNL A   1      27.277  28.085  23.659  1.00  0.00    +0.000 O 
ENDBRANCH   87   88
ENDBRANCH   82   83
ENDBRANCH   81   82
ENDBRANCH    2   78
ENDBRANCH    3    2
ENDBRANCH    5    3
ENDBRANCH    6    5
ENDBRANCH    7    6
ENDBRANCH    8    7
ENDBRANCH    9    8
ENDBRANCH   10    9
ENDBRANCH   11   10
ENDBRANCH   12   11
ENDBRANCH   13   12
ENDBRANCH   15   13
ENDBRANCH   19   18
BRANCH   23   24
ATOM     33  C24 UNL A   1      41.669  25.006  27.725  1.00  0.00    +0.000 C 
ATOM     34  F5  UNL A   1      40.822  24.537  28.654  1.00  0.00    +0.000 F 
ATOM     24  C19 UNL A   1      42.192  26.303  27.837  1.00  0.00    +0.000 C 
ATOM     25  C20 UNL A   1      43.077  26.741  26.839  1.00  0.00    +0.000 C 
ATOM     26  F1  UNL A   1      43.596  27.977  26.891  1.00  0.00    +0.000 F 
ATOM     27  C21 UNL A   1      43.396  25.926  25.756  1.00  0.00    +0.000 C 
ATOM     28  F2  UNL A   1      44.200  26.386  24.787  1.00  0.00    +0.000 F 
ATOM     29  C22 UNL A   1      42.870  24.647  25.669  1.00  0.00    +0.000 C 
ATOM     30  F3  UNL A   1      43.179  23.861  24.628  1.00  0.00    +0.000 F 
ATOM     31  C23 UNL A   1      42.013  24.183  26.657  1.00  0.00    +0.000 C 
ATOM     32  F4  UNL A   1      41.513  22.942  26.580  1.00  0.00    +0.000 F 
ENDBRANCH   23   24
BRANCH   40   41
ATOM     41  C30 UNL A   1      44.935  28.204  34.232  1.00  0.00    +0.000 C 
ATOM     42  C31 UNL A   1      45.068  27.103  35.090  1.00  0.00    +0.000 C 
ATOM     43  F6  UNL A   1      44.046  26.250  35.257  1.00  0.00    +0.000 F 
ATOM     44  C32 UNL A   1      46.240  26.899  35.814  1.00  0.00    +0.000 C 
ATOM     45  F7  UNL A   1      46.328  25.867  36.665  1.00  0.00    +0.000 F 
ATOM     46  C33 UNL A   1      47.311  27.769  35.668  1.00  0.00    +0.000 C 
ATOM     47  F8  UNL A   1      48.438  27.568  36.362  1.00  0.00    +0.000 F 
ATOM     48  C34 UNL A   1      47.208  28.852  34.809  1.00  0.00    +0.000 C 
ATOM     49  F9  UNL A   1      48.244  29.688  34.657  1.00  0.00    +0.000 F 
ATOM     50  C35 UNL A   1      46.027  29.077  34.106  1.00  0.00    +0.000 C 
ATOM     51  F10 UNL A   1      45.952  30.141  33.294  1.00  0.00    +0.000 F 
ENDBRANCH   40   41
BRANCH   55   56
ATOM     65  C44 UNL A   1      39.612  33.283  35.642  1.00  0.00    +0.000 C 
ATOM     66  F15 UNL A   1      40.417  33.832  34.721  1.00  0.00    +0.000 F 
ATOM     56  C39 UNL A   1      39.206  31.947  35.513  1.00  0.00    +0.000 C 
ATOM     57  C40 UNL A   1      38.367  31.419  36.505  1.00  0.00    +0.000 C 
ATOM     58  F11 UNL A   1      37.936  30.153  36.414  1.00  0.00    +0.000 F 
ATOM     59  C41 UNL A   1      37.936  32.202  37.574  1.00  0.00    +0.000 C 
ATOM     60  F12 UNL A   1      37.100  31.686  38.485  1.00  0.00    +0.000 F 
ATOM     61  C42 UNL A   1      38.357  33.519  37.686  1.00  0.00    +0.000 C 
ATOM     62  F13 UNL A   1      37.945  34.272  38.715  1.00  0.00    +0.000 F 
ATOM     63  C43 UNL A   1      39.201  34.057  36.724  1.00  0.00    +0.000 C 
ATOM     64  F14 UNL A   1      39.620  35.325  36.836  1.00  0.00    +0.000 F 
ENDBRANCH   55   56
TORSDOF 20
ENDMDL
MODEL 8
REMARK VINA RESULT:     -10.4      4.311      7.435
ROOT
ATOM     19  C15 UNL A   1      41.470  26.174  27.411  1.00  0.00    +0.000 C 
ATOM     20  C16 UNL A   1      40.783  27.237  28.223  1.00  0.00    +0.000 C 
ATOM     21  N3  UNL A   1      41.226  28.411  28.598  1.00  0.00    +0.000 N 
ATOM     22  C17 UNL A   1      40.177  29.010  29.282  1.00  0.00    +0.000 C 
ATOM     23  C18 UNL A   1      40.155  30.206  29.917  1.00  0.00    +0.000 C 
ATOM     35  C25 UNL A   1      41.281  31.101  29.999  1.00  0.00    +0.000 C 
ATOM     36  C26 UNL A   1      41.383  32.302  30.676  1.00  0.00    +0.000 C 
ATOM     37  C27 UNL A   1      42.653  32.836  30.432  1.00  0.00    +0.000 C 
ATOM     38  C28 UNL A   1      43.358  31.945  29.639  1.00  0.00    +0.000 C 
ATOM     39  N4  UNL A   1      42.503  30.887  29.377  1.00  0.00    +0.000 N 
ATOM     40  C29 UNL A   1      44.712  32.050  29.155  1.00  0.00    +0.000 C 
ATOM     52  C36 UNL A   1      45.335  31.127  28.383  1.00  0.00    +0.000 C 
ATOM     53  N5  UNL A   1      44.850  29.917  27.906  1.00  0.00    +0.000 N 
ATOM     54  C37 UNL A   1      45.822  29.392  27.200  1.00  0.00    +0.000 C 
ATOM     55  C38 UNL A   1      45.870  28.071  26.481  1.00  0.00    +0.000 C 
ATOM     67  C45 UNL A   1      44.796  27.261  26.522  1.00  0.00    +0.000 C 
ATOM     68  C46 UNL A   1      44.698  25.949  25.889  1.00  0.00    +0.000 C 
ATOM     69  C47 UNL A   1      43.479  25.437  26.128  1.00  0.00    +0.000 C 
ATOM     70  C48 UNL A   1      42.722  26.374  26.960  1.00  0.00    +0.000 C 
ATOM     71  N6  UNL A   1      43.578  27.432  27.133  1.00  0.00    +0.000 N 
ATOM     72  C49 UNL A   1      47.028  30.230  27.124  1.00  0.00    +0.000 C 
ATOM     73  C50 UNL A   1      46.693  31.254  27.895  1.00  0.00    +0.000 C 
ATOM     74  C51 UNL A   1      39.058  28.094  29.228  1.00  0.00    +0.000 C 
ATOM     75  C52 UNL A   1      39.402  26.954  28.647  1.00  0.00    +0.000 C 
ATOM    112  H21 UNL A   1      40.649  32.731  31.261  1.00  0.00    +0.000 H 
ATOM    113  H22 UNL A   1      43.004  33.741  30.782  1.00  0.00    +0.000 H 
ATOM    114  H23 UNL A   1      42.729  30.100  28.831  1.00  0.00    +0.000 H 
ATOM    115  H24 UNL A   1      45.444  25.489  25.345  1.00  0.00    +0.000 H 
ATOM    116  H25 UNL A   1      43.133  24.529  25.781  1.00  0.00    +0.000 H 
ATOM    117  H26 UNL A   1      43.341  28.239  27.646  1.00  0.00    +0.000 H 
ATOM    118  H27 UNL A   1      47.904  30.063  26.605  1.00  0.00    +0.000 H 
ATOM    119  H28 UNL A   1      47.320  32.042  28.119  1.00  0.00    +0.000 H 
ATOM    120  H29 UNL A   1      38.116  28.302  29.594  1.00  0.00    +0.000 H 
ATOM    121  H30 UNL A   1      38.848  26.093  28.525  1.00  0.00    +0.000 H 
ENDROOT
BRANCH   19   18
ATOM     76  C53 UNL A   1      39.590  24.994  26.270  1.00  0.00    +0.000 C 
ATOM     77  C54 UNL A   1      38.877  23.837  25.966  1.00  0.00    +0.000 C 
ATOM    110  H19 UNL A   1      40.869  21.592  27.469  1.00  0.00    +0.000 H 
ATOM     15  C11 UNL A   1      39.372  22.589  26.359  1.00  0.00    +0.000 C 
ATOM     16  C12 UNL A   1      40.521  22.510  27.152  1.00  0.00    +0.000 C 
ATOM     17  C13 UNL A   1      41.197  23.677  27.513  1.00  0.00    +0.000 C 
ATOM    111  H20 UNL A   1      42.030  23.621  28.121  1.00  0.00    +0.000 H 
ATOM     18  C14 UNL A   1      40.749  24.927  27.057  1.00  0.00    +0.000 C 
ATOM    122  H31 UNL A   1      39.264  25.906  25.913  1.00  0.00    +0.000 H 
ATOM    123  H32 UNL A   1      37.985  23.900  25.453  1.00  0.00    +0.000 H 
BRANCH   15   13
ATOM     13  C10 UNL A   1      38.683  21.338  25.979  1.00  0.00    +0.000 C 
ATOM     14  O2  UNL A   1      39.316  20.289  25.911  1.00  0.00    +0.000 O 
BRANCH   13   12
ATOM     12  N2  UNL A   1      37.342  21.352  25.688  1.00  0.00    +0.000 N 
ATOM    109  H18 UNL A   1      36.742  21.197  26.454  1.00  0.00    +0.000 H 
BRANCH   12   11
ATOM     11  C9  UNL A   1      36.682  21.563  24.411  1.00  0.00    +0.000 C 
ATOM    108  H17 UNL A   1      36.071  20.708  24.211  1.00  0.00    +0.000 H 
ATOM    107  H16 UNL A   1      37.427  21.693  23.654  1.00  0.00    +0.000 H 
BRANCH   11   10
ATOM    105  H14 UNL A   1      36.285  23.586  23.921  1.00  0.00    +0.000 H 
ATOM     10  C8  UNL A   1      35.778  22.791  24.427  1.00  0.00    +0.000 C 
ATOM    106  H15 UNL A   1      34.866  22.502  23.948  1.00  0.00    +0.000 H 
BRANCH   10    9
ATOM      9  C7  UNL A   1      35.397  23.283  25.825  1.00  0.00    +0.000 C 
ATOM    103  H12 UNL A   1      35.171  22.428  26.428  1.00  0.00    +0.000 H 
ATOM    104  H13 UNL A   1      36.235  23.844  26.184  1.00  0.00    +0.000 H 
BRANCH    9    8
ATOM    101  H10 UNL A   1      33.420  23.812  25.263  1.00  0.00    +0.000 H 
ATOM    102  H11 UNL A   1      33.924  24.318  26.904  1.00  0.00    +0.000 H 
ATOM      8  C6  UNL A   1      34.194  24.229  25.872  1.00  0.00    +0.000 C 
BRANCH    8    7
ATOM     99  H8  UNL A   1      35.450  25.941  25.700  1.00  0.00    +0.000 H 
ATOM    100  H9  UNL A   1      34.375  25.641  24.313  1.00  0.00    +0.000 H 
ATOM      7  C5  UNL A   1      34.469  25.657  25.379  1.00  0.00    +0.000 C 
BRANCH    7    6
ATOM     97  H6  UNL A   1      32.609  26.194  26.282  1.00  0.00    +0.000 H 
ATOM     98  H7  UNL A   1      33.942  27.269  26.670  1.00  0.00    +0.000 H 
ATOM      6  C4  UNL A   1      33.472  26.697  25.897  1.00  0.00    +0.000 C 
BRANCH    6    5
ATOM      5  N1  UNL A   1      33.068  27.592  24.835  1.00  0.00    +0.000 N 
ATOM     96  H5  UNL A   1      33.805  27.998  24.325  1.00  0.00    +0.000 H 
BRANCH    5    3
ATOM      3  C3  UNL A   1      31.814  27.955  24.434  1.00  0.00    +0.000 C 
ATOM      4  O1  UNL A   1      31.181  28.692  25.192  1.00  0.00    +0.000 O 
BRANCH    3    2
ATOM      2  C2  UNL A   1      31.237  27.381  23.135  1.00  0.00    +0.000 C 
ATOM     95  H4  UNL A   1      31.709  27.916  22.338  1.00  0.00    +0.000 H 
BRANCH    2    1
ATOM      1  C1  UNL A   1      29.732  27.631  22.972  1.00  0.00    +0.000 C 
ATOM     92  H1  UNL A   1      29.569  28.654  22.702  1.00  0.00    +0.000 H 
ATOM     93  H2  UNL A   1      29.234  27.423  23.896  1.00  0.00    +0.000 H 
ATOM     94  H3  UNL A   1      29.345  26.993  22.206  1.00  0.00    +0.000 H 
ENDBRANCH    2    1
BRANCH    2   78
ATOM    137  H46 UNL A   1      33.811  23.821  21.595  1.00  0.00    +0.000 H 
ATOM     78  C55 UNL A   1      31.573  25.905  22.987  1.00  0.00    +0.000 C 
ATOM     79  C56 UNL A   1      30.766  24.940  23.604  1.00  0.00    +0.000 C 
ATOM     80  C57 UNL A   1      31.098  23.584  23.531  1.00  0.00    +0.000 C 
ATOM     81  C58 UNL A   1      32.256  23.166  22.864  1.00  0.00    +0.000 C 
ATOM     89  C65 UNL A   1      33.003  24.119  22.162  1.00  0.00    +0.000 C 
ATOM     90  C66 UNL A   1      32.660  25.465  22.226  1.00  0.00    +0.000 C 
ATOM     91  F16 UNL A   1      33.431  26.343  21.569  1.00  0.00    +0.000 F 
ATOM    124  H33 UNL A   1      29.919  25.232  24.115  1.00  0.00    +0.000 H 
ATOM    125  H34 UNL A   1      30.484  22.884  23.975  1.00  0.00    +0.000 H 
BRANCH   81   82
ATOM     82  C59 UNL A   1      32.714  21.731  22.911  1.00  0.00    +0.000 C 
ATOM    126  H35 UNL A   1      33.773  21.737  23.064  1.00  0.00    +0.000 H 
ATOM    127  H36 UNL A   1      32.388  21.310  21.983  1.00  0.00    +0.000 H 
BRANCH   82   83
ATOM    129  H38 UNL A   1      31.741  21.046  26.106  1.00  0.00    +0.000 H 
ATOM    130  H39 UNL A   1      32.991  22.080  25.506  1.00  0.00    +0.000 H 
ATOM    131  H40 UNL A   1      33.342  19.546  26.695  1.00  0.00    +0.000 H 
ATOM    132  H41 UNL A   1      34.575  20.457  25.898  1.00  0.00    +0.000 H 
ATOM    133  H42 UNL A   1      33.585  18.017  25.016  1.00  0.00    +0.000 H 
ATOM    134  H43 UNL A   1      34.458  19.101  24.012  1.00  0.00    +0.000 H 
ATOM    135  H44 UNL A   1      31.478  18.768  24.280  1.00  0.00    +0.000 H 
ATOM     83  C60 UNL A   1      32.094  20.819  23.997  1.00  0.00    +0.000 C 
ATOM     84  C61 UNL A   1      32.568  21.101  25.429  1.00  0.00    +0.000 C 
ATOM     85  C62 UNL A   1      33.604  20.027  25.776  1.00  0.00    +0.000 C 
ATOM     86  C63 UNL A   1      33.591  19.016  24.634  1.00  0.00    +0.000 C 
ATOM     87  C64 UNL A   1      32.305  19.306  23.869  1.00  0.00    +0.000 C 
ATOM    128  H37 UNL A   1      31.072  21.079  23.818  1.00  0.00    +0.000 H 
BRANCH   87   88
ATOM    136  H45 UNL A   1      31.692  19.353  22.005  1.00  0.00    +0.000 H 
ATOM     88  O3  UNL A   1      32.324  18.841  22.535  1.00  0.00    +0.000 O 
ENDBRANCH   87   88
ENDBRANCH   82   83
ENDBRANCH   81   82
ENDBRANCH    2   78
ENDBRANCH    3    2
ENDBRANCH    5    3
ENDBRANCH    6    5
ENDBRANCH    7    6
ENDBRANCH    8    7
ENDBRANCH    9    8
ENDBRANCH   10    9
ENDBRANCH   11   10
ENDBRANCH   12   11
ENDBRANCH   13   12
ENDBRANCH   15   13
ENDBRANCH   19   18
BRANCH   23   24
ATOM     33  C24 UNL A   1      37.868  31.266  29.842  1.00  0.00    +0.000 C 
ATOM     34  F5  UNL A   1      38.041  31.514  28.535  1.00  0.00    +0.000 F 
ATOM     24  C19 UNL A   1      38.871  30.616  30.578  1.00  0.00    +0.000 C 
ATOM     25  C20 UNL A   1      38.638  30.386  31.943  1.00  0.00    +0.000 C 
ATOM     26  F1  UNL A   1      39.560  29.758  32.688  1.00  0.00    +0.000 F 
ATOM     27  C21 UNL A   1      37.437  30.761  32.538  1.00  0.00    +0.000 C 
ATOM     28  F2  UNL A   1      37.216  30.482  33.831  1.00  0.00    +0.000 F 
ATOM     29  C22 UNL A   1      36.462  31.405  31.793  1.00  0.00    +0.000 C 
ATOM     30  F3  UNL A   1      35.306  31.767  32.367  1.00  0.00    +0.000 F 
ATOM     31  C23 UNL A   1      36.679  31.666  30.448  1.00  0.00    +0.000 C 
ATOM     32  F4  UNL A   1      35.743  32.299  29.728  1.00  0.00    +0.000 F 
ENDBRANCH   23   24
BRANCH   40   41
ATOM     41  C30 UNL A   1      45.506  33.258  29.556  1.00  0.00    +0.000 C 
ATOM     42  C31 UNL A   1      46.309  33.263  30.706  1.00  0.00    +0.000 C 
ATOM     43  F6  UNL A   1      46.349  32.187  31.505  1.00  0.00    +0.000 F 
ATOM     44  C32 UNL A   1      47.042  34.392  31.060  1.00  0.00    +0.000 C 
ATOM     45  F7  UNL A   1      47.764  34.392  32.189  1.00  0.00    +0.000 F 
ATOM     46  C33 UNL A   1      47.014  35.523  30.256  1.00  0.00    +0.000 C 
ATOM     47  F8  UNL A   1      47.723  36.606  30.597  1.00  0.00    +0.000 F 
ATOM     48  C34 UNL A   1      46.242  35.532  29.104  1.00  0.00    +0.000 C 
ATOM     49  F9  UNL A   1      46.222  36.618  28.320  1.00  0.00    +0.000 F 
ATOM     50  C35 UNL A   1      45.485  34.415  28.762  1.00  0.00    +0.000 C 
ATOM     51  F10 UNL A   1      44.737  34.458  27.650  1.00  0.00    +0.000 F 
ENDBRANCH   40   41
BRANCH   55   56
ATOM     65  C44 UNL A   1      48.186  27.079  26.455  1.00  0.00    +0.000 C 
ATOM     66  F15 UNL A   1      48.136  26.933  27.787  1.00  0.00    +0.000 F 
ATOM     56  C39 UNL A   1      47.099  27.638  25.768  1.00  0.00    +0.000 C 
ATOM     57  C40 UNL A   1      47.203  27.773  24.376  1.00  0.00    +0.000 C 
ATOM     58  F11 UNL A   1      46.181  28.282  23.674  1.00  0.00    +0.000 F 
ATOM     59  C41 UNL A   1      48.343  27.349  23.696  1.00  0.00    +0.000 C 
ATOM     60  F12 UNL A   1      48.400  27.450  22.361  1.00  0.00    +0.000 F 
ATOM     61  C42 UNL A   1      49.411  26.808  24.397  1.00  0.00    +0.000 C 
ATOM     62  F13 UNL A   1      50.508  26.403  23.743  1.00  0.00    +0.000 F 
ATOM     63  C43 UNL A   1      49.335  26.680  25.777  1.00  0.00    +0.000 C 
ATOM     64  F14 UNL A   1      50.370  26.169  26.458  1.00  0.00    +0.000 F 
ENDBRANCH   55   56
TORSDOF 20
ENDMDL
MODEL 9
REMARK VINA RESULT:     -10.3      2.378      3.431
ROOT
ATOM     19  C15 UNL A   1      39.638  28.786  29.560  1.00  0.00    +0.000 C 
ATOM     20  C16 UNL A   1      40.378  29.591  30.592  1.00  0.00    +0.000 C 
ATOM     21  N3  UNL A   1      41.569  29.395  31.100  1.00  0.00    +0.000 N 
ATOM     22  C17 UNL A   1      41.788  30.454  31.970  1.00  0.00    +0.000 C 
ATOM     23  C18 UNL A   1      42.848  30.675  32.784  1.00  0.00    +0.000 C 
ATOM     35  C25 UNL A   1      43.983  29.796  32.891  1.00  0.00    +0.000 C 
ATOM     36  C26 UNL A   1      45.075  29.893  33.735  1.00  0.00    +0.000 C 
ATOM     37  C27 UNL A   1      45.943  28.833  33.452  1.00  0.00    +0.000 C 
ATOM     38  C28 UNL A   1      45.370  28.049  32.464  1.00  0.00    +0.000 C 
ATOM     39  N4  UNL A   1      44.170  28.654  32.126  1.00  0.00    +0.000 N 
ATOM     40  C29 UNL A   1      45.878  26.838  31.870  1.00  0.00    +0.000 C 
ATOM     52  C36 UNL A   1      45.252  26.123  30.904  1.00  0.00    +0.000 C 
ATOM     53  N5  UNL A   1      44.028  26.364  30.295  1.00  0.00    +0.000 N 
ATOM     54  C37 UNL A   1      43.863  25.399  29.423  1.00  0.00    +0.000 C 
ATOM     55  C38 UNL A   1      42.701  25.135  28.504  1.00  0.00    +0.000 C 
ATOM     67  C45 UNL A   1      41.644  25.968  28.525  1.00  0.00    +0.000 C 
ATOM     68  C46 UNL A   1      40.442  25.835  27.707  1.00  0.00    +0.000 C 
ATOM     69  C47 UNL A   1      39.609  26.852  27.984  1.00  0.00    +0.000 C 
ATOM     70  C48 UNL A   1      40.207  27.691  29.023  1.00  0.00    +0.000 C 
ATOM     71  N6  UNL A   1      41.418  27.098  29.273  1.00  0.00    +0.000 N 
ATOM     72  C49 UNL A   1      44.985  24.451  29.359  1.00  0.00    +0.000 C 
ATOM     73  C50 UNL A   1      45.782  24.914  30.310  1.00  0.00    +0.000 C 
ATOM     74  C51 UNL A   1      40.630  31.318  31.885  1.00  0.00    +0.000 C 
ATOM     75  C52 UNL A   1      39.700  30.793  31.102  1.00  0.00    +0.000 C 
ATOM    112  H21 UNL A   1      45.224  30.623  34.450  1.00  0.00    +0.000 H 
ATOM    113  H22 UNL A   1      46.856  28.665  33.903  1.00  0.00    +0.000 H 
ATOM    114  H23 UNL A   1      43.543  28.322  31.444  1.00  0.00    +0.000 H 
ATOM    115  H24 UNL A   1      40.261  25.081  27.027  1.00  0.00    +0.000 H 
ATOM    116  H25 UNL A   1      38.694  27.015  27.535  1.00  0.00    +0.000 H 
ATOM    117  H26 UNL A   1      42.066  27.449  29.928  1.00  0.00    +0.000 H 
ATOM    118  H27 UNL A   1      45.115  23.639  28.735  1.00  0.00    +0.000 H 
ATOM    119  H28 UNL A   1      46.670  24.469  30.591  1.00  0.00    +0.000 H 
ATOM    120  H29 UNL A   1      40.542  32.224  32.371  1.00  0.00    +0.000 H 
ATOM    121  H30 UNL A   1      38.748  31.137  30.903  1.00  0.00    +0.000 H 
ENDROOT
BRANCH   19   18
ATOM     76  C53 UNL A   1      37.188  29.085  29.926  1.00  0.00    +0.000 C 
ATOM     77  C54 UNL A   1      35.921  29.454  29.480  1.00  0.00    +0.000 C 
ATOM    110  H19 UNL A   1      36.758  30.629  26.449  1.00  0.00    +0.000 H 
ATOM     15  C11 UNL A   1      35.771  30.066  28.231  1.00  0.00    +0.000 C 
ATOM     16  C12 UNL A   1      36.874  30.207  27.383  1.00  0.00    +0.000 C 
ATOM     17  C13 UNL A   1      38.133  29.773  27.805  1.00  0.00    +0.000 C 
ATOM    111  H20 UNL A   1      38.942  29.852  27.169  1.00  0.00    +0.000 H 
ATOM     18  C14 UNL A   1      38.303  29.229  29.088  1.00  0.00    +0.000 C 
ATOM    122  H31 UNL A   1      37.306  28.704  30.877  1.00  0.00    +0.000 H 
ATOM    123  H32 UNL A   1      35.093  29.275  30.070  1.00  0.00    +0.000 H 
BRANCH   15   13
ATOM     13  C10 UNL A   1      34.452  30.546  27.767  1.00  0.00    +0.000 C 
ATOM     14  O2  UNL A   1      34.014  31.617  28.176  1.00  0.00    +0.000 O 
BRANCH   13   12
ATOM     12  N2  UNL A   1      33.712  29.789  26.894  1.00  0.00    +0.000 N 
ATOM    109  H18 UNL A   1      33.227  30.295  26.203  1.00  0.00    +0.000 H 
BRANCH   12   11
ATOM     11  C9  UNL A   1      33.544  28.346  26.846  1.00  0.00    +0.000 C 
ATOM    108  H17 UNL A   1      34.293  27.906  27.471  1.00  0.00    +0.000 H 
ATOM    107  H16 UNL A   1      33.644  28.021  25.832  1.00  0.00    +0.000 H 
BRANCH   11   10
ATOM    105  H14 UNL A   1      32.297  27.597  28.387  1.00  0.00    +0.000 H 
ATOM     10  C8  UNL A   1      32.181  27.909  27.370  1.00  0.00    +0.000 C 
ATOM    106  H15 UNL A   1      31.530  28.751  27.262  1.00  0.00    +0.000 H 
BRANCH   10    9
ATOM      9  C7  UNL A   1      31.537  26.761  26.590  1.00  0.00    +0.000 C 
ATOM    103  H12 UNL A   1      30.715  26.388  27.165  1.00  0.00    +0.000 H 
ATOM    104  H13 UNL A   1      31.242  27.169  25.646  1.00  0.00    +0.000 H 
BRANCH    9    8
ATOM    101  H10 UNL A   1      32.790  25.679  25.261  1.00  0.00    +0.000 H 
ATOM    102  H11 UNL A   1      33.272  25.647  26.984  1.00  0.00    +0.000 H 
ATOM      8  C6  UNL A   1      32.471  25.587  26.278  1.00  0.00    +0.000 C 
BRANCH    8    7
ATOM     99  H8  UNL A   1      31.019  24.280  27.127  1.00  0.00    +0.000 H 
ATOM    100  H9  UNL A   1      31.555  23.859  25.483  1.00  0.00    +0.000 H 
ATOM      7  C5  UNL A   1      31.848  24.195  26.456  1.00  0.00    +0.000 C 
BRANCH    7    6
ATOM     97  H6  UNL A   1      33.176  23.478  27.967  1.00  0.00    +0.000 H 
ATOM     98  H7  UNL A   1      32.295  22.219  27.117  1.00  0.00    +0.000 H 
ATOM      6  C4  UNL A   1      32.815  23.148  27.015  1.00  0.00    +0.000 C 
BRANCH    6    5
ATOM      5  N1  UNL A   1      33.936  22.959  26.121  1.00  0.00    +0.000 N 
ATOM     96  H5  UNL A   1      34.715  23.537  26.295  1.00  0.00    +0.000 H 
BRANCH    5    3
ATOM      3  C3  UNL A   1      34.077  22.097  25.072  1.00  0.00    +0.000 C 
ATOM      4  O1  UNL A   1      33.887  20.902  25.306  1.00  0.00    +0.000 O 
BRANCH    3    2
ATOM      2  C2  UNL A   1      34.531  22.629  23.707  1.00  0.00    +0.000 C 
ATOM     95  H4  UNL A   1      34.425  21.816  23.020  1.00  0.00    +0.000 H 
BRANCH    2    1
ATOM      1  C1  UNL A   1      36.014  23.019  23.666  1.00  0.00    +0.000 C 
ATOM     92  H1  UNL A   1      36.607  22.197  24.009  1.00  0.00    +0.000 H 
ATOM     93  H2  UNL A   1      36.178  23.866  24.301  1.00  0.00    +0.000 H 
ATOM     94  H3  UNL A   1      36.291  23.266  22.664  1.00  0.00    +0.000 H 
ENDBRANCH    2    1
BRANCH    2   78
ATOM    137  H46 UNL A   1      30.488  24.478  22.327  1.00  0.00    +0.000 H 
ATOM     78  C55 UNL A   1      33.644  23.772  23.238  1.00  0.00    +0.000 C 
ATOM     79  C56 UNL A   1      34.180  25.060  23.096  1.00  0.00    +0.000 C 
ATOM     80  C57 UNL A   1      33.363  26.132  22.729  1.00  0.00    +0.000 C 
ATOM     81  C58 UNL A   1      31.991  25.948  22.519  1.00  0.00    +0.000 C 
ATOM     89  C65 UNL A   1      31.478  24.647  22.560  1.00  0.00    +0.000 C 
ATOM     90  C66 UNL A   1      32.298  23.580  22.913  1.00  0.00    +0.000 C 
ATOM     91  F16 UNL A   1      31.750  22.359  22.976  1.00  0.00    +0.000 F 
ATOM    124  H33 UNL A   1      35.185  25.217  23.264  1.00  0.00    +0.000 H 
ATOM    125  H34 UNL A   1      33.775  27.070  22.610  1.00  0.00    +0.000 H 
BRANCH   81   82
ATOM     82  C59 UNL A   1      31.070  27.116  22.280  1.00  0.00    +0.000 C 
ATOM    126  H35 UNL A   1      30.363  26.820  21.533  1.00  0.00    +0.000 H 
ATOM    127  H36 UNL A   1      31.717  27.922  22.003  1.00  0.00    +0.000 H 
BRANCH   82   83
ATOM    129  H38 UNL A   1      28.246  27.385  24.171  1.00  0.00    +0.000 H 
ATOM    130  H39 UNL A   1      28.445  27.080  22.480  1.00  0.00    +0.000 H 
ATOM    131  H40 UNL A   1      27.624  29.508  23.657  1.00  0.00    +0.000 H 
ATOM    132  H41 UNL A   1      28.037  29.292  21.993  1.00  0.00    +0.000 H 
ATOM    133  H42 UNL A   1      29.453  30.872  23.785  1.00  0.00    +0.000 H 
ATOM    134  H43 UNL A   1      30.102  30.316  22.298  1.00  0.00    +0.000 H 
ATOM    135  H44 UNL A   1      30.423  29.139  25.050  1.00  0.00    +0.000 H 
ATOM     83  C60 UNL A   1      30.268  27.653  23.490  1.00  0.00    +0.000 C 
ATOM     84  C61 UNL A   1      28.748  27.715  23.285  1.00  0.00    +0.000 C 
ATOM     85  C62 UNL A   1      28.395  29.176  22.994  1.00  0.00    +0.000 C 
ATOM     86  C63 UNL A   1      29.666  29.990  23.218  1.00  0.00    +0.000 C 
ATOM     87  C64 UNL A   1      30.592  29.063  23.997  1.00  0.00    +0.000 C 
ATOM    128  H37 UNL A   1      30.582  26.912  24.194  1.00  0.00    +0.000 H 
BRANCH   87   88
ATOM    136  H45 UNL A   1      32.055  30.158  23.282  1.00  0.00    +0.000 H 
ATOM     88  O3  UNL A   1      31.957  29.410  23.892  1.00  0.00    +0.000 O 
ENDBRANCH   87   88
ENDBRANCH   82   83
ENDBRANCH   81   82
ENDBRANCH    2   78
ENDBRANCH    3    2
ENDBRANCH    5    3
ENDBRANCH    6    5
ENDBRANCH    7    6
ENDBRANCH    8    7
ENDBRANCH    9    8
ENDBRANCH   10    9
ENDBRANCH   11   10
ENDBRANCH   12   11
ENDBRANCH   13   12
ENDBRANCH   15   13
ENDBRANCH   19   18
BRANCH   23   24
ATOM     33  C24 UNL A   1      43.414  33.104  33.156  1.00  0.00    +0.000 C 
ATOM     34  F5  UNL A   1      43.985  33.143  31.943  1.00  0.00    +0.000 F 
ATOM     24  C19 UNL A   1      42.828  31.918  33.624  1.00  0.00    +0.000 C 
ATOM     25  C20 UNL A   1      42.249  31.934  34.903  1.00  0.00    +0.000 C 
ATOM     26  F1  UNL A   1      41.665  30.831  35.393  1.00  0.00    +0.000 F 
ATOM     27  C21 UNL A   1      42.227  33.099  35.665  1.00  0.00    +0.000 C 
ATOM     28  F2  UNL A   1      41.620  33.104  36.861  1.00  0.00    +0.000 F 
ATOM     29  C22 UNL A   1      42.816  34.258  35.184  1.00  0.00    +0.000 C 
ATOM     30  F3  UNL A   1      42.796  35.378  35.919  1.00  0.00    +0.000 F 
ATOM     31  C23 UNL A   1      43.417  34.259  33.934  1.00  0.00    +0.000 C 
ATOM     32  F4  UNL A   1      43.997  35.375  33.471  1.00  0.00    +0.000 F 
ENDBRANCH   23   24
BRANCH   40   41
ATOM     41  C30 UNL A   1      47.189  26.310  32.373  1.00  0.00    +0.000 C 
ATOM     42  C31 UNL A   1      47.253  25.364  33.407  1.00  0.00    +0.000 C 
ATOM     43  F6  UNL A   1      46.129  24.941  34.005  1.00  0.00    +0.000 F 
ATOM     44  C32 UNL A   1      48.478  24.881  33.859  1.00  0.00    +0.000 C 
ATOM     45  F7  UNL A   1      48.519  24.015  34.881  1.00  0.00    +0.000 F 
ATOM     46  C33 UNL A   1      49.657  25.307  33.266  1.00  0.00    +0.000 C 
ATOM     47  F8  UNL A   1      50.834  24.838  33.700  1.00  0.00    +0.000 F 
ATOM     48  C34 UNL A   1      49.615  26.226  32.228  1.00  0.00    +0.000 C 
ATOM     49  F9  UNL A   1      50.752  26.630  31.645  1.00  0.00    +0.000 F 
ATOM     50  C35 UNL A   1      48.394  26.733  31.793  1.00  0.00    +0.000 C 
ATOM     51  F10 UNL A   1      48.386  27.631  30.797  1.00  0.00    +0.000 F 
ENDBRANCH   40   41
BRANCH   55   56
ATOM     65  C44 UNL A   1      43.069  24.036  26.267  1.00  0.00    +0.000 C 
ATOM     66  F15 UNL A   1      43.444  25.215  25.752  1.00  0.00    +0.000 F 
ATOM     56  C39 UNL A   1      42.690  23.946  27.614  1.00  0.00    +0.000 C 
ATOM     57  C40 UNL A   1      42.303  22.691  28.103  1.00  0.00    +0.000 C 
ATOM     58  F11 UNL A   1      41.953  22.552  29.390  1.00  0.00    +0.000 F 
ATOM     59  C41 UNL A   1      42.311  21.565  27.282  1.00  0.00    +0.000 C 
ATOM     60  F12 UNL A   1      41.976  20.369  27.785  1.00  0.00    +0.000 F 
ATOM     61  C42 UNL A   1      42.680  21.679  25.950  1.00  0.00    +0.000 C 
ATOM     62  F13 UNL A   1      42.685  20.597  25.159  1.00  0.00    +0.000 F 
ATOM     63  C43 UNL A   1      43.052  22.915  25.441  1.00  0.00    +0.000 C 
ATOM     64  F14 UNL A   1      43.397  23.031  24.151  1.00  0.00    +0.000 F 
ENDBRANCH   55   56
TORSDOF 20
ENDMDL
MODEL 10
REMARK VINA RESULT:     -10.3      4.303      7.381
ROOT
ATOM     19  C15 UNL A   1      41.496  26.205  27.422  1.00  0.00    +0.000 C 
ATOM     20  C16 UNL A   1      40.815  27.274  28.231  1.00  0.00    +0.000 C 
ATOM     21  N3  UNL A   1      41.266  28.444  28.606  1.00  0.00    +0.000 N 
ATOM     22  C17 UNL A   1      40.220  29.052  29.287  1.00  0.00    +0.000 C 
ATOM     23  C18 UNL A   1      40.206  30.248  29.922  1.00  0.00    +0.000 C 
ATOM     35  C25 UNL A   1      41.338  31.134  30.006  1.00  0.00    +0.000 C 
ATOM     36  C26 UNL A   1      41.448  32.335  30.683  1.00  0.00    +0.000 C 
ATOM     37  C27 UNL A   1      42.723  32.859  30.442  1.00  0.00    +0.000 C 
ATOM     38  C28 UNL A   1      43.424  31.962  29.652  1.00  0.00    +0.000 C 
ATOM     39  N4  UNL A   1      42.560  30.910  29.388  1.00  0.00    +0.000 N 
ATOM     40  C29 UNL A   1      44.779  32.056  29.172  1.00  0.00    +0.000 C 
ATOM     52  C36 UNL A   1      45.397  31.128  28.402  1.00  0.00    +0.000 C 
ATOM     53  N5  UNL A   1      44.904  29.921  27.924  1.00  0.00    +0.000 N 
ATOM     54  C37 UNL A   1      45.874  29.388  27.221  1.00  0.00    +0.000 C 
ATOM     55  C38 UNL A   1      45.914  28.066  26.503  1.00  0.00    +0.000 C 
ATOM     67  C45 UNL A   1      44.834  27.265  26.542  1.00  0.00    +0.000 C 
ATOM     68  C46 UNL A   1      44.727  25.953  25.908  1.00  0.00    +0.000 C 
ATOM     69  C47 UNL A   1      43.503  25.451  26.145  1.00  0.00    +0.000 C 
ATOM     70  C48 UNL A   1      42.751  26.394  26.974  1.00  0.00    +0.000 C 
ATOM     71  N6  UNL A   1      43.615  27.445  27.149  1.00  0.00    +0.000 N 
ATOM     72  C49 UNL A   1      47.087  30.216  27.148  1.00  0.00    +0.000 C 
ATOM     73  C50 UNL A   1      46.757  31.243  27.917  1.00  0.00    +0.000 C 
ATOM     74  C51 UNL A   1      39.095  28.144  29.231  1.00  0.00    +0.000 C 
ATOM     75  C52 UNL A   1      39.431  27.002  28.651  1.00  0.00    +0.000 C 
ATOM    112  H21 UNL A   1      40.715  32.770  31.266  1.00  0.00    +0.000 H 
ATOM    113  H22 UNL A   1      43.080  33.761  30.793  1.00  0.00    +0.000 H 
ATOM    114  H23 UNL A   1      42.782  30.121  28.843  1.00  0.00    +0.000 H 
ATOM    115  H24 UNL A   1      45.471  25.487  25.367  1.00  0.00    +0.000 H 
ATOM    116  H25 UNL A   1      43.151  24.546  25.797  1.00  0.00    +0.000 H 
ATOM    117  H26 UNL A   1      43.383  28.255  27.661  1.00  0.00    +0.000 H 
ATOM    118  H27 UNL A   1      47.963  30.043  26.632  1.00  0.00    +0.000 H 
ATOM    119  H28 UNL A   1      47.390  32.026  28.143  1.00  0.00    +0.000 H 
ATOM    120  H29 UNL A   1      38.153  28.360  29.594  1.00  0.00    +0.000 H 
ATOM    121  H30 UNL A   1      38.870  26.145  28.528  1.00  0.00    +0.000 H 
ENDROOT
BRANCH   19   18
ATOM     76  C53 UNL A   1      39.627  25.036  26.251  1.00  0.00    +0.000 C 
ATOM     77  C54 UNL A   1      38.906  23.885  25.945  1.00  0.00    +0.000 C 
ATOM    110  H19 UNL A   1      40.830  21.632  27.522  1.00  0.00    +0.000 H 
ATOM     15  C11 UNL A   1      39.374  22.636  26.365  1.00  0.00    +0.000 C 
ATOM     16  C12 UNL A   1      40.503  22.550  27.186  1.00  0.00    +0.000 C 
ATOM     17  C13 UNL A   1      41.187  23.713  27.548  1.00  0.00    +0.000 C 
ATOM    111  H20 UNL A   1      42.004  23.653  28.175  1.00  0.00    +0.000 H 
ATOM     18  C14 UNL A   1      40.767  24.963  27.066  1.00  0.00    +0.000 C 
ATOM    122  H31 UNL A   1      39.322  25.948  25.876  1.00  0.00    +0.000 H 
ATOM    123  H32 UNL A   1      38.026  23.953  25.410  1.00  0.00    +0.000 H 
BRANCH   15   13
ATOM     13  C10 UNL A   1      38.676  21.389  25.984  1.00  0.00    +0.000 C 
ATOM     14  O2  UNL A   1      39.304  20.337  25.912  1.00  0.00    +0.000 O 
BRANCH   13   12
ATOM     12  N2  UNL A   1      37.335  21.411  25.698  1.00  0.00    +0.000 N 
ATOM    109  H18 UNL A   1      36.736  21.331  26.475  1.00  0.00    +0.000 H 
BRANCH   12   11
ATOM     11  C9  UNL A   1      36.673  21.536  24.411  1.00  0.00    +0.000 C 
ATOM    108  H17 UNL A   1      36.039  20.683  24.282  1.00  0.00    +0.000 H 
ATOM    107  H16 UNL A   1      37.417  21.586  23.643  1.00  0.00    +0.000 H 
BRANCH   11   10
ATOM    105  H14 UNL A   1      36.305  23.507  23.726  1.00  0.00    +0.000 H 
ATOM     10  C8  UNL A   1      35.800  22.783  24.331  1.00  0.00    +0.000 C 
ATOM    106  H15 UNL A   1      34.863  22.472  23.919  1.00  0.00    +0.000 H 
BRANCH   10    9
ATOM      9  C7  UNL A   1      35.487  23.428  25.684  1.00  0.00    +0.000 C 
ATOM    103  H12 UNL A   1      35.348  22.645  26.400  1.00  0.00    +0.000 H 
ATOM    104  H13 UNL A   1      36.315  24.067  25.910  1.00  0.00    +0.000 H 
BRANCH    9    8
ATOM    101  H10 UNL A   1      33.581  23.982  24.930  1.00  0.00    +0.000 H 
ATOM    102  H11 UNL A   1      33.826  24.230  26.686  1.00  0.00    +0.000 H 
ATOM      8  C6  UNL A   1      34.240  24.318  25.703  1.00  0.00    +0.000 C 
BRANCH    8    7
ATOM     99  H8  UNL A   1      35.373  26.088  26.047  1.00  0.00    +0.000 H 
ATOM    100  H9  UNL A   1      34.638  25.955  24.431  1.00  0.00    +0.000 H 
ATOM      7  C5  UNL A   1      34.506  25.815  25.484  1.00  0.00    +0.000 C 
BRANCH    7    6
ATOM     97  H6  UNL A   1      32.491  26.115  26.125  1.00  0.00    +0.000 H 
ATOM     98  H7  UNL A   1      33.642  27.267  26.782  1.00  0.00    +0.000 H 
ATOM      6  C4  UNL A   1      33.348  26.720  25.911  1.00  0.00    +0.000 C 
BRANCH    6    5
ATOM      5  N1  UNL A   1      33.018  27.658  24.860  1.00  0.00    +0.000 N 
ATOM     96  H5  UNL A   1      33.789  28.056  24.395  1.00  0.00    +0.000 H 
BRANCH    5    3
ATOM      3  C3  UNL A   1      31.795  28.073  24.417  1.00  0.00    +0.000 C 
ATOM      4  O1  UNL A   1      31.180  28.861  25.138  1.00  0.00    +0.000 O 
BRANCH    3    2
ATOM      2  C2  UNL A   1      31.221  27.492  23.118  1.00  0.00    +0.000 C 
ATOM     95  H4  UNL A   1      31.703  28.018  22.320  1.00  0.00    +0.000 H 
BRANCH    2    1
ATOM      1  C1  UNL A   1      29.720  27.752  22.943  1.00  0.00    +0.000 C 
ATOM     92  H1  UNL A   1      29.577  28.576  22.276  1.00  0.00    +0.000 H 
ATOM     93  H2  UNL A   1      29.285  27.983  23.893  1.00  0.00    +0.000 H 
ATOM     94  H3  UNL A   1      29.252  26.880  22.539  1.00  0.00    +0.000 H 
ENDBRANCH    2    1
BRANCH    2   78
ATOM    137  H46 UNL A   1      33.790  23.903  21.638  1.00  0.00    +0.000 H 
ATOM     78  C55 UNL A   1      31.549  26.013  22.984  1.00  0.00    +0.000 C 
ATOM     79  C56 UNL A   1      30.724  25.058  23.595  1.00  0.00    +0.000 C 
ATOM     80  C57 UNL A   1      31.047  23.699  23.534  1.00  0.00    +0.000 C 
ATOM     81  C58 UNL A   1      32.211  23.268  22.887  1.00  0.00    +0.000 C 
ATOM     89  C65 UNL A   1      32.976  24.210  22.191  1.00  0.00    +0.000 C 
ATOM     90  C66 UNL A   1      32.643  25.560  22.242  1.00  0.00    +0.000 C 
ATOM     91  F16 UNL A   1      33.430  26.428  21.591  1.00  0.00    +0.000 F 
ATOM    124  H33 UNL A   1      29.872  25.359  24.092  1.00  0.00    +0.000 H 
ATOM    125  H34 UNL A   1      30.421  23.007  23.973  1.00  0.00    +0.000 H 
BRANCH   81   82
ATOM     82  C59 UNL A   1      32.657  21.830  22.949  1.00  0.00    +0.000 C 
ATOM    126  H35 UNL A   1      33.719  21.829  23.083  1.00  0.00    +0.000 H 
ATOM    127  H36 UNL A   1      32.311  21.397  22.034  1.00  0.00    +0.000 H 
BRANCH   82   83
ATOM    129  H38 UNL A   1      31.657  21.236  26.155  1.00  0.00    +0.000 H 
ATOM    130  H39 UNL A   1      32.885  22.284  25.532  1.00  0.00    +0.000 H 
ATOM    131  H40 UNL A   1      33.293  19.810  26.822  1.00  0.00    +0.000 H 
ATOM    132  H41 UNL A   1      34.511  20.726  26.008  1.00  0.00    +0.000 H 
ATOM    133  H42 UNL A   1      33.607  18.226  25.206  1.00  0.00    +0.000 H 
ATOM    134  H43 UNL A   1      34.462  19.297  24.174  1.00  0.00    +0.000 H 
ATOM    135  H44 UNL A   1      31.489  18.884  24.414  1.00  0.00    +0.000 H 
ATOM     83  C60 UNL A   1      32.049  20.941  24.061  1.00  0.00    +0.000 C 
ATOM     84  C61 UNL A   1      32.492  21.291  25.487  1.00  0.00    +0.000 C 
ATOM     85  C62 UNL A   1      33.554  20.263  25.889  1.00  0.00    +0.000 C 
ATOM     86  C63 UNL A   1      33.589  19.210  24.787  1.00  0.00    +0.000 C 
ATOM     87  C64 UNL A   1      32.306  19.432  23.993  1.00  0.00    +0.000 C 
ATOM    128  H37 UNL A   1      31.022  21.163  23.858  1.00  0.00    +0.000 H 
BRANCH   87   88
ATOM    136  H45 UNL A   1      31.594  18.340  22.526  1.00  0.00    +0.000 H 
ATOM     88  O3  UNL A   1      32.359  18.917  22.679  1.00  0.00    +0.000 O 
ENDBRANCH   87   88
ENDBRANCH   82   83
ENDBRANCH   81   82
ENDBRANCH    2   78
ENDBRANCH    3    2
ENDBRANCH    5    3
ENDBRANCH    6    5
ENDBRANCH    7    6
ENDBRANCH    8    7
ENDBRANCH    9    8
ENDBRANCH   10    9
ENDBRANCH   11   10
ENDBRANCH   12   11
ENDBRANCH   13   12
ENDBRANCH   15   13
ENDBRANCH   19   18
BRANCH   23   24
ATOM     33  C24 UNL A   1      38.721  30.454  31.950  1.00  0.00    +0.000 C 
ATOM     34  F5  UNL A   1      39.681  29.884  32.694  1.00  0.00    +0.000 F 
ATOM     24  C19 UNL A   1      38.923  30.668  30.578  1.00  0.00    +0.000 C 
ATOM     25  C20 UNL A   1      37.883  31.265  29.848  1.00  0.00    +0.000 C 
ATOM     26  F1  UNL A   1      38.030  31.503  28.536  1.00  0.00    +0.000 F 
ATOM     27  C21 UNL A   1      36.704  31.661  30.473  1.00  0.00    +0.000 C 
ATOM     28  F2  UNL A   1      35.747  32.278  29.765  1.00  0.00    +0.000 F 
ATOM     29  C22 UNL A   1      36.525  31.435  31.829  1.00  0.00    +0.000 C 
ATOM     30  F3  UNL A   1      35.389  31.815  32.430  1.00  0.00    +0.000 F 
ATOM     31  C23 UNL A   1      37.529  30.825  32.566  1.00  0.00    +0.000 C 
ATOM     32  F4  UNL A   1      37.353  30.595  33.875  1.00  0.00    +0.000 F 
ENDBRANCH   23   24
BRANCH   40   41
ATOM     41  C30 UNL A   1      45.581  33.257  29.574  1.00  0.00    +0.000 C 
ATOM     42  C31 UNL A   1      45.570  34.438  28.817  1.00  0.00    +0.000 C 
ATOM     43  F6  UNL A   1      44.866  34.501  27.677  1.00  0.00    +0.000 F 
ATOM     44  C32 UNL A   1      46.318  35.545  29.208  1.00  0.00    +0.000 C 
ATOM     45  F7  UNL A   1      46.331  36.646  28.444  1.00  0.00    +0.000 F 
ATOM     46  C33 UNL A   1      47.062  35.506  30.378  1.00  0.00    +0.000 C 
ATOM     47  F8  UNL A   1      47.777  36.574  30.755  1.00  0.00    +0.000 F 
ATOM     48  C34 UNL A   1      47.071  34.356  31.153  1.00  0.00    +0.000 C 
ATOM     49  F9  UNL A   1      47.780  34.319  32.290  1.00  0.00    +0.000 F 
ATOM     50  C35 UNL A   1      46.348  33.237  30.749  1.00  0.00    +0.000 C 
ATOM     51  F10 UNL A   1      46.387  32.134  31.512  1.00  0.00    +0.000 F 
ENDBRANCH   40   41
BRANCH   55   56
ATOM     65  C44 UNL A   1      47.274  27.754  24.405  1.00  0.00    +0.000 C 
ATOM     66  F15 UNL A   1      46.276  28.283  23.682  1.00  0.00    +0.000 F 
ATOM     56  C39 UNL A   1      47.141  27.623  25.794  1.00  0.00    +0.000 C 
ATOM     57  C40 UNL A   1      48.212  27.060  26.503  1.00  0.00    +0.000 C 
ATOM     58  F11 UNL A   1      48.140  26.934  27.836  1.00  0.00    +0.000 F 
ATOM     59  C41 UNL A   1      49.376  26.661  25.851  1.00  0.00    +0.000 C 
ATOM     60  F12 UNL A   1      50.402  26.166  26.557  1.00  0.00    +0.000 F 
ATOM     61  C42 UNL A   1      49.482  26.792  24.474  1.00  0.00    +0.000 C 
ATOM     62  F13 UNL A   1      50.601  26.406  23.845  1.00  0.00    +0.000 F 
ATOM     63  C43 UNL A   1      48.428  27.332  23.750  1.00  0.00    +0.000 C 
ATOM     64  F14 UNL A   1      48.521  27.447  22.418  1.00  0.00    +0.000 F 
ENDBRANCH   55   56
TORSDOF 20
ENDMDL
