MODEL 1
REMARK VINA RESULT:     -11.5      0.000      0.000
ROOT
ATOM     19  C15 UNL A   1      38.043  30.074  29.794  1.00  0.00    +0.000 C 
ATOM     20  C16 UNL A   1      39.095  29.147  29.252  1.00  0.00    +0.000 C 
ATOM     21  N3  UNL A   1      40.198  28.724  29.820  1.00  0.00    +0.000 N 
ATOM     22  C17 UNL A   1      40.786  27.859  28.907  1.00  0.00    +0.000 C 
ATOM     23  C18 UNL A   1      41.969  27.204  29.002  1.00  0.00    +0.000 C 
ATOM     35  C25 UNL A   1      42.866  27.303  30.123  1.00  0.00    +0.000 C 
ATOM     36  C26 UNL A   1      44.114  26.725  30.284  1.00  0.00    +0.000 C 
ATOM     37  C27 UNL A   1      44.597  27.071  31.551  1.00  0.00    +0.000 C 
ATOM     38  C28 UNL A   1      43.670  27.898  32.162  1.00  0.00    +0.000 C 
ATOM     39  N4  UNL A   1      42.612  28.029  31.277  1.00  0.00    +0.000 N 
ATOM     40  C29 UNL A   1      43.741  28.523  33.457  1.00  0.00    +0.000 C 
ATOM     52  C36 UNL A   1      42.790  29.335  33.980  1.00  0.00    +0.000 C 
ATOM     53  N5  UNL A   1      41.586  29.740  33.420  1.00  0.00    +0.000 N 
ATOM     54  C37 UNL A   1      41.014  30.507  34.316  1.00  0.00    +0.000 C 
ATOM     55  C38 UNL A   1      39.705  31.243  34.236  1.00  0.00    +0.000 C 
ATOM     67  C45 UNL A   1      38.968  31.163  33.112  1.00  0.00    +0.000 C 
ATOM     68  C46 UNL A   1      37.687  31.828  32.891  1.00  0.00    +0.000 C 
ATOM     69  C47 UNL A   1      37.220  31.488  31.679  1.00  0.00    +0.000 C 
ATOM     70  C48 UNL A   1      38.187  30.607  31.023  1.00  0.00    +0.000 C 
ATOM     71  N6  UNL A   1      39.197  30.477  31.944  1.00  0.00    +0.000 N 
ATOM     72  C49 UNL A   1      41.783  30.654  35.560  1.00  0.00    +0.000 C 
ATOM     73  C50 UNL A   1      42.872  29.951  35.288  1.00  0.00    +0.000 C 
ATOM     74  C51 UNL A   1      39.898  27.784  27.765  1.00  0.00    +0.000 C 
ATOM     75  C52 UNL A   1      38.869  28.607  27.903  1.00  0.00    +0.000 C 
ATOM    112  H21 UNL A   1      44.603  26.140  29.589  1.00  0.00    +0.000 H 
ATOM    113  H22 UNL A   1      45.493  26.761  31.960  1.00  0.00    +0.000 H 
ATOM    114  H23 UNL A   1      41.799  28.560  31.442  1.00  0.00    +0.000 H 
ATOM    115  H24 UNL A   1      37.216  32.457  33.560  1.00  0.00    +0.000 H 
ATOM    116  H25 UNL A   1      36.322  31.798  31.275  1.00  0.00    +0.000 H 
ATOM    117  H26 UNL A   1      40.008  29.942  31.783  1.00  0.00    +0.000 H 
ATOM    118  H27 UNL A   1      41.537  31.169  36.420  1.00  0.00    +0.000 H 
ATOM    119  H28 UNL A   1      43.678  29.855  35.927  1.00  0.00    +0.000 H 
ATOM    120  H29 UNL A   1      40.048  27.168  26.950  1.00  0.00    +0.000 H 
ATOM    121  H30 UNL A   1      38.107  28.814  27.238  1.00  0.00    +0.000 H 
ENDROOT
BRANCH   19   18
ATOM     76  C53 UNL A   1      35.874  29.336  28.791  1.00  0.00    +0.000 C 
ATOM     77  C54 UNL A   1      34.707  29.592  28.068  1.00  0.00    +0.000 C 
ATOM    110  H19 UNL A   1      35.178  32.856  27.464  1.00  0.00    +0.000 H 
ATOM     15  C11 UNL A   1      34.423  30.890  27.636  1.00  0.00    +0.000 C 
ATOM     16  C12 UNL A   1      35.365  31.907  27.823  1.00  0.00    +0.000 C 
ATOM     17  C13 UNL A   1      36.561  31.637  28.494  1.00  0.00    +0.000 C 
ATOM    111  H20 UNL A   1      37.264  32.384  28.611  1.00  0.00    +0.000 H 
ATOM     18  C14 UNL A   1      36.811  30.356  29.013  1.00  0.00    +0.000 C 
ATOM    122  H31 UNL A   1      36.047  28.390  29.165  1.00  0.00    +0.000 H 
ATOM    123  H32 UNL A   1      34.055  28.821  27.852  1.00  0.00    +0.000 H 
BRANCH   15   13
ATOM     13  C10 UNL A   1      33.163  31.211  26.925  1.00  0.00    +0.000 C 
ATOM     14  O2  UNL A   1      32.511  32.192  27.264  1.00  0.00    +0.000 O 
BRANCH   13   12
ATOM     12  N2  UNL A   1      32.719  30.418  25.894  1.00  0.00    +0.000 N 
ATOM    109  H18 UNL A   1      33.233  30.491  25.058  1.00  0.00    +0.000 H 
BRANCH   12   11
ATOM     11  C9  UNL A   1      31.604  29.486  25.857  1.00  0.00    +0.000 C 
ATOM    108  H17 UNL A   1      31.158  29.546  24.886  1.00  0.00    +0.000 H 
ATOM    107  H16 UNL A   1      30.906  29.752  26.623  1.00  0.00    +0.000 H 
BRANCH   11   10
ATOM    105  H14 UNL A   1      32.233  27.907  27.123  1.00  0.00    +0.000 H 
ATOM     10  C8  UNL A   1      32.052  28.041  26.078  1.00  0.00    +0.000 C 
ATOM    106  H15 UNL A   1      31.263  27.426  25.695  1.00  0.00    +0.000 H 
BRANCH   10    9
ATOM      9  C7  UNL A   1      33.318  27.621  25.319  1.00  0.00    +0.000 C 
ATOM    103  H12 UNL A   1      33.035  27.385  24.314  1.00  0.00    +0.000 H 
ATOM    104  H13 UNL A   1      33.993  28.448  25.399  1.00  0.00    +0.000 H 
BRANCH    9    8
ATOM    101  H10 UNL A   1      34.797  26.101  25.168  1.00  0.00    +0.000 H 
ATOM    102  H11 UNL A   1      34.512  26.737  26.810  1.00  0.00    +0.000 H 
ATOM      8  C6  UNL A   1      34.073  26.414  25.890  1.00  0.00    +0.000 C 
BRANCH    8    7
ATOM     99  H8  UNL A   1      33.074  25.165  27.294  1.00  0.00    +0.000 H 
ATOM    100  H9  UNL A   1      32.252  25.359  25.730  1.00  0.00    +0.000 H 
ATOM      7  C5  UNL A   1      33.185  25.212  26.231  1.00  0.00    +0.000 C 
BRANCH    7    6
ATOM     97  H6  UNL A   1      34.394  23.472  26.499  1.00  0.00    +0.000 H 
ATOM     98  H7  UNL A   1      32.937  23.212  25.547  1.00  0.00    +0.000 H 
ATOM      6  C4  UNL A   1      33.753  23.876  25.743  1.00  0.00    +0.000 C 
BRANCH    6    5
ATOM      5  N1  UNL A   1      34.512  24.046  24.518  1.00  0.00    +0.000 N 
ATOM     96  H5  UNL A   1      35.239  24.708  24.562  1.00  0.00    +0.000 H 
BRANCH    5    3
ATOM      3  C3  UNL A   1      34.362  23.419  23.309  1.00  0.00    +0.000 C 
ATOM      4  O1  UNL A   1      35.338  22.810  22.864  1.00  0.00    +0.000 O 
BRANCH    3    2
ATOM      2  C2  UNL A   1      33.031  23.510  22.540  1.00  0.00    +0.000 C 
ATOM     95  H4  UNL A   1      33.222  23.359  21.499  1.00  0.00    +0.000 H 
BRANCH    2    1
ATOM      1  C1  UNL A   1      32.086  22.399  23.021  1.00  0.00    +0.000 C 
ATOM     92  H1  UNL A   1      31.151  22.477  22.505  1.00  0.00    +0.000 H 
ATOM     93  H2  UNL A   1      31.922  22.501  24.073  1.00  0.00    +0.000 H 
ATOM     94  H3  UNL A   1      32.526  21.444  22.819  1.00  0.00    +0.000 H 
ENDBRANCH    2    1
BRANCH    2   78
ATOM    129  H38 UNL A   1      26.747  30.385  22.843  1.00  0.00    +0.000 H 
ATOM    130  H39 UNL A   1      30.770  30.139  21.628  1.00  0.00    +0.000 H 
ATOM     78  C55 UNL A   1      32.403  24.897  22.645  1.00  0.00    +0.000 C 
ATOM     79  C56 UNL A   1      32.967  26.016  22.016  1.00  0.00    +0.000 C 
ATOM     80  C57 UNL A   1      32.303  27.253  21.986  1.00  0.00    +0.000 C 
ATOM     81  C58 UNL A   1      31.008  27.356  22.530  1.00  0.00    +0.000 C 
ATOM     82  C59 UNL A   1      30.480  26.248  23.185  1.00  0.00    +0.000 C 
ATOM     83  C60 UNL A   1      31.177  25.042  23.319  1.00  0.00    +0.000 C 
ATOM     84  N7  UNL A   1      29.210  26.579  23.588  1.00  0.00    +0.000 N 
ATOM     85  C61 UNL A   1      28.874  27.843  23.165  1.00  0.00    +0.000 C 
ATOM     86  C62 UNL A   1      27.664  28.538  23.281  1.00  0.00    +0.000 C 
ATOM     87  C63 UNL A   1      27.623  29.842  22.780  1.00  0.00    +0.000 C 
ATOM     88  C64 UNL A   1      28.749  30.417  22.197  1.00  0.00    +0.000 C 
ATOM     89 Cl1  UNL A   1      28.663  32.035  21.611  1.00  0.00    +0.000 Cl
ATOM     90  C65 UNL A   1      29.945  29.705  22.070  1.00  0.00    +0.000 C 
ATOM     91  C66 UNL A   1      30.007  28.381  22.555  1.00  0.00    +0.000 C 
ATOM    124  H33 UNL A   1      33.891  25.928  21.564  1.00  0.00    +0.000 H 
ATOM    125  H34 UNL A   1      32.759  28.079  21.568  1.00  0.00    +0.000 H 
ATOM    126  H35 UNL A   1      30.800  24.276  23.900  1.00  0.00    +0.000 H 
ATOM    127  H36 UNL A   1      28.617  25.989  24.108  1.00  0.00    +0.000 H 
ATOM    128  H37 UNL A   1      26.837  28.105  23.720  1.00  0.00    +0.000 H 
ENDBRANCH    2   78
ENDBRANCH    3    2
ENDBRANCH    5    3
ENDBRANCH    6    5
ENDBRANCH    7    6
ENDBRANCH    8    7
ENDBRANCH    9    8
ENDBRANCH   10    9
ENDBRANCH   11   10
ENDBRANCH   12   11
ENDBRANCH   13   12
ENDBRANCH   15   13
ENDBRANCH   19   18
BRANCH   23   24
ATOM     33  C24 UNL A   1      43.251  26.790  26.870  1.00  0.00    +0.000 C 
ATOM     34  F5  UNL A   1      43.777  28.020  26.963  1.00  0.00    +0.000 F 
ATOM     24  C19 UNL A   1      42.367  26.321  27.856  1.00  0.00    +0.000 C 
ATOM     25  C20 UNL A   1      41.841  25.030  27.705  1.00  0.00    +0.000 C 
ATOM     26  F1  UNL A   1      41.001  24.533  28.625  1.00  0.00    +0.000 F 
ATOM     27  C21 UNL A   1      42.202  24.230  26.624  1.00  0.00    +0.000 C 
ATOM     28  F2  UNL A   1      41.719  22.984  26.524  1.00  0.00    +0.000 F 
ATOM     29  C22 UNL A   1      43.070  24.716  25.658  1.00  0.00    +0.000 C 
ATOM     30  F3  UNL A   1      43.410  23.947  24.614  1.00  0.00    +0.000 F 
ATOM     31  C23 UNL A   1      43.589  25.997  25.777  1.00  0.00    +0.000 C 
ATOM     32  F4  UNL A   1      44.417  26.473  24.836  1.00  0.00    +0.000 F 
ENDBRANCH   23   24
BRANCH   40   41
ATOM     41  C30 UNL A   1      44.966  28.278  34.287  1.00  0.00    +0.000 C 
ATOM     42  C31 UNL A   1      45.056  27.183  35.160  1.00  0.00    +0.000 C 
ATOM     43  F6  UNL A   1      44.014  26.350  35.306  1.00  0.00    +0.000 F 
ATOM     44  C32 UNL A   1      46.204  26.962  35.915  1.00  0.00    +0.000 C 
ATOM     45  F7  UNL A   1      46.251  25.936  36.775  1.00  0.00    +0.000 F 
ATOM     46  C33 UNL A   1      47.294  27.812  35.791  1.00  0.00    +0.000 C 
ATOM     47  F8  UNL A   1      48.400  27.596  36.516  1.00  0.00    +0.000 F 
ATOM     48  C34 UNL A   1      47.234  28.891  34.922  1.00  0.00    +0.000 C 
ATOM     49  F9  UNL A   1      48.288  29.707  34.793  1.00  0.00    +0.000 F 
ATOM     50  C35 UNL A   1      46.077  29.130  34.184  1.00  0.00    +0.000 C 
ATOM     51  F10 UNL A   1      46.042  30.188  33.361  1.00  0.00    +0.000 F 
ENDBRANCH   40   41
BRANCH   55   56
ATOM     65  C44 UNL A   1      39.553  33.434  35.469  1.00  0.00    +0.000 C 
ATOM     66  F15 UNL A   1      40.311  34.013  34.527  1.00  0.00    +0.000 F 
ATOM     56  C39 UNL A   1      39.231  32.073  35.374  1.00  0.00    +0.000 C 
ATOM     57  C40 UNL A   1      38.441  31.515  36.389  1.00  0.00    +0.000 C 
ATOM     58  F11 UNL A   1      38.090  30.222  36.328  1.00  0.00    +0.000 F 
ATOM     59  C41 UNL A   1      37.975  32.293  37.446  1.00  0.00    +0.000 C 
ATOM     60  F12 UNL A   1      37.186  31.744  38.381  1.00  0.00    +0.000 F 
ATOM     61  C42 UNL A   1      38.313  33.636  37.525  1.00  0.00    +0.000 C 
ATOM     62  F13 UNL A   1      37.868  34.382  38.545  1.00  0.00    +0.000 F 
ATOM     63  C43 UNL A   1      39.109  34.204  36.541  1.00  0.00    +0.000 C 
ATOM     64  F14 UNL A   1      39.450  35.498  36.621  1.00  0.00    +0.000 F 
ENDBRANCH   55   56
TORSDOF 17
ENDMDL
MODEL 2
REMARK VINA RESULT:     -11.4      0.578      7.243
ROOT
ATOM     19  C15 UNL A   1      38.187  29.859  29.932  1.00  0.00    +0.000 C 
ATOM     20  C16 UNL A   1      38.454  30.367  31.322  1.00  0.00    +0.000 C 
ATOM     21  N3  UNL A   1      39.483  30.145  32.101  1.00  0.00    +0.000 N 
ATOM     22  C17 UNL A   1      39.250  30.881  33.256  1.00  0.00    +0.000 C 
ATOM     23  C18 UNL A   1      39.997  30.942  34.385  1.00  0.00    +0.000 C 
ATOM     35  C25 UNL A   1      41.220  30.213  34.593  1.00  0.00    +0.000 C 
ATOM     36  C26 UNL A   1      42.014  30.164  35.726  1.00  0.00    +0.000 C 
ATOM     37  C27 UNL A   1      43.122  29.355  35.451  1.00  0.00    +0.000 C 
ATOM     38  C28 UNL A   1      42.996  28.865  34.162  1.00  0.00    +0.000 C 
ATOM     39  N4  UNL A   1      41.828  29.403  33.646  1.00  0.00    +0.000 N 
ATOM     40  C29 UNL A   1      43.877  27.975  33.450  1.00  0.00    +0.000 C 
ATOM     52  C36 UNL A   1      43.674  27.531  32.185  1.00  0.00    +0.000 C 
ATOM     53  N5  UNL A   1      42.623  27.809  31.322  1.00  0.00    +0.000 N 
ATOM     54  C37 UNL A   1      42.885  27.157  30.215  1.00  0.00    +0.000 C 
ATOM     55  C38 UNL A   1      42.077  27.073  28.950  1.00  0.00    +0.000 C 
ATOM     67  C45 UNL A   1      40.898  27.719  28.874  1.00  0.00    +0.000 C 
ATOM     68  C46 UNL A   1      40.007  27.720  27.718  1.00  0.00    +0.000 C 
ATOM     69  C47 UNL A   1      38.950  28.504  27.980  1.00  0.00    +0.000 C 
ATOM     70  C48 UNL A   1      39.072  29.035  29.337  1.00  0.00    +0.000 C 
ATOM     71  N6  UNL A   1      40.254  28.509  29.795  1.00  0.00    +0.000 N 
ATOM     72  C49 UNL A   1      44.151  26.409  30.245  1.00  0.00    +0.000 C 
ATOM     73  C50 UNL A   1      44.572  26.640  31.480  1.00  0.00    +0.000 C 
ATOM     74  C51 UNL A   1      38.003  31.590  33.059  1.00  0.00    +0.000 C 
ATOM     75  C52 UNL A   1      37.441  31.261  31.905  1.00  0.00    +0.000 C 
ATOM    112  H21 UNL A   1      41.822  30.642  36.620  1.00  0.00    +0.000 H 
ATOM    113  H22 UNL A   1      43.901  29.157  36.099  1.00  0.00    +0.000 H 
ATOM    114  H23 UNL A   1      41.479  29.233  32.740  1.00  0.00    +0.000 H 
ATOM    115  H24 UNL A   1      40.166  27.202  26.839  1.00  0.00    +0.000 H 
ATOM    116  H25 UNL A   1      38.175  28.702  27.327  1.00  0.00    +0.000 H 
ATOM    117  H26 UNL A   1      40.608  28.681  30.698  1.00  0.00    +0.000 H 
ATOM    118  H27 UNL A   1      44.595  25.852  29.498  1.00  0.00    +0.000 H 
ATOM    119  H28 UNL A   1      45.430  26.237  31.887  1.00  0.00    +0.000 H 
ATOM    120  H29 UNL A   1      37.604  32.265  33.730  1.00  0.00    +0.000 H 
ATOM    121  H30 UNL A   1      36.531  31.555  31.516  1.00  0.00    +0.000 H 
ENDROOT
BRANCH   19   18
ATOM     76  C53 UNL A   1      35.945  29.407  28.919  1.00  0.00    +0.000 C 
ATOM     77  C54 UNL A   1      34.807  29.822  28.225  1.00  0.00    +0.000 C 
ATOM    110  H19 UNL A   1      35.618  33.045  27.782  1.00  0.00    +0.000 H 
ATOM     15  C11 UNL A   1      34.659  31.164  27.863  1.00  0.00    +0.000 C 
ATOM     16  C12 UNL A   1      35.705  32.064  28.090  1.00  0.00    +0.000 C 
ATOM     17  C13 UNL A   1      36.870  31.635  28.732  1.00  0.00    +0.000 C 
ATOM    111  H20 UNL A   1      37.649  32.297  28.877  1.00  0.00    +0.000 H 
ATOM     18  C14 UNL A   1      36.987  30.310  29.181  1.00  0.00    +0.000 C 
ATOM    122  H31 UNL A   1      36.020  28.430  29.242  1.00  0.00    +0.000 H 
ATOM    123  H32 UNL A   1      34.075  29.137  27.978  1.00  0.00    +0.000 H 
BRANCH   15   13
ATOM     13  C10 UNL A   1      33.435  31.653  27.185  1.00  0.00    +0.000 C 
ATOM     14  O2  UNL A   1      33.033  32.788  27.409  1.00  0.00    +0.000 O 
BRANCH   13   12
ATOM     12  N2  UNL A   1      32.747  30.843  26.313  1.00  0.00    +0.000 N 
ATOM    109  H18 UNL A   1      33.109  30.811  25.397  1.00  0.00    +0.000 H 
BRANCH   12   11
ATOM     11  C9  UNL A   1      31.567  30.026  26.542  1.00  0.00    +0.000 C 
ATOM    108  H17 UNL A   1      30.740  30.502  26.057  1.00  0.00    +0.000 H 
ATOM    107  H16 UNL A   1      31.406  29.942  27.596  1.00  0.00    +0.000 H 
BRANCH   11   10
ATOM    105  H14 UNL A   1      31.572  27.916  26.742  1.00  0.00    +0.000 H 
ATOM     10  C8  UNL A   1      31.712  28.623  25.952  1.00  0.00    +0.000 C 
ATOM    106  H15 UNL A   1      30.979  28.553  25.175  1.00  0.00    +0.000 H 
BRANCH   10    9
ATOM      9  C7  UNL A   1      33.062  28.327  25.284  1.00  0.00    +0.000 C 
ATOM    103  H12 UNL A   1      32.866  27.971  24.293  1.00  0.00    +0.000 H 
ATOM    104  H13 UNL A   1      33.611  29.245  25.318  1.00  0.00    +0.000 H 
BRANCH    9    8
ATOM    101  H10 UNL A   1      34.922  27.333  25.557  1.00  0.00    +0.000 H 
ATOM    102  H11 UNL A   1      33.936  27.539  27.029  1.00  0.00    +0.000 H 
ATOM      8  C6  UNL A   1      33.945  27.289  25.989  1.00  0.00    +0.000 C 
BRANCH    8    7
ATOM     99  H8  UNL A   1      33.013  25.568  26.825  1.00  0.00    +0.000 H 
ATOM    100  H9  UNL A   1      32.724  25.822  25.090  1.00  0.00    +0.000 H 
ATOM      7  C5  UNL A   1      33.439  25.847  25.884  1.00  0.00    +0.000 C 
BRANCH    7    6
ATOM     97  H6  UNL A   1      35.255  25.312  24.896  1.00  0.00    +0.000 H 
ATOM     98  H7  UNL A   1      34.999  24.509  26.440  1.00  0.00    +0.000 H 
ATOM      6  C4  UNL A   1      34.537  24.838  25.533  1.00  0.00    +0.000 C 
BRANCH    6    5
ATOM      5  N1  UNL A   1      33.987  23.683  24.849  1.00  0.00    +0.000 N 
ATOM     96  H5  UNL A   1      33.550  23.019  25.430  1.00  0.00    +0.000 H 
BRANCH    5    3
ATOM      3  C3  UNL A   1      33.987  23.382  23.512  1.00  0.00    +0.000 C 
ATOM      4  O1  UNL A   1      35.058  23.027  23.014  1.00  0.00    +0.000 O 
BRANCH    3    2
ATOM      2  C2  UNL A   1      32.699  23.517  22.679  1.00  0.00    +0.000 C 
ATOM     95  H4  UNL A   1      32.938  23.376  21.647  1.00  0.00    +0.000 H 
BRANCH    2    1
ATOM      1  C1  UNL A   1      31.704  22.424  23.095  1.00  0.00    +0.000 C 
ATOM     92  H1  UNL A   1      32.084  21.466  22.805  1.00  0.00    +0.000 H 
ATOM     93  H2  UNL A   1      30.764  22.594  22.615  1.00  0.00    +0.000 H 
ATOM     94  H3  UNL A   1      31.572  22.447  24.157  1.00  0.00    +0.000 H 
ENDBRANCH    2    1
BRANCH    2   78
ATOM    129  H38 UNL A   1      26.567  30.532  22.874  1.00  0.00    +0.000 H 
ATOM    130  H39 UNL A   1      30.606  30.196  21.734  1.00  0.00    +0.000 H 
ATOM     78  C55 UNL A   1      32.100  24.918  22.775  1.00  0.00    +0.000 C 
ATOM     79  C56 UNL A   1      32.701  26.024  22.157  1.00  0.00    +0.000 C 
ATOM     80  C57 UNL A   1      32.066  27.276  22.116  1.00  0.00    +0.000 C 
ATOM     81  C58 UNL A   1      30.763  27.408  22.637  1.00  0.00    +0.000 C 
ATOM     82  C59 UNL A   1      30.199  26.311  23.280  1.00  0.00    +0.000 C 
ATOM     83  C60 UNL A   1      30.866  25.090  23.426  1.00  0.00    +0.000 C 
ATOM     84  N7  UNL A   1      28.929  26.670  23.659  1.00  0.00    +0.000 N 
ATOM     85  C61 UNL A   1      28.629  27.942  23.232  1.00  0.00    +0.000 C 
ATOM     86  C62 UNL A   1      27.434  28.665  23.326  1.00  0.00    +0.000 C 
ATOM     87  C63 UNL A   1      27.431  29.969  22.826  1.00  0.00    +0.000 C 
ATOM     88  C64 UNL A   1      28.581  30.519  22.265  1.00  0.00    +0.000 C 
ATOM     89 Cl1  UNL A   1      28.542  32.139  21.680  1.00  0.00    +0.000 Cl
ATOM     90  C65 UNL A   1      29.763  29.780  22.159  1.00  0.00    +0.000 C 
ATOM     91  C66 UNL A   1      29.786  28.455  22.644  1.00  0.00    +0.000 C 
ATOM    124  H33 UNL A   1      33.631  25.916  21.722  1.00  0.00    +0.000 H 
ATOM    125  H34 UNL A   1      32.548  28.092  21.708  1.00  0.00    +0.000 H 
ATOM    126  H35 UNL A   1      30.461  24.332  23.998  1.00  0.00    +0.000 H 
ATOM    127  H36 UNL A   1      28.314  26.094  24.168  1.00  0.00    +0.000 H 
ATOM    128  H37 UNL A   1      26.589  28.250  23.749  1.00  0.00    +0.000 H 
ENDBRANCH    2   78
ENDBRANCH    3    2
ENDBRANCH    5    3
ENDBRANCH    6    5
ENDBRANCH    7    6
ENDBRANCH    8    7
ENDBRANCH    9    8
ENDBRANCH   10    9
ENDBRANCH   11   10
ENDBRANCH   12   11
ENDBRANCH   13   12
ENDBRANCH   15   13
ENDBRANCH   19   18
BRANCH   23   24
ATOM     33  C24 UNL A   1      40.032  33.120  35.657  1.00  0.00    +0.000 C 
ATOM     34  F5  UNL A   1      40.952  33.590  34.801  1.00  0.00    +0.000 F 
ATOM     24  C19 UNL A   1      39.507  31.828  35.493  1.00  0.00    +0.000 C 
ATOM     25  C20 UNL A   1      38.554  31.385  36.420  1.00  0.00    +0.000 C 
ATOM     26  F1  UNL A   1      38.014  30.162  36.302  1.00  0.00    +0.000 F 
ATOM     27  C21 UNL A   1      38.125  32.209  37.458  1.00  0.00    +0.000 C 
ATOM     28  F2  UNL A   1      37.182  31.778  38.307  1.00  0.00    +0.000 F 
ATOM     29  C22 UNL A   1      38.663  33.479  37.605  1.00  0.00    +0.000 C 
ATOM     30  F3  UNL A   1      38.255  34.268  38.609  1.00  0.00    +0.000 F 
ATOM     31  C23 UNL A   1      39.621  33.932  36.710  1.00  0.00    +0.000 C 
ATOM     32  F4  UNL A   1      40.152  35.153  36.860  1.00  0.00    +0.000 F 
ENDBRANCH   23   24
BRANCH   40   41
ATOM     41  C30 UNL A   1      45.101  27.482  34.162  1.00  0.00    +0.000 C 
ATOM     42  C31 UNL A   1      46.315  28.184  34.109  1.00  0.00    +0.000 C 
ATOM     43  F6  UNL A   1      46.417  29.299  33.370  1.00  0.00    +0.000 F 
ATOM     44  C32 UNL A   1      47.439  27.720  34.786  1.00  0.00    +0.000 C 
ATOM     45  F7  UNL A   1      48.600  28.382  34.684  1.00  0.00    +0.000 F 
ATOM     46  C33 UNL A   1      47.365  26.565  35.550  1.00  0.00    +0.000 C 
ATOM     47  F8  UNL A   1      48.447  26.122  36.204  1.00  0.00    +0.000 F 
ATOM     48  C34 UNL A   1      46.171  25.865  35.631  1.00  0.00    +0.000 C 
ATOM     49  F9  UNL A   1      46.094  24.755  36.377  1.00  0.00    +0.000 F 
ATOM     50  C35 UNL A   1      45.051  26.312  34.935  1.00  0.00    +0.000 C 
ATOM     51  F10 UNL A   1      43.913  25.607  35.021  1.00  0.00    +0.000 F 
ENDBRANCH   40   41
BRANCH   55   56
ATOM     65  C44 UNL A   1      43.418  26.808  26.835  1.00  0.00    +0.000 C 
ATOM     66  F15 UNL A   1      43.824  28.081  26.937  1.00  0.00    +0.000 F 
ATOM     56  C39 UNL A   1      42.554  26.266  27.797  1.00  0.00    +0.000 C 
ATOM     57  C40 UNL A   1      42.156  24.931  27.641  1.00  0.00    +0.000 C 
ATOM     58  F11 UNL A   1      41.347  24.365  28.548  1.00  0.00    +0.000 F 
ATOM     59  C41 UNL A   1      42.618  24.163  26.575  1.00  0.00    +0.000 C 
ATOM     60  F12 UNL A   1      42.255  22.877  26.472  1.00  0.00    +0.000 F 
ATOM     61  C42 UNL A   1      43.465  24.723  25.630  1.00  0.00    +0.000 C 
ATOM     62  F13 UNL A   1      43.905  23.984  24.602  1.00  0.00    +0.000 F 
ATOM     63  C43 UNL A   1      43.859  26.046  25.755  1.00  0.00    +0.000 C 
ATOM     64  F14 UNL A   1      44.665  26.595  24.836  1.00  0.00    +0.000 F 
ENDBRANCH   55   56
TORSDOF 17
ENDMDL
MODEL 3
REMARK VINA RESULT:     -11.4      0.707      2.230
ROOT
ATOM     19  C15 UNL A   1      38.001  30.069  29.738  1.00  0.00    +0.000 C 
ATOM     20  C16 UNL A   1      39.045  29.137  29.188  1.00  0.00    +0.000 C 
ATOM     21  N3  UNL A   1      40.141  28.695  29.753  1.00  0.00    +0.000 N 
ATOM     22  C17 UNL A   1      40.722  27.834  28.832  1.00  0.00    +0.000 C 
ATOM     23  C18 UNL A   1      41.897  27.165  28.923  1.00  0.00    +0.000 C 
ATOM     35  C25 UNL A   1      42.793  27.242  30.047  1.00  0.00    +0.000 C 
ATOM     36  C26 UNL A   1      44.034  26.648  30.204  1.00  0.00    +0.000 C 
ATOM     37  C27 UNL A   1      44.518  26.974  31.476  1.00  0.00    +0.000 C 
ATOM     38  C28 UNL A   1      43.599  27.805  32.094  1.00  0.00    +0.000 C 
ATOM     39  N4  UNL A   1      42.544  27.958  31.208  1.00  0.00    +0.000 N 
ATOM     40  C29 UNL A   1      43.673  28.414  33.397  1.00  0.00    +0.000 C 
ATOM     52  C36 UNL A   1      42.730  29.231  33.927  1.00  0.00    +0.000 C 
ATOM     53  N5  UNL A   1      41.532  29.655  33.368  1.00  0.00    +0.000 N 
ATOM     54  C37 UNL A   1      40.966  30.419  34.271  1.00  0.00    +0.000 C 
ATOM     55  C38 UNL A   1      39.665  31.170  34.196  1.00  0.00    +0.000 C 
ATOM     67  C45 UNL A   1      38.930  31.111  33.070  1.00  0.00    +0.000 C 
ATOM     68  C46 UNL A   1      37.657  31.792  32.853  1.00  0.00    +0.000 C 
ATOM     69  C47 UNL A   1      37.190  31.471  31.636  1.00  0.00    +0.000 C 
ATOM     70  C48 UNL A   1      38.148  30.587  30.973  1.00  0.00    +0.000 C 
ATOM     71  N6  UNL A   1      39.154  30.435  31.895  1.00  0.00    +0.000 N 
ATOM     72  C49 UNL A   1      41.733  30.543  35.519  1.00  0.00    +0.000 C 
ATOM     73  C50 UNL A   1      42.815  29.832  35.241  1.00  0.00    +0.000 C 
ATOM     74  C51 UNL A   1      39.837  27.782  27.687  1.00  0.00    +0.000 C 
ATOM     75  C52 UNL A   1      38.816  28.614  27.832  1.00  0.00    +0.000 C 
ATOM    112  H21 UNL A   1      44.518  26.066  29.504  1.00  0.00    +0.000 H 
ATOM    113  H22 UNL A   1      45.409  26.650  31.884  1.00  0.00    +0.000 H 
ATOM    114  H23 UNL A   1      41.737  28.496  31.378  1.00  0.00    +0.000 H 
ATOM    115  H24 UNL A   1      37.191  32.419  33.528  1.00  0.00    +0.000 H 
ATOM    116  H25 UNL A   1      36.296  31.795  31.234  1.00  0.00    +0.000 H 
ATOM    117  H26 UNL A   1      39.959  29.893  31.730  1.00  0.00    +0.000 H 
ATOM    118  H27 UNL A   1      41.490  31.051  36.384  1.00  0.00    +0.000 H 
ATOM    119  H28 UNL A   1      43.618  29.719  35.881  1.00  0.00    +0.000 H 
ATOM    120  H29 UNL A   1      39.981  27.174  26.866  1.00  0.00    +0.000 H 
ATOM    121  H30 UNL A   1      38.058  28.838  27.168  1.00  0.00    +0.000 H 
ENDROOT
BRANCH   19   18
ATOM     76  C53 UNL A   1      35.830  29.365  28.715  1.00  0.00    +0.000 C 
ATOM     77  C54 UNL A   1      34.668  29.642  27.992  1.00  0.00    +0.000 C 
ATOM    110  H19 UNL A   1      35.168  32.911  27.442  1.00  0.00    +0.000 H 
ATOM     15  C11 UNL A   1      34.396  30.949  27.580  1.00  0.00    +0.000 C 
ATOM     16  C12 UNL A   1      35.346  31.955  27.786  1.00  0.00    +0.000 C 
ATOM     17  C13 UNL A   1      36.537  31.664  28.457  1.00  0.00    +0.000 C 
ATOM    111  H20 UNL A   1      37.245  32.404  28.587  1.00  0.00    +0.000 H 
ATOM     18  C14 UNL A   1      36.775  30.374  28.956  1.00  0.00    +0.000 C 
ATOM    122  H31 UNL A   1      35.994  28.412  29.075  1.00  0.00    +0.000 H 
ATOM    123  H32 UNL A   1      34.010  28.880  27.762  1.00  0.00    +0.000 H 
BRANCH   15   13
ATOM     13  C10 UNL A   1      33.141  31.292  26.870  1.00  0.00    +0.000 C 
ATOM     14  O2  UNL A   1      32.558  32.334  27.142  1.00  0.00    +0.000 O 
BRANCH   13   12
ATOM     12  N2  UNL A   1      32.625  30.450  25.914  1.00  0.00    +0.000 N 
ATOM    109  H18 UNL A   1      33.076  30.484  25.039  1.00  0.00    +0.000 H 
BRANCH   12   11
ATOM     11  C9  UNL A   1      31.515  29.516  26.004  1.00  0.00    +0.000 C 
ATOM    108  H17 UNL A   1      30.875  29.685  25.163  1.00  0.00    +0.000 H 
ATOM    107  H16 UNL A   1      30.999  29.681  26.926  1.00  0.00    +0.000 H 
BRANCH   11   10
ATOM    105  H14 UNL A   1      31.950  27.668  26.947  1.00  0.00    +0.000 H 
ATOM     10  C8  UNL A   1      31.980  28.060  25.952  1.00  0.00    +0.000 C 
ATOM    106  H15 UNL A   1      31.317  27.563  25.274  1.00  0.00    +0.000 H 
BRANCH   10    9
ATOM      9  C7  UNL A   1      33.394  27.839  25.397  1.00  0.00    +0.000 C 
ATOM    103  H12 UNL A   1      33.392  28.138  24.369  1.00  0.00    +0.000 H 
ATOM    104  H13 UNL A   1      34.043  28.419  26.019  1.00  0.00    +0.000 H 
BRANCH    9    8
ATOM    101  H10 UNL A   1      34.008  26.027  24.470  1.00  0.00    +0.000 H 
ATOM    102  H11 UNL A   1      34.864  26.450  25.977  1.00  0.00    +0.000 H 
ATOM      8  C6  UNL A   1      33.925  26.402  25.467  1.00  0.00    +0.000 C 
BRANCH    8    7
ATOM     99  H8  UNL A   1      32.986  25.791  27.277  1.00  0.00    +0.000 H 
ATOM    100  H9  UNL A   1      32.089  25.413  25.791  1.00  0.00    +0.000 H 
ATOM      7  C5  UNL A   1      33.045  25.438  26.270  1.00  0.00    +0.000 C 
BRANCH    7    6
ATOM     97  H6  UNL A   1      34.103  23.838  27.208  1.00  0.00    +0.000 H 
ATOM     98  H7  UNL A   1      32.745  23.331  26.210  1.00  0.00    +0.000 H 
ATOM      6  C4  UNL A   1      33.576  24.001  26.291  1.00  0.00    +0.000 C 
BRANCH    6    5
ATOM      5  N1  UNL A   1      34.474  23.759  25.178  1.00  0.00    +0.000 N 
ATOM     96  H5  UNL A   1      35.089  24.497  24.965  1.00  0.00    +0.000 H 
BRANCH    5    3
ATOM      3  C3  UNL A   1      34.590  22.651  24.380  1.00  0.00    +0.000 C 
ATOM      4  O1  UNL A   1      35.653  22.028  24.429  1.00  0.00    +0.000 O 
BRANCH    3    2
ATOM      2  C2  UNL A   1      33.439  22.236  23.444  1.00  0.00    +0.000 C 
ATOM     95  H4  UNL A   1      33.843  21.994  22.485  1.00  0.00    +0.000 H 
BRANCH    2    1
ATOM      1  C1  UNL A   1      32.749  20.985  24.006  1.00  0.00    +0.000 C 
ATOM     92  H1  UNL A   1      31.715  20.991  23.728  1.00  0.00    +0.000 H 
ATOM     93  H2  UNL A   1      32.831  20.980  25.072  1.00  0.00    +0.000 H 
ATOM     94  H3  UNL A   1      33.220  20.109  23.608  1.00  0.00    +0.000 H 
ENDBRANCH    2    1
BRANCH    2   78
ATOM    129  H38 UNL A   1      29.911  30.800  22.411  1.00  0.00    +0.000 H 
ATOM    130  H39 UNL A   1      28.335  27.113  23.695  1.00  0.00    +0.000 H 
ATOM     78  C55 UNL A   1      32.460  23.382  23.200  1.00  0.00    +0.000 C 
ATOM     79  C56 UNL A   1      31.161  23.373  23.728  1.00  0.00    +0.000 C 
ATOM     80  C57 UNL A   1      30.322  24.495  23.632  1.00  0.00    +0.000 C 
ATOM     81  C58 UNL A   1      30.820  25.684  23.064  1.00  0.00    +0.000 C 
ATOM     82  C59 UNL A   1      32.096  25.663  22.510  1.00  0.00    +0.000 C 
ATOM     83  C60 UNL A   1      32.901  24.519  22.499  1.00  0.00    +0.000 C 
ATOM     84  N7  UNL A   1      32.366  26.933  22.061  1.00  0.00    +0.000 N 
ATOM     85  C61 UNL A   1      31.333  27.790  22.359  1.00  0.00    +0.000 C 
ATOM     86  C62 UNL A   1      31.226  29.171  22.161  1.00  0.00    +0.000 C 
ATOM     87  C63 UNL A   1      30.026  29.782  22.536  1.00  0.00    +0.000 C 
ATOM     88  C64 UNL A   1      28.984  29.032  23.076  1.00  0.00    +0.000 C 
ATOM     89 Cl1  UNL A   1      27.512  29.819  23.505  1.00  0.00    +0.000 Cl
ATOM     90  C65 UNL A   1      29.111  27.656  23.286  1.00  0.00    +0.000 C 
ATOM     91  C66 UNL A   1      30.319  27.020  22.929  1.00  0.00    +0.000 C 
ATOM    124  H33 UNL A   1      30.813  22.522  24.198  1.00  0.00    +0.000 H 
ATOM    125  H34 UNL A   1      29.350  24.450  23.976  1.00  0.00    +0.000 H 
ATOM    126  H35 UNL A   1      33.799  24.509  21.989  1.00  0.00    +0.000 H 
ATOM    127  H36 UNL A   1      33.191  27.195  21.591  1.00  0.00    +0.000 H 
ATOM    128  H37 UNL A   1      32.002  29.717  21.755  1.00  0.00    +0.000 H 
ENDBRANCH    2   78
ENDBRANCH    3    2
ENDBRANCH    5    3
ENDBRANCH    6    5
ENDBRANCH    7    6
ENDBRANCH    8    7
ENDBRANCH    9    8
ENDBRANCH   10    9
ENDBRANCH   11   10
ENDBRANCH   12   11
ENDBRANCH   13   12
ENDBRANCH   15   13
ENDBRANCH   19   18
BRANCH   23   24
ATOM     33  C24 UNL A   1      41.791  24.983  27.663  1.00  0.00    +0.000 C 
ATOM     34  F5  UNL A   1      40.929  24.512  28.577  1.00  0.00    +0.000 F 
ATOM     24  C19 UNL A   1      42.289  26.291  27.768  1.00  0.00    +0.000 C 
ATOM     25  C20 UNL A   1      43.193  26.729  26.789  1.00  0.00    +0.000 C 
ATOM     26  F1  UNL A   1      43.690  27.974  26.838  1.00  0.00    +0.000 F 
ATOM     27  C21 UNL A   1      43.566  25.899  25.735  1.00  0.00    +0.000 C 
ATOM     28  F2  UNL A   1      44.399  26.355  24.788  1.00  0.00    +0.000 F 
ATOM     29  C22 UNL A   1      43.068  24.608  25.656  1.00  0.00    +0.000 C 
ATOM     30  F3  UNL A   1      43.434  23.807  24.644  1.00  0.00    +0.000 F 
ATOM     31  C23 UNL A   1      42.187  24.147  26.622  1.00  0.00    +0.000 C 
ATOM     32  F4  UNL A   1      41.715  22.894  26.555  1.00  0.00    +0.000 F 
ENDBRANCH   23   24
BRANCH   40   41
ATOM     41  C30 UNL A   1      44.893  28.147  34.227  1.00  0.00    +0.000 C 
ATOM     42  C31 UNL A   1      46.017  28.985  34.171  1.00  0.00    +0.000 C 
ATOM     43  F6  UNL A   1      46.041  30.027  33.326  1.00  0.00    +0.000 F 
ATOM     44  C32 UNL A   1      47.138  28.731  34.957  1.00  0.00    +0.000 C 
ATOM     45  F7  UNL A   1      48.218  29.518  34.854  1.00  0.00    +0.000 F 
ATOM     46  C33 UNL A   1      47.145  27.656  35.833  1.00  0.00    +0.000 C 
ATOM     47  F8  UNL A   1      48.224  27.415  36.591  1.00  0.00    +0.000 F 
ATOM     48  C34 UNL A   1      46.039  26.825  35.917  1.00  0.00    +0.000 C 
ATOM     49  F9  UNL A   1      46.040  25.792  36.770  1.00  0.00    +0.000 F 
ATOM     50  C35 UNL A   1      44.926  27.061  35.114  1.00  0.00    +0.000 C 
ATOM     51  F10 UNL A   1      43.874  26.233  35.207  1.00  0.00    +0.000 F 
ENDBRANCH   40   41
BRANCH   55   56
ATOM     65  C44 UNL A   1      38.399  31.445  36.356  1.00  0.00    +0.000 C 
ATOM     66  F15 UNL A   1      38.033  30.156  36.302  1.00  0.00    +0.000 F 
ATOM     56  C39 UNL A   1      39.198  31.992  35.342  1.00  0.00    +0.000 C 
ATOM     57  C40 UNL A   1      39.547  33.346  35.444  1.00  0.00    +0.000 C 
ATOM     58  F11 UNL A   1      40.327  33.907  34.509  1.00  0.00    +0.000 F 
ATOM     59  C41 UNL A   1      39.131  34.116  36.528  1.00  0.00    +0.000 C 
ATOM     60  F12 UNL A   1      39.515  35.397  36.622  1.00  0.00    +0.000 F 
ATOM     61  C42 UNL A   1      38.334  33.556  37.515  1.00  0.00    +0.000 C 
ATOM     62  F13 UNL A   1      37.931  34.299  38.554  1.00  0.00    +0.000 F 
ATOM     63  C43 UNL A   1      37.962  32.223  37.426  1.00  0.00    +0.000 C 
ATOM     64  F14 UNL A   1      37.180  31.681  38.370  1.00  0.00    +0.000 F 
ENDBRANCH   55   56
TORSDOF 17
ENDMDL
MODEL 4
REMARK VINA RESULT:     -11.2     17.707     23.605
ROOT
ATOM     19  C15 UNL A   1      25.887  36.368  45.465  1.00  0.00    +0.000 C 
ATOM     20  C16 UNL A   1      25.828  37.546  46.397  1.00  0.00    +0.000 C 
ATOM     21  N3  UNL A   1      26.769  38.402  46.711  1.00  0.00    +0.000 N 
ATOM     22  C17 UNL A   1      26.179  39.313  47.577  1.00  0.00    +0.000 C 
ATOM     23  C18 UNL A   1      26.750  40.359  48.222  1.00  0.00    +0.000 C 
ATOM     35  C25 UNL A   1      28.140  40.719  48.119  1.00  0.00    +0.000 C 
ATOM     36  C26 UNL A   1      28.823  41.725  48.781  1.00  0.00    +0.000 C 
ATOM     37  C27 UNL A   1      30.148  41.724  48.333  1.00  0.00    +0.000 C 
ATOM     38  C28 UNL A   1      30.301  40.690  47.424  1.00  0.00    +0.000 C 
ATOM     39  N4  UNL A   1      29.061  40.085  47.299  1.00  0.00    +0.000 N 
ATOM     40  C29 UNL A   1      31.490  40.284  46.719  1.00  0.00    +0.000 C 
ATOM     52  C36 UNL A   1      31.560  39.246  45.850  1.00  0.00    +0.000 C 
ATOM     53  N5  UNL A   1      30.557  38.371  45.455  1.00  0.00    +0.000 N 
ATOM     54  C37 UNL A   1      31.112  37.554  44.593  1.00  0.00    +0.000 C 
ATOM     55  C38 UNL A   1      30.502  36.389  43.863  1.00  0.00    +0.000 C 
ATOM     67  C45 UNL A   1      29.213  36.069  44.087  1.00  0.00    +0.000 C 
ATOM     68  C46 UNL A   1      28.495  34.965  43.459  1.00  0.00    +0.000 C 
ATOM     69  C47 UNL A   1      27.221  34.973  43.882  1.00  0.00    +0.000 C 
ATOM     70  C48 UNL A   1      27.042  36.065  44.839  1.00  0.00    +0.000 C 
ATOM     71  N6  UNL A   1      28.279  36.656  44.906  1.00  0.00    +0.000 N 
ATOM     72  C49 UNL A   1      32.529  37.838  44.324  1.00  0.00    +0.000 C 
ATOM     73  C50 UNL A   1      32.761  38.853  45.143  1.00  0.00    +0.000 C 
ATOM     74  C51 UNL A   1      24.788  38.932  47.706  1.00  0.00    +0.000 C 
ATOM     75  C52 UNL A   1      24.534  37.812  47.044  1.00  0.00    +0.000 C 
ATOM    112  H21 UNL A   1      28.423  42.365  49.484  1.00  0.00    +0.000 H 
ATOM    113  H22 UNL A   1      30.887  42.381  48.630  1.00  0.00    +0.000 H 
ATOM    114  H23 UNL A   1      28.863  39.317  46.715  1.00  0.00    +0.000 H 
ATOM    115  H24 UNL A   1      28.901  34.286  42.795  1.00  0.00    +0.000 H 
ATOM    116  H25 UNL A   1      26.486  34.315  43.580  1.00  0.00    +0.000 H 
ATOM    117  H26 UNL A   1      28.478  37.427  45.484  1.00  0.00    +0.000 H 
ATOM    118  H27 UNL A   1      33.173  37.369  43.668  1.00  0.00    +0.000 H 
ATOM    119  H28 UNL A   1      33.680  39.306  45.263  1.00  0.00    +0.000 H 
ATOM    120  H29 UNL A   1      24.085  39.463  48.243  1.00  0.00    +0.000 H 
ATOM    121  H30 UNL A   1      23.658  37.269  46.995  1.00  0.00    +0.000 H 
ENDROOT
BRANCH   19   18
ATOM     76  C53 UNL A   1      24.386  34.421  45.931  1.00  0.00    +0.000 C 
ATOM     77  C54 UNL A   1      23.237  33.672  45.677  1.00  0.00    +0.000 C 
ATOM    110  H19 UNL A   1      21.936  35.537  43.214  1.00  0.00    +0.000 H 
ATOM     15  C11 UNL A   1      22.311  34.111  44.727  1.00  0.00    +0.000 C 
ATOM     16  C12 UNL A   1      22.596  35.236  43.947  1.00  0.00    +0.000 C 
ATOM     17  C13 UNL A   1      23.777  35.953  44.160  1.00  0.00    +0.000 C 
ATOM    111  H20 UNL A   1      23.995  36.770  43.568  1.00  0.00    +0.000 H 
ATOM     18  C14 UNL A   1      24.667  35.571  45.176  1.00  0.00    +0.000 C 
ATOM    122  H31 UNL A   1      25.034  34.129  46.679  1.00  0.00    +0.000 H 
ATOM    123  H32 UNL A   1      23.072  32.791  46.191  1.00  0.00    +0.000 H 
BRANCH   15   13
ATOM     13  C10 UNL A   1      21.047  33.376  44.480  1.00  0.00    +0.000 C 
ATOM     14  O2  UNL A   1      21.085  32.267  43.961  1.00  0.00    +0.000 O 
BRANCH   13   12
ATOM     12  N2  UNL A   1      19.837  33.930  44.823  1.00  0.00    +0.000 N 
ATOM    109  H18 UNL A   1      19.855  34.899  44.998  1.00  0.00    +0.000 H 
BRANCH   12   11
ATOM     11  C9  UNL A   1      18.537  33.298  44.966  1.00  0.00    +0.000 C 
ATOM    108  H17 UNL A   1      18.174  33.511  45.950  1.00  0.00    +0.000 H 
ATOM    107  H16 UNL A   1      18.646  32.245  44.809  1.00  0.00    +0.000 H 
BRANCH   11   10
ATOM    105  H14 UNL A   1      16.538  33.626  44.339  1.00  0.00    +0.000 H 
ATOM     10  C8  UNL A   1      17.517  33.842  43.965  1.00  0.00    +0.000 C 
ATOM    106  H15 UNL A   1      17.723  34.889  43.874  1.00  0.00    +0.000 H 
BRANCH   10    9
ATOM      9  C7  UNL A   1      17.619  33.269  42.544  1.00  0.00    +0.000 C 
ATOM    103  H12 UNL A   1      16.742  33.567  42.007  1.00  0.00    +0.000 H 
ATOM    104  H13 UNL A   1      18.531  33.656  42.140  1.00  0.00    +0.000 H 
BRANCH    9    8
ATOM    101  H10 UNL A   1      18.302  31.508  41.568  1.00  0.00    +0.000 H 
ATOM    102  H11 UNL A   1      18.206  31.414  43.348  1.00  0.00    +0.000 H 
ATOM      8  C6  UNL A   1      17.736  31.743  42.445  1.00  0.00    +0.000 C 
BRANCH    8    7
ATOM     99  H8  UNL A   1      15.632  31.719  42.127  1.00  0.00    +0.000 H 
ATOM    100  H9  UNL A   1      16.495  30.256  41.607  1.00  0.00    +0.000 H 
ATOM      7  C5  UNL A   1      16.395  31.007  42.361  1.00  0.00    +0.000 C 
BRANCH    7    6
ATOM     97  H6  UNL A   1      16.882  30.175  44.266  1.00  0.00    +0.000 H 
ATOM     98  H7  UNL A   1      15.275  30.882  44.167  1.00  0.00    +0.000 H 
ATOM      6  C4  UNL A   1      16.009  30.292  43.659  1.00  0.00    +0.000 C 
BRANCH    6    5
ATOM      5  N1  UNL A   1      15.441  28.984  43.388  1.00  0.00    +0.000 N 
ATOM     96  H5  UNL A   1      14.608  28.779  43.868  1.00  0.00    +0.000 H 
BRANCH    5    3
ATOM      3  C3  UNL A   1      15.899  27.993  42.559  1.00  0.00    +0.000 C 
ATOM      4  O1  UNL A   1      17.017  27.531  42.796  1.00  0.00    +0.000 O 
BRANCH    3    2
ATOM      2  C2  UNL A   1      15.047  27.513  41.368  1.00  0.00    +0.000 C 
ATOM     95  H4  UNL A   1      14.111  28.029  41.383  1.00  0.00    +0.000 H 
BRANCH    2    1
ATOM      1  C1  UNL A   1      15.765  27.856  40.055  1.00  0.00    +0.000 C 
ATOM     92  H1  UNL A   1      15.608  28.889  39.821  1.00  0.00    +0.000 H 
ATOM     93  H2  UNL A   1      15.376  27.248  39.266  1.00  0.00    +0.000 H 
ATOM     94  H3  UNL A   1      16.814  27.671  40.163  1.00  0.00    +0.000 H 
ENDBRANCH    2    1
BRANCH    2   78
ATOM    129  H38 UNL A   1      12.155  18.919  39.217  1.00  0.00    +0.000 H 
ATOM    130  H39 UNL A   1      12.295  21.162  42.777  1.00  0.00    +0.000 H 
ATOM     78  C55 UNL A   1      14.701  26.030  41.475  1.00  0.00    +0.000 C 
ATOM     79  C56 UNL A   1      14.081  25.494  42.612  1.00  0.00    +0.000 C 
ATOM     80  C57 UNL A   1      13.624  24.166  42.642  1.00  0.00    +0.000 C 
ATOM     81  C58 UNL A   1      13.718  23.377  41.478  1.00  0.00    +0.000 C 
ATOM     82  C59 UNL A   1      14.370  23.912  40.372  1.00  0.00    +0.000 C 
ATOM     83  C60 UNL A   1      14.929  25.195  40.367  1.00  0.00    +0.000 C 
ATOM     84  N7  UNL A   1      14.298  22.980  39.366  1.00  0.00    +0.000 N 
ATOM     85  C61 UNL A   1      13.569  21.884  39.762  1.00  0.00    +0.000 C 
ATOM     86  C62 UNL A   1      13.181  20.752  39.037  1.00  0.00    +0.000 C 
ATOM     87  C63 UNL A   1      12.462  19.767  39.720  1.00  0.00    +0.000 C 
ATOM     88  C64 UNL A   1      12.158  19.915  41.071  1.00  0.00    +0.000 C 
ATOM     89 Cl1  UNL A   1      11.288  18.668  41.882  1.00  0.00    +0.000 Cl
ATOM     90  C65 UNL A   1      12.534  21.060  41.779  1.00  0.00    +0.000 C 
ATOM     91  C66 UNL A   1      13.248  22.075  41.107  1.00  0.00    +0.000 C 
ATOM    124  H33 UNL A   1      13.957  26.088  43.447  1.00  0.00    +0.000 H 
ATOM    125  H34 UNL A   1      13.222  23.772  43.507  1.00  0.00    +0.000 H 
ATOM    126  H35 UNL A   1      15.496  25.521  39.568  1.00  0.00    +0.000 H 
ATOM    127  H36 UNL A   1      14.711  23.084  38.478  1.00  0.00    +0.000 H 
ATOM    128  H37 UNL A   1      13.417  20.648  38.038  1.00  0.00    +0.000 H 
ENDBRANCH    2   78
ENDBRANCH    3    2
ENDBRANCH    5    3
ENDBRANCH    6    5
ENDBRANCH    7    6
ENDBRANCH    8    7
ENDBRANCH    9    8
ENDBRANCH   10    9
ENDBRANCH   11   10
ENDBRANCH   12   11
ENDBRANCH   13   12
ENDBRANCH   15   13
ENDBRANCH   19   18
BRANCH   23   24
ATOM     33  C24 UNL A   1      25.168  42.289  48.586  1.00  0.00    +0.000 C 
ATOM     34  F5  UNL A   1      25.247  42.584  47.280  1.00  0.00    +0.000 F 
ATOM     24  C19 UNL A   1      25.870  41.191  49.108  1.00  0.00    +0.000 C 
ATOM     25  C20 UNL A   1      25.758  40.933  50.482  1.00  0.00    +0.000 C 
ATOM     26  F1  UNL A   1      26.401  39.890  51.028  1.00  0.00    +0.000 F 
ATOM     27  C21 UNL A   1      24.955  41.728  51.297  1.00  0.00    +0.000 C 
ATOM     28  F2  UNL A   1      24.830  41.436  52.600  1.00  0.00    +0.000 F 
ATOM     29  C22 UNL A   1      24.277  42.812  50.762  1.00  0.00    +0.000 C 
ATOM     30  F3  UNL A   1      23.511  43.581  51.550  1.00  0.00    +0.000 F 
ATOM     31  C23 UNL A   1      24.388  43.097  49.409  1.00  0.00    +0.000 C 
ATOM     32  F4  UNL A   1      23.744  44.153  48.893  1.00  0.00    +0.000 F 
ENDBRANCH   23   24
BRANCH   40   41
ATOM     41  C30 UNL A   1      32.754  41.048  46.978  1.00  0.00    +0.000 C 
ATOM     42  C31 UNL A   1      33.723  40.582  47.880  1.00  0.00    +0.000 C 
ATOM     43  F6  UNL A   1      33.510  39.454  48.575  1.00  0.00    +0.000 F 
ATOM     44  C32 UNL A   1      34.897  41.297  48.100  1.00  0.00    +0.000 C 
ATOM     45  F7  UNL A   1      35.787  40.857  49.000  1.00  0.00    +0.000 F 
ATOM     46  C33 UNL A   1      35.139  42.471  47.403  1.00  0.00    +0.000 C 
ATOM     47  F8  UNL A   1      36.272  43.156  47.614  1.00  0.00    +0.000 F 
ATOM     48  C34 UNL A   1      34.204  42.941  46.493  1.00  0.00    +0.000 C 
ATOM     49  F9  UNL A   1      34.441  44.069  45.811  1.00  0.00    +0.000 F 
ATOM     50  C35 UNL A   1      33.017  42.242  46.289  1.00  0.00    +0.000 C 
ATOM     51  F10 UNL A   1      32.124  42.727  45.413  1.00  0.00    +0.000 F 
ENDBRANCH   40   41
BRANCH   55   56
ATOM     65  C44 UNL A   1      31.436  35.934  41.569  1.00  0.00    +0.000 C 
ATOM     66  F15 UNL A   1      30.807  37.022  41.101  1.00  0.00    +0.000 F 
ATOM     56  C39 UNL A   1      31.313  35.578  42.919  1.00  0.00    +0.000 C 
ATOM     57  C40 UNL A   1      31.986  34.428  43.356  1.00  0.00    +0.000 C 
ATOM     58  F11 UNL A   1      31.915  34.061  44.644  1.00  0.00    +0.000 F 
ATOM     59  C41 UNL A   1      32.766  33.676  42.482  1.00  0.00    +0.000 C 
ATOM     60  F12 UNL A   1      33.433  32.605  42.935  1.00  0.00    +0.000 F 
ATOM     61  C42 UNL A   1      32.866  34.042  41.147  1.00  0.00    +0.000 C 
ATOM     62  F13 UNL A   1      33.613  33.315  40.306  1.00  0.00    +0.000 F 
ATOM     63  C43 UNL A   1      32.195  35.166  40.689  1.00  0.00    +0.000 C 
ATOM     64  F14 UNL A   1      32.278  35.515  39.398  1.00  0.00    +0.000 F 
ENDBRANCH   55   56
TORSDOF 17
ENDMDL
MODEL 5
REMARK VINA RESULT:     -11.1     22.647     27.543
ROOT
ATOM     19  C15 UNL A   1      23.032  35.821  47.107  1.00  0.00    +0.000 C 
ATOM     20  C16 UNL A   1      21.672  36.232  47.600  1.00  0.00    +0.000 C 
ATOM     21  N3  UNL A   1      21.249  37.415  47.974  1.00  0.00    +0.000 N 
ATOM     22  C17 UNL A   1      19.908  37.253  48.296  1.00  0.00    +0.000 C 
ATOM     23  C18 UNL A   1      19.040  38.170  48.787  1.00  0.00    +0.000 C 
ATOM     35  C25 UNL A   1      19.378  39.538  49.078  1.00  0.00    +0.000 C 
ATOM     36  C26 UNL A   1      18.582  40.526  49.633  1.00  0.00    +0.000 C 
ATOM     37  C27 UNL A   1      19.327  41.708  49.692  1.00  0.00    +0.000 C 
ATOM     38  C28 UNL A   1      20.600  41.448  49.213  1.00  0.00    +0.000 C 
ATOM     39  N4  UNL A   1      20.616  40.114  48.836  1.00  0.00    +0.000 N 
ATOM     40  C29 UNL A   1      21.720  42.347  49.104  1.00  0.00    +0.000 C 
ATOM     52  C36 UNL A   1      22.944  42.008  48.633  1.00  0.00    +0.000 C 
ATOM     53  N5  UNL A   1      23.389  40.777  48.170  1.00  0.00    +0.000 N 
ATOM     54  C37 UNL A   1      24.638  40.958  47.814  1.00  0.00    +0.000 C 
ATOM     55  C38 UNL A   1      25.621  39.960  47.266  1.00  0.00    +0.000 C 
ATOM     67  C45 UNL A   1      25.244  38.677  47.107  1.00  0.00    +0.000 C 
ATOM     68  C46 UNL A   1      26.091  37.604  46.597  1.00  0.00    +0.000 C 
ATOM     69  C47 UNL A   1      25.372  36.471  46.532  1.00  0.00    +0.000 C 
ATOM     70  C48 UNL A   1      24.021  36.733  47.029  1.00  0.00    +0.000 C 
ATOM     71  N6  UNL A   1      24.039  38.066  47.357  1.00  0.00    +0.000 N 
ATOM     72  C49 UNL A   1      25.118  42.336  47.986  1.00  0.00    +0.000 C 
ATOM     73  C50 UNL A   1      24.060  42.925  48.524  1.00  0.00    +0.000 C 
ATOM     74  C51 UNL A   1      19.576  35.868  48.034  1.00  0.00    +0.000 C 
ATOM     75  C52 UNL A   1      20.645  35.181  47.659  1.00  0.00    +0.000 C 
ATOM    112  H21 UNL A   1      17.607  40.409  49.950  1.00  0.00    +0.000 H 
ATOM    113  H22 UNL A   1      18.986  42.621  50.035  1.00  0.00    +0.000 H 
ATOM    114  H23 UNL A   1      21.393  39.645  48.454  1.00  0.00    +0.000 H 
ATOM    115  H24 UNL A   1      27.083  37.699  46.328  1.00  0.00    +0.000 H 
ATOM    116  H25 UNL A   1      25.717  35.562  46.186  1.00  0.00    +0.000 H 
ATOM    117  H26 UNL A   1      23.263  38.539  47.734  1.00  0.00    +0.000 H 
ATOM    118  H27 UNL A   1      26.038  42.739  47.750  1.00  0.00    +0.000 H 
ATOM    119  H28 UNL A   1      24.033  43.911  48.826  1.00  0.00    +0.000 H 
ATOM    120  H29 UNL A   1      18.629  35.469  48.126  1.00  0.00    +0.000 H 
ATOM    121  H30 UNL A   1      20.734  34.172  47.460  1.00  0.00    +0.000 H 
ENDROOT
BRANCH   19   18
ATOM     76  C53 UNL A   1      23.625  33.435  47.569  1.00  0.00    +0.000 C 
ATOM     77  C54 UNL A   1      23.848  32.124  47.146  1.00  0.00    +0.000 C 
ATOM    110  H19 UNL A   1      23.216  32.519  43.877  1.00  0.00    +0.000 H 
ATOM     15  C11 UNL A   1      23.639  31.775  45.809  1.00  0.00    +0.000 C 
ATOM     16  C12 UNL A   1      23.326  32.766  44.873  1.00  0.00    +0.000 C 
ATOM     17  C13 UNL A   1      23.162  34.091  45.286  1.00  0.00    +0.000 C 
ATOM    111  H20 UNL A   1      22.953  34.823  44.589  1.00  0.00    +0.000 H 
ATOM     18  C14 UNL A   1      23.278  34.431  46.643  1.00  0.00    +0.000 C 
ATOM    122  H31 UNL A   1      23.716  33.674  48.569  1.00  0.00    +0.000 H 
ATOM    123  H32 UNL A   1      24.167  31.412  47.822  1.00  0.00    +0.000 H 
BRANCH   15   13
ATOM     13  C10 UNL A   1      23.800  30.378  45.339  1.00  0.00    +0.000 C 
ATOM     14  O2  UNL A   1      24.898  29.839  45.411  1.00  0.00    +0.000 O 
BRANCH   13   12
ATOM     12  N2  UNL A   1      22.731  29.687  44.821  1.00  0.00    +0.000 N 
ATOM    109  H18 UNL A   1      22.867  29.322  43.917  1.00  0.00    +0.000 H 
BRANCH   12   11
ATOM     11  C9  UNL A   1      21.431  29.414  45.411  1.00  0.00    +0.000 C 
ATOM    108  H17 UNL A   1      21.538  29.459  46.475  1.00  0.00    +0.000 H 
ATOM    107  H16 UNL A   1      21.104  28.446  45.092  1.00  0.00    +0.000 H 
BRANCH   11   10
ATOM    105  H14 UNL A   1      20.682  30.871  44.066  1.00  0.00    +0.000 H 
ATOM     10  C8  UNL A   1      20.382  30.449  45.002  1.00  0.00    +0.000 C 
ATOM    106  H15 UNL A   1      19.451  29.923  44.959  1.00  0.00    +0.000 H 
BRANCH   10    9
ATOM      9  C7  UNL A   1      20.171  31.599  45.996  1.00  0.00    +0.000 C 
ATOM    103  H12 UNL A   1      19.806  31.179  46.911  1.00  0.00    +0.000 H 
ATOM    104  H13 UNL A   1      21.121  32.083  46.086  1.00  0.00    +0.000 H 
BRANCH    9    8
ATOM    101  H10 UNL A   1      18.238  32.236  45.380  1.00  0.00    +0.000 H 
ATOM    102  H11 UNL A   1      19.166  33.416  46.344  1.00  0.00    +0.000 H 
ATOM      8  C6  UNL A   1      19.189  32.692  45.556  1.00  0.00    +0.000 C 
BRANCH    8    7
ATOM     99  H8  UNL A   1      19.845  34.452  44.555  1.00  0.00    +0.000 H 
ATOM    100  H9  UNL A   1      20.435  32.923  43.869  1.00  0.00    +0.000 H 
ATOM      7  C5  UNL A   1      19.602  33.445  44.287  1.00  0.00    +0.000 C 
BRANCH    7    6
ATOM     97  H6  UNL A   1      17.585  33.776  43.668  1.00  0.00    +0.000 H 
ATOM     98  H7  UNL A   1      18.797  34.180  42.458  1.00  0.00    +0.000 H 
ATOM      6  C4  UNL A   1      18.508  33.480  43.215  1.00  0.00    +0.000 C 
BRANCH    6    5
ATOM      5  N1  UNL A   1      18.339  32.178  42.598  1.00  0.00    +0.000 N 
ATOM     96  H5  UNL A   1      19.119  31.843  42.101  1.00  0.00    +0.000 H 
BRANCH    5    3
ATOM      3  C3  UNL A   1      17.250  31.347  42.608  1.00  0.00    +0.000 C 
ATOM      4  O1  UNL A   1      16.534  31.342  41.604  1.00  0.00    +0.000 O 
BRANCH    3    2
ATOM      2  C2  UNL A   1      16.933  30.485  43.846  1.00  0.00    +0.000 C 
ATOM     95  H4  UNL A   1      17.805  30.434  44.463  1.00  0.00    +0.000 H 
BRANCH    2    1
ATOM      1  C1  UNL A   1      15.809  31.147  44.655  1.00  0.00    +0.000 C 
ATOM     92  H1  UNL A   1      15.796  32.198  44.455  1.00  0.00    +0.000 H 
ATOM     93  H2  UNL A   1      15.977  30.985  45.699  1.00  0.00    +0.000 H 
ATOM     94  H3  UNL A   1      14.869  30.719  44.375  1.00  0.00    +0.000 H 
ENDBRANCH    2    1
BRANCH    2   78
ATOM    129  H38 UNL A   1      12.608  22.992  40.383  1.00  0.00    +0.000 H 
ATOM    130  H39 UNL A   1      15.202  23.641  43.634  1.00  0.00    +0.000 H 
ATOM     78  C55 UNL A   1      16.611  29.041  43.470  1.00  0.00    +0.000 C 
ATOM     79  C56 UNL A   1      16.827  27.978  44.358  1.00  0.00    +0.000 C 
ATOM     80  C57 UNL A   1      16.384  26.678  44.067  1.00  0.00    +0.000 C 
ATOM     81  C58 UNL A   1      15.637  26.448  42.894  1.00  0.00    +0.000 C 
ATOM     82  C59 UNL A   1      15.467  27.505  42.007  1.00  0.00    +0.000 C 
ATOM     83  C60 UNL A   1      15.999  28.779  42.231  1.00  0.00    +0.000 C 
ATOM     84  N7  UNL A   1      14.682  27.048  40.975  1.00  0.00    +0.000 N 
ATOM     85  C61 UNL A   1      14.290  25.750  41.194  1.00  0.00    +0.000 C 
ATOM     86  C62 UNL A   1      13.430  24.932  40.451  1.00  0.00    +0.000 C 
ATOM     87  C63 UNL A   1      13.239  23.623  40.902  1.00  0.00    +0.000 C 
ATOM     88  C64 UNL A   1      13.891  23.161  42.042  1.00  0.00    +0.000 C 
ATOM     89 Cl1  UNL A   1      13.645  21.533  42.552  1.00  0.00    +0.000 Cl
ATOM     90  C65 UNL A   1      14.732  23.993  42.786  1.00  0.00    +0.000 C 
ATOM     91  C66 UNL A   1      14.929  25.323  42.359  1.00  0.00    +0.000 C 
ATOM    124  H33 UNL A   1      17.322  28.155  45.246  1.00  0.00    +0.000 H 
ATOM    125  H34 UNL A   1      16.602  25.898  44.706  1.00  0.00    +0.000 H 
ATOM    126  H35 UNL A   1      15.942  29.511  41.505  1.00  0.00    +0.000 H 
ATOM    127  H36 UNL A   1      14.433  27.581  40.185  1.00  0.00    +0.000 H 
ATOM    128  H37 UNL A   1      12.956  25.283  39.604  1.00  0.00    +0.000 H 
ENDBRANCH    2   78
ENDBRANCH    3    2
ENDBRANCH    5    3
ENDBRANCH    6    5
ENDBRANCH    7    6
ENDBRANCH    8    7
ENDBRANCH    9    8
ENDBRANCH   10    9
ENDBRANCH   11   10
ENDBRANCH   12   11
ENDBRANCH   13   12
ENDBRANCH   15   13
ENDBRANCH   19   18
BRANCH   23   24
ATOM     33  C24 UNL A   1      17.142  37.643  50.362  1.00  0.00    +0.000 C 
ATOM     34  F5  UNL A   1      17.916  38.005  51.395  1.00  0.00    +0.000 F 
ATOM     24  C19 UNL A   1      17.632  37.721  49.049  1.00  0.00    +0.000 C 
ATOM     25  C20 UNL A   1      16.782  37.324  48.006  1.00  0.00    +0.000 C 
ATOM     26  F1  UNL A   1      17.200  37.389  46.733  1.00  0.00    +0.000 F 
ATOM     27  C21 UNL A   1      15.485  36.887  48.266  1.00  0.00    +0.000 C 
ATOM     28  F2  UNL A   1      14.678  36.553  47.249  1.00  0.00    +0.000 F 
ATOM     29  C22 UNL A   1      15.024  36.811  49.571  1.00  0.00    +0.000 C 
ATOM     30  F3  UNL A   1      13.778  36.383  49.819  1.00  0.00    +0.000 F 
ATOM     31  C23 UNL A   1      15.853  37.182  50.619  1.00  0.00    +0.000 C 
ATOM     32  F4  UNL A   1      15.414  37.095  51.883  1.00  0.00    +0.000 F 
ENDBRANCH   23   24
BRANCH   40   41
ATOM     41  C30 UNL A   1      21.530  43.762  49.566  1.00  0.00    +0.000 C 
ATOM     42  C31 UNL A   1      21.780  44.141  50.894  1.00  0.00    +0.000 C 
ATOM     43  F6  UNL A   1      22.150  43.222  51.799  1.00  0.00    +0.000 F 
ATOM     44  C32 UNL A   1      21.611  45.460  51.304  1.00  0.00    +0.000 C 
ATOM     45  F7  UNL A   1      21.811  45.791  52.587  1.00  0.00    +0.000 F 
ATOM     46  C33 UNL A   1      21.220  46.429  50.391  1.00  0.00    +0.000 C 
ATOM     47  F8  UNL A   1      21.062  47.699  50.788  1.00  0.00    +0.000 F 
ATOM     48  C34 UNL A   1      20.985  46.080  49.070  1.00  0.00    +0.000 C 
ATOM     49  F9  UNL A   1      20.618  47.016  48.185  1.00  0.00    +0.000 F 
ATOM     50  C35 UNL A   1      21.128  44.757  48.662  1.00  0.00    +0.000 C 
ATOM     51  F10 UNL A   1      20.882  44.445  47.381  1.00  0.00    +0.000 F 
ENDBRANCH   40   41
BRANCH   55   56
ATOM     65  C44 UNL A   1      28.026  40.379  47.886  1.00  0.00    +0.000 C 
ATOM     66  F15 UNL A   1      27.760  40.019  49.150  1.00  0.00    +0.000 F 
ATOM     56  C39 UNL A   1      27.007  40.372  46.923  1.00  0.00    +0.000 C 
ATOM     57  C40 UNL A   1      27.338  40.763  45.619  1.00  0.00    +0.000 C 
ATOM     58  F11 UNL A   1      26.400  40.751  44.660  1.00  0.00    +0.000 F 
ATOM     59  C41 UNL A   1      28.640  41.128  45.285  1.00  0.00    +0.000 C 
ATOM     60  F12 UNL A   1      28.937  41.457  44.021  1.00  0.00    +0.000 F 
ATOM     61  C42 UNL A   1      29.630  41.137  46.256  1.00  0.00    +0.000 C 
ATOM     62  F13 UNL A   1      30.881  41.493  45.936  1.00  0.00    +0.000 F 
ATOM     63  C43 UNL A   1      29.322  40.770  47.558  1.00  0.00    +0.000 C 
ATOM     64  F14 UNL A   1      30.273  40.791  48.502  1.00  0.00    +0.000 F 
ENDBRANCH   55   56
TORSDOF 17
ENDMDL
MODEL 6
REMARK VINA RESULT:     -11.1      2.346      7.608
ROOT
ATOM     19  C15 UNL A   1      39.745  28.946  29.529  1.00  0.00    +0.000 C 
ATOM     20  C16 UNL A   1      40.544  29.826  30.449  1.00  0.00    +0.000 C 
ATOM     21  N3  UNL A   1      41.771  29.674  30.883  1.00  0.00    +0.000 N 
ATOM     22  C17 UNL A   1      42.036  30.787  31.670  1.00  0.00    +0.000 C 
ATOM     23  C18 UNL A   1      43.151  31.071  32.386  1.00  0.00    +0.000 C 
ATOM     35  C25 UNL A   1      44.309  30.220  32.460  1.00  0.00    +0.000 C 
ATOM     36  C26 UNL A   1      45.462  30.395  33.207  1.00  0.00    +0.000 C 
ATOM     37  C27 UNL A   1      46.329  29.332  32.930  1.00  0.00    +0.000 C 
ATOM     38  C28 UNL A   1      45.699  28.473  32.045  1.00  0.00    +0.000 C 
ATOM     39  N4  UNL A   1      44.463  29.033  31.761  1.00  0.00    +0.000 N 
ATOM     40  C29 UNL A   1      46.187  27.235  31.494  1.00  0.00    +0.000 C 
ATOM     52  C36 UNL A   1      45.499  26.442  30.637  1.00  0.00    +0.000 C 
ATOM     53  N5  UNL A   1      44.225  26.623  30.116  1.00  0.00    +0.000 N 
ATOM     54  C37 UNL A   1      44.011  25.597  29.328  1.00  0.00    +0.000 C 
ATOM     55  C38 UNL A   1      42.786  25.259  28.523  1.00  0.00    +0.000 C 
ATOM     67  C45 UNL A   1      41.712  26.069  28.581  1.00  0.00    +0.000 C 
ATOM     68  C46 UNL A   1      40.458  25.862  27.863  1.00  0.00    +0.000 C 
ATOM     69  C47 UNL A   1      39.631  26.888  28.122  1.00  0.00    +0.000 C 
ATOM     70  C48 UNL A   1      40.286  27.808  29.052  1.00  0.00    +0.000 C 
ATOM     71  N6  UNL A   1      41.514  27.236  29.277  1.00  0.00    +0.000 N 
ATOM     72  C49 UNL A   1      45.142  24.661  29.241  1.00  0.00    +0.000 C 
ATOM     73  C50 UNL A   1      46.006  25.202  30.087  1.00  0.00    +0.000 C 
ATOM     74  C51 UNL A   1      40.857  31.627  31.621  1.00  0.00    +0.000 C 
ATOM     75  C52 UNL A   1      39.886  31.051  30.929  1.00  0.00    +0.000 C 
ATOM    112  H21 UNL A   1      45.650  31.175  33.855  1.00  0.00    +0.000 H 
ATOM    113  H22 UNL A   1      47.277  29.208  33.321  1.00  0.00    +0.000 H 
ATOM    114  H23 UNL A   1      43.792  28.643  31.154  1.00  0.00    +0.000 H 
ATOM    115  H24 UNL A   1      40.242  25.058  27.254  1.00  0.00    +0.000 H 
ATOM    116  H25 UNL A   1      38.685  27.008  27.727  1.00  0.00    +0.000 H 
ATOM    117  H26 UNL A   1      42.188  27.626  29.879  1.00  0.00    +0.000 H 
ATOM    118  H27 UNL A   1      45.236  23.806  28.670  1.00  0.00    +0.000 H 
ATOM    119  H28 UNL A   1      46.923  24.794  30.323  1.00  0.00    +0.000 H 
ATOM    120  H29 UNL A   1      40.784  32.555  32.067  1.00  0.00    +0.000 H 
ATOM    121  H30 UNL A   1      38.919  31.377  30.768  1.00  0.00    +0.000 H 
ENDROOT
BRANCH   19   18
ATOM     76  C53 UNL A   1      38.190  29.835  27.782  1.00  0.00    +0.000 C 
ATOM     77  C54 UNL A   1      36.917  30.210  27.351  1.00  0.00    +0.000 C 
ATOM    110  H19 UNL A   1      35.193  29.482  30.132  1.00  0.00    +0.000 H 
ATOM     15  C11 UNL A   1      35.812  30.024  28.186  1.00  0.00    +0.000 C 
ATOM     16  C12 UNL A   1      36.001  29.576  29.498  1.00  0.00    +0.000 C 
ATOM     17  C13 UNL A   1      37.285  29.258  29.950  1.00  0.00    +0.000 C 
ATOM    111  H20 UNL A   1      37.423  28.949  30.925  1.00  0.00    +0.000 H 
ATOM     18  C14 UNL A   1      38.386  29.354  29.085  1.00  0.00    +0.000 C 
ATOM    122  H31 UNL A   1      38.993  29.913  27.138  1.00  0.00    +0.000 H 
ATOM    123  H32 UNL A   1      36.792  30.626  26.413  1.00  0.00    +0.000 H 
BRANCH   15   13
ATOM     13  C10 UNL A   1      34.438  30.348  27.736  1.00  0.00    +0.000 C 
ATOM     14  O2  UNL A   1      34.074  31.517  27.696  1.00  0.00    +0.000 O 
BRANCH   13   12
ATOM     12  N2  UNL A   1      33.569  29.348  27.368  1.00  0.00    +0.000 N 
ATOM    109  H18 UNL A   1      33.947  28.439  27.380  1.00  0.00    +0.000 H 
BRANCH   12   11
ATOM     11  C9  UNL A   1      32.175  29.435  26.965  1.00  0.00    +0.000 C 
ATOM    108  H17 UNL A   1      32.045  30.353  26.430  1.00  0.00    +0.000 H 
ATOM    107  H16 UNL A   1      31.560  29.402  27.840  1.00  0.00    +0.000 H 
BRANCH   11   10
ATOM    105  H14 UNL A   1      30.720  28.369  25.852  1.00  0.00    +0.000 H 
ATOM     10  C8  UNL A   1      31.771  28.290  26.035  1.00  0.00    +0.000 C 
ATOM    106  H15 UNL A   1      32.371  28.399  25.155  1.00  0.00    +0.000 H 
BRANCH   10    9
ATOM      9  C7  UNL A   1      32.055  26.878  26.567  1.00  0.00    +0.000 C 
ATOM    103  H12 UNL A   1      32.156  26.944  27.631  1.00  0.00    +0.000 H 
ATOM    104  H13 UNL A   1      31.233  26.275  26.243  1.00  0.00    +0.000 H 
BRANCH    9    8
ATOM    101  H10 UNL A   1      33.369  26.393  24.968  1.00  0.00    +0.000 H 
ATOM    102  H11 UNL A   1      34.141  26.598  26.563  1.00  0.00    +0.000 H 
ATOM      8  C6  UNL A   1      33.314  26.196  26.017  1.00  0.00    +0.000 C 
BRANCH    8    7
ATOM     99  H8  UNL A   1      33.266  24.475  27.268  1.00  0.00    +0.000 H 
ATOM    100  H9  UNL A   1      32.548  24.263  25.657  1.00  0.00    +0.000 H 
ATOM      7  C5  UNL A   1      33.355  24.678  26.222  1.00  0.00    +0.000 C 
BRANCH    7    6
ATOM     97  H6  UNL A   1      35.256  24.778  25.254  1.00  0.00    +0.000 H 
ATOM     98  H7  UNL A   1      35.152  23.582  26.541  1.00  0.00    +0.000 H 
ATOM      6  C4  UNL A   1      34.644  24.028  25.711  1.00  0.00    +0.000 C 
BRANCH    6    5
ATOM      5  N1  UNL A   1      34.357  22.992  24.736  1.00  0.00    +0.000 N 
ATOM     96  H5  UNL A   1      34.144  22.108  25.112  1.00  0.00    +0.000 H 
BRANCH    5    3
ATOM      3  C3  UNL A   1      34.339  23.067  23.368  1.00  0.00    +0.000 C 
ATOM      4  O1  UNL A   1      35.427  23.044  22.787  1.00  0.00    +0.000 O 
BRANCH    3    2
ATOM      2  C2  UNL A   1      33.006  23.205  22.609  1.00  0.00    +0.000 C 
ATOM     95  H4  UNL A   1      33.189  23.082  21.563  1.00  0.00    +0.000 H 
BRANCH    2    1
ATOM      1  C1  UNL A   1      32.043  22.099  23.062  1.00  0.00    +0.000 C 
ATOM     92  H1  UNL A   1      31.079  22.522  23.255  1.00  0.00    +0.000 H 
ATOM     93  H2  UNL A   1      32.417  21.643  23.955  1.00  0.00    +0.000 H 
ATOM     94  H3  UNL A   1      31.960  21.360  22.292  1.00  0.00    +0.000 H 
ENDBRANCH    2    1
BRANCH    2   78
ATOM    129  H38 UNL A   1      26.875  30.215  22.944  1.00  0.00    +0.000 H 
ATOM    130  H39 UNL A   1      30.957  29.933  21.955  1.00  0.00    +0.000 H 
ATOM     78  C55 UNL A   1      32.405  24.600  22.758  1.00  0.00    +0.000 C 
ATOM     79  C56 UNL A   1      33.031  25.738  22.229  1.00  0.00    +0.000 C 
ATOM     80  C57 UNL A   1      32.399  26.992  22.232  1.00  0.00    +0.000 C 
ATOM     81  C58 UNL A   1      31.076  27.098  22.705  1.00  0.00    +0.000 C 
ATOM     82  C59 UNL A   1      30.485  25.968  23.261  1.00  0.00    +0.000 C 
ATOM     83  C60 UNL A   1      31.145  24.739  23.366  1.00  0.00    +0.000 C 
ATOM     84  N7  UNL A   1      29.200  26.309  23.608  1.00  0.00    +0.000 N 
ATOM     85  C61 UNL A   1      28.919  27.603  23.240  1.00  0.00    +0.000 C 
ATOM     86  C62 UNL A   1      27.721  28.323  23.326  1.00  0.00    +0.000 C 
ATOM     87  C63 UNL A   1      27.740  29.654  22.900  1.00  0.00    +0.000 C 
ATOM     88  C64 UNL A   1      28.912  30.232  22.419  1.00  0.00    +0.000 C 
ATOM     89 Cl1  UNL A   1      28.898  31.882  21.925  1.00  0.00    +0.000 Cl
ATOM     90  C65 UNL A   1      30.097  29.496  22.321  1.00  0.00    +0.000 C 
ATOM     91  C66 UNL A   1      30.099  28.146  22.731  1.00  0.00    +0.000 C 
ATOM    124  H33 UNL A   1      33.978  25.652  21.828  1.00  0.00    +0.000 H 
ATOM    125  H34 UNL A   1      32.898  27.828  21.891  1.00  0.00    +0.000 H 
ATOM    126  H35 UNL A   1      30.716  23.951  23.878  1.00  0.00    +0.000 H 
ATOM    127  H36 UNL A   1      28.564  25.707  24.058  1.00  0.00    +0.000 H 
ATOM    128  H37 UNL A   1      26.859  27.888  23.690  1.00  0.00    +0.000 H 
ENDBRANCH    2   78
ENDBRANCH    3    2
ENDBRANCH    5    3
ENDBRANCH    6    5
ENDBRANCH    7    6
ENDBRANCH    8    7
ENDBRANCH    9    8
ENDBRANCH   10    9
ENDBRANCH   11   10
ENDBRANCH   12   11
ENDBRANCH   13   12
ENDBRANCH   15   13
ENDBRANCH   19   18
BRANCH   23   24
ATOM     33  C24 UNL A   1      42.664  32.414  34.464  1.00  0.00    +0.000 C 
ATOM     34  F5  UNL A   1      42.189  31.306  35.053  1.00  0.00    +0.000 F 
ATOM     24  C19 UNL A   1      43.171  32.358  33.156  1.00  0.00    +0.000 C 
ATOM     25  C20 UNL A   1      43.647  33.548  32.587  1.00  0.00    +0.000 C 
ATOM     26  F1  UNL A   1      44.151  33.546  31.343  1.00  0.00    +0.000 F 
ATOM     27  C21 UNL A   1      43.639  34.741  33.306  1.00  0.00    +0.000 C 
ATOM     28  F2  UNL A   1      44.139  35.856  32.755  1.00  0.00    +0.000 F 
ATOM     29  C22 UNL A   1      43.127  34.774  34.593  1.00  0.00    +0.000 C 
ATOM     30  F3  UNL A   1      43.112  35.925  35.281  1.00  0.00    +0.000 F 
ATOM     31  C23 UNL A   1      42.633  33.614  35.170  1.00  0.00    +0.000 C 
ATOM     32  F4  UNL A   1      42.124  33.647  36.410  1.00  0.00    +0.000 F 
ENDBRANCH   23   24
BRANCH   40   41
ATOM     41  C30 UNL A   1      47.551  26.771  31.913  1.00  0.00    +0.000 C 
ATOM     42  C31 UNL A   1      48.709  27.195  31.243  1.00  0.00    +0.000 C 
ATOM     43  F6  UNL A   1      48.613  27.995  30.170  1.00  0.00    +0.000 F 
ATOM     44  C32 UNL A   1      49.968  26.765  31.651  1.00  0.00    +0.000 C 
ATOM     45  F7  UNL A   1      51.057  27.146  30.968  1.00  0.00    +0.000 F 
ATOM     46  C33 UNL A   1      50.097  25.931  32.751  1.00  0.00    +0.000 C 
ATOM     47  F8  UNL A   1      51.311  25.521  33.144  1.00  0.00    +0.000 F 
ATOM     48  C34 UNL A   1      48.968  25.514  33.439  1.00  0.00    +0.000 C 
ATOM     49  F9  UNL A   1      49.091  24.716  34.508  1.00  0.00    +0.000 F 
ATOM     50  C35 UNL A   1      47.705  25.921  33.018  1.00  0.00    +0.000 C 
ATOM     51  F10 UNL A   1      46.629  25.491  33.694  1.00  0.00    +0.000 F 
ENDBRANCH   40   41
BRANCH   55   56
ATOM     65  C44 UNL A   1      42.392  22.789  28.231  1.00  0.00    +0.000 C 
ATOM     66  F15 UNL A   1      42.092  22.686  29.534  1.00  0.00    +0.000 F 
ATOM     56  C39 UNL A   1      42.744  24.032  27.687  1.00  0.00    +0.000 C 
ATOM     57  C40 UNL A   1      43.054  24.083  26.321  1.00  0.00    +0.000 C 
ATOM     58  F11 UNL A   1      43.376  25.254  25.752  1.00  0.00    +0.000 F 
ATOM     59  C41 UNL A   1      42.994  22.941  25.526  1.00  0.00    +0.000 C 
ATOM     60  F12 UNL A   1      43.254  23.026  24.214  1.00  0.00    +0.000 F 
ATOM     61  C42 UNL A   1      42.651  21.720  26.088  1.00  0.00    +0.000 C 
ATOM     62  F13 UNL A   1      42.599  20.621  25.324  1.00  0.00    +0.000 F 
ATOM     63  C43 UNL A   1      42.358  21.642  27.441  1.00  0.00    +0.000 C 
ATOM     64  F14 UNL A   1      42.040  20.461  27.990  1.00  0.00    +0.000 F 
ENDBRANCH   55   56
TORSDOF 17
ENDMDL
MODEL 7
REMARK VINA RESULT:     -11.0     20.171     24.966
ROOT
ATOM     19  C15 UNL A   1      53.577  19.719  11.616  1.00  0.00    +0.000 C 
ATOM     20  C16 UNL A   1      54.938  19.090  11.506  1.00  0.00    +0.000 C 
ATOM     21  N3  UNL A   1      55.912  19.063  12.382  1.00  0.00    +0.000 N 
ATOM     22  C17 UNL A   1      56.929  18.321  11.797  1.00  0.00    +0.000 C 
ATOM     23  C18 UNL A   1      58.166  18.051  12.280  1.00  0.00    +0.000 C 
ATOM     35  C25 UNL A   1      58.664  18.518  13.547  1.00  0.00    +0.000 C 
ATOM     36  C26 UNL A   1      59.924  18.347  14.096  1.00  0.00    +0.000 C 
ATOM     37  C27 UNL A   1      59.936  18.941  15.362  1.00  0.00    +0.000 C 
ATOM     38  C28 UNL A   1      58.697  19.519  15.585  1.00  0.00    +0.000 C 
ATOM     39  N4  UNL A   1      57.926  19.248  14.466  1.00  0.00    +0.000 N 
ATOM     40  C29 UNL A   1      58.247  20.262  16.734  1.00  0.00    +0.000 C 
ATOM     52  C36 UNL A   1      57.015  20.810  16.870  1.00  0.00    +0.000 C 
ATOM     53  N5  UNL A   1      55.950  20.790  15.980  1.00  0.00    +0.000 N 
ATOM     54  C37 UNL A   1      54.977  21.442  16.569  1.00  0.00    +0.000 C 
ATOM     55  C38 UNL A   1      53.598  21.754  16.057  1.00  0.00    +0.000 C 
ATOM     67  C45 UNL A   1      53.245  21.352  14.821  1.00  0.00    +0.000 C 
ATOM     68  C46 UNL A   1      51.949  21.590  14.193  1.00  0.00    +0.000 C 
ATOM     69  C47 UNL A   1      51.936  21.011  12.982  1.00  0.00    +0.000 C 
ATOM     70  C48 UNL A   1      53.236  20.390  12.734  1.00  0.00    +0.000 C 
ATOM     71  N6  UNL A   1      53.953  20.650  13.876  1.00  0.00    +0.000 N 
ATOM     72  C49 UNL A   1      55.310  21.928  17.916  1.00  0.00    +0.000 C 
ATOM     73  C50 UNL A   1      56.574  21.550  18.034  1.00  0.00    +0.000 C 
ATOM     74  C51 UNL A   1      56.439  17.879  10.508  1.00  0.00    +0.000 C 
ATOM     75  C52 UNL A   1      55.237  18.376  10.255  1.00  0.00    +0.000 C 
ATOM    112  H21 UNL A   1      60.717  17.864  13.647  1.00  0.00    +0.000 H 
ATOM    113  H22 UNL A   1      60.732  18.948  16.019  1.00  0.00    +0.000 H 
ATOM    114  H23 UNL A   1      56.992  19.534  14.341  1.00  0.00    +0.000 H 
ATOM    115  H24 UNL A   1      51.168  22.118  14.613  1.00  0.00    +0.000 H 
ATOM    116  H25 UNL A   1      51.135  21.005  12.330  1.00  0.00    +0.000 H 
ATOM    117  H26 UNL A   1      54.885  20.361  14.006  1.00  0.00    +0.000 H 
ATOM    118  H27 UNL A   1      54.714  22.432  18.592  1.00  0.00    +0.000 H 
ATOM    119  H28 UNL A   1      57.170  21.755  18.852  1.00  0.00    +0.000 H 
ATOM    120  H29 UNL A   1      56.958  17.256   9.869  1.00  0.00    +0.000 H 
ATOM    121  H30 UNL A   1      54.661  18.286   9.403  1.00  0.00    +0.000 H 
ENDROOT
BRANCH   19   18
ATOM     76  C53 UNL A   1      51.771  18.405  10.490  1.00  0.00    +0.000 C 
ATOM     77  C54 UNL A   1      50.821  18.243   9.480  1.00  0.00    +0.000 C 
ATOM    110  H19 UNL A   1      51.302  21.131   7.847  1.00  0.00    +0.000 H 
ATOM     15  C11 UNL A   1      50.606  19.264   8.551  1.00  0.00    +0.000 C 
ATOM     16  C12 UNL A   1      51.428  20.396   8.561  1.00  0.00    +0.000 C 
ATOM     17  C13 UNL A   1      52.420  20.532   9.536  1.00  0.00    +0.000 C 
ATOM    111  H20 UNL A   1      53.039  21.358   9.526  1.00  0.00    +0.000 H 
ATOM     18  C14 UNL A   1      52.578  19.552  10.529  1.00  0.00    +0.000 C 
ATOM    122  H31 UNL A   1      51.879  17.677  11.213  1.00  0.00    +0.000 H 
ATOM    123  H32 UNL A   1      50.277  17.367   9.420  1.00  0.00    +0.000 H 
BRANCH   15   13
ATOM     13  C10 UNL A   1      49.560  19.154   7.507  1.00  0.00    +0.000 C 
ATOM     14  O2  UNL A   1      48.448  19.626   7.714  1.00  0.00    +0.000 O 
BRANCH   13   12
ATOM     12  N2  UNL A   1      49.825  18.525   6.314  1.00  0.00    +0.000 N 
ATOM    109  H18 UNL A   1      50.517  18.954   5.760  1.00  0.00    +0.000 H 
BRANCH   12   11
ATOM     11  C9  UNL A   1      49.237  17.322   5.750  1.00  0.00    +0.000 C 
ATOM    108  H17 UNL A   1      49.880  16.500   5.987  1.00  0.00    +0.000 H 
ATOM    107  H16 UNL A   1      49.139  17.448   4.692  1.00  0.00    +0.000 H 
BRANCH   11   10
ATOM    105  H14 UNL A   1      47.790  15.967   6.502  1.00  0.00    +0.000 H 
ATOM     10  C8  UNL A   1      47.858  17.022   6.341  1.00  0.00    +0.000 C 
ATOM    106  H15 UNL A   1      47.790  17.601   7.239  1.00  0.00    +0.000 H 
BRANCH   10    9
ATOM      9  C7  UNL A   1      46.665  17.448   5.474  1.00  0.00    +0.000 C 
ATOM    103  H12 UNL A   1      46.093  16.571   5.251  1.00  0.00    +0.000 H 
ATOM    104  H13 UNL A   1      46.135  18.179   6.048  1.00  0.00    +0.000 H 
BRANCH    9    8
ATOM    101  H10 UNL A   1      47.693  18.931   4.351  1.00  0.00    +0.000 H 
ATOM    102  H11 UNL A   1      47.427  17.378   3.514  1.00  0.00    +0.000 H 
ATOM      8  C6  UNL A   1      47.011  18.134   4.147  1.00  0.00    +0.000 C 
BRANCH    8    7
ATOM     99  H8  UNL A   1      46.087  18.869   2.376  1.00  0.00    +0.000 H 
ATOM    100  H9  UNL A   1      45.007  18.011   3.497  1.00  0.00    +0.000 H 
ATOM      7  C5  UNL A   1      45.807  18.713   3.397  1.00  0.00    +0.000 C 
BRANCH    7    6
ATOM     97  H6  UNL A   1      45.032  19.900   4.994  1.00  0.00    +0.000 H 
ATOM     98  H7  UNL A   1      46.103  20.761   3.896  1.00  0.00    +0.000 H 
ATOM      6  C4  UNL A   1      45.312  20.044   3.972  1.00  0.00    +0.000 C 
BRANCH    6    5
ATOM      5  N1  UNL A   1      44.167  20.540   3.232  1.00  0.00    +0.000 N 
ATOM     96  H5  UNL A   1      43.599  21.181   3.715  1.00  0.00    +0.000 H 
BRANCH    5    3
ATOM      3  C3  UNL A   1      43.761  20.243   1.957  1.00  0.00    +0.000 C 
ATOM      4  O1  UNL A   1      44.406  20.738   1.029  1.00  0.00    +0.000 O 
BRANCH    3    2
ATOM      2  C2  UNL A   1      42.530  19.350   1.715  1.00  0.00    +0.000 C 
ATOM     95  H4  UNL A   1      42.769  18.626   0.966  1.00  0.00    +0.000 H 
BRANCH    2    1
ATOM      1  C1  UNL A   1      42.177  18.605   3.010  1.00  0.00    +0.000 C 
ATOM     92  H1  UNL A   1      42.959  17.915   3.250  1.00  0.00    +0.000 H 
ATOM     93  H2  UNL A   1      41.260  18.071   2.877  1.00  0.00    +0.000 H 
ATOM     94  H3  UNL A   1      42.066  19.309   3.809  1.00  0.00    +0.000 H 
ENDBRANCH    2    1
BRANCH    2   78
ATOM    129  H38 UNL A   1      33.867  22.401   0.136  1.00  0.00    +0.000 H 
ATOM    130  H39 UNL A   1      37.383  22.231  -2.172  1.00  0.00    +0.000 H 
ATOM     78  C55 UNL A   1      41.350  20.142   1.157  1.00  0.00    +0.000 C 
ATOM     79  C56 UNL A   1      41.260  20.480  -0.201  1.00  0.00    +0.000 C 
ATOM     80  C57 UNL A   1      40.103  21.070  -0.735  1.00  0.00    +0.000 C 
ATOM     81  C58 UNL A   1      38.976  21.255   0.092  1.00  0.00    +0.000 C 
ATOM     82  C59 UNL A   1      39.097  20.951   1.444  1.00  0.00    +0.000 C 
ATOM     83  C60 UNL A   1      40.281  20.467   2.012  1.00  0.00    +0.000 C 
ATOM     84  N7  UNL A   1      37.872  21.175   2.023  1.00  0.00    +0.000 N 
ATOM     85  C61 UNL A   1      36.946  21.557   1.082  1.00  0.00    +0.000 C 
ATOM     86  C62 UNL A   1      35.574  21.802   1.217  1.00  0.00    +0.000 C 
ATOM     87  C63 UNL A   1      34.880  22.215   0.077  1.00  0.00    +0.000 C 
ATOM     88  C64 UNL A   1      35.541  22.380  -1.138  1.00  0.00    +0.000 C 
ATOM     89 Cl1  UNL A   1      34.653  22.912  -2.516  1.00  0.00    +0.000 Cl
ATOM     90  C65 UNL A   1      36.907  22.113  -1.264  1.00  0.00    +0.000 C 
ATOM     91  C66 UNL A   1      37.626  21.680  -0.130  1.00  0.00    +0.000 C 
ATOM    124  H33 UNL A   1      42.062  20.291  -0.822  1.00  0.00    +0.000 H 
ATOM    125  H34 UNL A   1      40.076  21.363  -1.724  1.00  0.00    +0.000 H 
ATOM    126  H35 UNL A   1      40.368  20.351   3.034  1.00  0.00    +0.000 H 
ATOM    127  H36 UNL A   1      37.681  21.074   2.984  1.00  0.00    +0.000 H 
ATOM    128  H37 UNL A   1      35.095  21.683   2.123  1.00  0.00    +0.000 H 
ENDBRANCH    2   78
ENDBRANCH    3    2
ENDBRANCH    5    3
ENDBRANCH    6    5
ENDBRANCH    7    6
ENDBRANCH    8    7
ENDBRANCH    9    8
ENDBRANCH   10    9
ENDBRANCH   11   10
ENDBRANCH   12   11
ENDBRANCH   13   12
ENDBRANCH   15   13
ENDBRANCH   19   18
BRANCH   23   24
ATOM     33  C24 UNL A   1      59.903  17.814  10.468  1.00  0.00    +0.000 C 
ATOM     34  F5  UNL A   1      59.916  19.148  10.324  1.00  0.00    +0.000 F 
ATOM     24  C19 UNL A   1      59.075  17.214  11.430  1.00  0.00    +0.000 C 
ATOM     25  C20 UNL A   1      59.096  15.816  11.532  1.00  0.00    +0.000 C 
ATOM     26  F1  UNL A   1      58.331  15.195  12.442  1.00  0.00    +0.000 F 
ATOM     27  C21 UNL A   1      59.928  15.049  10.720  1.00  0.00    +0.000 C 
ATOM     28  F2  UNL A   1      59.961  13.718  10.866  1.00  0.00    +0.000 F 
ATOM     29  C22 UNL A   1      60.732  15.663   9.771  1.00  0.00    +0.000 C 
ATOM     30  F3  UNL A   1      61.527  14.923   8.985  1.00  0.00    +0.000 F 
ATOM     31  C23 UNL A   1      60.715  17.043   9.640  1.00  0.00    +0.000 C 
ATOM     32  F4  UNL A   1      61.480  17.637   8.713  1.00  0.00    +0.000 F 
ENDBRANCH   23   24
BRANCH   40   41
ATOM     41  C30 UNL A   1      59.217  20.468  17.859  1.00  0.00    +0.000 C 
ATOM     42  C31 UNL A   1      59.904  21.680  18.024  1.00  0.00    +0.000 C 
ATOM     43  F6  UNL A   1      59.742  22.674  17.138  1.00  0.00    +0.000 F 
ATOM     44  C32 UNL A   1      60.792  21.860  19.081  1.00  0.00    +0.000 C 
ATOM     45  F7  UNL A   1      61.472  23.010  19.194  1.00  0.00    +0.000 F 
ATOM     46  C33 UNL A   1      60.987  20.847  20.008  1.00  0.00    +0.000 C 
ATOM     47  F8  UNL A   1      61.840  21.024  21.027  1.00  0.00    +0.000 F 
ATOM     48  C34 UNL A   1      60.305  19.647  19.875  1.00  0.00    +0.000 C 
ATOM     49  F9  UNL A   1      60.484  18.671  20.774  1.00  0.00    +0.000 F 
ATOM     50  C35 UNL A   1      59.436  19.454  18.804  1.00  0.00    +0.000 C 
ATOM     51  F10 UNL A   1      58.799  18.278  18.693  1.00  0.00    +0.000 F 
ENDBRANCH   40   41
BRANCH   55   56
ATOM     65  C44 UNL A   1      52.452  23.897  16.717  1.00  0.00    +0.000 C 
ATOM     66  F15 UNL A   1      53.160  24.557  15.789  1.00  0.00    +0.000 F 
ATOM     56  C39 UNL A   1      52.635  22.518  16.891  1.00  0.00    +0.000 C 
ATOM     57  C40 UNL A   1      51.874  21.877  17.878  1.00  0.00    +0.000 C 
ATOM     58  F11 UNL A   1      52.000  20.555  18.065  1.00  0.00    +0.000 F 
ATOM     59  C41 UNL A   1      50.952  22.583  18.648  1.00  0.00    +0.000 C 
ATOM     60  F12 UNL A   1      50.208  21.938  19.556  1.00  0.00    +0.000 F 
ATOM     61  C42 UNL A   1      50.795  23.949  18.465  1.00  0.00    +0.000 C 
ATOM     62  F13 UNL A   1      49.912  24.628  19.208  1.00  0.00    +0.000 F 
ATOM     63  C43 UNL A   1      51.549  24.607  17.506  1.00  0.00    +0.000 C 
ATOM     64  F14 UNL A   1      51.410  25.929  17.335  1.00  0.00    +0.000 F 
ENDBRANCH   55   56
TORSDOF 17
ENDMDL
MODEL 8
REMARK VINA RESULT:     -11.0     35.101     39.287
ROOT
ATOM     19  C15 UNL A   1      10.668   3.122  21.178  1.00  0.00    +0.000 C 
ATOM     20  C16 UNL A   1      11.204   3.565  19.845  1.00  0.00    +0.000 C 
ATOM     21  N3  UNL A   1      11.005   4.691  19.205  1.00  0.00    +0.000 N 
ATOM     22  C17 UNL A   1      11.759   4.605  18.042  1.00  0.00    +0.000 C 
ATOM     23  C18 UNL A   1      11.848   5.493  17.023  1.00  0.00    +0.000 C 
ATOM     35  C25 UNL A   1      11.132   6.741  16.967  1.00  0.00    +0.000 C 
ATOM     36  C26 UNL A   1      11.111   7.679  15.949  1.00  0.00    +0.000 C 
ATOM     37  C27 UNL A   1      10.307   8.749  16.354  1.00  0.00    +0.000 C 
ATOM     38  C28 UNL A   1       9.793   8.459  17.607  1.00  0.00    +0.000 C 
ATOM     39  N4  UNL A   1      10.311   7.227  17.972  1.00  0.00    +0.000 N 
ATOM     40  C29 UNL A   1       8.897   9.247  18.414  1.00  0.00    +0.000 C 
ATOM     52  C36 UNL A   1       8.428   8.884  19.633  1.00  0.00    +0.000 C 
ATOM     53  N5  UNL A   1       8.682   7.725  20.354  1.00  0.00    +0.000 N 
ATOM     54  C37 UNL A   1       8.011   7.845  21.474  1.00  0.00    +0.000 C 
ATOM     55  C38 UNL A   1       7.897   6.877  22.619  1.00  0.00    +0.000 C 
ATOM     67  C45 UNL A   1       8.533   5.692  22.550  1.00  0.00    +0.000 C 
ATOM     68  C46 UNL A   1       8.505   4.656  23.578  1.00  0.00    +0.000 C 
ATOM     69  C47 UNL A   1       9.285   3.634  23.191  1.00  0.00    +0.000 C 
ATOM     70  C48 UNL A   1       9.841   3.929  21.871  1.00  0.00    +0.000 C 
ATOM     71  N6  UNL A   1       9.333   5.167  21.564  1.00  0.00    +0.000 N 
ATOM     72  C49 UNL A   1       7.276   9.112  21.600  1.00  0.00    +0.000 C 
ATOM     73  C50 UNL A   1       7.532   9.690  20.436  1.00  0.00    +0.000 C 
ATOM     74  C51 UNL A   1      12.454   3.335  18.084  1.00  0.00    +0.000 C 
ATOM     75  C52 UNL A   1      12.099   2.629  19.147  1.00  0.00    +0.000 C 
ATOM    112  H21 UNL A   1      11.604   7.602  15.046  1.00  0.00    +0.000 H 
ATOM    113  H22 UNL A   1      10.127   9.609  15.812  1.00  0.00    +0.000 H 
ATOM    114  H23 UNL A   1      10.122   6.763  18.821  1.00  0.00    +0.000 H 
ATOM    115  H24 UNL A   1       7.972   4.702  24.460  1.00  0.00    +0.000 H 
ATOM    116  H25 UNL A   1       9.464   2.777  23.738  1.00  0.00    +0.000 H 
ATOM    117  H26 UNL A   1       9.525   5.635  20.720  1.00  0.00    +0.000 H 
ATOM    118  H27 UNL A   1       6.708   9.459  22.389  1.00  0.00    +0.000 H 
ATOM    119  H28 UNL A   1       7.144  10.599  20.139  1.00  0.00    +0.000 H 
ATOM    120  H29 UNL A   1      13.138   3.021  17.378  1.00  0.00    +0.000 H 
ATOM    121  H30 UNL A   1      12.378   1.672  19.417  1.00  0.00    +0.000 H 
ENDROOT
BRANCH   19   18
ATOM     76  C53 UNL A   1      10.244   0.714  21.708  1.00  0.00    +0.000 C 
ATOM     77  C54 UNL A   1      10.638  -0.510  22.251  1.00  0.00    +0.000 C 
ATOM    110  H19 UNL A   1      13.697   0.359  23.315  1.00  0.00    +0.000 H 
ATOM     15  C11 UNL A   1      11.922  -0.657  22.783  1.00  0.00    +0.000 C 
ATOM     16  C12 UNL A   1      12.766   0.454  22.880  1.00  0.00    +0.000 C 
ATOM     17  C13 UNL A   1      12.348   1.695  22.391  1.00  0.00    +0.000 C 
ATOM    111  H20 UNL A   1      12.964   2.517  22.485  1.00  0.00    +0.000 H 
ATOM     18  C14 UNL A   1      11.095   1.828  21.771  1.00  0.00    +0.000 C 
ATOM    122  H31 UNL A   1       9.320   0.800  21.256  1.00  0.00    +0.000 H 
ATOM    123  H32 UNL A   1       9.981  -1.306  22.259  1.00  0.00    +0.000 H 
BRANCH   15   13
ATOM     13  C10 UNL A   1      12.399  -1.960  23.306  1.00  0.00    +0.000 C 
ATOM     14  O2  UNL A   1      12.297  -2.964  22.611  1.00  0.00    +0.000 O 
BRANCH   13   12
ATOM     12  N2  UNL A   1      12.950  -2.050  24.562  1.00  0.00    +0.000 N 
ATOM    109  H18 UNL A   1      13.932  -1.998  24.593  1.00  0.00    +0.000 H 
BRANCH   12   11
ATOM     11  C9  UNL A   1      12.296  -2.209  25.850  1.00  0.00    +0.000 C 
ATOM    108  H17 UNL A   1      11.999  -1.238  26.190  1.00  0.00    +0.000 H 
ATOM    107  H16 UNL A   1      12.982  -2.667  26.531  1.00  0.00    +0.000 H 
BRANCH   11   10
ATOM    105  H14 UNL A   1      10.773  -3.162  24.726  1.00  0.00    +0.000 H 
ATOM     10  C8  UNL A   1      11.040  -3.077  25.758  1.00  0.00    +0.000 C 
ATOM    106  H15 UNL A   1      11.294  -4.011  26.216  1.00  0.00    +0.000 H 
BRANCH   10    9
ATOM      9  C7  UNL A   1       9.819  -2.550  26.523  1.00  0.00    +0.000 C 
ATOM    103  H12 UNL A   1       9.267  -1.914  25.862  1.00  0.00    +0.000 H 
ATOM    104  H13 UNL A   1       9.281  -3.417  26.844  1.00  0.00    +0.000 H 
BRANCH    9    8
ATOM    101  H10 UNL A   1      10.584  -2.410  28.502  1.00  0.00    +0.000 H 
ATOM    102  H11 UNL A   1      10.749  -0.938  27.507  1.00  0.00    +0.000 H 
ATOM      8  C6  UNL A   1      10.119  -1.753  27.799  1.00  0.00    +0.000 C 
BRANCH    8    7
ATOM     99  H8  UNL A   1       8.843  -1.472  29.478  1.00  0.00    +0.000 H 
ATOM    100  H9  UNL A   1       8.996  -0.070  28.398  1.00  0.00    +0.000 H 
ATOM      7  C5  UNL A   1       8.888  -1.131  28.465  1.00  0.00    +0.000 C 
BRANCH    7    6
ATOM     97  H6  UNL A   1       7.771  -2.186  26.982  1.00  0.00    +0.000 H 
ATOM     98  H7  UNL A   1       6.915  -1.931  28.498  1.00  0.00    +0.000 H 
ATOM      6  C4  UNL A   1       7.570  -1.494  27.773  1.00  0.00    +0.000 C 
BRANCH    6    5
ATOM      5  N1  UNL A   1       6.927  -0.316  27.222  1.00  0.00    +0.000 N 
ATOM     96  H5  UNL A   1       6.379   0.200  27.856  1.00  0.00    +0.000 H 
BRANCH    5    3
ATOM      3  C3  UNL A   1       6.972   0.182  25.946  1.00  0.00    +0.000 C 
ATOM      4  O1  UNL A   1       6.496  -0.519  25.049  1.00  0.00    +0.000 O 
BRANCH    3    2
ATOM      2  C2  UNL A   1       7.622   1.549  25.661  1.00  0.00    +0.000 C 
ATOM     95  H4  UNL A   1       7.735   1.665  24.605  1.00  0.00    +0.000 H 
BRANCH    2    1
ATOM      1  C1  UNL A   1       6.702   2.668  26.172  1.00  0.00    +0.000 C 
ATOM     92  H1  UNL A   1       5.746   2.589  25.697  1.00  0.00    +0.000 H 
ATOM     93  H2  UNL A   1       7.136   3.619  25.945  1.00  0.00    +0.000 H 
ATOM     94  H3  UNL A   1       6.582   2.575  27.232  1.00  0.00    +0.000 H 
ENDBRANCH    2    1
BRANCH    2   78
ATOM    129  H38 UNL A   1      15.321   4.867  29.729  1.00  0.00    +0.000 H 
ATOM    130  H39 UNL A   1      14.578   1.899  26.838  1.00  0.00    +0.000 H 
ATOM     78  C55 UNL A   1       9.032   1.643  26.238  1.00  0.00    +0.000 C 
ATOM     79  C56 UNL A   1      10.135   1.061  25.597  1.00  0.00    +0.000 C 
ATOM     80  C57 UNL A   1      11.446   1.283  26.048  1.00  0.00    +0.000 C 
ATOM     81  C58 UNL A   1      11.669   2.172  27.118  1.00  0.00    +0.000 C 
ATOM     82  C59 UNL A   1      10.561   2.710  27.766  1.00  0.00    +0.000 C 
ATOM     83  C60 UNL A   1       9.245   2.409  27.398  1.00  0.00    +0.000 C 
ATOM     84  N7  UNL A   1      11.030   3.564  28.734  1.00  0.00    +0.000 N 
ATOM     85  C61 UNL A   1      12.402   3.645  28.696  1.00  0.00    +0.000 C 
ATOM     86  C62 UNL A   1      13.277   4.448  29.437  1.00  0.00    +0.000 C 
ATOM     87  C63 UNL A   1      14.645   4.289  29.205  1.00  0.00    +0.000 C 
ATOM     88  C64 UNL A   1      15.108   3.360  28.277  1.00  0.00    +0.000 C 
ATOM     89 Cl1  UNL A   1      16.804   3.180  28.036  1.00  0.00    +0.000 Cl
ATOM     90  C65 UNL A   1      14.223   2.578  27.529  1.00  0.00    +0.000 C 
ATOM     91  C66 UNL A   1      12.835   2.731  27.735  1.00  0.00    +0.000 C 
ATOM    124  H33 UNL A   1       9.980   0.456  24.776  1.00  0.00    +0.000 H 
ATOM    125  H34 UNL A   1      12.240   0.801  25.599  1.00  0.00    +0.000 H 
ATOM    126  H35 UNL A   1       8.449   2.741  27.965  1.00  0.00    +0.000 H 
ATOM    127  H36 UNL A   1      10.460   4.055  29.369  1.00  0.00    +0.000 H 
ATOM    128  H37 UNL A   1      12.924   5.129  30.127  1.00  0.00    +0.000 H 
ENDBRANCH    2   78
ENDBRANCH    3    2
ENDBRANCH    5    3
ENDBRANCH    6    5
ENDBRANCH    7    6
ENDBRANCH    8    7
ENDBRANCH    9    8
ENDBRANCH   10    9
ENDBRANCH   11   10
ENDBRANCH   12   11
ENDBRANCH   13   12
ENDBRANCH   15   13
ENDBRANCH   19   18
BRANCH   23   24
ATOM     33  C24 UNL A   1      12.252   4.444  14.766  1.00  0.00    +0.000 C 
ATOM     34  F5  UNL A   1      10.954   4.110  14.703  1.00  0.00    +0.000 F 
ATOM     24  C19 UNL A   1      12.749   5.145  15.876  1.00  0.00    +0.000 C 
ATOM     25  C20 UNL A   1      14.115   5.462  15.892  1.00  0.00    +0.000 C 
ATOM     26  F1  UNL A   1      14.638   6.140  16.925  1.00  0.00    +0.000 F 
ATOM     27  C21 UNL A   1      14.946   5.113  14.830  1.00  0.00    +0.000 C 
ATOM     28  F2  UNL A   1      16.239   5.464  14.850  1.00  0.00    +0.000 F 
ATOM     29  C22 UNL A   1      14.434   4.413  13.748  1.00  0.00    +0.000 C 
ATOM     30  F3  UNL A   1      15.237   4.071  12.730  1.00  0.00    +0.000 F 
ATOM     31  C23 UNL A   1      13.090   4.073  13.718  1.00  0.00    +0.000 C 
ATOM     32  F4  UNL A   1      12.597   3.384  12.679  1.00  0.00    +0.000 F 
ENDBRANCH   23   24
BRANCH   40   41
ATOM     41  C30 UNL A   1       8.427  10.560  17.862  1.00  0.00    +0.000 C 
ATOM     42  C31 UNL A   1       7.255  10.658  17.098  1.00  0.00    +0.000 C 
ATOM     43  F6  UNL A   1       6.549   9.556  16.801  1.00  0.00    +0.000 F 
ATOM     44  C32 UNL A   1       6.825  11.886  16.602  1.00  0.00    +0.000 C 
ATOM     45  F7  UNL A   1       5.727  11.949  15.836  1.00  0.00    +0.000 F 
ATOM     46  C33 UNL A   1       7.539  13.040  16.885  1.00  0.00    +0.000 C 
ATOM     47  F8  UNL A   1       7.122  14.222  16.410  1.00  0.00    +0.000 F 
ATOM     48  C34 UNL A   1       8.691  12.970  17.654  1.00  0.00    +0.000 C 
ATOM     49  F9  UNL A   1       9.377  14.085  17.937  1.00  0.00    +0.000 F 
ATOM     50  C35 UNL A   1       9.139  11.740  18.129  1.00  0.00    +0.000 C 
ATOM     51  F10 UNL A   1      10.264  11.699  18.859  1.00  0.00    +0.000 F 
ENDBRANCH   40   41
BRANCH   55   56
ATOM     65  C44 UNL A   1       5.754   6.752  23.935  1.00  0.00    +0.000 C 
ATOM     66  F15 UNL A   1       5.204   6.011  22.963  1.00  0.00    +0.000 F 
ATOM     56  C39 UNL A   1       7.074   7.207  23.811  1.00  0.00    +0.000 C 
ATOM     57  C40 UNL A   1       7.599   7.983  24.854  1.00  0.00    +0.000 C 
ATOM     58  F11 UNL A   1       8.865   8.422  24.788  1.00  0.00    +0.000 F 
ATOM     59  C41 UNL A   1       6.840   8.277  25.984  1.00  0.00    +0.000 C 
ATOM     60  F12 UNL A   1       7.381   8.986  26.985  1.00  0.00    +0.000 F 
ATOM     61  C42 UNL A   1       5.533   7.824  26.082  1.00  0.00    +0.000 C 
ATOM     62  F13 UNL A   1       4.802   8.111  27.167  1.00  0.00    +0.000 F 
ATOM     63  C43 UNL A   1       4.987   7.069  25.055  1.00  0.00    +0.000 C 
ATOM     64  F14 UNL A   1       3.719   6.642  25.138  1.00  0.00    +0.000 F 
ENDBRANCH   55   56
TORSDOF 17
ENDMDL
MODEL 9
REMARK VINA RESULT:     -11.0     20.245     27.806
ROOT
ATOM     19  C15 UNL A   1      25.895  39.262  46.526  1.00  0.00    +0.000 C 
ATOM     20  C16 UNL A   1      25.036  40.293  47.204  1.00  0.00    +0.000 C 
ATOM     21  N3  UNL A   1      23.812  40.181  47.660  1.00  0.00    +0.000 N 
ATOM     22  C17 UNL A   1      23.505  41.411  48.227  1.00  0.00    +0.000 C 
ATOM     23  C18 UNL A   1      22.340  41.818  48.786  1.00  0.00    +0.000 C 
ATOM     35  C25 UNL A   1      21.157  41.004  48.886  1.00  0.00    +0.000 C 
ATOM     36  C26 UNL A   1      19.911  41.348  49.381  1.00  0.00    +0.000 C 
ATOM     37  C27 UNL A   1      19.085  40.221  49.313  1.00  0.00    +0.000 C 
ATOM     38  C28 UNL A   1      19.803  39.187  48.737  1.00  0.00    +0.000 C 
ATOM     39  N4  UNL A   1      21.074  39.679  48.484  1.00  0.00    +0.000 N 
ATOM     40  C29 UNL A   1      19.366  37.847  48.440  1.00  0.00    +0.000 C 
ATOM     52  C36 UNL A   1      20.132  36.892  47.859  1.00  0.00    +0.000 C 
ATOM     53  N5  UNL A   1      21.450  36.973  47.432  1.00  0.00    +0.000 N 
ATOM     54  C37 UNL A   1      21.746  35.789  46.953  1.00  0.00    +0.000 C 
ATOM     55  C38 UNL A   1      23.029  35.311  46.331  1.00  0.00    +0.000 C 
ATOM     67  C45 UNL A   1      24.059  36.168  46.198  1.00  0.00    +0.000 C 
ATOM     68  C46 UNL A   1      25.355  35.848  45.607  1.00  0.00    +0.000 C 
ATOM     69  C47 UNL A   1      26.150  36.927  45.682  1.00  0.00    +0.000 C 
ATOM     70  C48 UNL A   1      25.406  38.028  46.295  1.00  0.00    +0.000 C 
ATOM     71  N6  UNL A   1      24.172  37.489  46.560  1.00  0.00    +0.000 N 
ATOM     72  C49 UNL A   1      20.651  34.812  47.049  1.00  0.00    +0.000 C 
ATOM     73  C50 UNL A   1      19.680  35.546  47.572  1.00  0.00    +0.000 C 
ATOM     74  C51 UNL A   1      24.685  42.241  48.098  1.00  0.00    +0.000 C 
ATOM     75  C52 UNL A   1      25.638  41.618  47.420  1.00  0.00    +0.000 C 
ATOM    112  H21 UNL A   1      19.638  42.277  49.738  1.00  0.00    +0.000 H 
ATOM    113  H22 UNL A   1      18.106  40.170  49.637  1.00  0.00    +0.000 H 
ATOM    114  H23 UNL A   1      21.808  39.165  48.077  1.00  0.00    +0.000 H 
ATOM    115  H24 UNL A   1      25.618  34.937  45.199  1.00  0.00    +0.000 H 
ATOM    116  H25 UNL A   1      27.129  36.973  45.359  1.00  0.00    +0.000 H 
ATOM    117  H26 UNL A   1      23.437  37.999  46.972  1.00  0.00    +0.000 H 
ATOM    118  H27 UNL A   1      20.643  33.816  46.779  1.00  0.00    +0.000 H 
ATOM    119  H28 UNL A   1      18.724  35.203  47.753  1.00  0.00    +0.000 H 
ATOM    120  H29 UNL A   1      24.772  43.194  48.483  1.00  0.00    +0.000 H 
ATOM    121  H30 UNL A   1      26.561  41.969  47.122  1.00  0.00    +0.000 H 
ENDROOT
BRANCH   19   18
ATOM     76  C53 UNL A   1      28.337  39.282  47.070  1.00  0.00    +0.000 C 
ATOM     77  C54 UNL A   1      29.664  39.558  46.739  1.00  0.00    +0.000 C 
ATOM    110  H19 UNL A   1      29.185  40.767  43.648  1.00  0.00    +0.000 H 
ATOM     15  C11 UNL A   1      29.981  40.043  45.467  1.00  0.00    +0.000 C 
ATOM     16  C12 UNL A   1      28.957  40.366  44.571  1.00  0.00    +0.000 C 
ATOM     17  C13 UNL A   1      27.623  40.146  44.926  1.00  0.00    +0.000 C 
ATOM    111  H20 UNL A   1      26.868  40.406  44.271  1.00  0.00    +0.000 H 
ATOM     18  C14 UNL A   1      27.303  39.572  46.166  1.00  0.00    +0.000 C 
ATOM    122  H31 UNL A   1      28.114  38.862  47.986  1.00  0.00    +0.000 H 
ATOM    123  H32 UNL A   1      30.412  39.404  47.434  1.00  0.00    +0.000 H 
BRANCH   15   13
ATOM     13  C10 UNL A   1      31.385  40.283  45.057  1.00  0.00    +0.000 C 
ATOM     14  O2  UNL A   1      32.047  41.134  45.639  1.00  0.00    +0.000 O 
BRANCH   13   12
ATOM     12  N2  UNL A   1      31.948  39.562  44.031  1.00  0.00    +0.000 N 
ATOM    109  H18 UNL A   1      32.397  40.099  43.339  1.00  0.00    +0.000 H 
BRANCH   12   11
ATOM     11  C9  UNL A   1      31.978  38.125  43.817  1.00  0.00    +0.000 C 
ATOM    108  H17 UNL A   1      31.527  37.657  44.668  1.00  0.00    +0.000 H 
ATOM    107  H16 UNL A   1      32.994  37.815  43.695  1.00  0.00    +0.000 H 
BRANCH   11   10
ATOM    105  H14 UNL A   1      30.640  38.563  42.232  1.00  0.00    +0.000 H 
ATOM     10  C8  UNL A   1      31.183  37.709  42.578  1.00  0.00    +0.000 C 
ATOM    106  H15 UNL A   1      31.904  37.342  41.876  1.00  0.00    +0.000 H 
BRANCH   10    9
ATOM      9  C7  UNL A   1      30.183  36.565  42.792  1.00  0.00    +0.000 C 
ATOM    103  H12 UNL A   1      29.518  36.549  41.952  1.00  0.00    +0.000 H 
ATOM    104  H13 UNL A   1      30.773  35.678  42.898  1.00  0.00    +0.000 H 
BRANCH    9    8
ATOM    101  H10 UNL A   1      29.498  37.603  44.516  1.00  0.00    +0.000 H 
ATOM    102  H11 UNL A   1      28.315  36.503  43.760  1.00  0.00    +0.000 H 
ATOM      8  C6  UNL A   1      29.330  36.649  44.064  1.00  0.00    +0.000 C 
BRANCH    8    7
ATOM     99  H8  UNL A   1      30.653  35.662  45.408  1.00  0.00    +0.000 H 
ATOM    100  H9  UNL A   1      28.951  35.712  45.917  1.00  0.00    +0.000 H 
ATOM      7  C5  UNL A   1      29.632  35.566  45.105  1.00  0.00    +0.000 C 
BRANCH    7    6
ATOM     97  H6  UNL A   1      28.374  34.005  44.367  1.00  0.00    +0.000 H 
ATOM     98  H7  UNL A   1      30.003  34.008  43.702  1.00  0.00    +0.000 H 
ATOM      6  C4  UNL A   1      29.413  34.142  44.585  1.00  0.00    +0.000 C 
BRANCH    6    5
ATOM      5  N1  UNL A   1      29.825  33.157  45.568  1.00  0.00    +0.000 N 
ATOM     96  H5  UNL A   1      30.576  32.581  45.298  1.00  0.00    +0.000 H 
BRANCH    5    3
ATOM      3  C3  UNL A   1      29.319  32.912  46.818  1.00  0.00    +0.000 C 
ATOM      4  O1  UNL A   1      30.112  32.539  47.685  1.00  0.00    +0.000 O 
BRANCH    3    2
ATOM      2  C2  UNL A   1      27.813  33.075  47.098  1.00  0.00    +0.000 C 
ATOM     95  H4  UNL A   1      27.311  33.291  46.179  1.00  0.00    +0.000 H 
BRANCH    2    1
ATOM      1  C1  UNL A   1      27.252  31.759  47.655  1.00  0.00    +0.000 C 
ATOM     92  H1  UNL A   1      26.469  31.405  47.016  1.00  0.00    +0.000 H 
ATOM     93  H2  UNL A   1      26.862  31.924  48.637  1.00  0.00    +0.000 H 
ATOM     94  H3  UNL A   1      28.033  31.028  47.699  1.00  0.00    +0.000 H 
ENDBRANCH    2    1
BRANCH    2   78
ATOM    129  H38 UNL A   1      23.408  40.046  51.439  1.00  0.00    +0.000 H 
ATOM    130  H39 UNL A   1      27.407  39.344  50.327  1.00  0.00    +0.000 H 
ATOM     78  C55 UNL A   1      27.527  34.265  48.011  1.00  0.00    +0.000 C 
ATOM     79  C56 UNL A   1      28.446  35.310  48.176  1.00  0.00    +0.000 C 
ATOM     80  C57 UNL A   1      28.115  36.472  48.891  1.00  0.00    +0.000 C 
ATOM     81  C58 UNL A   1      26.805  36.630  49.386  1.00  0.00    +0.000 C 
ATOM     82  C59 UNL A   1      25.918  35.567  49.247  1.00  0.00    +0.000 C 
ATOM     83  C60 UNL A   1      26.270  34.359  48.635  1.00  0.00    +0.000 C 
ATOM     84  N7  UNL A   1      24.712  35.972  49.765  1.00  0.00    +0.000 N 
ATOM     85  C61 UNL A   1      24.770  37.280  50.181  1.00  0.00    +0.000 C 
ATOM     86  C62 UNL A   1      23.762  38.109  50.688  1.00  0.00    +0.000 C 
ATOM     87  C63 UNL A   1      24.125  39.404  51.066  1.00  0.00    +0.000 C 
ATOM     88  C64 UNL A   1      25.443  39.839  50.945  1.00  0.00    +0.000 C 
ATOM     89 Cl1  UNL A   1      25.853  41.436  51.443  1.00  0.00    +0.000 Cl
ATOM     90  C65 UNL A   1      26.436  39.008  50.420  1.00  0.00    +0.000 C 
ATOM     91  C66 UNL A   1      26.091  37.700  50.017  1.00  0.00    +0.000 C 
ATOM    124  H33 UNL A   1      29.389  35.223  47.764  1.00  0.00    +0.000 H 
ATOM    125  H34 UNL A   1      28.823  37.206  49.051  1.00  0.00    +0.000 H 
ATOM    126  H35 UNL A   1      25.622  33.555  48.642  1.00  0.00    +0.000 H 
ATOM    127  H36 UNL A   1      23.912  35.401  49.829  1.00  0.00    +0.000 H 
ATOM    128  H37 UNL A   1      22.790  37.776  50.779  1.00  0.00    +0.000 H 
ENDBRANCH    2   78
ENDBRANCH    3    2
ENDBRANCH    5    3
ENDBRANCH    6    5
ENDBRANCH    7    6
ENDBRANCH    8    7
ENDBRANCH    9    8
ENDBRANCH   10    9
ENDBRANCH   11   10
ENDBRANCH   12   11
ENDBRANCH   13   12
ENDBRANCH   15   13
ENDBRANCH   19   18
BRANCH   23   24
ATOM     33  C24 UNL A   1      21.982  44.296  48.485  1.00  0.00    +0.000 C 
ATOM     34  F5  UNL A   1      21.707  44.086  47.189  1.00  0.00    +0.000 F 
ATOM     24  C19 UNL A   1      22.282  43.215  49.330  1.00  0.00    +0.000 C 
ATOM     25  C20 UNL A   1      22.569  43.493  50.674  1.00  0.00    +0.000 C 
ATOM     26  F1  UNL A   1      22.851  42.494  51.524  1.00  0.00    +0.000 F 
ATOM     27  C21 UNL A   1      22.533  44.797  51.160  1.00  0.00    +0.000 C 
ATOM     28  F2  UNL A   1      22.770  45.033  52.458  1.00  0.00    +0.000 F 
ATOM     29  C22 UNL A   1      22.242  45.850  50.307  1.00  0.00    +0.000 C 
ATOM     30  F3  UNL A   1      22.217  47.107  50.775  1.00  0.00    +0.000 F 
ATOM     31  C23 UNL A   1      21.973  45.602  48.969  1.00  0.00    +0.000 C 
ATOM     32  F4  UNL A   1      21.706  46.620  48.139  1.00  0.00    +0.000 F 
ENDBRANCH   23   24
BRANCH   40   41
ATOM     41  C30 UNL A   1      17.950  37.481  48.775  1.00  0.00    +0.000 C 
ATOM     42  C31 UNL A   1      17.508  37.401  50.105  1.00  0.00    +0.000 C 
ATOM     43  F6  UNL A   1      18.367  37.604  51.115  1.00  0.00    +0.000 F 
ATOM     44  C32 UNL A   1      16.188  37.071  50.400  1.00  0.00    +0.000 C 
ATOM     45  F7  UNL A   1      15.799  36.955  51.677  1.00  0.00    +0.000 F 
ATOM     46  C33 UNL A   1      15.280  36.847  49.376  1.00  0.00    +0.000 C 
ATOM     47  F8  UNL A   1      14.009  36.533  49.662  1.00  0.00    +0.000 F 
ATOM     48  C34 UNL A   1      15.691  36.938  48.055  1.00  0.00    +0.000 C 
ATOM     49  F9  UNL A   1      14.813  36.732  47.064  1.00  0.00    +0.000 F 
ATOM     50  C35 UNL A   1      17.017  37.242  47.756  1.00  0.00    +0.000 C 
ATOM     51  F10 UNL A   1      17.389  37.311  46.469  1.00  0.00    +0.000 F 
ENDBRANCH   40   41
BRANCH   55   56
ATOM     65  C44 UNL A   1      23.440  32.857  46.720  1.00  0.00    +0.000 C 
ATOM     66  F15 UNL A   1      23.603  33.096  48.029  1.00  0.00    +0.000 F 
ATOM     56  C39 UNL A   1      23.161  33.914  45.842  1.00  0.00    +0.000 C 
ATOM     57  C40 UNL A   1      23.005  33.612  44.483  1.00  0.00    +0.000 C 
ATOM     58  F11 UNL A   1      22.716  34.588  43.610  1.00  0.00    +0.000 F 
ATOM     59  C41 UNL A   1      23.104  32.301  44.021  1.00  0.00    +0.000 C 
ATOM     60  F12 UNL A   1      22.909  32.034  42.723  1.00  0.00    +0.000 F 
ATOM     61  C42 UNL A   1      23.390  31.272  44.906  1.00  0.00    +0.000 C 
ATOM     62  F13 UNL A   1      23.490  30.013  44.461  1.00  0.00    +0.000 F 
ATOM     63  C43 UNL A   1      23.566  31.551  46.253  1.00  0.00    +0.000 C 
ATOM     64  F14 UNL A   1      23.856  30.561  47.109  1.00  0.00    +0.000 F 
ENDBRANCH   55   56
TORSDOF 17
ENDMDL
MODEL 10
REMARK VINA RESULT:     -11.0     35.498     39.304
ROOT
ATOM     19  C15 UNL A   1      10.713   3.117  21.185  1.00  0.00    +0.000 C 
ATOM     20  C16 UNL A   1      11.245   3.545  19.846  1.00  0.00    +0.000 C 
ATOM     21  N3  UNL A   1      11.031   4.657  19.186  1.00  0.00    +0.000 N 
ATOM     22  C17 UNL A   1      11.790   4.562  18.027  1.00  0.00    +0.000 C 
ATOM     23  C18 UNL A   1      11.868   5.434  16.993  1.00  0.00    +0.000 C 
ATOM     35  C25 UNL A   1      11.135   6.670  16.913  1.00  0.00    +0.000 C 
ATOM     36  C26 UNL A   1      11.102   7.589  15.879  1.00  0.00    +0.000 C 
ATOM     37  C27 UNL A   1      10.281   8.654  16.264  1.00  0.00    +0.000 C 
ATOM     38  C28 UNL A   1       9.768   8.378  17.521  1.00  0.00    +0.000 C 
ATOM     39  N4  UNL A   1      10.303   7.160  17.909  1.00  0.00    +0.000 N 
ATOM     40  C29 UNL A   1       8.859   9.167  18.312  1.00  0.00    +0.000 C 
ATOM     52  C36 UNL A   1       8.391   8.817  19.536  1.00  0.00    +0.000 C 
ATOM     53  N5  UNL A   1       8.661   7.675  20.277  1.00  0.00    +0.000 N 
ATOM     54  C37 UNL A   1       7.986   7.805  21.393  1.00  0.00    +0.000 C 
ATOM     55  C38 UNL A   1       7.883   6.855  22.555  1.00  0.00    +0.000 C 
ATOM     67  C45 UNL A   1       8.536   5.679  22.507  1.00  0.00    +0.000 C 
ATOM     68  C46 UNL A   1       8.520   4.660  23.553  1.00  0.00    +0.000 C 
ATOM     69  C47 UNL A   1       9.316   3.643  23.186  1.00  0.00    +0.000 C 
ATOM     70  C48 UNL A   1       9.872   3.923  21.862  1.00  0.00    +0.000 C 
ATOM     71  N6  UNL A   1       9.346   5.149  21.533  1.00  0.00    +0.000 N 
ATOM     72  C49 UNL A   1       7.231   9.063  21.496  1.00  0.00    +0.000 C 
ATOM     73  C50 UNL A   1       7.482   9.624  20.322  1.00  0.00    +0.000 C 
ATOM     74  C51 UNL A   1      12.503   3.303  18.093  1.00  0.00    +0.000 C 
ATOM     75  C52 UNL A   1      12.156   2.610  19.167  1.00  0.00    +0.000 C 
ATOM    112  H21 UNL A   1      11.599   7.504  14.979  1.00  0.00    +0.000 H 
ATOM    113  H22 UNL A   1      10.090   9.502  15.707  1.00  0.00    +0.000 H 
ATOM    114  H23 UNL A   1      10.119   6.709  18.764  1.00  0.00    +0.000 H 
ATOM    115  H24 UNL A   1       7.984   4.714  24.433  1.00  0.00    +0.000 H 
ATOM    116  H25 UNL A   1       9.506   2.799  23.749  1.00  0.00    +0.000 H 
ATOM    117  H26 UNL A   1       9.533   5.605  20.681  1.00  0.00    +0.000 H 
ATOM    118  H27 UNL A   1       6.656   9.415  22.278  1.00  0.00    +0.000 H 
ATOM    119  H28 UNL A   1       7.081  10.522  20.009  1.00  0.00    +0.000 H 
ATOM    120  H29 UNL A   1      13.193   2.987  17.393  1.00  0.00    +0.000 H 
ATOM    121  H30 UNL A   1      12.449   1.663  19.454  1.00  0.00    +0.000 H 
ENDROOT
BRANCH   19   18
ATOM     76  C53 UNL A   1      10.354   0.694  21.694  1.00  0.00    +0.000 C 
ATOM     77  C54 UNL A   1      10.766  -0.514  22.259  1.00  0.00    +0.000 C 
ATOM    110  H19 UNL A   1      13.728   0.471  23.484  1.00  0.00    +0.000 H 
ATOM     15  C11 UNL A   1      12.025  -0.612  22.859  1.00  0.00    +0.000 C 
ATOM     16  C12 UNL A   1      12.818   0.531  23.000  1.00  0.00    +0.000 C 
ATOM     17  C13 UNL A   1      12.379   1.755  22.488  1.00  0.00    +0.000 C 
ATOM    111  H20 UNL A   1      12.957   2.600  22.614  1.00  0.00    +0.000 H 
ATOM     18  C14 UNL A   1      11.157   1.840  21.802  1.00  0.00    +0.000 C 
ATOM    122  H31 UNL A   1       9.453   0.744  21.194  1.00  0.00    +0.000 H 
ATOM    123  H32 UNL A   1      10.141  -1.335  22.233  1.00  0.00    +0.000 H 
BRANCH   15   13
ATOM     13  C10 UNL A   1      12.523  -1.896  23.408  1.00  0.00    +0.000 C 
ATOM     14  O2  UNL A   1      12.174  -2.950  22.891  1.00  0.00    +0.000 O 
BRANCH   13   12
ATOM     12  N2  UNL A   1      13.368  -1.912  24.492  1.00  0.00    +0.000 N 
ATOM    109  H18 UNL A   1      14.280  -2.232  24.307  1.00  0.00    +0.000 H 
BRANCH   12   11
ATOM     11  C9  UNL A   1      13.114  -1.525  25.870  1.00  0.00    +0.000 C 
ATOM    108  H17 UNL A   1      12.523  -0.633  25.857  1.00  0.00    +0.000 H 
ATOM    107  H16 UNL A   1      14.051  -1.365  26.361  1.00  0.00    +0.000 H 
BRANCH   11   10
ATOM    105  H14 UNL A   1      12.449  -3.523  26.117  1.00  0.00    +0.000 H 
ATOM     10  C8  UNL A   1      12.333  -2.594  26.635  1.00  0.00    +0.000 C 
ATOM    106  H15 UNL A   1      12.736  -2.600  27.627  1.00  0.00    +0.000 H 
BRANCH   10    9
ATOM      9  C7  UNL A   1      10.830  -2.323  26.793  1.00  0.00    +0.000 C 
ATOM    103  H12 UNL A   1      10.528  -1.678  25.994  1.00  0.00    +0.000 H 
ATOM    104  H13 UNL A   1      10.359  -3.284  26.780  1.00  0.00    +0.000 H 
BRANCH    9    8
ATOM    101  H10 UNL A   1      10.577  -2.367  28.904  1.00  0.00    +0.000 H 
ATOM    102  H11 UNL A   1      10.979  -0.774  28.210  1.00  0.00    +0.000 H 
ATOM      8  C6  UNL A   1      10.402  -1.670  28.113  1.00  0.00    +0.000 C 
BRANCH    8    7
ATOM     99  H8  UNL A   1       8.586  -1.340  29.173  1.00  0.00    +0.000 H 
ATOM    100  H9  UNL A   1       8.881  -0.238  27.810  1.00  0.00    +0.000 H 
ATOM      7  C5  UNL A   1       8.930  -1.245  28.165  1.00  0.00    +0.000 C 
BRANCH    7    6
ATOM     97  H6  UNL A   1       8.609  -2.834  26.774  1.00  0.00    +0.000 H 
ATOM     98  H7  UNL A   1       7.265  -2.538  27.869  1.00  0.00    +0.000 H 
ATOM      6  C4  UNL A   1       8.021  -2.085  27.262  1.00  0.00    +0.000 C 
BRANCH    6    5
ATOM      5  N1  UNL A   1       7.374  -1.260  26.259  1.00  0.00    +0.000 N 
ATOM     96  H5  UNL A   1       6.491  -0.907  26.510  1.00  0.00    +0.000 H 
BRANCH    5    3
ATOM      3  C3  UNL A   1       7.815  -0.903  25.012  1.00  0.00    +0.000 C 
ATOM      4  O1  UNL A   1       8.029  -1.811  24.206  1.00  0.00    +0.000 O 
BRANCH    3    2
ATOM      2  C2  UNL A   1       8.057   0.578  24.662  1.00  0.00    +0.000 C 
ATOM     95  H4  UNL A   1       8.553   0.633  23.716  1.00  0.00    +0.000 H 
BRANCH    2    1
ATOM      1  C1  UNL A   1       6.708   1.301  24.541  1.00  0.00    +0.000 C 
ATOM     92  H1  UNL A   1       6.444   1.725  25.488  1.00  0.00    +0.000 H 
ATOM     93  H2  UNL A   1       5.955   0.605  24.240  1.00  0.00    +0.000 H 
ATOM     94  H3  UNL A   1       6.786   2.081  23.812  1.00  0.00    +0.000 H 
ENDBRANCH    2    1
BRANCH    2   78
ATOM    129  H38 UNL A   1      11.932   6.942  30.259  1.00  0.00    +0.000 H 
ATOM    130  H39 UNL A   1      13.413   3.652  28.091  1.00  0.00    +0.000 H 
ATOM     78  C55 UNL A   1       8.996   1.255  25.658  1.00  0.00    +0.000 C 
ATOM     79  C56 UNL A   1      10.386   1.076  25.605  1.00  0.00    +0.000 C 
ATOM     80  C57 UNL A   1      11.252   1.821  26.421  1.00  0.00    +0.000 C 
ATOM     81  C58 UNL A   1      10.723   2.826  27.255  1.00  0.00    +0.000 C 
ATOM     82  C59 UNL A   1       9.340   2.963  27.323  1.00  0.00    +0.000 C 
ATOM     83  C60 UNL A   1       8.460   2.151  26.600  1.00  0.00    +0.000 C 
ATOM     84  N7  UNL A   1       9.076   4.020  28.160  1.00  0.00    +0.000 N 
ATOM     85  C61 UNL A   1      10.240   4.610  28.589  1.00  0.00    +0.000 C 
ATOM     86  C62 UNL A   1      10.433   5.752  29.375  1.00  0.00    +0.000 C 
ATOM     87  C63 UNL A   1      11.750   6.104  29.685  1.00  0.00    +0.000 C 
ATOM     88  C64 UNL A   1      12.818   5.335  29.230  1.00  0.00    +0.000 C 
ATOM     89 Cl1  UNL A   1      14.425   5.790  29.652  1.00  0.00    +0.000 Cl
ATOM     90  C65 UNL A   1      12.613   4.208  28.429  1.00  0.00    +0.000 C 
ATOM     91  C66 UNL A   1      11.293   3.842  28.090  1.00  0.00    +0.000 C 
ATOM    124  H33 UNL A   1      10.781   0.382  24.952  1.00  0.00    +0.000 H 
ATOM    125  H34 UNL A   1      12.267   1.636  26.410  1.00  0.00    +0.000 H 
ATOM    126  H35 UNL A   1       7.441   2.209  26.753  1.00  0.00    +0.000 H 
ATOM    127  H36 UNL A   1       8.173   4.316  28.417  1.00  0.00    +0.000 H 
ATOM    128  H37 UNL A   1       9.635   6.312  29.713  1.00  0.00    +0.000 H 
ENDBRANCH    2   78
ENDBRANCH    3    2
ENDBRANCH    5    3
ENDBRANCH    6    5
ENDBRANCH    7    6
ENDBRANCH    8    7
ENDBRANCH    9    8
ENDBRANCH   10    9
ENDBRANCH   11   10
ENDBRANCH   12   11
ENDBRANCH   13   12
ENDBRANCH   15   13
ENDBRANCH   19   18
BRANCH   23   24
ATOM     33  C24 UNL A   1      14.130   5.457  15.878  1.00  0.00    +0.000 C 
ATOM     34  F5  UNL A   1      14.632   6.107  16.938  1.00  0.00    +0.000 F 
ATOM     24  C19 UNL A   1      12.778   5.079  15.854  1.00  0.00    +0.000 C 
ATOM     25  C20 UNL A   1      12.304   4.408  14.717  1.00  0.00    +0.000 C 
ATOM     26  F1  UNL A   1      11.022   4.017  14.650  1.00  0.00    +0.000 F 
ATOM     27  C21 UNL A   1      13.155   4.105  13.657  1.00  0.00    +0.000 C 
ATOM     28  F2  UNL A   1      12.688   3.426  12.600  1.00  0.00    +0.000 F 
ATOM     29  C22 UNL A   1      14.485   4.495  13.699  1.00  0.00    +0.000 C 
ATOM     30  F3  UNL A   1      15.300   4.210  12.673  1.00  0.00    +0.000 F 
ATOM     31  C23 UNL A   1      14.971   5.176  14.804  1.00  0.00    +0.000 C 
ATOM     32  F4  UNL A   1      16.253   5.565  14.840  1.00  0.00    +0.000 F 
ENDBRANCH   23   24
BRANCH   40   41
ATOM     41  C30 UNL A   1       8.371  10.463  17.736  1.00  0.00    +0.000 C 
ATOM     42  C31 UNL A   1       9.067  11.665  17.938  1.00  0.00    +0.000 C 
ATOM     43  F6  UNL A   1      10.170  11.685  18.702  1.00  0.00    +0.000 F 
ATOM     44  C32 UNL A   1       8.608  12.858  17.387  1.00  0.00    +0.000 C 
ATOM     45  F7  UNL A   1       9.263  14.001  17.631  1.00  0.00    +0.000 F 
ATOM     46  C33 UNL A   1       7.466  12.868  16.601  1.00  0.00    +0.000 C 
ATOM     47  F8  UNL A   1       7.028  14.017  16.068  1.00  0.00    +0.000 F 
ATOM     48  C34 UNL A   1       6.772  11.689  16.373  1.00  0.00    +0.000 C 
ATOM     49  F9  UNL A   1       5.675  11.695  15.605  1.00  0.00    +0.000 F 
ATOM     50  C35 UNL A   1       7.213  10.499  16.944  1.00  0.00    +0.000 C 
ATOM     51  F10 UNL A   1       6.515   9.375  16.718  1.00  0.00    +0.000 F 
ENDBRANCH   40   41
BRANCH   55   56
ATOM     65  C44 UNL A   1       5.729   6.742  23.856  1.00  0.00    +0.000 C 
ATOM     66  F15 UNL A   1       5.185   5.997  22.884  1.00  0.00    +0.000 F 
ATOM     56  C39 UNL A   1       7.052   7.193  23.739  1.00  0.00    +0.000 C 
ATOM     57  C40 UNL A   1       7.570   7.974  24.781  1.00  0.00    +0.000 C 
ATOM     58  F11 UNL A   1       8.837   8.410  24.722  1.00  0.00    +0.000 F 
ATOM     59  C41 UNL A   1       6.804   8.276  25.904  1.00  0.00    +0.000 C 
ATOM     60  F12 UNL A   1       7.339   8.989  26.905  1.00  0.00    +0.000 F 
ATOM     61  C42 UNL A   1       5.495   7.826  25.994  1.00  0.00    +0.000 C 
ATOM     62  F13 UNL A   1       4.757   8.120  27.073  1.00  0.00    +0.000 F 
ATOM     63  C43 UNL A   1       4.955   7.067  24.968  1.00  0.00    +0.000 C 
ATOM     64  F14 UNL A   1       3.686   6.642  25.045  1.00  0.00    +0.000 F 
ENDBRANCH   55   56
TORSDOF 17
ENDMDL
