MODEL 1
REMARK VINA RESULT:     -11.1      0.000      0.000
ROOT
ATOM    129  H38 UNL A   1      37.908  28.594  27.389  1.00  0.00    +0.000 H 
ATOM     33  C27 UNL A   1      37.930  29.916  29.920  1.00  0.00    +0.000 C 
ATOM     34  C28 UNL A   1      38.982  29.016  29.341  1.00  0.00    +0.000 C 
ATOM     35  N4  UNL A   1      40.128  28.653  29.860  1.00  0.00    +0.000 N 
ATOM     36  C29 UNL A   1      40.712  27.798  28.934  1.00  0.00    +0.000 C 
ATOM     37  C30 UNL A   1      41.913  27.177  29.008  1.00  0.00    +0.000 C 
ATOM     49  C37 UNL A   1      42.835  27.316  30.106  1.00  0.00    +0.000 C 
ATOM     50  C38 UNL A   1      44.102  26.774  30.243  1.00  0.00    +0.000 C 
ATOM     51  C39 UNL A   1      44.602  27.136  31.498  1.00  0.00    +0.000 C 
ATOM     52  C40 UNL A   1      43.665  27.941  32.126  1.00  0.00    +0.000 C 
ATOM     53  N5  UNL A   1      42.587  28.044  31.261  1.00  0.00    +0.000 N 
ATOM     54  C41 UNL A   1      43.745  28.564  33.421  1.00  0.00    +0.000 C 
ATOM     66  C48 UNL A   1      42.805  29.383  33.951  1.00  0.00    +0.000 C 
ATOM     67  N6  UNL A   1      41.594  29.786  33.409  1.00  0.00    +0.000 N 
ATOM     68  C49 UNL A   1      41.031  30.547  34.316  1.00  0.00    +0.000 C 
ATOM     69  C50 UNL A   1      39.713  31.261  34.263  1.00  0.00    +0.000 C 
ATOM     81  C57 UNL A   1      38.946  31.133  33.164  1.00  0.00    +0.000 C 
ATOM     82  C58 UNL A   1      37.643  31.757  32.973  1.00  0.00    +0.000 C 
ATOM     83  C59 UNL A   1      37.135  31.349  31.802  1.00  0.00    +0.000 C 
ATOM     84  C60 UNL A   1      38.105  30.478  31.133  1.00  0.00    +0.000 C 
ATOM     85  N7  UNL A   1      39.153  30.412  32.014  1.00  0.00    +0.000 N 
ATOM     86  C61 UNL A   1      41.819  30.704  35.544  1.00  0.00    +0.000 C 
ATOM     87  C62 UNL A   1      42.907  30.006  35.256  1.00  0.00    +0.000 C 
ATOM     88  C63 UNL A   1      39.788  27.683  27.826  1.00  0.00    +0.000 C 
ATOM     89  C64 UNL A   1      38.717  28.443  28.013  1.00  0.00    +0.000 C 
ATOM    120  H29 UNL A   1      44.594  26.201  29.539  1.00  0.00    +0.000 H 
ATOM    121  H30 UNL A   1      45.513  26.851  31.890  1.00  0.00    +0.000 H 
ATOM    122  H31 UNL A   1      41.767  28.559  31.439  1.00  0.00    +0.000 H 
ATOM    123  H32 UNL A   1      37.187  32.407  33.632  1.00  0.00    +0.000 H 
ATOM    124  H33 UNL A   1      36.207  31.606  31.431  1.00  0.00    +0.000 H 
ATOM    125  H34 UNL A   1      39.974  29.896  31.839  1.00  0.00    +0.000 H 
ATOM    126  H35 UNL A   1      41.586  31.224  36.406  1.00  0.00    +0.000 H 
ATOM    127  H36 UNL A   1      43.724  29.916  35.881  1.00  0.00    +0.000 H 
ATOM    128  H37 UNL A   1      39.943  27.086  26.998  1.00  0.00    +0.000 H 
ENDROOT
BRANCH   33   32
ATOM    130  H39 UNL A   1      37.232  32.189  28.609  1.00  0.00    +0.000 H 
ATOM    131  H40 UNL A   1      35.221  32.608  27.313  1.00  0.00    +0.000 H 
ATOM    118  H27 UNL A   1      33.926  28.674  28.059  1.00  0.00    +0.000 H 
ATOM    119  H28 UNL A   1      35.807  28.337  29.548  1.00  0.00    +0.000 H 
ATOM     90  C65 UNL A   1      36.509  31.457  28.527  1.00  0.00    +0.000 C 
ATOM     91  C66 UNL A   1      35.359  31.694  27.770  1.00  0.00    +0.000 C 
ATOM     29  C23 UNL A   1      34.398  30.688  27.632  1.00  0.00    +0.000 C 
ATOM     30  C24 UNL A   1      34.598  29.438  28.226  1.00  0.00    +0.000 C 
ATOM     31  C25 UNL A   1      35.704  29.229  29.041  1.00  0.00    +0.000 C 
ATOM     32  C26 UNL A   1      36.683  30.227  29.179  1.00  0.00    +0.000 C 
BRANCH   29    2
ATOM      1  O1  UNL A   1      32.643  32.053  26.885  1.00  0.00    +0.000 O 
ATOM      2  C1  UNL A   1      33.185  30.954  26.829  1.00  0.00    +0.000 C 
BRANCH    2    3
ATOM      3  N1  UNL A   1      32.668  29.962  26.033  1.00  0.00    +0.000 N 
ATOM     92  H1  UNL A   1      31.774  29.633  26.286  1.00  0.00    +0.000 H 
BRANCH    3    4
ATOM      4  C2  UNL A   1      33.263  29.334  24.866  1.00  0.00    +0.000 C 
ATOM     93  H2  UNL A   1      34.083  29.936  24.533  1.00  0.00    +0.000 H 
ATOM     94  H3  UNL A   1      32.507  29.254  24.114  1.00  0.00    +0.000 H 
BRANCH    4    5
ATOM      5  C3  UNL A   1      33.776  27.931  25.165  1.00  0.00    +0.000 C 
ATOM     95  H4  UNL A   1      33.078  27.453  25.819  1.00  0.00    +0.000 H 
ATOM     96  H5  UNL A   1      34.746  28.049  25.600  1.00  0.00    +0.000 H 
BRANCH    5    6
ATOM     97  H6  UNL A   1      34.826  27.385  23.406  1.00  0.00    +0.000 H 
ATOM     98  H7  UNL A   1      33.054  27.134  23.366  1.00  0.00    +0.000 H 
ATOM      6  C4  UNL A   1      33.958  27.046  23.931  1.00  0.00    +0.000 C 
BRANCH    6    7
ATOM     99  H8  UNL A   1      34.999  25.211  23.691  1.00  0.00    +0.000 H 
ATOM    100  H9  UNL A   1      33.225  25.081  23.908  1.00  0.00    +0.000 H 
ATOM      7  C5  UNL A   1      34.133  25.551  24.222  1.00  0.00    +0.000 C 
BRANCH    7    8
ATOM    101  H10 UNL A   1      33.393  25.395  26.211  1.00  0.00    +0.000 H 
ATOM    102  H11 UNL A   1      35.131  25.765  26.066  1.00  0.00    +0.000 H 
ATOM      8  C6  UNL A   1      34.310  25.184  25.701  1.00  0.00    +0.000 C 
BRANCH    8    9
ATOM      9  C7  UNL A   1      34.667  23.718  25.948  1.00  0.00    +0.000 C 
ATOM    103  H12 UNL A   1      35.006  23.606  26.957  1.00  0.00    +0.000 H 
ATOM    104  H13 UNL A   1      35.434  23.434  25.259  1.00  0.00    +0.000 H 
BRANCH    9   10
ATOM    105  H14 UNL A   1      33.666  22.110  25.117  1.00  0.00    +0.000 H 
ATOM     10  N2  UNL A   1      33.519  22.860  25.737  1.00  0.00    +0.000 N 
BRANCH   10   11
ATOM     11  C8  UNL A   1      32.264  22.934  26.273  1.00  0.00    +0.000 C 
ATOM     12  O2  UNL A   1      32.148  22.655  27.466  1.00  0.00    +0.000 O 
BRANCH   11   13
ATOM    106  H15 UNL A   1      30.297  22.745  25.742  1.00  0.00    +0.000 H 
ATOM    107  H16 UNL A   1      31.009  22.160  23.544  1.00  0.00    +0.000 H 
ATOM    108  H17 UNL A   1      32.469  23.065  23.682  1.00  0.00    +0.000 H 
ATOM     13  C9  UNL A   1      31.104  23.336  25.362  1.00  0.00    +0.000 C 
ATOM     14  C10 UNL A   1      31.415  23.098  23.863  1.00  0.00    +0.000 C 
ATOM     15  C11 UNL A   1      30.749  24.254  23.103  1.00  0.00    +0.000 C 
ATOM     16  N3  UNL A   1      30.613  25.285  24.116  1.00  0.00    +0.000 N 
ATOM    109  H18 UNL A   1      29.793  23.963  22.722  1.00  0.00    +0.000 H 
ATOM    110  H19 UNL A   1      31.312  24.576  22.252  1.00  0.00    +0.000 H 
ATOM     17  C12 UNL A   1      30.388  26.628  24.124  1.00  0.00    +0.000 C 
ATOM    116  H25 UNL A   1      30.360  27.949  25.837  1.00  0.00    +0.000 H 
ATOM    117  H26 UNL A   1      30.835  25.795  27.286  1.00  0.00    +0.000 H 
ATOM     26  C20 UNL A   1      30.472  26.991  25.471  1.00  0.00    +0.000 C 
ATOM     27  C21 UNL A   1      30.734  25.839  26.260  1.00  0.00    +0.000 C 
ATOM     28  C22 UNL A   1      30.825  24.799  25.376  1.00  0.00    +0.000 C 
BRANCH   17   18
ATOM     18  C13 UNL A   1      30.172  27.545  23.016  1.00  0.00    +0.000 C 
ATOM     19  O3  UNL A   1      30.699  27.398  21.915  1.00  0.00    +0.000 O 
BRANCH   18   20
ATOM    111  H20 UNL A   1      30.862  30.045  23.572  1.00  0.00    +0.000 H 
ATOM    112  H21 UNL A   1      29.434  31.994  23.814  1.00  0.00    +0.000 H 
ATOM    113  H22 UNL A   1      27.033  31.777  23.548  1.00  0.00    +0.000 H 
ATOM    114  H23 UNL A   1      26.046  29.610  23.088  1.00  0.00    +0.000 H 
ATOM    115  H24 UNL A   1      27.467  27.648  22.871  1.00  0.00    +0.000 H 
ATOM     20  C14 UNL A   1      29.274  28.711  23.158  1.00  0.00    +0.000 C 
ATOM     21  C15 UNL A   1      29.840  29.955  23.458  1.00  0.00    +0.000 C 
ATOM     22  C16 UNL A   1      29.020  31.074  23.601  1.00  0.00    +0.000 C 
ATOM     23  C17 UNL A   1      27.638  30.947  23.456  1.00  0.00    +0.000 C 
ATOM     24  C18 UNL A   1      27.070  29.700  23.186  1.00  0.00    +0.000 C 
ATOM     25  C19 UNL A   1      27.885  28.575  23.051  1.00  0.00    +0.000 C 
ENDBRANCH   18   20
ENDBRANCH   17   18
ENDBRANCH   11   13
ENDBRANCH   10   11
ENDBRANCH    9   10
ENDBRANCH    8    9
ENDBRANCH    7    8
ENDBRANCH    6    7
ENDBRANCH    5    6
ENDBRANCH    4    5
ENDBRANCH    3    4
ENDBRANCH    2    3
ENDBRANCH   29    2
ENDBRANCH   33   32
BRANCH   37   38
ATOM     38  C31 UNL A   1      42.312  26.275  27.877  1.00  0.00    +0.000 C 
ATOM     39  C32 UNL A   1      41.781  24.985  27.741  1.00  0.00    +0.000 C 
ATOM     40  F1  UNL A   1      40.967  24.488  28.685  1.00  0.00    +0.000 F 
ATOM     41  C33 UNL A   1      42.093  24.195  26.638  1.00  0.00    +0.000 C 
ATOM     42  F2  UNL A   1      41.590  22.956  26.539  1.00  0.00    +0.000 F 
ATOM     43  C34 UNL A   1      42.924  24.685  25.642  1.00  0.00    +0.000 C 
ATOM     44  F3  UNL A   1      43.209  23.929  24.572  1.00  0.00    +0.000 F 
ATOM     45  C35 UNL A   1      43.459  25.959  25.754  1.00  0.00    +0.000 C 
ATOM     46  F4  UNL A   1      44.252  26.439  24.785  1.00  0.00    +0.000 F 
ATOM     47  C36 UNL A   1      43.165  26.745  26.865  1.00  0.00    +0.000 C 
ATOM     48  F5  UNL A   1      43.695  27.975  26.944  1.00  0.00    +0.000 F 
ENDBRANCH   37   38
BRANCH   54   55
ATOM     65  F10 UNL A   1      43.965  26.391  35.242  1.00  0.00    +0.000 F 
ATOM     55  C42 UNL A   1      44.967  28.309  34.251  1.00  0.00    +0.000 C 
ATOM     56  C43 UNL A   1      46.087  29.150  34.182  1.00  0.00    +0.000 C 
ATOM     57  F6  UNL A   1      46.097  30.191  33.334  1.00  0.00    +0.000 F 
ATOM     58  C44 UNL A   1      47.219  28.897  34.951  1.00  0.00    +0.000 C 
ATOM     59  F7  UNL A   1      48.296  29.685  34.831  1.00  0.00    +0.000 F 
ATOM     60  C45 UNL A   1      47.240  27.821  35.825  1.00  0.00    +0.000 C 
ATOM     61  F8  UNL A   1      48.331  27.581  36.566  1.00  0.00    +0.000 F 
ATOM     62  C46 UNL A   1      46.136  26.988  35.925  1.00  0.00    +0.000 C 
ATOM     63  F9  UNL A   1      46.151  25.954  36.776  1.00  0.00    +0.000 F 
ATOM     64  C47 UNL A   1      45.012  27.222  35.137  1.00  0.00    +0.000 C 
ENDBRANCH   54   55
BRANCH   69   70
ATOM     70  C51 UNL A   1      39.240  32.087  35.402  1.00  0.00    +0.000 C 
ATOM     71  C52 UNL A   1      39.573  33.444  35.499  1.00  0.00    +0.000 C 
ATOM     72  F11 UNL A   1      40.348  34.012  34.563  1.00  0.00    +0.000 F 
ATOM     73  C53 UNL A   1      39.143  34.213  36.578  1.00  0.00    +0.000 C 
ATOM     74  F12 UNL A   1      39.514  35.498  36.671  1.00  0.00    +0.000 F 
ATOM     75  C54 UNL A   1      38.345  33.650  37.562  1.00  0.00    +0.000 C 
ATOM     76  F13 UNL A   1      37.929  34.391  38.597  1.00  0.00    +0.000 F 
ATOM     77  C55 UNL A   1      37.987  32.313  37.476  1.00  0.00    +0.000 C 
ATOM     78  F14 UNL A   1      37.203  31.767  38.417  1.00  0.00    +0.000 F 
ATOM     79  C56 UNL A   1      38.441  31.535  36.416  1.00  0.00    +0.000 C 
ATOM     80  F15 UNL A   1      38.089  30.242  36.364  1.00  0.00    +0.000 F 
ENDBRANCH   69   70
TORSDOF 17
ENDMDL
MODEL 2
REMARK VINA RESULT:     -11.0     19.843     27.076
ROOT
ATOM    129  H38 UNL A   1      26.404  37.137  45.897  1.00  0.00    +0.000 H 
ATOM     33  C27 UNL A   1      25.055  39.327  47.139  1.00  0.00    +0.000 C 
ATOM     34  C28 UNL A   1      24.512  37.960  46.838  1.00  0.00    +0.000 C 
ATOM     35  N4  UNL A   1      23.320  37.478  47.084  1.00  0.00    +0.000 N 
ATOM     36  C29 UNL A   1      23.323  36.181  46.588  1.00  0.00    +0.000 C 
ATOM     37  C30 UNL A   1      22.323  35.268  46.622  1.00  0.00    +0.000 C 
ATOM     49  C37 UNL A   1      21.031  35.498  47.217  1.00  0.00    +0.000 C 
ATOM     50  C38 UNL A   1      19.974  34.614  47.353  1.00  0.00    +0.000 C 
ATOM     51  C39 UNL A   1      18.906  35.294  47.946  1.00  0.00    +0.000 C 
ATOM     52  C40 UNL A   1      19.311  36.589  48.221  1.00  0.00    +0.000 C 
ATOM     53  N5  UNL A   1      20.617  36.701  47.770  1.00  0.00    +0.000 N 
ATOM     54  C41 UNL A   1      18.560  37.649  48.843  1.00  0.00    +0.000 C 
ATOM     66  C48 UNL A   1      19.042  38.883  49.125  1.00  0.00    +0.000 C 
ATOM     67  N6  UNL A   1      20.304  39.403  48.882  1.00  0.00    +0.000 N 
ATOM     68  C49 UNL A   1      20.269  40.643  49.305  1.00  0.00    +0.000 C 
ATOM     69  C50 UNL A   1      21.358  41.675  49.297  1.00  0.00    +0.000 C 
ATOM     81  C57 UNL A   1      22.560  41.350  48.786  1.00  0.00    +0.000 C 
ATOM     82  C58 UNL A   1      23.706  42.246  48.702  1.00  0.00    +0.000 C 
ATOM     83  C59 UNL A   1      24.704  41.616  48.068  1.00  0.00    +0.000 C 
ATOM     84  C60 UNL A   1      24.284  40.248  47.750  1.00  0.00    +0.000 C 
ATOM     85  N7  UNL A   1      22.998  40.178  48.220  1.00  0.00    +0.000 N 
ATOM     86  C61 UNL A   1      18.972  41.055  49.856  1.00  0.00    +0.000 C 
ATOM     87  C62 UNL A   1      18.271  39.935  49.757  1.00  0.00    +0.000 C 
ATOM     88  C63 UNL A   1      24.631  35.954  46.012  1.00  0.00    +0.000 C 
ATOM     89  C64 UNL A   1      25.416  37.012  46.170  1.00  0.00    +0.000 C 
ATOM    120  H29 UNL A   1      19.975  33.621  47.067  1.00  0.00    +0.000 H 
ATOM    121  H30 UNL A   1      17.974  34.897  48.145  1.00  0.00    +0.000 H 
ATOM    122  H31 UNL A   1      21.168  37.514  47.833  1.00  0.00    +0.000 H 
ATOM    123  H32 UNL A   1      23.743  43.209  49.072  1.00  0.00    +0.000 H 
ATOM    124  H33 UNL A   1      25.621  42.028  47.837  1.00  0.00    +0.000 H 
ATOM    125  H34 UNL A   1      22.444  39.367  48.156  1.00  0.00    +0.000 H 
ATOM    126  H35 UNL A   1      18.683  41.975  50.225  1.00  0.00    +0.000 H 
ATOM    127  H36 UNL A   1      17.300  39.825  50.088  1.00  0.00    +0.000 H 
ATOM    128  H37 UNL A   1      24.916  35.081  45.539  1.00  0.00    +0.000 H 
ENDROOT
BRANCH   33   32
ATOM    130  H39 UNL A   1      27.314  39.112  48.632  1.00  0.00    +0.000 H 
ATOM    131  H40 UNL A   1      29.593  39.634  47.974  1.00  0.00    +0.000 H 
ATOM    118  H27 UNL A   1      28.242  40.665  44.124  1.00  0.00    +0.000 H 
ATOM    119  H28 UNL A   1      25.950  40.380  44.851  1.00  0.00    +0.000 H 
ATOM     90  C65 UNL A   1      27.506  39.483  47.687  1.00  0.00    +0.000 C 
ATOM     91  C66 UNL A   1      28.820  39.769  47.306  1.00  0.00    +0.000 C 
ATOM     29  C23 UNL A   1      29.082  40.238  46.015  1.00  0.00    +0.000 C 
ATOM     30  C24 UNL A   1      28.038  40.394  45.098  1.00  0.00    +0.000 C 
ATOM     31  C25 UNL A   1      26.725  40.182  45.502  1.00  0.00    +0.000 C 
ATOM     32  C26 UNL A   1      26.448  39.700  46.792  1.00  0.00    +0.000 C 
BRANCH   29    2
ATOM      1  O1  UNL A   1      30.926  41.670  45.786  1.00  0.00    +0.000 O 
ATOM      2  C1  UNL A   1      30.476  40.539  45.626  1.00  0.00    +0.000 C 
BRANCH    2    3
ATOM      3  N1  UNL A   1      31.256  39.551  45.077  1.00  0.00    +0.000 N 
ATOM     92  H1  UNL A   1      31.418  38.766  45.650  1.00  0.00    +0.000 H 
BRANCH    3    4
ATOM      4  C2  UNL A   1      31.874  39.510  43.763  1.00  0.00    +0.000 C 
ATOM     93  H2  UNL A   1      32.894  39.206  43.872  1.00  0.00    +0.000 H 
ATOM     94  H3  UNL A   1      31.800  40.487  43.335  1.00  0.00    +0.000 H 
BRANCH    4    5
ATOM      5  C3  UNL A   1      31.171  38.535  42.826  1.00  0.00    +0.000 C 
ATOM     95  H4  UNL A   1      31.913  38.058  42.223  1.00  0.00    +0.000 H 
ATOM     96  H5  UNL A   1      30.474  39.112  42.255  1.00  0.00    +0.000 H 
BRANCH    5    6
ATOM     97  H6  UNL A   1      29.510  37.222  42.926  1.00  0.00    +0.000 H 
ATOM     98  H7  UNL A   1      30.105  37.846  44.494  1.00  0.00    +0.000 H 
ATOM      6  C4  UNL A   1      30.360  37.449  43.534  1.00  0.00    +0.000 C 
BRANCH    6    7
ATOM     99  H8  UNL A   1      30.767  35.744  44.732  1.00  0.00    +0.000 H 
ATOM    100  H9  UNL A   1      32.154  36.397  43.803  1.00  0.00    +0.000 H 
ATOM      7  C5  UNL A   1      31.114  36.141  43.801  1.00  0.00    +0.000 C 
BRANCH    7    8
ATOM    101  H10 UNL A   1      31.922  34.723  42.434  1.00  0.00    +0.000 H 
ATOM    102  H11 UNL A   1      30.397  35.497  41.926  1.00  0.00    +0.000 H 
ATOM      8  C6  UNL A   1      30.948  35.054  42.731  1.00  0.00    +0.000 C 
BRANCH    8    9
ATOM      9  C7  UNL A   1      30.149  33.835  43.191  1.00  0.00    +0.000 C 
ATOM    103  H12 UNL A   1      30.334  33.668  44.232  1.00  0.00    +0.000 H 
ATOM    104  H13 UNL A   1      30.457  32.989  42.614  1.00  0.00    +0.000 H 
BRANCH    9   10
ATOM    105  H14 UNL A   1      28.451  34.146  42.052  1.00  0.00    +0.000 H 
ATOM     10  N2  UNL A   1      28.729  34.036  42.989  1.00  0.00    +0.000 N 
BRANCH   10   11
ATOM     11  C8  UNL A   1      27.717  34.094  43.906  1.00  0.00    +0.000 C 
ATOM     12  O2  UNL A   1      26.697  34.698  43.575  1.00  0.00    +0.000 O 
BRANCH   11   13
ATOM    106  H15 UNL A   1      28.777  32.805  45.091  1.00  0.00    +0.000 H 
ATOM    107  H16 UNL A   1      26.748  31.630  45.522  1.00  0.00    +0.000 H 
ATOM    108  H17 UNL A   1      25.781  33.037  45.286  1.00  0.00    +0.000 H 
ATOM     13  C9  UNL A   1      27.926  33.431  45.267  1.00  0.00    +0.000 C 
ATOM     14  C10 UNL A   1      26.669  32.671  45.759  1.00  0.00    +0.000 C 
ATOM     15  C11 UNL A   1      26.620  32.871  47.281  1.00  0.00    +0.000 C 
ATOM     16  N3  UNL A   1      27.411  34.070  47.485  1.00  0.00    +0.000 N 
ATOM    109  H18 UNL A   1      27.051  32.035  47.791  1.00  0.00    +0.000 H 
ATOM    110  H19 UNL A   1      25.622  32.957  47.660  1.00  0.00    +0.000 H 
ATOM     17  C12 UNL A   1      27.571  34.980  48.486  1.00  0.00    +0.000 C 
ATOM    116  H25 UNL A   1      28.764  36.783  48.449  1.00  0.00    +0.000 H 
ATOM    117  H26 UNL A   1      29.433  36.081  45.994  1.00  0.00    +0.000 H 
ATOM     26  C20 UNL A   1      28.437  35.939  47.955  1.00  0.00    +0.000 C 
ATOM     27  C21 UNL A   1      28.799  35.574  46.630  1.00  0.00    +0.000 C 
ATOM     28  C22 UNL A   1      28.130  34.409  46.373  1.00  0.00    +0.000 C 
BRANCH   17   18
ATOM     18  C13 UNL A   1      26.958  35.036  49.804  1.00  0.00    +0.000 C 
ATOM     19  O3  UNL A   1      27.468  34.527  50.800  1.00  0.00    +0.000 O 
BRANCH   18   20
ATOM    111  H20 UNL A   1      26.600  37.607  50.348  1.00  0.00    +0.000 H 
ATOM    112  H21 UNL A   1      24.520  38.808  50.701  1.00  0.00    +0.000 H 
ATOM    113  H22 UNL A   1      22.404  37.627  50.579  1.00  0.00    +0.000 H 
ATOM    114  H23 UNL A   1      22.362  35.239  50.153  1.00  0.00    +0.000 H 
ATOM    115  H24 UNL A   1      24.443  34.025  49.826  1.00  0.00    +0.000 H 
ATOM     20  C14 UNL A   1      25.673  35.736  50.015  1.00  0.00    +0.000 C 
ATOM     21  C15 UNL A   1      25.700  37.107  50.295  1.00  0.00    +0.000 C 
ATOM     22  C16 UNL A   1      24.504  37.795  50.502  1.00  0.00    +0.000 C 
ATOM     23  C17 UNL A   1      23.288  37.114  50.440  1.00  0.00    +0.000 C 
ATOM     24  C18 UNL A   1      23.263  35.741  50.190  1.00  0.00    +0.000 C 
ATOM     25  C19 UNL A   1      24.457  35.044  49.991  1.00  0.00    +0.000 C 
ENDBRANCH   18   20
ENDBRANCH   17   18
ENDBRANCH   11   13
ENDBRANCH   10   11
ENDBRANCH    9   10
ENDBRANCH    8    9
ENDBRANCH    7    8
ENDBRANCH    6    7
ENDBRANCH    5    6
ENDBRANCH    4    5
ENDBRANCH    3    4
ENDBRANCH    2    3
ENDBRANCH   29    2
ENDBRANCH   33   32
BRANCH   37   38
ATOM     38  C31 UNL A   1      22.568  33.930  45.990  1.00  0.00    +0.000 C 
ATOM     39  C32 UNL A   1      22.610  33.769  44.599  1.00  0.00    +0.000 C 
ATOM     40  F1  UNL A   1      22.333  34.804  43.791  1.00  0.00    +0.000 F 
ATOM     41  C33 UNL A   1      22.926  32.538  44.029  1.00  0.00    +0.000 C 
ATOM     42  F2  UNL A   1      22.940  32.401  42.695  1.00  0.00    +0.000 F 
ATOM     43  C34 UNL A   1      23.226  31.452  44.839  1.00  0.00    +0.000 C 
ATOM     44  F3  UNL A   1      23.548  30.273  44.288  1.00  0.00    +0.000 F 
ATOM     45  C35 UNL A   1      23.193  31.589  46.218  1.00  0.00    +0.000 C 
ATOM     46  F4  UNL A   1      23.496  30.543  47.001  1.00  0.00    +0.000 F 
ATOM     47  C36 UNL A   1      22.857  32.813  46.790  1.00  0.00    +0.000 C 
ATOM     48  F5  UNL A   1      22.837  32.915  48.128  1.00  0.00    +0.000 F 
ENDBRANCH   37   38
BRANCH   54   55
ATOM     65  F10 UNL A   1      16.475  37.277  46.945  1.00  0.00    +0.000 F 
ATOM     55  C42 UNL A   1      17.139  37.372  49.229  1.00  0.00    +0.000 C 
ATOM     56  C43 UNL A   1      16.749  37.289  50.574  1.00  0.00    +0.000 C 
ATOM     57  F6  UNL A   1      17.661  37.424  51.549  1.00  0.00    +0.000 F 
ATOM     58  C44 UNL A   1      15.428  37.023  50.919  1.00  0.00    +0.000 C 
ATOM     59  F7  UNL A   1      15.087  36.899  52.210  1.00  0.00    +0.000 F 
ATOM     60  C45 UNL A   1      14.468  36.867  49.930  1.00  0.00    +0.000 C 
ATOM     61  F8  UNL A   1      13.196  36.612  50.266  1.00  0.00    +0.000 F 
ATOM     62  C46 UNL A   1      14.828  36.965  48.595  1.00  0.00    +0.000 C 
ATOM     63  F9  UNL A   1      13.899  36.824  47.639  1.00  0.00    +0.000 F 
ATOM     64  C47 UNL A   1      16.153  37.204  48.245  1.00  0.00    +0.000 C 
ENDBRANCH   54   55
BRANCH   69   70
ATOM     70  C51 UNL A   1      21.125  43.043  49.827  1.00  0.00    +0.000 C 
ATOM     71  C52 UNL A   1      20.649  44.067  49.000  1.00  0.00    +0.000 C 
ATOM     72  F11 UNL A   1      20.416  43.826  47.701  1.00  0.00    +0.000 F 
ATOM     73  C53 UNL A   1      20.449  45.354  49.495  1.00  0.00    +0.000 C 
ATOM     74  F12 UNL A   1      20.036  46.328  48.672  1.00  0.00    +0.000 F 
ATOM     75  C54 UNL A   1      20.688  45.632  50.832  1.00  0.00    +0.000 C 
ATOM     76  F13 UNL A   1      20.491  46.869  51.307  1.00  0.00    +0.000 F 
ATOM     77  C55 UNL A   1      21.141  44.628  51.674  1.00  0.00    +0.000 C 
ATOM     78  F14 UNL A   1      21.359  44.887  52.971  1.00  0.00    +0.000 F 
ATOM     79  C56 UNL A   1      21.372  43.350  51.175  1.00  0.00    +0.000 C 
ATOM     80  F15 UNL A   1      21.821  42.400  52.008  1.00  0.00    +0.000 F 
ENDBRANCH   69   70
TORSDOF 17
ENDMDL
MODEL 3
REMARK VINA RESULT:     -11.0     37.313     42.886
ROOT
ATOM    129  H38 UNL A   1      11.739  52.547   6.809  1.00  0.00    +0.000 H 
ATOM     33  C27 UNL A   1      13.562  53.796   5.000  1.00  0.00    +0.000 C 
ATOM     34  C28 UNL A   1      13.112  52.364   5.013  1.00  0.00    +0.000 C 
ATOM     35  N4  UNL A   1      13.446  51.391   4.204  1.00  0.00    +0.000 N 
ATOM     36  C29 UNL A   1      12.773  50.266   4.662  1.00  0.00    +0.000 C 
ATOM     37  C30 UNL A   1      12.782  49.014   4.144  1.00  0.00    +0.000 C 
ATOM     49  C37 UNL A   1      13.516  48.627   2.967  1.00  0.00    +0.000 C 
ATOM     50  C38 UNL A   1      13.539  47.397   2.330  1.00  0.00    +0.000 C 
ATOM     51  C39 UNL A   1      14.434  47.474   1.258  1.00  0.00    +0.000 C 
ATOM     52  C40 UNL A   1      14.935  48.764   1.198  1.00  0.00    +0.000 C 
ATOM     53  N5  UNL A   1      14.363  49.461   2.251  1.00  0.00    +0.000 N 
ATOM     54  C41 UNL A   1      15.871  49.317   0.255  1.00  0.00    +0.000 C 
ATOM     66  C48 UNL A   1      16.280  50.609   0.229  1.00  0.00    +0.000 C 
ATOM     67  N6  UNL A   1      15.925  51.652   1.072  1.00  0.00    +0.000 N 
ATOM     68  C49 UNL A   1      16.609  52.692   0.660  1.00  0.00    +0.000 C 
ATOM     69  C50 UNL A   1      16.613  54.092   1.199  1.00  0.00    +0.000 C 
ATOM     81  C57 UNL A   1      15.839  54.384   2.260  1.00  0.00    +0.000 C 
ATOM     82  C58 UNL A   1      15.747  55.692   2.898  1.00  0.00    +0.000 C 
ATOM     83  C59 UNL A   1      14.946  55.597   3.968  1.00  0.00    +0.000 C 
ATOM     84  C60 UNL A   1      14.424  54.232   4.059  1.00  0.00    +0.000 C 
ATOM     85  N7  UNL A   1      15.003  53.583   2.999  1.00  0.00    +0.000 N 
ATOM     86  C61 UNL A   1      17.486  52.423  -0.486  1.00  0.00    +0.000 C 
ATOM     87  C62 UNL A   1      17.219  51.148  -0.733  1.00  0.00    +0.000 C 
ATOM     88  C63 UNL A   1      12.023  50.671   5.831  1.00  0.00    +0.000 C 
ATOM     89  C64 UNL A   1      12.171  51.968   6.072  1.00  0.00    +0.000 C 
ATOM    120  H29 UNL A   1      12.989  46.566   2.600  1.00  0.00    +0.000 H 
ATOM    121  H30 UNL A   1      14.679  46.700   0.621  1.00  0.00    +0.000 H 
ATOM    122  H31 UNL A   1      14.532  50.408   2.460  1.00  0.00    +0.000 H 
ATOM    123  H32 UNL A   1      16.220  56.551   2.575  1.00  0.00    +0.000 H 
ATOM    124  H33 UNL A   1      14.733  56.364   4.625  1.00  0.00    +0.000 H 
ATOM    125  H34 UNL A   1      14.837  52.636   2.790  1.00  0.00    +0.000 H 
ATOM    126  H35 UNL A   1      18.137  53.059  -0.972  1.00  0.00    +0.000 H 
ATOM    127  H36 UNL A   1      17.629  50.608  -1.511  1.00  0.00    +0.000 H 
ATOM    128  H37 UNL A   1      11.446  50.034   6.405  1.00  0.00    +0.000 H 
ENDROOT
BRANCH   33   32
ATOM    130  H39 UNL A   1      11.500  55.553   4.815  1.00  0.00    +0.000 H 
ATOM    131  H40 UNL A   1      10.660  57.056   6.529  1.00  0.00    +0.000 H 
ATOM    118  H27 UNL A   1      13.514  55.558   9.235  1.00  0.00    +0.000 H 
ATOM    119  H28 UNL A   1      14.506  54.241   7.461  1.00  0.00    +0.000 H 
ATOM     90  C65 UNL A   1      11.955  55.585   5.741  1.00  0.00    +0.000 C 
ATOM     91  C66 UNL A   1      11.462  56.440   6.731  1.00  0.00    +0.000 C 
ATOM     29  C23 UNL A   1      12.058  56.456   7.995  1.00  0.00    +0.000 C 
ATOM     30  C24 UNL A   1      13.126  55.601   8.280  1.00  0.00    +0.000 C 
ATOM     31  C25 UNL A   1      13.664  54.807   7.273  1.00  0.00    +0.000 C 
ATOM     32  C26 UNL A   1      13.069  54.772   6.002  1.00  0.00    +0.000 C 
BRANCH   29    2
ATOM      1  O1  UNL A   1      12.021  58.480   9.179  1.00  0.00    +0.000 O 
ATOM      2  C1  UNL A   1      11.527  57.366   9.032  1.00  0.00    +0.000 C 
BRANCH    2    3
ATOM      3  N1  UNL A   1      10.489  56.954   9.830  1.00  0.00    +0.000 N 
ATOM     92  H1  UNL A   1      10.417  57.404  10.704  1.00  0.00    +0.000 H 
BRANCH    3    4
ATOM      4  C2  UNL A   1       9.482  55.943   9.557  1.00  0.00    +0.000 C 
ATOM     93  H2  UNL A   1       9.415  55.802   8.498  1.00  0.00    +0.000 H 
ATOM     94  H3  UNL A   1       8.555  56.284   9.965  1.00  0.00    +0.000 H 
BRANCH    4    5
ATOM      5  C3  UNL A   1       9.816  54.607  10.208  1.00  0.00    +0.000 C 
ATOM     95  H4  UNL A   1      10.526  54.101   9.589  1.00  0.00    +0.000 H 
ATOM     96  H5  UNL A   1       8.891  54.077  10.305  1.00  0.00    +0.000 H 
BRANCH    5    6
ATOM     97  H6  UNL A   1       9.972  53.943  12.215  1.00  0.00    +0.000 H 
ATOM     98  H7  UNL A   1      10.170  55.703  11.959  1.00  0.00    +0.000 H 
ATOM      6  C4  UNL A   1      10.402  54.717  11.617  1.00  0.00    +0.000 C 
BRANCH    6    7
ATOM     99  H8  UNL A   1      12.357  55.500  11.341  1.00  0.00    +0.000 H 
ATOM    100  H9  UNL A   1      12.183  53.732  11.108  1.00  0.00    +0.000 H 
ATOM      7  C5  UNL A   1      11.928  54.587  11.699  1.00  0.00    +0.000 C 
BRANCH    7    8
ATOM    101  H10 UNL A   1      12.161  53.348  13.414  1.00  0.00    +0.000 H 
ATOM    102  H11 UNL A   1      12.133  55.103  13.733  1.00  0.00    +0.000 H 
ATOM      8  C6  UNL A   1      12.492  54.317  13.101  1.00  0.00    +0.000 C 
BRANCH    8    9
ATOM      9  C7  UNL A   1      14.018  54.349  13.183  1.00  0.00    +0.000 C 
ATOM    103  H12 UNL A   1      14.312  55.042  13.944  1.00  0.00    +0.000 H 
ATOM    104  H13 UNL A   1      14.403  54.650  12.231  1.00  0.00    +0.000 H 
BRANCH    9   10
ATOM    105  H14 UNL A   1      14.960  52.963  14.393  1.00  0.00    +0.000 H 
ATOM     10  N2  UNL A   1      14.551  53.042  13.502  1.00  0.00    +0.000 N 
BRANCH   10   11
ATOM     11  C8  UNL A   1      14.568  51.899  12.751  1.00  0.00    +0.000 C 
ATOM     12  O2  UNL A   1      14.497  50.831  13.359  1.00  0.00    +0.000 O 
BRANCH   11   13
ATOM    106  H15 UNL A   1      14.863  53.073  11.101  1.00  0.00    +0.000 H 
ATOM    107  H16 UNL A   1      12.780  52.290  10.247  1.00  0.00    +0.000 H 
ATOM    108  H17 UNL A   1      12.897  50.792  11.092  1.00  0.00    +0.000 H 
ATOM     13  C9  UNL A   1      14.692  52.025  11.234  1.00  0.00    +0.000 C 
ATOM     14  C10 UNL A   1      13.445  51.486  10.488  1.00  0.00    +0.000 C 
ATOM     15  C11 UNL A   1      13.970  50.824   9.206  1.00  0.00    +0.000 C 
ATOM     16  N3  UNL A   1      15.354  50.529   9.526  1.00  0.00    +0.000 N 
ATOM    109  H18 UNL A   1      13.902  51.493   8.374  1.00  0.00    +0.000 H 
ATOM    110  H19 UNL A   1      13.411  49.956   8.924  1.00  0.00    +0.000 H 
ATOM     17  C12 UNL A   1      16.328  49.724   9.016  1.00  0.00    +0.000 C 
ATOM    116  H25 UNL A   1      18.314  49.397   9.807  1.00  0.00    +0.000 H 
ATOM    117  H26 UNL A   1      17.655  51.117  11.698  1.00  0.00    +0.000 H 
ATOM     26  C20 UNL A   1      17.406  49.877   9.892  1.00  0.00    +0.000 C 
ATOM     27  C21 UNL A   1      17.059  50.797  10.918  1.00  0.00    +0.000 C 
ATOM     28  C22 UNL A   1      15.769  51.171  10.658  1.00  0.00    +0.000 C 
BRANCH   17   18
ATOM     18  C13 UNL A   1      16.296  48.833   7.867  1.00  0.00    +0.000 C 
ATOM     19  O3  UNL A   1      16.017  47.638   7.956  1.00  0.00    +0.000 O 
BRANCH   18   20
ATOM    111  H20 UNL A   1      16.901  47.398   5.720  1.00  0.00    +0.000 H 
ATOM    112  H21 UNL A   1      17.381  48.167   3.468  1.00  0.00    +0.000 H 
ATOM    113  H22 UNL A   1      17.349  50.541   2.966  1.00  0.00    +0.000 H 
ATOM    114  H23 UNL A   1      16.886  52.153   4.718  1.00  0.00    +0.000 H 
ATOM    115  H24 UNL A   1      16.430  51.391   6.982  1.00  0.00    +0.000 H 
ATOM     20  C14 UNL A   1      16.585  49.335   6.507  1.00  0.00    +0.000 C 
ATOM     21  C15 UNL A   1      16.886  48.407   5.504  1.00  0.00    +0.000 C 
ATOM     22  C16 UNL A   1      17.166  48.849   4.211  1.00  0.00    +0.000 C 
ATOM     23  C17 UNL A   1      17.155  50.215   3.925  1.00  0.00    +0.000 C 
ATOM     24  C18 UNL A   1      16.884  51.143   4.933  1.00  0.00    +0.000 C 
ATOM     25  C19 UNL A   1      16.612  50.706   6.231  1.00  0.00    +0.000 C 
ENDBRANCH   18   20
ENDBRANCH   17   18
ENDBRANCH   11   13
ENDBRANCH   10   11
ENDBRANCH    9   10
ENDBRANCH    8    9
ENDBRANCH    7    8
ENDBRANCH    6    7
ENDBRANCH    5    6
ENDBRANCH    4    5
ENDBRANCH    3    4
ENDBRANCH    2    3
ENDBRANCH   29    2
ENDBRANCH   33   32
BRANCH   37   38
ATOM     38  C31 UNL A   1      11.982  47.955   4.844  1.00  0.00    +0.000 C 
ATOM     39  C32 UNL A   1      10.654  47.681   4.490  1.00  0.00    +0.000 C 
ATOM     40  F1  UNL A   1      10.031  48.436   3.570  1.00  0.00    +0.000 F 
ATOM     41  C33 UNL A   1       9.954  46.636   5.087  1.00  0.00    +0.000 C 
ATOM     42  F2  UNL A   1       8.678  46.405   4.748  1.00  0.00    +0.000 F 
ATOM     43  C34 UNL A   1      10.575  45.833   6.033  1.00  0.00    +0.000 C 
ATOM     44  F3  UNL A   1       9.905  44.816   6.594  1.00  0.00    +0.000 F 
ATOM     45  C35 UNL A   1      11.888  46.084   6.397  1.00  0.00    +0.000 C 
ATOM     46  F4  UNL A   1      12.493  45.301   7.302  1.00  0.00    +0.000 F 
ATOM     47  C36 UNL A   1      12.584  47.141   5.816  1.00  0.00    +0.000 C 
ATOM     48  F5  UNL A   1      13.855  47.357   6.186  1.00  0.00    +0.000 F 
ENDBRANCH   37   38
BRANCH   54   55
ATOM     65  F10 UNL A   1      14.442  48.583  -2.091  1.00  0.00    +0.000 F 
ATOM     55  C42 UNL A   1      16.432  48.408  -0.796  1.00  0.00    +0.000 C 
ATOM     56  C43 UNL A   1      17.713  47.851  -0.674  1.00  0.00    +0.000 C 
ATOM     57  F6  UNL A   1      18.481  48.154   0.384  1.00  0.00    +0.000 F 
ATOM     58  C44 UNL A   1      18.226  47.015  -1.661  1.00  0.00    +0.000 C 
ATOM     59  F7  UNL A   1      19.471  46.534  -1.548  1.00  0.00    +0.000 F 
ATOM     60  C45 UNL A   1      17.457  46.696  -2.771  1.00  0.00    +0.000 C 
ATOM     61  F8  UNL A   1      17.953  45.890  -3.720  1.00  0.00    +0.000 F 
ATOM     62  C46 UNL A   1      16.180  47.220  -2.902  1.00  0.00    +0.000 C 
ATOM     63  F9  UNL A   1      15.433  46.905  -3.969  1.00  0.00    +0.000 F 
ATOM     64  C47 UNL A   1      15.674  48.078  -1.930  1.00  0.00    +0.000 C 
ENDBRANCH   54   55
BRANCH   69   70
ATOM     70  C51 UNL A   1      17.464  55.147   0.592  1.00  0.00    +0.000 C 
ATOM     71  C52 UNL A   1      17.059  55.827  -0.564  1.00  0.00    +0.000 C 
ATOM     72  F11 UNL A   1      15.895  55.513  -1.152  1.00  0.00    +0.000 F 
ATOM     73  C53 UNL A   1      17.867  56.803  -1.142  1.00  0.00    +0.000 C 
ATOM     74  F12 UNL A   1      17.478  57.407  -2.274  1.00  0.00    +0.000 F 
ATOM     75  C54 UNL A   1      19.078  57.142  -0.558  1.00  0.00    +0.000 C 
ATOM     76  F13 UNL A   1      19.852  58.084  -1.112  1.00  0.00    +0.000 F 
ATOM     77  C55 UNL A   1      19.490  56.496   0.598  1.00  0.00    +0.000 C 
ATOM     78  F14 UNL A   1      20.652  56.831   1.176  1.00  0.00    +0.000 F 
ATOM     79  C56 UNL A   1      18.699  55.498   1.160  1.00  0.00    +0.000 C 
ATOM     80  F15 UNL A   1      19.127  54.881   2.271  1.00  0.00    +0.000 F 
ENDBRANCH   69   70
TORSDOF 17
ENDMDL
MODEL 4
REMARK VINA RESULT:     -11.0     37.098     42.822
ROOT
ATOM    129  H38 UNL A   1      14.563  47.378   3.631  1.00  0.00    +0.000 H 
ATOM     33  C27 UNL A   1      14.400  50.039   4.655  1.00  0.00    +0.000 C 
ATOM     34  C28 UNL A   1      14.949  49.593   3.332  1.00  0.00    +0.000 C 
ATOM     35  N4  UNL A   1      15.457  50.318   2.368  1.00  0.00    +0.000 N 
ATOM     36  C29 UNL A   1      15.836  49.422   1.377  1.00  0.00    +0.000 C 
ATOM     37  C30 UNL A   1      16.396  49.691   0.172  1.00  0.00    +0.000 C 
ATOM     49  C37 UNL A   1      16.693  51.016  -0.309  1.00  0.00    +0.000 C 
ATOM     50  C38 UNL A   1      17.204  51.393  -1.539  1.00  0.00    +0.000 C 
ATOM     51  C39 UNL A   1      17.376  52.781  -1.538  1.00  0.00    +0.000 C 
ATOM     52  C40 UNL A   1      16.929  53.275  -0.323  1.00  0.00    +0.000 C 
ATOM     53  N5  UNL A   1      16.512  52.183   0.421  1.00  0.00    +0.000 N 
ATOM     54  C41 UNL A   1      16.893  54.642   0.128  1.00  0.00    +0.000 C 
ATOM     66  C48 UNL A   1      16.394  55.057   1.318  1.00  0.00    +0.000 C 
ATOM     67  N6  UNL A   1      15.842  54.303   2.342  1.00  0.00    +0.000 N 
ATOM     68  C49 UNL A   1      15.539  55.155   3.291  1.00  0.00    +0.000 C 
ATOM     69  C50 UNL A   1      14.908  54.895   4.627  1.00  0.00    +0.000 C 
ATOM     81  C57 UNL A   1      14.595  53.631   4.965  1.00  0.00    +0.000 C 
ATOM     82  C58 UNL A   1      13.989  53.224   6.227  1.00  0.00    +0.000 C 
ATOM     83  C59 UNL A   1      13.894  51.889   6.252  1.00  0.00    +0.000 C 
ATOM     84  C60 UNL A   1      14.382  51.347   4.981  1.00  0.00    +0.000 C 
ATOM     85  N7  UNL A   1      14.773  52.456   4.276  1.00  0.00    +0.000 N 
ATOM     86  C61 UNL A   1      15.877  56.549   2.979  1.00  0.00    +0.000 C 
ATOM     87  C62 UNL A   1      16.361  56.439   1.751  1.00  0.00    +0.000 C 
ATOM     88  C63 UNL A   1      15.514  48.097   1.860  1.00  0.00    +0.000 C 
ATOM     89  C64 UNL A   1      14.931  48.149   3.052  1.00  0.00    +0.000 C 
ATOM    120  H29 UNL A   1      17.421  50.758  -2.324  1.00  0.00    +0.000 H 
ATOM    121  H30 UNL A   1      17.768  53.341  -2.310  1.00  0.00    +0.000 H 
ATOM    122  H31 UNL A   1      16.143  52.227   1.332  1.00  0.00    +0.000 H 
ATOM    123  H32 UNL A   1      13.682  53.863   6.978  1.00  0.00    +0.000 H 
ATOM    124  H33 UNL A   1      13.536  51.329   7.042  1.00  0.00    +0.000 H 
ATOM    125  H34 UNL A   1      15.145  52.413   3.366  1.00  0.00    +0.000 H 
ATOM    126  H35 UNL A   1      15.766  57.393   3.564  1.00  0.00    +0.000 H 
ATOM    127  H36 UNL A   1      16.675  57.236   1.175  1.00  0.00    +0.000 H 
ATOM    128  H37 UNL A   1      15.712  47.223   1.346  1.00  0.00    +0.000 H 
ENDROOT
BRANCH   33   32
ATOM    130  H39 UNL A   1      11.845  49.173   4.966  1.00  0.00    +0.000 H 
ATOM    131  H40 UNL A   1      11.015  47.493   6.512  1.00  0.00    +0.000 H 
ATOM    118  H27 UNL A   1      14.931  46.859   7.918  1.00  0.00    +0.000 H 
ATOM    119  H28 UNL A   1      15.719  48.699   6.555  1.00  0.00    +0.000 H 
ATOM     90  C65 UNL A   1      12.494  48.711   5.623  1.00  0.00    +0.000 C 
ATOM     91  C66 UNL A   1      12.017  47.735   6.503  1.00  0.00    +0.000 C 
ATOM     29  C23 UNL A   1      12.904  47.087   7.368  1.00  0.00    +0.000 C 
ATOM     30  C24 UNL A   1      14.268  47.392   7.335  1.00  0.00    +0.000 C 
ATOM     31  C25 UNL A   1      14.728  48.416   6.515  1.00  0.00    +0.000 C 
ATOM     32  C26 UNL A   1      13.851  49.068   5.633  1.00  0.00    +0.000 C 
BRANCH   29    2
ATOM      1  O1  UNL A   1      11.670  45.156   7.868  1.00  0.00    +0.000 O 
ATOM      2  C1  UNL A   1      12.386  46.057   8.294  1.00  0.00    +0.000 C 
BRANCH    2    3
ATOM      3  N1  UNL A   1      12.702  46.124   9.629  1.00  0.00    +0.000 N 
ATOM     92  H1  UNL A   1      13.327  45.435   9.954  1.00  0.00    +0.000 H 
BRANCH    3    4
ATOM      4  C2  UNL A   1      12.238  47.075  10.623  1.00  0.00    +0.000 C 
ATOM     93  H2  UNL A   1      11.973  46.541  11.513  1.00  0.00    +0.000 H 
ATOM     94  H3  UNL A   1      11.397  47.594  10.214  1.00  0.00    +0.000 H 
BRANCH    4    5
ATOM      5  C3  UNL A   1      13.300  48.110  10.971  1.00  0.00    +0.000 C 
ATOM     95  H4  UNL A   1      14.260  47.683  10.771  1.00  0.00    +0.000 H 
ATOM     96  H5  UNL A   1      13.157  48.357  12.002  1.00  0.00    +0.000 H 
BRANCH    5    6
ATOM     97  H6  UNL A   1      13.820  49.349   9.332  1.00  0.00    +0.000 H 
ATOM     98  H7  UNL A   1      13.474  50.196  10.870  1.00  0.00    +0.000 H 
ATOM      6  C4  UNL A   1      13.188  49.421  10.191  1.00  0.00    +0.000 C 
BRANCH    6    7
ATOM     99  H8  UNL A   1      11.207  50.090  10.563  1.00  0.00    +0.000 H 
ATOM    100  H9  UNL A   1      11.393  48.892   9.243  1.00  0.00    +0.000 H 
ATOM      7  C5  UNL A   1      11.775  49.775   9.712  1.00  0.00    +0.000 C 
BRANCH    7    8
ATOM    101  H10 UNL A   1      11.865  50.443   7.693  1.00  0.00    +0.000 H 
ATOM    102  H11 UNL A   1      12.440  51.610   8.913  1.00  0.00    +0.000 H 
ATOM      8  C6  UNL A   1      11.697  50.884   8.653  1.00  0.00    +0.000 C 
BRANCH    8    9
ATOM      9  C7  UNL A   1      10.359  51.622   8.612  1.00  0.00    +0.000 C 
ATOM    103  H12 UNL A   1       9.826  51.430   9.521  1.00  0.00    +0.000 H 
ATOM    104  H13 UNL A   1       9.802  51.271   7.769  1.00  0.00    +0.000 H 
BRANCH    9   10
ATOM    105  H14 UNL A   1      10.890  53.341   7.595  1.00  0.00    +0.000 H 
ATOM     10  N2  UNL A   1      10.555  53.050   8.473  1.00  0.00    +0.000 N 
BRANCH   10   11
ATOM     11  C8  UNL A   1      10.343  54.052   9.377  1.00  0.00    +0.000 C 
ATOM     12  O2  UNL A   1       9.190  54.465   9.493  1.00  0.00    +0.000 O 
BRANCH   11   13
ATOM    106  H15 UNL A   1      11.132  55.468  10.627  1.00  0.00    +0.000 H 
ATOM    107  H16 UNL A   1      12.793  55.913   8.977  1.00  0.00    +0.000 H 
ATOM    108  H17 UNL A   1      12.717  54.312   8.344  1.00  0.00    +0.000 H 
ATOM     13  C9  UNL A   1      11.539  54.597  10.157  1.00  0.00    +0.000 C 
ATOM     14  C10 UNL A   1      12.764  54.878   9.251  1.00  0.00    +0.000 C 
ATOM     15  C11 UNL A   1      14.001  54.510  10.082  1.00  0.00    +0.000 C 
ATOM     16  N3  UNL A   1      13.474  53.596  11.078  1.00  0.00    +0.000 N 
ATOM    109  H18 UNL A   1      14.424  55.377  10.544  1.00  0.00    +0.000 H 
ATOM    110  H19 UNL A   1      14.788  54.083   9.495  1.00  0.00    +0.000 H 
ATOM     17  C12 UNL A   1      13.995  52.676  11.937  1.00  0.00    +0.000 C 
ATOM    116  H25 UNL A   1      12.914  51.339  13.249  1.00  0.00    +0.000 H 
ATOM    117  H26 UNL A   1      10.722  52.472  12.311  1.00  0.00    +0.000 H 
ATOM     26  C20 UNL A   1      12.880  52.090  12.544  1.00  0.00    +0.000 C 
ATOM     27  C21 UNL A   1      11.694  52.690  12.041  1.00  0.00    +0.000 C 
ATOM     28  C22 UNL A   1      12.108  53.615  11.123  1.00  0.00    +0.000 C 
BRANCH   17   18
ATOM     18  C13 UNL A   1      15.379  52.293  12.169  1.00  0.00    +0.000 C 
ATOM     19  O3  UNL A   1      16.015  52.655  13.157  1.00  0.00    +0.000 O 
BRANCH   18   20
ATOM    111  H20 UNL A   1      15.090  52.211   9.534  1.00  0.00    +0.000 H 
ATOM    112  H21 UNL A   1      16.239  50.801   7.925  1.00  0.00    +0.000 H 
ATOM    113  H22 UNL A   1      17.895  49.199   8.684  1.00  0.00    +0.000 H 
ATOM    114  H23 UNL A   1      18.372  48.965  11.051  1.00  0.00    +0.000 H 
ATOM    115  H24 UNL A   1      17.205  50.355  12.670  1.00  0.00    +0.000 H 
ATOM     20  C14 UNL A   1      16.096  51.419  11.217  1.00  0.00    +0.000 C 
ATOM     21  C15 UNL A   1      15.795  51.530   9.854  1.00  0.00    +0.000 C 
ATOM     22  C16 UNL A   1      16.453  50.717   8.931  1.00  0.00    +0.000 C 
ATOM     23  C17 UNL A   1      17.399  49.790   9.369  1.00  0.00    +0.000 C 
ATOM     24  C18 UNL A   1      17.677  49.658  10.731  1.00  0.00    +0.000 C 
ATOM     25  C19 UNL A   1      17.016  50.463  11.661  1.00  0.00    +0.000 C 
ENDBRANCH   18   20
ENDBRANCH   17   18
ENDBRANCH   11   13
ENDBRANCH   10   11
ENDBRANCH    9   10
ENDBRANCH    8    9
ENDBRANCH    7    8
ENDBRANCH    6    7
ENDBRANCH    5    6
ENDBRANCH    4    5
ENDBRANCH    3    4
ENDBRANCH    2    3
ENDBRANCH   29    2
ENDBRANCH   33   32
BRANCH   37   38
ATOM     38  C31 UNL A   1      16.739  48.535  -0.721  1.00  0.00    +0.000 C 
ATOM     39  C32 UNL A   1      15.902  48.147  -1.776  1.00  0.00    +0.000 C 
ATOM     40  F1  UNL A   1      14.715  48.749  -1.952  1.00  0.00    +0.000 F 
ATOM     41  C33 UNL A   1      16.277  47.130  -2.650  1.00  0.00    +0.000 C 
ATOM     42  F2  UNL A   1      15.452  46.761  -3.640  1.00  0.00    +0.000 F 
ATOM     43  C34 UNL A   1      17.502  46.497  -2.499  1.00  0.00    +0.000 C 
ATOM     44  F3  UNL A   1      17.868  45.531  -3.353  1.00  0.00    +0.000 F 
ATOM     45  C35 UNL A   1      18.346  46.866  -1.463  1.00  0.00    +0.000 C 
ATOM     46  F4  UNL A   1      19.536  46.264  -1.324  1.00  0.00    +0.000 F 
ATOM     47  C36 UNL A   1      17.965  47.869  -0.576  1.00  0.00    +0.000 C 
ATOM     48  F5  UNL A   1      18.806  48.207   0.414  1.00  0.00    +0.000 F 
ENDBRANCH   37   38
BRANCH   54   55
ATOM     65  F10 UNL A   1      19.624  55.435   0.095  1.00  0.00    +0.000 F 
ATOM     55  C42 UNL A   1      17.429  55.700  -0.788  1.00  0.00    +0.000 C 
ATOM     56  C43 UNL A   1      16.596  56.378  -1.689  1.00  0.00    +0.000 C 
ATOM     57  F6  UNL A   1      15.294  56.062  -1.772  1.00  0.00    +0.000 F 
ATOM     58  C44 UNL A   1      17.107  57.352  -2.541  1.00  0.00    +0.000 C 
ATOM     59  F7  UNL A   1      16.302  57.952  -3.429  1.00  0.00    +0.000 F 
ATOM     60  C45 UNL A   1      18.451  57.689  -2.484  1.00  0.00    +0.000 C 
ATOM     61  F8  UNL A   1      18.941  58.630  -3.305  1.00  0.00    +0.000 F 
ATOM     62  C46 UNL A   1      19.289  57.046  -1.586  1.00  0.00    +0.000 C 
ATOM     63  F9  UNL A   1      20.586  57.378  -1.525  1.00  0.00    +0.000 F 
ATOM     64  C47 UNL A   1      18.787  56.052  -0.752  1.00  0.00    +0.000 C 
ENDBRANCH   54   55
BRANCH   69   70
ATOM     70  C51 UNL A   1      14.639  56.003   5.578  1.00  0.00    +0.000 C 
ATOM     71  C52 UNL A   1      15.675  56.588   6.318  1.00  0.00    +0.000 C 
ATOM     72  F11 UNL A   1      16.930  56.134   6.187  1.00  0.00    +0.000 F 
ATOM     73  C53 UNL A   1      15.418  57.615   7.223  1.00  0.00    +0.000 C 
ATOM     74  F12 UNL A   1      16.419  58.127   7.952  1.00  0.00    +0.000 F 
ATOM     75  C54 UNL A   1      14.128  58.098   7.383  1.00  0.00    +0.000 C 
ATOM     76  F13 UNL A   1      13.883  59.089   8.250  1.00  0.00    +0.000 F 
ATOM     77  C55 UNL A   1      13.090  57.547   6.646  1.00  0.00    +0.000 C 
ATOM     78  F14 UNL A   1      11.844  58.021   6.784  1.00  0.00    +0.000 F 
ATOM     79  C56 UNL A   1      13.340  56.500   5.764  1.00  0.00    +0.000 C 
ATOM     80  F15 UNL A   1      12.316  55.978   5.073  1.00  0.00    +0.000 F 
ENDBRANCH   69   70
TORSDOF 17
ENDMDL
MODEL 5
REMARK VINA RESULT:     -11.0     37.783     42.827
ROOT
ATOM    129  H38 UNL A   1      13.294  47.393   2.227  1.00  0.00    +0.000 H 
ATOM     33  C27 UNL A   1      13.099  50.034   3.296  1.00  0.00    +0.000 C 
ATOM     34  C28 UNL A   1      13.999  49.548   2.197  1.00  0.00    +0.000 C 
ATOM     35  N4  UNL A   1      14.872  50.223   1.493  1.00  0.00    +0.000 N 
ATOM     36  C29 UNL A   1      15.454  49.305   0.628  1.00  0.00    +0.000 C 
ATOM     37  C30 UNL A   1      16.403  49.526  -0.313  1.00  0.00    +0.000 C 
ATOM     49  C37 UNL A   1      16.986  50.813  -0.595  1.00  0.00    +0.000 C 
ATOM     50  C38 UNL A   1      17.911  51.146  -1.570  1.00  0.00    +0.000 C 
ATOM     51  C39 UNL A   1      18.225  52.502  -1.433  1.00  0.00    +0.000 C 
ATOM     52  C40 UNL A   1      17.463  53.025  -0.401  1.00  0.00    +0.000 C 
ATOM     53  N5  UNL A   1      16.707  51.979   0.103  1.00  0.00    +0.000 N 
ATOM     54  C41 UNL A   1      17.431  54.377   0.092  1.00  0.00    +0.000 C 
ATOM     66  C48 UNL A   1      16.619  54.829   1.078  1.00  0.00    +0.000 C 
ATOM     67  N6  UNL A   1      15.682  54.129   1.823  1.00  0.00    +0.000 N 
ATOM     68  C49 UNL A   1      15.181  54.995   2.671  1.00  0.00    +0.000 C 
ATOM     69  C50 UNL A   1      14.121  54.790   3.714  1.00  0.00    +0.000 C 
ATOM     81  C57 UNL A   1      13.578  53.568   3.859  1.00  0.00    +0.000 C 
ATOM     82  C58 UNL A   1      12.550  53.216   4.832  1.00  0.00    +0.000 C 
ATOM     83  C59 UNL A   1      12.305  51.902   4.747  1.00  0.00    +0.000 C 
ATOM     84  C60 UNL A   1      13.120  51.328   3.674  1.00  0.00    +0.000 C 
ATOM     85  N7  UNL A   1      13.840  52.393   3.198  1.00  0.00    +0.000 N 
ATOM     86  C61 UNL A   1      15.754  56.342   2.567  1.00  0.00    +0.000 C 
ATOM     87  C62 UNL A   1      16.599  56.196   1.557  1.00  0.00    +0.000 C 
ATOM     88  C63 UNL A   1      14.846  48.022   0.904  1.00  0.00    +0.000 C 
ATOM     89  C64 UNL A   1      13.915  48.123   1.844  1.00  0.00    +0.000 C 
ATOM    120  H29 UNL A   1      18.302  50.504  -2.278  1.00  0.00    +0.000 H 
ATOM    121  H30 UNL A   1      18.909  53.024  -2.003  1.00  0.00    +0.000 H 
ATOM    122  H31 UNL A   1      16.066  52.052   0.847  1.00  0.00    +0.000 H 
ATOM    123  H32 UNL A   1      12.087  53.874   5.478  1.00  0.00    +0.000 H 
ATOM    124  H33 UNL A   1      11.648  51.377   5.345  1.00  0.00    +0.000 H 
ATOM    125  H34 UNL A   1      14.483  52.322   2.456  1.00  0.00    +0.000 H 
ATOM    126  H35 UNL A   1      15.551  57.182   3.132  1.00  0.00    +0.000 H 
ATOM    127  H36 UNL A   1      17.170  56.959   1.161  1.00  0.00    +0.000 H 
ATOM    128  H37 UNL A   1      15.104  47.140   0.431  1.00  0.00    +0.000 H 
ENDROOT
BRANCH   33   32
ATOM    130  H39 UNL A   1      10.514  49.459   2.693  1.00  0.00    +0.000 H 
ATOM    131  H40 UNL A   1       9.044  47.866   3.790  1.00  0.00    +0.000 H 
ATOM    118  H27 UNL A   1      12.169  46.777   6.389  1.00  0.00    +0.000 H 
ATOM    119  H28 UNL A   1      13.555  48.532   5.459  1.00  0.00    +0.000 H 
ATOM     90  C65 UNL A   1      10.852  48.919   3.506  1.00  0.00    +0.000 C 
ATOM     91  C66 UNL A   1      10.010  47.993   4.127  1.00  0.00    +0.000 C 
ATOM     29  C23 UNL A   1      10.481  47.239   5.206  1.00  0.00    +0.000 C 
ATOM     30  C24 UNL A   1      11.800  47.389   5.645  1.00  0.00    +0.000 C 
ATOM     31  C25 UNL A   1      12.612  48.363   5.077  1.00  0.00    +0.000 C 
ATOM     32  C26 UNL A   1      12.156  49.120   3.985  1.00  0.00    +0.000 C 
BRANCH   29    2
ATOM      1  O1  UNL A   1       8.882  45.524   5.167  1.00  0.00    +0.000 O 
ATOM      2  C1  UNL A   1       9.579  46.264   5.854  1.00  0.00    +0.000 C 
BRANCH    2    3
ATOM      3  N1  UNL A   1       9.520  46.201   7.225  1.00  0.00    +0.000 N 
ATOM     92  H1  UNL A   1       9.628  45.304   7.616  1.00  0.00    +0.000 H 
BRANCH    3    4
ATOM      4  C2  UNL A   1       9.319  47.283   8.173  1.00  0.00    +0.000 C 
ATOM     93  H2  UNL A   1       8.341  47.694   8.024  1.00  0.00    +0.000 H 
ATOM     94  H3  UNL A   1      10.080  48.015   8.003  1.00  0.00    +0.000 H 
BRANCH    4    5
ATOM      5  C3  UNL A   1       9.437  46.813   9.617  1.00  0.00    +0.000 C 
ATOM     95  H4  UNL A   1       8.776  45.984   9.754  1.00  0.00    +0.000 H 
ATOM     96  H5  UNL A   1       9.188  47.653  10.231  1.00  0.00    +0.000 H 
BRANCH    5    6
ATOM     97  H6  UNL A   1      11.066  45.460   9.525  1.00  0.00    +0.000 H 
ATOM     98  H7  UNL A   1      10.827  46.287  11.094  1.00  0.00    +0.000 H 
ATOM      6  C4  UNL A   1      10.844  46.377  10.029  1.00  0.00    +0.000 C 
BRANCH    6    7
ATOM     99  H8  UNL A   1      11.518  48.351   9.633  1.00  0.00    +0.000 H 
ATOM    100  H9  UNL A   1      12.401  47.040   8.790  1.00  0.00    +0.000 H 
ATOM      7  C5  UNL A   1      11.958  47.378   9.703  1.00  0.00    +0.000 C 
BRANCH    7    8
ATOM    101  H10 UNL A   1      13.933  47.940  10.266  1.00  0.00    +0.000 H 
ATOM    102  H11 UNL A   1      13.320  46.440  11.011  1.00  0.00    +0.000 H 
ATOM      8  C6  UNL A   1      13.101  47.448  10.726  1.00  0.00    +0.000 C 
BRANCH    8    9
ATOM      9  C7  UNL A   1      12.750  48.200  12.010  1.00  0.00    +0.000 C 
ATOM    103  H12 UNL A   1      13.508  48.013  12.742  1.00  0.00    +0.000 H 
ATOM    104  H13 UNL A   1      11.799  47.857  12.357  1.00  0.00    +0.000 H 
BRANCH    9   10
ATOM    105  H14 UNL A   1      11.755  49.974  11.640  1.00  0.00    +0.000 H 
ATOM     10  N2  UNL A   1      12.666  49.626  11.772  1.00  0.00    +0.000 N 
BRANCH   10   11
ATOM     11  C8  UNL A   1      13.661  50.561  11.705  1.00  0.00    +0.000 C 
ATOM     12  O2  UNL A   1      14.097  50.990  12.773  1.00  0.00    +0.000 O 
BRANCH   11   13
ATOM    106  H15 UNL A   1      14.504  52.004  10.524  1.00  0.00    +0.000 H 
ATOM    107  H16 UNL A   1      12.574  51.905   9.129  1.00  0.00    +0.000 H 
ATOM    108  H17 UNL A   1      12.259  50.259   9.534  1.00  0.00    +0.000 H 
ATOM     13  C9  UNL A   1      14.145  51.015  10.328  1.00  0.00    +0.000 C 
ATOM     14  C10 UNL A   1      13.032  50.944   9.253  1.00  0.00    +0.000 C 
ATOM     15  C11 UNL A   1      13.724  50.511   7.952  1.00  0.00    +0.000 C 
ATOM     16  N3  UNL A   1      14.936  49.863   8.420  1.00  0.00    +0.000 N 
ATOM    109  H18 UNL A   1      13.954  51.358   7.340  1.00  0.00    +0.000 H 
ATOM    110  H19 UNL A   1      13.115  49.874   7.346  1.00  0.00    +0.000 H 
ATOM     17  C12 UNL A   1      15.861  49.016   7.890  1.00  0.00    +0.000 C 
ATOM    116  H25 UNL A   1      17.538  48.097   8.901  1.00  0.00    +0.000 H 
ATOM    117  H26 UNL A   1      16.744  49.417  11.044  1.00  0.00    +0.000 H 
ATOM     26  C20 UNL A   1      16.721  48.725   8.952  1.00  0.00    +0.000 C 
ATOM     27  C21 UNL A   1      16.299  49.426  10.113  1.00  0.00    +0.000 C 
ATOM     28  C22 UNL A   1      15.177  50.115   9.741  1.00  0.00    +0.000 C 
BRANCH   17   18
ATOM     18  C13 UNL A   1      15.951  48.451   6.553  1.00  0.00    +0.000 C 
ATOM     19  O3  UNL A   1      15.539  47.326   6.273  1.00  0.00    +0.000 O 
BRANCH   18   20
ATOM    111  H20 UNL A   1      17.231  47.497   4.434  1.00  0.00    +0.000 H 
ATOM    112  H21 UNL A   1      18.213  48.718   2.579  1.00  0.00    +0.000 H 
ATOM    113  H22 UNL A   1      18.094  51.140   2.524  1.00  0.00    +0.000 H 
ATOM    114  H23 UNL A   1      17.037  52.351   4.341  1.00  0.00    +0.000 H 
ATOM    115  H24 UNL A   1      16.075  51.137   6.215  1.00  0.00    +0.000 H 
ATOM     20  C14 UNL A   1      16.541  49.225   5.439  1.00  0.00    +0.000 C 
ATOM     21  C15 UNL A   1      17.180  48.527   4.408  1.00  0.00    +0.000 C 
ATOM     22  C16 UNL A   1      17.748  49.229   3.345  1.00  0.00    +0.000 C 
ATOM     23  C17 UNL A   1      17.686  50.622   3.318  1.00  0.00    +0.000 C 
ATOM     24  C18 UNL A   1      17.074  51.320   4.361  1.00  0.00    +0.000 C 
ATOM     25  C19 UNL A   1      16.511  50.624   5.433  1.00  0.00    +0.000 C 
ENDBRANCH   18   20
ENDBRANCH   17   18
ENDBRANCH   11   13
ENDBRANCH   10   11
ENDBRANCH    9   10
ENDBRANCH    8    9
ENDBRANCH    7    8
ENDBRANCH    6    7
ENDBRANCH    5    6
ENDBRANCH    4    5
ENDBRANCH    3    4
ENDBRANCH    2    3
ENDBRANCH   29    2
ENDBRANCH   33   32
BRANCH   37   38
ATOM     38  C31 UNL A   1      16.890  48.353  -1.113  1.00  0.00    +0.000 C 
ATOM     39  C32 UNL A   1      16.242  47.942  -2.285  1.00  0.00    +0.000 C 
ATOM     40  F1  UNL A   1      15.102  48.537  -2.670  1.00  0.00    +0.000 F 
ATOM     41  C33 UNL A   1      16.757  46.908  -3.063  1.00  0.00    +0.000 C 
ATOM     42  F2  UNL A   1      16.110  46.517  -4.171  1.00  0.00    +0.000 F 
ATOM     43  C34 UNL A   1      17.939  46.282  -2.696  1.00  0.00    +0.000 C 
ATOM     44  F3  UNL A   1      18.443  45.300  -3.457  1.00  0.00    +0.000 F 
ATOM     45  C35 UNL A   1      18.598  46.674  -1.542  1.00  0.00    +0.000 C 
ATOM     46  F4  UNL A   1      19.747  46.078  -1.192  1.00  0.00    +0.000 F 
ATOM     47  C36 UNL A   1      18.075  47.693  -0.751  1.00  0.00    +0.000 C 
ATOM     48  F5  UNL A   1      18.737  48.053   0.359  1.00  0.00    +0.000 F 
ENDBRANCH   37   38
BRANCH   54   55
ATOM     65  F10 UNL A   1      19.849  55.251   1.307  1.00  0.00    +0.000 F 
ATOM     55  C42 UNL A   1      18.352  55.378  -0.538  1.00  0.00    +0.000 C 
ATOM     56  C43 UNL A   1      18.061  55.958  -1.782  1.00  0.00    +0.000 C 
ATOM     57  F6  UNL A   1      16.956  55.595  -2.452  1.00  0.00    +0.000 F 
ATOM     58  C44 UNL A   1      18.928  56.879  -2.361  1.00  0.00    +0.000 C 
ATOM     59  F7  UNL A   1      18.655  57.383  -3.573  1.00  0.00    +0.000 F 
ATOM     60  C45 UNL A   1      20.083  57.262  -1.695  1.00  0.00    +0.000 C 
ATOM     61  F8  UNL A   1      20.915  58.151  -2.254  1.00  0.00    +0.000 F 
ATOM     62  C46 UNL A   1      20.380  56.716  -0.455  1.00  0.00    +0.000 C 
ATOM     63  F9  UNL A   1      21.490  57.093   0.194  1.00  0.00    +0.000 F 
ATOM     64  C47 UNL A   1      19.529  55.775   0.115  1.00  0.00    +0.000 C 
ENDBRANCH   54   55
BRANCH   69   70
ATOM     70  C51 UNL A   1      13.680  55.905   4.590  1.00  0.00    +0.000 C 
ATOM     71  C52 UNL A   1      12.609  56.731   4.224  1.00  0.00    +0.000 C 
ATOM     72  F11 UNL A   1      11.980  56.534   3.057  1.00  0.00    +0.000 F 
ATOM     73  C53 UNL A   1      12.208  57.787   5.039  1.00  0.00    +0.000 C 
ATOM     74  F12 UNL A   1      11.211  58.592   4.645  1.00  0.00    +0.000 F 
ATOM     75  C54 UNL A   1      12.846  58.017   6.248  1.00  0.00    +0.000 C 
ATOM     76  F13 UNL A   1      12.456  59.030   7.033  1.00  0.00    +0.000 F 
ATOM     77  C55 UNL A   1      13.895  57.199   6.640  1.00  0.00    +0.000 C 
ATOM     78  F14 UNL A   1      14.506  57.406   7.815  1.00  0.00    +0.000 F 
ATOM     79  C56 UNL A   1      14.318  56.163   5.813  1.00  0.00    +0.000 C 
ATOM     80  F15 UNL A   1      15.343  55.394   6.210  1.00  0.00    +0.000 F 
ENDBRANCH   69   70
TORSDOF 17
ENDMDL
MODEL 6
REMARK VINA RESULT:     -10.9     17.327     22.096
ROOT
ATOM    129  H38 UNL A   1      26.840  33.527  43.471  1.00  0.00    +0.000 H 
ATOM     33  C27 UNL A   1      25.854  35.417  45.371  1.00  0.00    +0.000 C 
ATOM     34  C28 UNL A   1      27.193  35.404  44.694  1.00  0.00    +0.000 C 
ATOM     35  N4  UNL A   1      28.184  36.250  44.818  1.00  0.00    +0.000 N 
ATOM     36  C29 UNL A   1      29.197  35.774  43.997  1.00  0.00    +0.000 C 
ATOM     37  C30 UNL A   1      30.418  36.316  43.771  1.00  0.00    +0.000 C 
ATOM     49  C37 UNL A   1      30.887  37.542  44.365  1.00  0.00    +0.000 C 
ATOM     50  C38 UNL A   1      32.085  38.202  44.152  1.00  0.00    +0.000 C 
ATOM     51  C39 UNL A   1      32.124  39.323  44.986  1.00  0.00    +0.000 C 
ATOM     52  C40 UNL A   1      30.932  39.388  45.688  1.00  0.00    +0.000 C 
ATOM     53  N5  UNL A   1      30.181  38.291  45.297  1.00  0.00    +0.000 N 
ATOM     54  C41 UNL A   1      30.511  40.374  46.649  1.00  0.00    +0.000 C 
ATOM     66  C48 UNL A   1      29.303  40.400  47.261  1.00  0.00    +0.000 C 
ATOM     67  N6  UNL A   1      28.240  39.518  47.130  1.00  0.00    +0.000 N 
ATOM     68  C49 UNL A   1      27.314  39.950  47.951  1.00  0.00    +0.000 C 
ATOM     69  C50 UNL A   1      25.949  39.385  48.214  1.00  0.00    +0.000 C 
ATOM     81  C57 UNL A   1      25.565  38.275  47.558  1.00  0.00    +0.000 C 
ATOM     82  C58 UNL A   1      24.279  37.608  47.717  1.00  0.00    +0.000 C 
ATOM     83  C59 UNL A   1      24.272  36.495  46.972  1.00  0.00    +0.000 C 
ATOM     84  C60 UNL A   1      25.537  36.399  46.239  1.00  0.00    +0.000 C 
ATOM     85  N7  UNL A   1      26.241  37.503  46.645  1.00  0.00    +0.000 N 
ATOM     86  C61 UNL A   1      27.689  41.151  48.707  1.00  0.00    +0.000 C 
ATOM     87  C62 UNL A   1      28.896  41.405  48.222  1.00  0.00    +0.000 C 
ATOM     88  C63 UNL A   1      28.709  34.555  43.388  1.00  0.00    +0.000 C 
ATOM     89  C64 UNL A   1      27.461  34.299  43.760  1.00  0.00    +0.000 C 
ATOM    120  H29 UNL A   1      32.823  37.916  43.489  1.00  0.00    +0.000 H 
ATOM    121  H30 UNL A   1      32.909  39.989  45.066  1.00  0.00    +0.000 H 
ATOM    122  H31 UNL A   1      29.281  38.074  45.631  1.00  0.00    +0.000 H 
ATOM    123  H32 UNL A   1      23.499  37.942  48.306  1.00  0.00    +0.000 H 
ATOM    124  H33 UNL A   1      23.500  35.811  46.924  1.00  0.00    +0.000 H 
ATOM    125  H34 UNL A   1      27.142  37.721  46.314  1.00  0.00    +0.000 H 
ATOM    126  H35 UNL A   1      27.154  41.662  49.426  1.00  0.00    +0.000 H 
ATOM    127  H36 UNL A   1      29.473  42.217  48.494  1.00  0.00    +0.000 H 
ATOM    128  H37 UNL A   1      29.260  33.961  42.748  1.00  0.00    +0.000 H 
ENDROOT
BRANCH   33   32
ATOM    130  H39 UNL A   1      25.619  32.935  46.447  1.00  0.00    +0.000 H 
ATOM    131  H40 UNL A   1      23.870  31.295  46.053  1.00  0.00    +0.000 H 
ATOM    118  H27 UNL A   1      21.920  33.999  43.484  1.00  0.00    +0.000 H 
ATOM    119  H28 UNL A   1      23.783  35.535  43.685  1.00  0.00    +0.000 H 
ATOM     90  C65 UNL A   1      24.855  33.144  45.784  1.00  0.00    +0.000 C 
ATOM     91  C66 UNL A   1      23.842  32.206  45.569  1.00  0.00    +0.000 C 
ATOM     29  C23 UNL A   1      22.791  32.506  44.698  1.00  0.00    +0.000 C 
ATOM     30  C24 UNL A   1      22.736  33.751  44.065  1.00  0.00    +0.000 C 
ATOM     31  C25 UNL A   1      23.782  34.653  44.220  1.00  0.00    +0.000 C 
ATOM     32  C26 UNL A   1      24.839  34.369  45.100  1.00  0.00    +0.000 C 
BRANCH   29    2
ATOM      1  O1  UNL A   1      21.962  30.312  44.660  1.00  0.00    +0.000 O 
ATOM      2  C1  UNL A   1      21.727  31.503  44.479  1.00  0.00    +0.000 C 
BRANCH    2    3
ATOM      3  N1  UNL A   1      20.484  31.912  44.062  1.00  0.00    +0.000 N 
ATOM     92  H1  UNL A   1      20.426  32.839  43.736  1.00  0.00    +0.000 H 
BRANCH    3    4
ATOM      4  C2  UNL A   1      19.243  31.157  44.039  1.00  0.00    +0.000 C 
ATOM     93  H2  UNL A   1      19.289  30.397  44.792  1.00  0.00    +0.000 H 
ATOM     94  H3  UNL A   1      19.134  30.734  43.063  1.00  0.00    +0.000 H 
BRANCH    4    5
ATOM      5  C3  UNL A   1      18.028  32.036  44.306  1.00  0.00    +0.000 C 
ATOM     95  H4  UNL A   1      18.366  33.042  44.436  1.00  0.00    +0.000 H 
ATOM     96  H5  UNL A   1      17.551  31.638  45.177  1.00  0.00    +0.000 H 
BRANCH    5    6
ATOM     97  H6  UNL A   1      17.334  32.648  42.398  1.00  0.00    +0.000 H 
ATOM     98  H7  UNL A   1      16.071  32.372  43.636  1.00  0.00    +0.000 H 
ATOM      6  C4  UNL A   1      16.980  32.025  43.192  1.00  0.00    +0.000 C 
BRANCH    6    7
ATOM     99  H8  UNL A   1      17.590  30.109  42.509  1.00  0.00    +0.000 H 
ATOM    100  H9  UNL A   1      16.175  30.823  41.673  1.00  0.00    +0.000 H 
ATOM      7  C5  UNL A   1      16.667  30.643  42.606  1.00  0.00    +0.000 C 
BRANCH    7    8
ATOM    101  H10 UNL A   1      14.987  29.346  42.768  1.00  0.00    +0.000 H 
ATOM    102  H11 UNL A   1      15.259  30.426  44.160  1.00  0.00    +0.000 H 
ATOM      8  C6  UNL A   1      15.704  29.779  43.433  1.00  0.00    +0.000 C 
BRANCH    8    9
ATOM      9  C7  UNL A   1      16.381  28.649  44.209  1.00  0.00    +0.000 C 
ATOM    103  H12 UNL A   1      16.773  29.039  45.125  1.00  0.00    +0.000 H 
ATOM    104  H13 UNL A   1      17.167  28.245  43.606  1.00  0.00    +0.000 H 
BRANCH    9   10
ATOM    105  H14 UNL A   1      15.312  27.405  45.468  1.00  0.00    +0.000 H 
ATOM     10  N2  UNL A   1      15.442  27.589  44.510  1.00  0.00    +0.000 N 
BRANCH   10   11
ATOM     11  C8  UNL A   1      14.707  26.807  43.663  1.00  0.00    +0.000 C 
ATOM     12  O2  UNL A   1      13.531  26.608  43.965  1.00  0.00    +0.000 O 
BRANCH   11   13
ATOM    106  H15 UNL A   1      16.429  26.292  42.684  1.00  0.00    +0.000 H 
ATOM    107  H16 UNL A   1      15.759  27.708  40.887  1.00  0.00    +0.000 H 
ATOM    108  H17 UNL A   1      14.084  27.501  41.234  1.00  0.00    +0.000 H 
ATOM     13  C9  UNL A   1      15.392  26.226  42.426  1.00  0.00    +0.000 C 
ATOM     14  C10 UNL A   1      15.012  26.979  41.127  1.00  0.00    +0.000 C 
ATOM     15  C11 UNL A   1      14.934  25.912  40.025  1.00  0.00    +0.000 C 
ATOM     16  N3  UNL A   1      14.718  24.683  40.767  1.00  0.00    +0.000 N 
ATOM    109  H18 UNL A   1      15.847  25.868  39.469  1.00  0.00    +0.000 H 
ATOM    110  H19 UNL A   1      14.167  26.108  39.305  1.00  0.00    +0.000 H 
ATOM     17  C12 UNL A   1      14.282  23.426  40.474  1.00  0.00    +0.000 C 
ATOM    116  H25 UNL A   1      13.938  21.797  41.855  1.00  0.00    +0.000 H 
ATOM    117  H26 UNL A   1      14.753  23.454  43.740  1.00  0.00    +0.000 H 
ATOM     26  C20 UNL A   1      14.237  22.773  41.709  1.00  0.00    +0.000 C 
ATOM     27  C21 UNL A   1      14.669  23.659  42.732  1.00  0.00    +0.000 C 
ATOM     28  C22 UNL A   1      14.949  24.841  42.104  1.00  0.00    +0.000 C 
BRANCH   17   18
ATOM     18  C13 UNL A   1      13.874  22.851  39.201  1.00  0.00    +0.000 C 
ATOM     19  O3  UNL A   1      12.834  22.211  39.060  1.00  0.00    +0.000 O 
BRANCH   18   20
ATOM    111  H20 UNL A   1      13.459  24.553  37.209  1.00  0.00    +0.000 H 
ATOM    112  H21 UNL A   1      14.781  24.887  35.200  1.00  0.00    +0.000 H 
ATOM    113  H22 UNL A   1      16.772  23.552  34.824  1.00  0.00    +0.000 H 
ATOM    114  H23 UNL A   1      17.421  21.850  36.425  1.00  0.00    +0.000 H 
ATOM    115  H24 UNL A   1      16.087  21.491  38.426  1.00  0.00    +0.000 H 
ATOM     20  C14 UNL A   1      14.701  23.028  37.988  1.00  0.00    +0.000 C 
ATOM     21  C15 UNL A   1      14.307  23.987  37.048  1.00  0.00    +0.000 C 
ATOM     22  C16 UNL A   1      15.064  24.176  35.892  1.00  0.00    +0.000 C 
ATOM     23  C17 UNL A   1      16.205  23.403  35.672  1.00  0.00    +0.000 C 
ATOM     24  C18 UNL A   1      16.581  22.425  36.596  1.00  0.00    +0.000 C 
ATOM     25  C19 UNL A   1      15.822  22.225  37.751  1.00  0.00    +0.000 C 
ENDBRANCH   18   20
ENDBRANCH   17   18
ENDBRANCH   11   13
ENDBRANCH   10   11
ENDBRANCH    9   10
ENDBRANCH    8    9
ENDBRANCH    7    8
ENDBRANCH    6    7
ENDBRANCH    5    6
ENDBRANCH    4    5
ENDBRANCH    3    4
ENDBRANCH    2    3
ENDBRANCH   29    2
ENDBRANCH   33   32
BRANCH   37   38
ATOM     38  C31 UNL A   1      31.353  35.591  42.849  1.00  0.00    +0.000 C 
ATOM     39  C32 UNL A   1      32.098  34.483  43.278  1.00  0.00    +0.000 C 
ATOM     40  F1  UNL A   1      32.062  34.103  44.564  1.00  0.00    +0.000 F 
ATOM     41  C33 UNL A   1      32.893  33.767  42.387  1.00  0.00    +0.000 C 
ATOM     42  F2  UNL A   1      33.614  32.723  42.822  1.00  0.00    +0.000 F 
ATOM     43  C34 UNL A   1      32.943  34.131  41.049  1.00  0.00    +0.000 C 
ATOM     44  F3  UNL A   1      33.695  33.428  40.190  1.00  0.00    +0.000 F 
ATOM     45  C35 UNL A   1      32.212  35.221  40.602  1.00  0.00    +0.000 C 
ATOM     46  F4  UNL A   1      32.249  35.565  39.307  1.00  0.00    +0.000 F 
ATOM     47  C36 UNL A   1      31.432  35.951  41.495  1.00  0.00    +0.000 C 
ATOM     48  F5  UNL A   1      30.734  36.999  41.032  1.00  0.00    +0.000 F 
ENDBRANCH   37   38
BRANCH   54   55
ATOM     65  F10 UNL A   1      32.844  39.972  48.224  1.00  0.00    +0.000 F 
ATOM     55  C42 UNL A   1      31.468  41.475  46.994  1.00  0.00    +0.000 C 
ATOM     56  C43 UNL A   1      31.257  42.791  46.558  1.00  0.00    +0.000 C 
ATOM     57  F6  UNL A   1      30.198  43.084  45.787  1.00  0.00    +0.000 F 
ATOM     58  C44 UNL A   1      32.158  43.802  46.878  1.00  0.00    +0.000 C 
ATOM     59  F7  UNL A   1      31.962  45.043  46.409  1.00  0.00    +0.000 F 
ATOM     60  C45 UNL A   1      33.267  43.524  47.663  1.00  0.00    +0.000 C 
ATOM     61  F8  UNL A   1      34.132  44.500  47.970  1.00  0.00    +0.000 F 
ATOM     62  C46 UNL A   1      33.484  42.233  48.121  1.00  0.00    +0.000 C 
ATOM     63  F9  UNL A   1      34.550  41.965  48.887  1.00  0.00    +0.000 F 
ATOM     64  C47 UNL A   1      32.600  41.214  47.781  1.00  0.00    +0.000 C 
ENDBRANCH   54   55
BRANCH   69   70
ATOM     70  C51 UNL A   1      25.029  40.022  49.192  1.00  0.00    +0.000 C 
ATOM     71  C52 UNL A   1      24.164  41.053  48.805  1.00  0.00    +0.000 C 
ATOM     72  F11 UNL A   1      24.172  41.495  47.539  1.00  0.00    +0.000 F 
ATOM     73  C53 UNL A   1      23.315  41.660  49.727  1.00  0.00    +0.000 C 
ATOM     74  F12 UNL A   1      22.530  42.676  49.343  1.00  0.00    +0.000 F 
ATOM     75  C54 UNL A   1      23.291  41.227  51.044  1.00  0.00    +0.000 C 
ATOM     76  F13 UNL A   1      22.472  41.809  51.929  1.00  0.00    +0.000 F 
ATOM     77  C55 UNL A   1      24.125  40.194  51.445  1.00  0.00    +0.000 C 
ATOM     78  F14 UNL A   1      24.095  39.760  52.713  1.00  0.00    +0.000 F 
ATOM     79  C56 UNL A   1      24.997  39.607  50.532  1.00  0.00    +0.000 C 
ATOM     80  F15 UNL A   1      25.801  38.618  50.949  1.00  0.00    +0.000 F 
ENDBRANCH   69   70
TORSDOF 17
ENDMDL
MODEL 7
REMARK VINA RESULT:     -10.9     20.328     25.990
ROOT
ATOM    129  H38 UNL A   1      50.864  21.016  12.597  1.00  0.00    +0.000 H 
ATOM     33  C27 UNL A   1      53.268  19.807  11.639  1.00  0.00    +0.000 C 
ATOM     34  C28 UNL A   1      53.030  20.456  12.971  1.00  0.00    +0.000 C 
ATOM     35  N4  UNL A   1      53.858  20.600  13.975  1.00  0.00    +0.000 N 
ATOM     36  C29 UNL A   1      53.154  21.286  14.955  1.00  0.00    +0.000 C 
ATOM     37  C30 UNL A   1      53.578  21.655  16.188  1.00  0.00    +0.000 C 
ATOM     49  C37 UNL A   1      54.888  21.374  16.717  1.00  0.00    +0.000 C 
ATOM     50  C38 UNL A   1      55.389  21.654  17.977  1.00  0.00    +0.000 C 
ATOM     51  C39 UNL A   1      56.725  21.245  18.020  1.00  0.00    +0.000 C 
ATOM     52  C40 UNL A   1      57.045  20.667  16.802  1.00  0.00    +0.000 C 
ATOM     53  N5  UNL A   1      55.909  20.752  16.013  1.00  0.00    +0.000 N 
ATOM     54  C41 UNL A   1      58.296  20.088  16.387  1.00  0.00    +0.000 C 
ATOM     66  C48 UNL A   1      58.521  19.494  15.191  1.00  0.00    +0.000 C 
ATOM     67  N6  UNL A   1      57.650  19.324  14.125  1.00  0.00    +0.000 N 
ATOM     68  C49 UNL A   1      58.344  18.725  13.188  1.00  0.00    +0.000 C 
ATOM     69  C50 UNL A   1      57.905  18.288  11.821  1.00  0.00    +0.000 C 
ATOM     81  C57 UNL A   1      56.638  18.528  11.436  1.00  0.00    +0.000 C 
ATOM     82  C58 UNL A   1      56.073  18.173  10.140  1.00  0.00    +0.000 C 
ATOM     83  C59 UNL A   1      54.816  18.632  10.075  1.00  0.00    +0.000 C 
ATOM     84  C60 UNL A   1      54.468  19.266  11.349  1.00  0.00    +0.000 C 
ATOM     85  N7  UNL A   1      55.610  19.152  12.099  1.00  0.00    +0.000 N 
ATOM     86  C61 UNL A   1      59.741  18.456  13.550  1.00  0.00    +0.000 C 
ATOM     87  C62 UNL A   1      59.787  18.911  14.794  1.00  0.00    +0.000 C 
ATOM     88  C63 UNL A   1      51.834  21.545  14.423  1.00  0.00    +0.000 C 
ATOM     89  C64 UNL A   1      51.693  21.023  13.211  1.00  0.00    +0.000 C 
ATOM    120  H29 UNL A   1      54.865  22.091  18.752  1.00  0.00    +0.000 H 
ATOM    121  H30 UNL A   1      57.364  21.354  18.823  1.00  0.00    +0.000 H 
ATOM    122  H31 UNL A   1      55.837  20.419  15.089  1.00  0.00    +0.000 H 
ATOM    123  H32 UNL A   1      56.562  17.652   9.395  1.00  0.00    +0.000 H 
ATOM    124  H33 UNL A   1      54.193  18.554   9.256  1.00  0.00    +0.000 H 
ATOM    125  H34 UNL A   1      55.685  19.485  13.023  1.00  0.00    +0.000 H 
ATOM    126  H35 UNL A   1      60.490  18.025  12.985  1.00  0.00    +0.000 H 
ATOM    127  H36 UNL A   1      60.618  18.857  15.403  1.00  0.00    +0.000 H 
ATOM    128  H37 UNL A   1      51.096  22.069  14.921  1.00  0.00    +0.000 H 
ENDROOT
BRANCH   33   32
ATOM    130  H39 UNL A   1      52.442  21.694   9.870  1.00  0.00    +0.000 H 
ATOM    131  H40 UNL A   1      50.759  21.476   8.131  1.00  0.00    +0.000 H 
ATOM    118  H27 UNL A   1      50.184  17.446   9.200  1.00  0.00    +0.000 H 
ATOM    119  H28 UNL A   1      51.679  17.731  11.083  1.00  0.00    +0.000 H 
ATOM     90  C65 UNL A   1      51.931  20.804   9.755  1.00  0.00    +0.000 C 
ATOM     91  C66 UNL A   1      50.973  20.676   8.745  1.00  0.00    +0.000 C 
ATOM     29  C23 UNL A   1      50.308  19.459   8.569  1.00  0.00    +0.000 C 
ATOM     30  C24 UNL A   1      50.619  18.364   9.381  1.00  0.00    +0.000 C 
ATOM     31  C25 UNL A   1      51.515  18.515  10.433  1.00  0.00    +0.000 C 
ATOM     32  C26 UNL A   1      52.199  19.728  10.614  1.00  0.00    +0.000 C 
BRANCH   29    2
ATOM      1  O1  UNL A   1      49.067  18.243   6.994  1.00  0.00    +0.000 O 
ATOM      2  C1  UNL A   1      49.296  19.338   7.499  1.00  0.00    +0.000 C 
BRANCH    2    3
ATOM      3  N1  UNL A   1      48.624  20.457   7.069  1.00  0.00    +0.000 N 
ATOM     92  H1  UNL A   1      48.268  21.040   7.779  1.00  0.00    +0.000 H 
BRANCH    3    4
ATOM      4  C2  UNL A   1      48.370  20.893   5.707  1.00  0.00    +0.000 C 
ATOM     93  H2  UNL A   1      49.041  20.378   5.051  1.00  0.00    +0.000 H 
ATOM     94  H3  UNL A   1      48.521  21.951   5.669  1.00  0.00    +0.000 H 
BRANCH    4    5
ATOM      5  C3  UNL A   1      46.940  20.609   5.268  1.00  0.00    +0.000 C 
ATOM     95  H4  UNL A   1      46.603  21.431   4.674  1.00  0.00    +0.000 H 
ATOM     96  H5  UNL A   1      46.369  20.476   6.163  1.00  0.00    +0.000 H 
BRANCH    5    6
ATOM     97  H6  UNL A   1      46.817  18.497   5.125  1.00  0.00    +0.000 H 
ATOM     98  H7  UNL A   1      47.555  19.332   3.724  1.00  0.00    +0.000 H 
ATOM      6  C4  UNL A   1      46.771  19.327   4.451  1.00  0.00    +0.000 C 
BRANCH    6    7
ATOM     99  H8  UNL A   1      44.740  18.731   4.281  1.00  0.00    +0.000 H 
ATOM    100  H9  UNL A   1      45.696  18.689   2.767  1.00  0.00    +0.000 H 
ATOM      7  C5  UNL A   1      45.460  19.225   3.663  1.00  0.00    +0.000 C 
BRANCH    7    8
ATOM    101  H10 UNL A   1      45.414  21.353   3.670  1.00  0.00    +0.000 H 
ATOM    102  H11 UNL A   1      43.829  20.552   3.503  1.00  0.00    +0.000 H 
ATOM      8  C6  UNL A   1      44.859  20.562   3.209  1.00  0.00    +0.000 C 
BRANCH    8    9
ATOM      9  C7  UNL A   1      44.880  20.781   1.697  1.00  0.00    +0.000 C 
ATOM    103  H12 UNL A   1      45.890  20.720   1.349  1.00  0.00    +0.000 H 
ATOM    104  H13 UNL A   1      44.468  21.746   1.487  1.00  0.00    +0.000 H 
BRANCH    9   10
ATOM    105  H14 UNL A   1      44.571  18.970   0.748  1.00  0.00    +0.000 H 
ATOM     10  N2  UNL A   1      44.084  19.783   1.014  1.00  0.00    +0.000 N 
BRANCH   10   11
ATOM     11  C8  UNL A   1      42.757  19.799   0.686  1.00  0.00    +0.000 C 
ATOM     12  O2  UNL A   1      42.461  19.459  -0.459  1.00  0.00    +0.000 O 
BRANCH   11   13
ATOM    106  H15 UNL A   1      42.330  20.915   2.347  1.00  0.00    +0.000 H 
ATOM    107  H16 UNL A   1      41.648  18.910   3.443  1.00  0.00    +0.000 H 
ATOM    108  H17 UNL A   1      41.201  18.150   1.962  1.00  0.00    +0.000 H 
ATOM     13  C9  UNL A   1      41.749  20.250   1.742  1.00  0.00    +0.000 C 
ATOM     14  C10 UNL A   1      41.129  19.061   2.519  1.00  0.00    +0.000 C 
ATOM     15  C11 UNL A   1      39.666  19.445   2.785  1.00  0.00    +0.000 C 
ATOM     16  N3  UNL A   1      39.392  20.441   1.765  1.00  0.00    +0.000 N 
ATOM    109  H18 UNL A   1      39.550  19.857   3.764  1.00  0.00    +0.000 H 
ATOM    110  H19 UNL A   1      38.999  18.608   2.743  1.00  0.00    +0.000 H 
ATOM     17  C12 UNL A   1      38.278  20.999   1.214  1.00  0.00    +0.000 C 
ATOM    116  H25 UNL A   1      38.184  22.410  -0.422  1.00  0.00    +0.000 H 
ATOM    117  H26 UNL A   1      40.820  22.293  -0.445  1.00  0.00    +0.000 H 
ATOM     26  C20 UNL A   1      38.765  21.836   0.207  1.00  0.00    +0.000 C 
ATOM     27  C21 UNL A   1      40.185  21.776   0.182  1.00  0.00    +0.000 C 
ATOM     28  C22 UNL A   1      40.534  20.887   1.161  1.00  0.00    +0.000 C 
BRANCH   17   18
ATOM     18  C13 UNL A   1      36.873  20.769   1.513  1.00  0.00    +0.000 C 
ATOM     19  O3  UNL A   1      36.013  20.664   0.640  1.00  0.00    +0.000 O 
BRANCH   18   20
ATOM    111  H20 UNL A   1      36.659  22.686   3.334  1.00  0.00    +0.000 H 
ATOM    112  H21 UNL A   1      35.897  22.516   5.633  1.00  0.00    +0.000 H 
ATOM    113  H22 UNL A   1      35.216  20.366   6.527  1.00  0.00    +0.000 H 
ATOM    114  H23 UNL A   1      35.339  18.375   5.147  1.00  0.00    +0.000 H 
ATOM    115  H24 UNL A   1      36.127  18.533   2.852  1.00  0.00    +0.000 H 
ATOM     20  C14 UNL A   1      36.406  20.630   2.909  1.00  0.00    +0.000 C 
ATOM     21  C15 UNL A   1      36.368  21.773   3.715  1.00  0.00    +0.000 C 
ATOM     22  C16 UNL A   1      35.934  21.674   5.037  1.00  0.00    +0.000 C 
ATOM     23  C17 UNL A   1      35.550  20.436   5.554  1.00  0.00    +0.000 C 
ATOM     24  C18 UNL A   1      35.617  19.290   4.758  1.00  0.00    +0.000 C 
ATOM     25  C19 UNL A   1      36.058  19.381   3.436  1.00  0.00    +0.000 C 
ENDBRANCH   18   20
ENDBRANCH   17   18
ENDBRANCH   11   13
ENDBRANCH   10   11
ENDBRANCH    9   10
ENDBRANCH    8    9
ENDBRANCH    7    8
ENDBRANCH    6    7
ENDBRANCH    5    6
ENDBRANCH    4    5
ENDBRANCH    3    4
ENDBRANCH    2    3
ENDBRANCH   29    2
ENDBRANCH   33   32
BRANCH   37   38
ATOM     38  C31 UNL A   1      52.626  22.417  17.062  1.00  0.00    +0.000 C 
ATOM     39  C32 UNL A   1      52.426  23.795  16.907  1.00  0.00    +0.000 C 
ATOM     40  F1  UNL A   1      53.163  24.489  16.025  1.00  0.00    +0.000 F 
ATOM     41  C33 UNL A   1      51.474  24.471  17.667  1.00  0.00    +0.000 C 
ATOM     42  F2  UNL A   1      51.314  25.794  17.517  1.00  0.00    +0.000 F 
ATOM     43  C34 UNL A   1      50.691  23.779  18.579  1.00  0.00    +0.000 C 
ATOM     44  F3  UNL A   1      49.763  24.429  19.296  1.00  0.00    +0.000 F 
ATOM     45  C35 UNL A   1      50.870  22.415  18.748  1.00  0.00    +0.000 C 
ATOM     46  F4  UNL A   1      50.105  21.743  19.620  1.00  0.00    +0.000 F 
ATOM     47  C36 UNL A   1      51.835  21.740  18.004  1.00  0.00    +0.000 C 
ATOM     48  F5  UNL A   1      51.982  20.419  18.187  1.00  0.00    +0.000 F 
ENDBRANCH   37   38
BRANCH   54   55
ATOM     65  F10 UNL A   1      59.039  17.868  18.002  1.00  0.00    +0.000 F 
ATOM     55  C42 UNL A   1      59.442  20.122  17.353  1.00  0.00    +0.000 C 
ATOM     56  C43 UNL A   1      60.220  21.277  17.524  1.00  0.00    +0.000 C 
ATOM     57  F6  UNL A   1      59.969  22.373  16.791  1.00  0.00    +0.000 F 
ATOM     58  C44 UNL A   1      61.287  21.293  18.417  1.00  0.00    +0.000 C 
ATOM     59  F7  UNL A   1      62.047  22.391  18.527  1.00  0.00    +0.000 F 
ATOM     60  C45 UNL A   1      61.575  20.170  19.177  1.00  0.00    +0.000 C 
ATOM     61  F8  UNL A   1      62.603  20.189  20.037  1.00  0.00    +0.000 F 
ATOM     62  C46 UNL A   1      60.807  19.024  19.038  1.00  0.00    +0.000 C 
ATOM     63  F9  UNL A   1      61.079  17.941  19.779  1.00  0.00    +0.000 F 
ATOM     64  C47 UNL A   1      59.756  18.995  18.127  1.00  0.00    +0.000 C 
ENDBRANCH   54   55
BRANCH   69   70
ATOM     70  C51 UNL A   1      58.846  17.616  10.890  1.00  0.00    +0.000 C 
ATOM     71  C52 UNL A   1      58.986  16.222  10.885  1.00  0.00    +0.000 C 
ATOM     72  F11 UNL A   1      58.279  15.475  11.745  1.00  0.00    +0.000 F 
ATOM     73  C53 UNL A   1      59.882  15.594  10.023  1.00  0.00    +0.000 C 
ATOM     74  F12 UNL A   1      60.032  14.263  10.070  1.00  0.00    +0.000 F 
ATOM     75  C54 UNL A   1      60.631  16.344   9.128  1.00  0.00    +0.000 C 
ATOM     76  F13 UNL A   1      61.489  15.738   8.297  1.00  0.00    +0.000 F 
ATOM     77  C55 UNL A   1      60.494  17.723   9.101  1.00  0.00    +0.000 C 
ATOM     78  F14 UNL A   1      61.202  18.451   8.227  1.00  0.00    +0.000 F 
ATOM     79  C56 UNL A   1      59.622  18.355   9.983  1.00  0.00    +0.000 C 
ATOM     80  F15 UNL A   1      59.518  19.692   9.944  1.00  0.00    +0.000 F 
ENDBRANCH   69   70
TORSDOF 17
ENDMDL
MODEL 8
REMARK VINA RESULT:     -10.9      1.119      3.368
ROOT
ATOM    129  H38 UNL A   1      38.246  28.594  27.276  1.00  0.00    +0.000 H 
ATOM     33  C27 UNL A   1      38.199  29.910  29.810  1.00  0.00    +0.000 C 
ATOM     34  C28 UNL A   1      39.267  29.012  29.257  1.00  0.00    +0.000 C 
ATOM     35  N4  UNL A   1      40.399  28.648  29.805  1.00  0.00    +0.000 N 
ATOM     36  C29 UNL A   1      41.008  27.797  28.893  1.00  0.00    +0.000 C 
ATOM     37  C30 UNL A   1      42.207  27.176  28.997  1.00  0.00    +0.000 C 
ATOM     49  C37 UNL A   1      43.099  27.312  30.120  1.00  0.00    +0.000 C 
ATOM     50  C38 UNL A   1      44.362  26.771  30.290  1.00  0.00    +0.000 C 
ATOM     51  C39 UNL A   1      44.828  27.129  31.559  1.00  0.00    +0.000 C 
ATOM     52  C40 UNL A   1      43.874  27.932  32.163  1.00  0.00    +0.000 C 
ATOM     53  N5  UNL A   1      42.820  28.037  31.270  1.00  0.00    +0.000 N 
ATOM     54  C41 UNL A   1      43.919  28.552  33.462  1.00  0.00    +0.000 C 
ATOM     66  C48 UNL A   1      42.965  29.369  33.969  1.00  0.00    +0.000 C 
ATOM     67  N6  UNL A   1      41.768  29.772  33.395  1.00  0.00    +0.000 N 
ATOM     68  C49 UNL A   1      41.181  30.530  34.289  1.00  0.00    +0.000 C 
ATOM     69  C50 UNL A   1      39.864  31.244  34.202  1.00  0.00    +0.000 C 
ATOM     81  C57 UNL A   1      39.127  31.118  33.083  1.00  0.00    +0.000 C 
ATOM     82  C58 UNL A   1      37.828  31.741  32.859  1.00  0.00    +0.000 C 
ATOM     83  C59 UNL A   1      37.352  31.337  31.674  1.00  0.00    +0.000 C 
ATOM     84  C60 UNL A   1      38.341  30.468  31.029  1.00  0.00    +0.000 C 
ATOM     85  N7  UNL A   1      39.365  30.400  31.937  1.00  0.00    +0.000 N 
ATOM     86  C61 UNL A   1      41.935  30.685  35.538  1.00  0.00    +0.000 C 
ATOM     87  C62 UNL A   1      43.031  29.988  35.277  1.00  0.00    +0.000 C 
ATOM     88  C63 UNL A   1      40.114  27.684  27.760  1.00  0.00    +0.000 C 
ATOM     89  C64 UNL A   1      39.037  28.443  27.920  1.00  0.00    +0.000 C 
ATOM    120  H29 UNL A   1      44.874  26.200  29.597  1.00  0.00    +0.000 H 
ATOM    121  H30 UNL A   1      45.728  26.844  31.974  1.00  0.00    +0.000 H 
ATOM    122  H31 UNL A   1      41.995  28.551  31.427  1.00  0.00    +0.000 H 
ATOM    123  H32 UNL A   1      37.354  32.390  33.508  1.00  0.00    +0.000 H 
ATOM    124  H33 UNL A   1      36.434  31.594  31.278  1.00  0.00    +0.000 H 
ATOM    125  H34 UNL A   1      40.190  29.886  31.782  1.00  0.00    +0.000 H 
ATOM    126  H35 UNL A   1      41.679  31.202  36.395  1.00  0.00    +0.000 H 
ATOM    127  H36 UNL A   1      43.831  29.896  35.923  1.00  0.00    +0.000 H 
ATOM    128  H37 UNL A   1      40.291  27.089  26.934  1.00  0.00    +0.000 H 
ENDROOT
BRANCH   33   32
ATOM    130  H39 UNL A   1      36.009  28.366  29.368  1.00  0.00    +0.000 H 
ATOM    131  H40 UNL A   1      33.973  28.965  28.186  1.00  0.00    +0.000 H 
ATOM    118  H27 UNL A   1      35.489  32.839  27.548  1.00  0.00    +0.000 H 
ATOM    119  H28 UNL A   1      37.609  32.169  28.508  1.00  0.00    +0.000 H 
ATOM     90  C65 UNL A   1      35.916  29.303  28.944  1.00  0.00    +0.000 C 
ATOM     91  C66 UNL A   1      34.738  29.651  28.277  1.00  0.00    +0.000 C 
ATOM     29  C23 UNL A   1      34.600  30.931  27.733  1.00  0.00    +0.000 C 
ATOM     30  C24 UNL A   1      35.624  31.872  27.881  1.00  0.00    +0.000 C 
ATOM     31  C25 UNL A   1      36.823  31.500  28.477  1.00  0.00    +0.000 C 
ATOM     32  C26 UNL A   1      36.972  30.221  29.037  1.00  0.00    +0.000 C 
BRANCH   29    2
ATOM      1  O1  UNL A   1      32.693  32.254  27.397  1.00  0.00    +0.000 O 
ATOM      2  C1  UNL A   1      33.350  31.285  27.028  1.00  0.00    +0.000 C 
BRANCH    2    3
ATOM      3  N1  UNL A   1      32.927  30.519  25.970  1.00  0.00    +0.000 N 
ATOM     92  H1  UNL A   1      32.613  31.018  25.180  1.00  0.00    +0.000 H 
BRANCH    3    4
ATOM      4  C2  UNL A   1      32.881  29.071  25.860  1.00  0.00    +0.000 C 
ATOM     93  H2  UNL A   1      31.898  28.781  25.553  1.00  0.00    +0.000 H 
ATOM     94  H3  UNL A   1      33.129  28.662  26.817  1.00  0.00    +0.000 H 
BRANCH    4    5
ATOM      5  C3  UNL A   1      33.888  28.538  24.850  1.00  0.00    +0.000 C 
ATOM     95  H4  UNL A   1      34.855  28.911  25.112  1.00  0.00    +0.000 H 
ATOM     96  H5  UNL A   1      33.557  28.871  23.888  1.00  0.00    +0.000 H 
BRANCH    5    6
ATOM     97  H6  UNL A   1      33.328  26.612  25.537  1.00  0.00    +0.000 H 
ATOM     98  H7  UNL A   1      34.998  26.762  24.910  1.00  0.00    +0.000 H 
ATOM      6  C4  UNL A   1      33.967  27.012  24.778  1.00  0.00    +0.000 C 
BRANCH    6    7
ATOM     99  H8  UNL A   1      32.806  25.654  23.630  1.00  0.00    +0.000 H 
ATOM    100  H9  UNL A   1      34.444  26.012  22.997  1.00  0.00    +0.000 H 
ATOM      7  C5  UNL A   1      33.548  26.400  23.436  1.00  0.00    +0.000 C 
BRANCH    7    8
ATOM    101  H10 UNL A   1      33.483  27.248  21.484  1.00  0.00    +0.000 H 
ATOM    102  H11 UNL A   1      33.109  28.368  22.820  1.00  0.00    +0.000 H 
ATOM      8  C6  UNL A   1      32.970  27.388  22.413  1.00  0.00    +0.000 C 
BRANCH    8    9
ATOM      9  C7  UNL A   1      31.471  27.227  22.161  1.00  0.00    +0.000 C 
ATOM    103  H12 UNL A   1      31.271  26.215  21.874  1.00  0.00    +0.000 H 
ATOM    104  H13 UNL A   1      31.183  27.902  21.383  1.00  0.00    +0.000 H 
BRANCH    9   10
ATOM    105  H14 UNL A   1      31.050  28.294  23.881  1.00  0.00    +0.000 H 
ATOM     10  N2  UNL A   1      30.706  27.541  23.349  1.00  0.00    +0.000 N 
BRANCH   10   11
ATOM     11  C8  UNL A   1      29.576  26.950  23.841  1.00  0.00    +0.000 C 
ATOM     12  O2  UNL A   1      28.497  27.385  23.440  1.00  0.00    +0.000 O 
BRANCH   11   13
ATOM    106  H15 UNL A   1      28.712  25.601  25.115  1.00  0.00    +0.000 H 
ATOM    107  H16 UNL A   1      30.016  26.528  26.883  1.00  0.00    +0.000 H 
ATOM    108  H17 UNL A   1      31.273  27.024  25.813  1.00  0.00    +0.000 H 
ATOM     13  C9  UNL A   1      29.728  25.817  24.856  1.00  0.00    +0.000 C 
ATOM     14  C10 UNL A   1      30.622  26.211  26.059  1.00  0.00    +0.000 C 
ATOM     15  C11 UNL A   1      31.412  24.948  26.432  1.00  0.00    +0.000 C 
ATOM     16  N3  UNL A   1      31.379  24.162  25.212  1.00  0.00    +0.000 N 
ATOM    109  H18 UNL A   1      30.942  24.426  27.238  1.00  0.00    +0.000 H 
ATOM    110  H19 UNL A   1      32.406  25.161  26.767  1.00  0.00    +0.000 H 
ATOM     17  C12 UNL A   1      32.075  23.105  24.709  1.00  0.00    +0.000 C 
ATOM    116  H25 UNL A   1      31.872  22.205  22.752  1.00  0.00    +0.000 H 
ATOM    117  H26 UNL A   1      29.968  23.983  22.326  1.00  0.00    +0.000 H 
ATOM     26  C20 UNL A   1      31.559  22.924  23.423  1.00  0.00    +0.000 C 
ATOM     27  C21 UNL A   1      30.537  23.881  23.181  1.00  0.00    +0.000 C 
ATOM     28  C22 UNL A   1      30.464  24.639  24.316  1.00  0.00    +0.000 C 
BRANCH   17   18
ATOM     18  C13 UNL A   1      33.164  22.339  25.296  1.00  0.00    +0.000 C 
ATOM     19  O3  UNL A   1      32.981  21.329  25.974  1.00  0.00    +0.000 O 
BRANCH   18   20
ATOM    111  H20 UNL A   1      34.742  23.622  26.998  1.00  0.00    +0.000 H 
ATOM    112  H21 UNL A   1      37.057  24.295  26.708  1.00  0.00    +0.000 H 
ATOM    113  H22 UNL A   1      38.210  23.804  24.631  1.00  0.00    +0.000 H 
ATOM    114  H23 UNL A   1      37.043  22.685  22.822  1.00  0.00    +0.000 H 
ATOM    115  H24 UNL A   1      34.717  22.032  23.096  1.00  0.00    +0.000 H 
ATOM     20  C14 UNL A   1      34.572  22.736  25.086  1.00  0.00    +0.000 C 
ATOM     21  C15 UNL A   1      35.235  23.413  26.116  1.00  0.00    +0.000 C 
ATOM     22  C16 UNL A   1      36.563  23.803  25.947  1.00  0.00    +0.000 C 
ATOM     23  C17 UNL A   1      37.223  23.527  24.749  1.00  0.00    +0.000 C 
ATOM     24  C18 UNL A   1      36.553  22.879  23.710  1.00  0.00    +0.000 C 
ATOM     25  C19 UNL A   1      35.221  22.494  23.869  1.00  0.00    +0.000 C 
ENDBRANCH   18   20
ENDBRANCH   17   18
ENDBRANCH   11   13
ENDBRANCH   10   11
ENDBRANCH    9   10
ENDBRANCH    8    9
ENDBRANCH    7    8
ENDBRANCH    6    7
ENDBRANCH    5    6
ENDBRANCH    4    5
ENDBRANCH    3    4
ENDBRANCH    2    3
ENDBRANCH   29    2
ENDBRANCH   33   32
BRANCH   37   38
ATOM     38  C31 UNL A   1      42.637  26.278  27.875  1.00  0.00    +0.000 C 
ATOM     39  C32 UNL A   1      42.132  24.977  27.738  1.00  0.00    +0.000 C 
ATOM     40  F1  UNL A   1      41.317  24.468  28.675  1.00  0.00    +0.000 F 
ATOM     41  C33 UNL A   1      42.473  24.188  26.642  1.00  0.00    +0.000 C 
ATOM     42  F2  UNL A   1      41.996  22.939  26.542  1.00  0.00    +0.000 F 
ATOM     43  C34 UNL A   1      43.306  24.691  25.653  1.00  0.00    +0.000 C 
ATOM     44  F3  UNL A   1      43.618  23.936  24.590  1.00  0.00    +0.000 F 
ATOM     45  C35 UNL A   1      43.815  25.976  25.767  1.00  0.00    +0.000 C 
ATOM     46  F4  UNL A   1      44.609  26.467  24.805  1.00  0.00    +0.000 F 
ATOM     47  C36 UNL A   1      43.492  26.759  26.871  1.00  0.00    +0.000 C 
ATOM     48  F5  UNL A   1      43.997  28.000  26.951  1.00  0.00    +0.000 F 
ENDBRANCH   37   38
BRANCH   54   55
ATOM     65  F10 UNL A   1      44.087  26.380  35.290  1.00  0.00    +0.000 F 
ATOM     55  C42 UNL A   1      45.118  28.295  34.323  1.00  0.00    +0.000 C 
ATOM     56  C43 UNL A   1      46.242  29.134  34.282  1.00  0.00    +0.000 C 
ATOM     57  F6  UNL A   1      46.275  30.174  33.434  1.00  0.00    +0.000 F 
ATOM     58  C44 UNL A   1      47.353  28.880  35.080  1.00  0.00    +0.000 C 
ATOM     59  F7  UNL A   1      48.435  29.666  34.988  1.00  0.00    +0.000 F 
ATOM     60  C45 UNL A   1      47.349  27.804  35.956  1.00  0.00    +0.000 C 
ATOM     61  F8  UNL A   1      48.420  27.563  36.725  1.00  0.00    +0.000 F 
ATOM     62  C46 UNL A   1      46.241  26.974  36.028  1.00  0.00    +0.000 C 
ATOM     63  F9  UNL A   1      46.232  25.941  36.880  1.00  0.00    +0.000 F 
ATOM     64  C47 UNL A   1      45.139  27.209  35.212  1.00  0.00    +0.000 C 
ENDBRANCH   54   55
BRANCH   69   70
ATOM     70  C51 UNL A   1      39.360  32.066  35.331  1.00  0.00    +0.000 C 
ATOM     71  C52 UNL A   1      39.695  33.422  35.444  1.00  0.00    +0.000 C 
ATOM     72  F11 UNL A   1      40.500  33.990  34.535  1.00  0.00    +0.000 F 
ATOM     73  C53 UNL A   1      39.236  34.187  36.514  1.00  0.00    +0.000 C 
ATOM     74  F12 UNL A   1      39.608  35.470  36.624  1.00  0.00    +0.000 F 
ATOM     75  C54 UNL A   1      38.407  33.622  37.471  1.00  0.00    +0.000 C 
ATOM     76  F13 UNL A   1      37.962  34.360  38.496  1.00  0.00    +0.000 F 
ATOM     77  C55 UNL A   1      38.046  32.287  37.368  1.00  0.00    +0.000 C 
ATOM     78  F14 UNL A   1      37.232  31.740  38.282  1.00  0.00    +0.000 F 
ATOM     79  C56 UNL A   1      38.529  31.512  36.318  1.00  0.00    +0.000 C 
ATOM     80  F15 UNL A   1      38.174  30.221  36.249  1.00  0.00    +0.000 F 
ENDBRANCH   69   70
TORSDOF 17
ENDMDL
MODEL 9
REMARK VINA RESULT:     -10.9     17.226     23.052
ROOT
ATOM    129  H38 UNL A   1      23.498  36.900  46.855  1.00  0.00    +0.000 H 
ATOM     33  C27 UNL A   1      25.807  36.119  45.367  1.00  0.00    +0.000 C 
ATOM     34  C28 UNL A   1      25.679  37.251  46.344  1.00  0.00    +0.000 C 
ATOM     35  N4  UNL A   1      26.590  38.110  46.728  1.00  0.00    +0.000 N 
ATOM     36  C29 UNL A   1      25.956  38.962  47.623  1.00  0.00    +0.000 C 
ATOM     37  C30 UNL A   1      26.485  40.005  48.306  1.00  0.00    +0.000 C 
ATOM     49  C37 UNL A   1      27.864  40.416  48.224  1.00  0.00    +0.000 C 
ATOM     50  C38 UNL A   1      28.508  41.422  48.924  1.00  0.00    +0.000 C 
ATOM     51  C39 UNL A   1      29.831  41.491  48.477  1.00  0.00    +0.000 C 
ATOM     52  C40 UNL A   1      30.025  40.498  47.531  1.00  0.00    +0.000 C 
ATOM     53  N5  UNL A   1      28.811  39.845  47.386  1.00  0.00    +0.000 N 
ATOM     54  C41 UNL A   1      31.227  40.174  46.808  1.00  0.00    +0.000 C 
ATOM     66  C48 UNL A   1      31.356  39.151  45.928  1.00  0.00    +0.000 C 
ATOM     67  N6  UNL A   1      30.405  38.227  45.522  1.00  0.00    +0.000 N 
ATOM     68  C49 UNL A   1      31.002  37.465  44.638  1.00  0.00    +0.000 C 
ATOM     69  C50 UNL A   1      30.453  36.296  43.875  1.00  0.00    +0.000 C 
ATOM     81  C57 UNL A   1      29.171  35.936  44.069  1.00  0.00    +0.000 C 
ATOM     82  C58 UNL A   1      28.498  34.832  43.395  1.00  0.00    +0.000 C 
ATOM     83  C59 UNL A   1      27.212  34.815  43.769  1.00  0.00    +0.000 C 
ATOM     84  C60 UNL A   1      26.983  35.874  44.756  1.00  0.00    +0.000 C 
ATOM     85  N7  UNL A   1      28.205  36.485  44.876  1.00  0.00    +0.000 N 
ATOM     86  C61 UNL A   1      32.400  37.827  44.376  1.00  0.00    +0.000 C 
ATOM     87  C62 UNL A   1      32.577  38.838  45.214  1.00  0.00    +0.000 C 
ATOM     88  C63 UNL A   1      24.578  38.529  47.714  1.00  0.00    +0.000 C 
ATOM     89  C64 UNL A   1      24.363  37.452  46.968  1.00  0.00    +0.000 C 
ATOM    120  H29 UNL A   1      28.084  42.020  49.652  1.00  0.00    +0.000 H 
ATOM    121  H30 UNL A   1      30.541  42.168  48.798  1.00  0.00    +0.000 H 
ATOM    122  H31 UNL A   1      28.646  39.089  46.779  1.00  0.00    +0.000 H 
ATOM    123  H32 UNL A   1      28.941  34.172  42.737  1.00  0.00    +0.000 H 
ATOM    124  H33 UNL A   1      26.495  34.161  43.418  1.00  0.00    +0.000 H 
ATOM    125  H34 UNL A   1      28.372  37.243  45.481  1.00  0.00    +0.000 H 
ATOM    126  H35 UNL A   1      33.069  37.405  43.712  1.00  0.00    +0.000 H 
ATOM    127  H36 UNL A   1      33.470  39.338  45.343  1.00  0.00    +0.000 H 
ATOM    128  H37 UNL A   1      23.856  38.996  48.286  1.00  0.00    +0.000 H 
ENDROOT
BRANCH   33   32
ATOM    130  H39 UNL A   1      25.245  33.638  46.316  1.00  0.00    +0.000 H 
ATOM    131  H40 UNL A   1      23.290  32.271  45.858  1.00  0.00    +0.000 H 
ATOM    118  H27 UNL A   1      21.710  35.343  43.455  1.00  0.00    +0.000 H 
ATOM    119  H28 UNL A   1      23.763  36.602  43.714  1.00  0.00    +0.000 H 
ATOM     90  C65 UNL A   1      24.513  33.982  45.674  1.00  0.00    +0.000 C 
ATOM     91  C66 UNL A   1      23.382  33.201  45.423  1.00  0.00    +0.000 C 
ATOM     29  C23 UNL A   1      22.377  33.684  44.581  1.00  0.00    +0.000 C 
ATOM     30  C24 UNL A   1      22.487  34.957  44.013  1.00  0.00    +0.000 C 
ATOM     31  C25 UNL A   1      23.646  35.701  44.202  1.00  0.00    +0.000 C 
ATOM     32  C26 UNL A   1      24.659  35.233  45.054  1.00  0.00    +0.000 C 
BRANCH   29    2
ATOM      1  O1  UNL A   1      21.318  31.643  44.121  1.00  0.00    +0.000 O 
ATOM      2  C1  UNL A   1      21.187  32.846  44.322  1.00  0.00    +0.000 C 
BRANCH    2    3
ATOM      3  N1  UNL A   1      19.941  33.425  44.298  1.00  0.00    +0.000 N 
ATOM     92  H1  UNL A   1      19.823  34.208  44.883  1.00  0.00    +0.000 H 
BRANCH    3    4
ATOM      4  C2  UNL A   1      18.776  33.034  43.524  1.00  0.00    +0.000 C 
ATOM     93  H2  UNL A   1      19.102  32.473  42.672  1.00  0.00    +0.000 H 
ATOM     94  H3  UNL A   1      18.261  33.924  43.233  1.00  0.00    +0.000 H 
BRANCH    4    5
ATOM      5  C3  UNL A   1      17.808  32.178  44.332  1.00  0.00    +0.000 C 
ATOM     95  H4  UNL A   1      16.956  32.776  44.574  1.00  0.00    +0.000 H 
ATOM     96  H5  UNL A   1      18.346  31.845  45.195  1.00  0.00    +0.000 H 
BRANCH    5    6
ATOM     97  H6  UNL A   1      17.379  31.099  42.558  1.00  0.00    +0.000 H 
ATOM     98  H7  UNL A   1      16.325  30.745  43.961  1.00  0.00    +0.000 H 
ATOM      6  C4  UNL A   1      17.320  30.921  43.611  1.00  0.00    +0.000 C 
BRANCH    6    7
ATOM     99  H8  UNL A   1      18.600  29.779  44.862  1.00  0.00    +0.000 H 
ATOM    100  H9  UNL A   1      18.787  29.511  43.101  1.00  0.00    +0.000 H 
ATOM      7  C5  UNL A   1      18.112  29.644  43.920  1.00  0.00    +0.000 C 
BRANCH    7    8
ATOM    101  H10 UNL A   1      17.607  27.796  44.849  1.00  0.00    +0.000 H 
ATOM    102  H11 UNL A   1      17.435  27.835  43.074  1.00  0.00    +0.000 H 
ATOM      8  C6  UNL A   1      17.281  28.356  43.996  1.00  0.00    +0.000 C 
BRANCH    8    9
ATOM      9  C7  UNL A   1      15.775  28.585  44.123  1.00  0.00    +0.000 C 
ATOM    103  H12 UNL A   1      15.399  28.961  43.194  1.00  0.00    +0.000 H 
ATOM    104  H13 UNL A   1      15.603  29.289  44.910  1.00  0.00    +0.000 H 
BRANCH    9   10
ATOM    105  H14 UNL A   1      15.061  27.130  45.407  1.00  0.00    +0.000 H 
ATOM     10  N2  UNL A   1      15.086  27.354  44.449  1.00  0.00    +0.000 N 
BRANCH   10   11
ATOM     11  C8  UNL A   1      14.464  26.458  43.625  1.00  0.00    +0.000 C 
ATOM     12  O2  UNL A   1      13.321  26.120  43.931  1.00  0.00    +0.000 O 
BRANCH   11   13
ATOM    106  H15 UNL A   1      16.246  26.001  42.729  1.00  0.00    +0.000 H 
ATOM    107  H16 UNL A   1      15.659  27.473  40.949  1.00  0.00    +0.000 H 
ATOM    108  H17 UNL A   1      13.970  27.233  41.191  1.00  0.00    +0.000 H 
ATOM     13  C9  UNL A   1      15.226  25.932  42.410  1.00  0.00    +0.000 C 
ATOM     14  C10 UNL A   1      14.910  26.727  41.119  1.00  0.00    +0.000 C 
ATOM     15  C11 UNL A   1      14.911  25.700  39.977  1.00  0.00    +0.000 C 
ATOM     16  N3  UNL A   1      14.670  24.442  40.660  1.00  0.00    +0.000 N 
ATOM    109  H18 UNL A   1      15.854  25.688  39.473  1.00  0.00    +0.000 H 
ATOM    110  H19 UNL A   1      14.183  25.913  39.222  1.00  0.00    +0.000 H 
ATOM     17  C12 UNL A   1      14.270  23.192  40.298  1.00  0.00    +0.000 C 
ATOM    116  H25 UNL A   1      13.871  21.509  41.597  1.00  0.00    +0.000 H 
ATOM    117  H26 UNL A   1      14.554  23.105  43.585  1.00  0.00    +0.000 H 
ATOM     26  C20 UNL A   1      14.165  22.493  41.504  1.00  0.00    +0.000 C 
ATOM     27  C21 UNL A   1      14.524  23.346  42.582  1.00  0.00    +0.000 C 
ATOM     28  C22 UNL A   1      14.822  24.554  42.014  1.00  0.00    +0.000 C 
BRANCH   17   18
ATOM     18  C13 UNL A   1      13.944  22.659  38.984  1.00  0.00    +0.000 C 
ATOM     19  O3  UNL A   1      12.952  21.963  38.773  1.00  0.00    +0.000 O 
BRANCH   18   20
ATOM    111  H20 UNL A   1      13.406  24.301  36.972  1.00  0.00    +0.000 H 
ATOM    112  H21 UNL A   1      14.769  24.817  35.030  1.00  0.00    +0.000 H 
ATOM    113  H22 UNL A   1      16.935  23.758  34.754  1.00  0.00    +0.000 H 
ATOM    114  H23 UNL A   1      17.723  22.148  36.387  1.00  0.00    +0.000 H 
ATOM    115  H24 UNL A   1      16.352  21.606  38.321  1.00  0.00    +0.000 H 
ATOM     20  C14 UNL A   1      14.798  22.950  37.813  1.00  0.00    +0.000 C 
ATOM     21  C15 UNL A   1      14.328  23.853  36.853  1.00  0.00    +0.000 C 
ATOM     22  C16 UNL A   1      15.109  24.146  35.736  1.00  0.00    +0.000 C 
ATOM     23  C17 UNL A   1      16.351  23.530  35.574  1.00  0.00    +0.000 C 
ATOM     24  C18 UNL A   1      16.807  22.607  36.516  1.00  0.00    +0.000 C 
ATOM     25  C19 UNL A   1      16.026  22.302  37.633  1.00  0.00    +0.000 C 
ENDBRANCH   18   20
ENDBRANCH   17   18
ENDBRANCH   11   13
ENDBRANCH   10   11
ENDBRANCH    9   10
ENDBRANCH    8    9
ENDBRANCH    7    8
ENDBRANCH    6    7
ENDBRANCH    5    6
ENDBRANCH    4    5
ENDBRANCH    3    4
ENDBRANCH    2    3
ENDBRANCH   29    2
ENDBRANCH   33   32
BRANCH   37   38
ATOM     38  C31 UNL A   1      25.578  40.795  49.203  1.00  0.00    +0.000 C 
ATOM     39  C32 UNL A   1      24.846  41.892  48.729  1.00  0.00    +0.000 C 
ATOM     40  F1  UNL A   1      25.017  42.323  47.469  1.00  0.00    +0.000 F 
ATOM     41  C33 UNL A   1      23.942  42.559  49.551  1.00  0.00    +0.000 C 
ATOM     42  F2  UNL A   1      23.267  43.619  49.082  1.00  0.00    +0.000 F 
ATOM     43  C34 UNL A   1      23.738  42.131  50.854  1.00  0.00    +0.000 C 
ATOM     44  F3  UNL A   1      22.853  42.764  51.638  1.00  0.00    +0.000 F 
ATOM     45  C35 UNL A   1      24.449  41.047  51.344  1.00  0.00    +0.000 C 
ATOM     46  F4  UNL A   1      24.243  40.623  52.599  1.00  0.00    +0.000 F 
ATOM     47  C36 UNL A   1      25.369  40.390  50.530  1.00  0.00    +0.000 C 
ATOM     48  F5  UNL A   1      26.039  39.342  51.032  1.00  0.00    +0.000 F 
ENDBRANCH   37   38
BRANCH   54   55
ATOM     65  F10 UNL A   1      33.375  39.358  48.483  1.00  0.00    +0.000 F 
ATOM     55  C42 UNL A   1      32.444  41.015  47.051  1.00  0.00    +0.000 C 
ATOM     56  C43 UNL A   1      32.587  42.280  46.462  1.00  0.00    +0.000 C 
ATOM     57  F6  UNL A   1      31.642  42.749  45.633  1.00  0.00    +0.000 F 
ATOM     58  C44 UNL A   1      33.726  43.048  46.688  1.00  0.00    +0.000 C 
ATOM     59  F7  UNL A   1      33.864  44.232  46.075  1.00  0.00    +0.000 F 
ATOM     60  C45 UNL A   1      34.724  42.581  47.531  1.00  0.00    +0.000 C 
ATOM     61  F8  UNL A   1      35.818  43.324  47.748  1.00  0.00    +0.000 F 
ATOM     62  C46 UNL A   1      34.592  41.342  48.139  1.00  0.00    +0.000 C 
ATOM     63  F9  UNL A   1      35.551  40.895  48.961  1.00  0.00    +0.000 F 
ATOM     64  C47 UNL A   1      33.468  40.560  47.894  1.00  0.00    +0.000 C 
ENDBRANCH   54   55
BRANCH   69   70
ATOM     70  C51 UNL A   1      31.293  35.547  42.906  1.00  0.00    +0.000 C 
ATOM     71  C52 UNL A   1      31.998  34.401  43.295  1.00  0.00    +0.000 C 
ATOM     72  F11 UNL A   1      31.936  33.976  44.566  1.00  0.00    +0.000 F 
ATOM     73  C53 UNL A   1      32.799  33.710  42.390  1.00  0.00    +0.000 C 
ATOM     74  F12 UNL A   1      33.500  32.642  42.798  1.00  0.00    +0.000 F 
ATOM     75  C54 UNL A   1      32.886  34.131  41.071  1.00  0.00    +0.000 C 
ATOM     76  F13 UNL A   1      33.653  33.464  40.201  1.00  0.00    +0.000 F 
ATOM     77  C55 UNL A   1      32.181  35.252  40.659  1.00  0.00    +0.000 C 
ATOM     78  F14 UNL A   1      32.247  35.655  39.383  1.00  0.00    +0.000 F 
ATOM     79  C56 UNL A   1      31.404  35.962  41.570  1.00  0.00    +0.000 C 
ATOM     80  F15 UNL A   1      30.742  37.049  41.148  1.00  0.00    +0.000 F 
ENDBRANCH   69   70
TORSDOF 17
ENDMDL
MODEL 10
REMARK VINA RESULT:     -10.9     37.196     42.934
ROOT
ATOM    129  H38 UNL A   1      15.014  56.570   4.412  1.00  0.00    +0.000 H 
ATOM     33  C27 UNL A   1      13.770  54.014   4.685  1.00  0.00    +0.000 C 
ATOM     34  C28 UNL A   1      14.821  54.426   3.696  1.00  0.00    +0.000 C 
ATOM     35  N4  UNL A   1      15.395  53.711   2.762  1.00  0.00    +0.000 N 
ATOM     36  C29 UNL A   1      16.273  54.568   2.112  1.00  0.00    +0.000 C 
ATOM     37  C30 UNL A   1      17.110  54.289   1.084  1.00  0.00    +0.000 C 
ATOM     49  C37 UNL A   1      17.243  52.991   0.472  1.00  0.00    +0.000 C 
ATOM     50  C38 UNL A   1      18.107  52.596  -0.535  1.00  0.00    +0.000 C 
ATOM     51  C39 UNL A   1      17.841  51.258  -0.842  1.00  0.00    +0.000 C 
ATOM     52  C40 UNL A   1      16.843  50.805   0.004  1.00  0.00    +0.000 C 
ATOM     53  N5  UNL A   1      16.485  51.877   0.806  1.00  0.00    +0.000 N 
ATOM     54  C41 UNL A   1      16.254  49.493   0.071  1.00  0.00    +0.000 C 
ATOM     66  C48 UNL A   1      15.310  49.107   0.963  1.00  0.00    +0.000 C 
ATOM     67  N6  UNL A   1      14.703  49.849   1.965  1.00  0.00    +0.000 N 
ATOM     68  C49 UNL A   1      13.839  49.044   2.533  1.00  0.00    +0.000 C 
ATOM     69  C50 UNL A   1      12.909  49.314   3.680  1.00  0.00    +0.000 C 
ATOM     81  C57 UNL A   1      12.903  50.537   4.240  1.00  0.00    +0.000 C 
ATOM     82  C58 UNL A   1      12.052  50.949   5.350  1.00  0.00    +0.000 C 
ATOM     83  C59 UNL A   1      12.256  52.250   5.593  1.00  0.00    +0.000 C 
ATOM     84  C60 UNL A   1      13.296  52.752   4.691  1.00  0.00    +0.000 C 
ATOM     85  N7  UNL A   1      13.626  51.663   3.927  1.00  0.00    +0.000 N 
ATOM     86  C61 UNL A   1      13.791  47.699   1.947  1.00  0.00    +0.000 C 
ATOM     87  C62 UNL A   1      14.733  47.779   1.018  1.00  0.00    +0.000 C 
ATOM     88  C63 UNL A   1      16.148  55.862   2.747  1.00  0.00    +0.000 C 
ATOM     89  C64 UNL A   1      15.286  55.821   3.756  1.00  0.00    +0.000 C 
ATOM    120  H29 UNL A   1      18.825  53.188  -0.983  1.00  0.00    +0.000 H 
ATOM    121  H30 UNL A   1      18.310  50.703  -1.575  1.00  0.00    +0.000 H 
ATOM    122  H31 UNL A   1      15.796  51.852   1.508  1.00  0.00    +0.000 H 
ATOM    123  H32 UNL A   1      11.400  50.336   5.864  1.00  0.00    +0.000 H 
ATOM    124  H33 UNL A   1      11.758  52.811   6.302  1.00  0.00    +0.000 H 
ATOM    125  H34 UNL A   1      14.314  51.686   3.223  1.00  0.00    +0.000 H 
ATOM    126  H35 UNL A   1      13.184  46.902   2.194  1.00  0.00    +0.000 H 
ATOM    127  H36 UNL A   1      15.020  46.995   0.411  1.00  0.00    +0.000 H 
ATOM    128  H37 UNL A   1      16.661  56.709   2.454  1.00  0.00    +0.000 H 
ENDROOT
BRANCH   33   32
ATOM    130  H39 UNL A   1      14.711  54.608   7.162  1.00  0.00    +0.000 H 
ATOM    131  H40 UNL A   1      13.861  56.261   8.727  1.00  0.00    +0.000 H 
ATOM    118  H27 UNL A   1      10.926  57.391   5.930  1.00  0.00    +0.000 H 
ATOM    119  H28 UNL A   1      11.617  55.583   4.473  1.00  0.00    +0.000 H 
ATOM     90  C65 UNL A   1      13.881  55.170   6.918  1.00  0.00    +0.000 C 
ATOM     91  C66 UNL A   1      13.401  56.131   7.813  1.00  0.00    +0.000 C 
ATOM     29  C23 UNL A   1      12.297  56.914   7.465  1.00  0.00    +0.000 C 
ATOM     30  C24 UNL A   1      11.690  56.759   6.215  1.00  0.00    +0.000 C 
ATOM     31  C25 UNL A   1      12.120  55.753   5.358  1.00  0.00    +0.000 C 
ATOM     32  C26 UNL A   1      13.235  54.966   5.689  1.00  0.00    +0.000 C 
BRANCH   29    2
ATOM      1  O1  UNL A   1      12.565  58.773   8.870  1.00  0.00    +0.000 O 
ATOM      2  C1  UNL A   1      11.799  57.925   8.422  1.00  0.00    +0.000 C 
BRANCH    2    3
ATOM      3  N1  UNL A   1      10.482  57.901   8.811  1.00  0.00    +0.000 N 
ATOM     92  H1  UNL A   1       9.974  58.729   8.649  1.00  0.00    +0.000 H 
BRANCH    3    4
ATOM      4  C2  UNL A   1       9.740  56.816   9.430  1.00  0.00    +0.000 C 
ATOM     93  H2  UNL A   1       9.406  56.148   8.663  1.00  0.00    +0.000 H 
ATOM     94  H3  UNL A   1       8.917  57.243   9.962  1.00  0.00    +0.000 H 
BRANCH    4    5
ATOM      5  C3  UNL A   1      10.585  56.035  10.426  1.00  0.00    +0.000 C 
ATOM     95  H4  UNL A   1      10.121  56.105  11.387  1.00  0.00    +0.000 H 
ATOM     96  H5  UNL A   1      11.564  56.468  10.400  1.00  0.00    +0.000 H 
BRANCH    5    6
ATOM     97  H6  UNL A   1      10.988  54.477   9.046  1.00  0.00    +0.000 H 
ATOM     98  H7  UNL A   1       9.839  54.077  10.358  1.00  0.00    +0.000 H 
ATOM      6  C4  UNL A   1      10.758  54.553  10.087  1.00  0.00    +0.000 C 
BRANCH    6    7
ATOM     99  H8  UNL A   1      11.992  52.860  10.435  1.00  0.00    +0.000 H 
ATOM    100  H9  UNL A   1      11.528  53.802  11.888  1.00  0.00    +0.000 H 
ATOM      7  C5  UNL A   1      11.859  53.829  10.870  1.00  0.00    +0.000 C 
BRANCH    7    8
ATOM    101  H10 UNL A   1      13.336  55.022  11.834  1.00  0.00    +0.000 H 
ATOM    102  H11 UNL A   1      13.231  55.211  10.063  1.00  0.00    +0.000 H 
ATOM      8  C6  UNL A   1      13.224  54.531  10.889  1.00  0.00    +0.000 C 
BRANCH    8    9
ATOM      9  C7  UNL A   1      14.416  53.593  10.695  1.00  0.00    +0.000 C 
ATOM    103  H12 UNL A   1      15.322  54.153  10.805  1.00  0.00    +0.000 H 
ATOM    104  H13 UNL A   1      14.356  53.165   9.717  1.00  0.00    +0.000 H 
BRANCH    9   10
ATOM    105  H14 UNL A   1      13.522  52.106  11.819  1.00  0.00    +0.000 H 
ATOM     10  N2  UNL A   1      14.401  52.522  11.669  1.00  0.00    +0.000 N 
BRANCH   10   11
ATOM     11  C8  UNL A   1      15.425  52.000  12.409  1.00  0.00    +0.000 C 
ATOM     12  O2  UNL A   1      15.803  52.656  13.379  1.00  0.00    +0.000 O 
BRANCH   11   13
ATOM    106  H15 UNL A   1      16.080  50.124  12.897  1.00  0.00    +0.000 H 
ATOM    107  H16 UNL A   1      18.201  50.689  11.967  1.00  0.00    +0.000 H 
ATOM    108  H17 UNL A   1      17.514  51.825  10.868  1.00  0.00    +0.000 H 
ATOM     13  C9  UNL A   1      16.034  50.668  11.976  1.00  0.00    +0.000 C 
ATOM     14  C10 UNL A   1      17.402  50.839  11.270  1.00  0.00    +0.000 C 
ATOM     15  C11 UNL A   1      17.449  49.772  10.167  1.00  0.00    +0.000 C 
ATOM     16  N3  UNL A   1      16.048  49.471   9.936  1.00  0.00    +0.000 N 
ATOM    109  H18 UNL A   1      17.978  48.903  10.496  1.00  0.00    +0.000 H 
ATOM    110  H19 UNL A   1      17.957  50.103   9.285  1.00  0.00    +0.000 H 
ATOM     17  C12 UNL A   1      15.325  48.866   8.953  1.00  0.00    +0.000 C 
ATOM    116  H25 UNL A   1      13.174  48.671   8.830  1.00  0.00    +0.000 H 
ATOM    117  H26 UNL A   1      13.102  49.938  11.144  1.00  0.00    +0.000 H 
ATOM     26  C20 UNL A   1      13.994  49.011   9.355  1.00  0.00    +0.000 C 
ATOM     27  C21 UNL A   1      13.944  49.698  10.598  1.00  0.00    +0.000 C 
ATOM     28  C22 UNL A   1      15.243  49.975  10.919  1.00  0.00    +0.000 C 
BRANCH   17   18
ATOM     18  C13 UNL A   1      15.768  48.250   7.712  1.00  0.00    +0.000 C 
ATOM     19  O3  UNL A   1      15.801  47.032   7.545  1.00  0.00    +0.000 O 
BRANCH   18   20
ATOM    111  H20 UNL A   1      16.754  47.402   5.400  1.00  0.00    +0.000 H 
ATOM    112  H21 UNL A   1      17.462  48.711   3.482  1.00  0.00    +0.000 H 
ATOM    113  H22 UNL A   1      17.314  51.132   3.547  1.00  0.00    +0.000 H 
ATOM    114  H23 UNL A   1      16.506  52.253   5.540  1.00  0.00    +0.000 H 
ATOM    115  H24 UNL A   1      15.821  50.949   7.475  1.00  0.00    +0.000 H 
ATOM     20  C14 UNL A   1      16.192  49.077   6.563  1.00  0.00    +0.000 C 
ATOM     21  C15 UNL A   1      16.690  48.431   5.425  1.00  0.00    +0.000 C 
ATOM     22  C16 UNL A   1      17.101  49.184   4.325  1.00  0.00    +0.000 C 
ATOM     23  C17 UNL A   1      17.023  50.577   4.366  1.00  0.00    +0.000 C 
ATOM     24  C18 UNL A   1      16.554  51.222   5.512  1.00  0.00    +0.000 C 
ATOM     25  C19 UNL A   1      16.150  50.474   6.620  1.00  0.00    +0.000 C 
ENDBRANCH   18   20
ENDBRANCH   17   18
ENDBRANCH   11   13
ENDBRANCH   10   11
ENDBRANCH    9   10
ENDBRANCH    8    9
ENDBRANCH    7    8
ENDBRANCH    6    7
ENDBRANCH    5    6
ENDBRANCH    4    5
ENDBRANCH    3    4
ENDBRANCH    2    3
ENDBRANCH   29    2
ENDBRANCH   33   32
BRANCH   37   38
ATOM     38  C31 UNL A   1      17.950  55.404   0.535  1.00  0.00    +0.000 C 
ATOM     39  C32 UNL A   1      19.164  55.773   1.131  1.00  0.00    +0.000 C 
ATOM     40  F1  UNL A   1      19.557  55.192   2.276  1.00  0.00    +0.000 F 
ATOM     41  C33 UNL A   1      19.975  56.750   0.560  1.00  0.00    +0.000 C 
ATOM     42  F2  UNL A   1      21.122  57.102   1.158  1.00  0.00    +0.000 F 
ATOM     43  C34 UNL A   1      19.600  57.360  -0.628  1.00  0.00    +0.000 C 
ATOM     44  F3  UNL A   1      20.391  58.286  -1.187  1.00  0.00    +0.000 F 
ATOM     45  C35 UNL A   1      18.405  57.009  -1.237  1.00  0.00    +0.000 C 
ATOM     46  F4  UNL A   1      18.047  57.588  -2.392  1.00  0.00    +0.000 F 
ATOM     47  C36 UNL A   1      17.582  56.047  -0.657  1.00  0.00    +0.000 C 
ATOM     48  F5  UNL A   1      16.433  55.726  -1.272  1.00  0.00    +0.000 F 
ENDBRANCH   37   38
BRANCH   54   55
ATOM     65  F10 UNL A   1      18.656  48.010   0.412  1.00  0.00    +0.000 F 
ATOM     55  C42 UNL A   1      16.725  48.459  -0.906  1.00  0.00    +0.000 C 
ATOM     56  C43 UNL A   1      15.999  48.166  -2.069  1.00  0.00    +0.000 C 
ATOM     57  F6  UNL A   1      14.837  48.792  -2.313  1.00  0.00    +0.000 F 
ATOM     58  C44 UNL A   1      16.443  47.198  -2.964  1.00  0.00    +0.000 C 
ATOM     59  F7  UNL A   1      15.707  46.899  -4.044  1.00  0.00    +0.000 F 
ATOM     60  C45 UNL A   1      17.634  46.528  -2.730  1.00  0.00    +0.000 C 
ATOM     61  F8  UNL A   1      18.060  45.596  -3.594  1.00  0.00    +0.000 F 
ATOM     62  C46 UNL A   1      18.379  46.815  -1.595  1.00  0.00    +0.000 C 
ATOM     63  F9  UNL A   1      19.534  46.176  -1.373  1.00  0.00    +0.000 F 
ATOM     64  C47 UNL A   1      17.924  47.764  -0.685  1.00  0.00    +0.000 C 
ENDBRANCH   54   55
BRANCH   69   70
ATOM     70  C51 UNL A   1      11.993  48.263   4.191  1.00  0.00    +0.000 C 
ATOM     71  C52 UNL A   1      10.634  48.260   3.850  1.00  0.00    +0.000 C 
ATOM     72  F11 UNL A   1      10.138  49.230   3.068  1.00  0.00    +0.000 F 
ATOM     73  C53 UNL A   1       9.773  47.284   4.345  1.00  0.00    +0.000 C 
ATOM     74  F12 UNL A   1       8.468  47.330   4.041  1.00  0.00    +0.000 F 
ATOM     75  C54 UNL A   1      10.259  46.273   5.161  1.00  0.00    +0.000 C 
ATOM     76  F13 UNL A   1       9.430  45.332   5.632  1.00  0.00    +0.000 F 
ATOM     77  C55 UNL A   1      11.604  46.245   5.494  1.00  0.00    +0.000 C 
ATOM     78  F14 UNL A   1      12.082  45.261   6.270  1.00  0.00    +0.000 F 
ATOM     79  C56 UNL A   1      12.461  47.237   5.027  1.00  0.00    +0.000 C 
ATOM     80  F15 UNL A   1      13.755  47.192   5.375  1.00  0.00    +0.000 F 
ENDBRANCH   69   70
TORSDOF 17
ENDMDL
