MODEL 1
REMARK VINA RESULT:     -10.9      0.000      0.000
ROOT
ATOM     19  C15 UNL A   1      41.277  26.145  27.567  1.00  0.00    +0.000 C 
ATOM     20  C16 UNL A   1      40.618  27.246  28.348  1.00  0.00    +0.000 C 
ATOM     21  N3  UNL A   1      41.098  28.411  28.706  1.00  0.00    +0.000 N 
ATOM     22  C17 UNL A   1      40.064  29.060  29.367  1.00  0.00    +0.000 C 
ATOM     23  C18 UNL A   1      40.076  30.272  29.968  1.00  0.00    +0.000 C 
ATOM     35  C25 UNL A   1      41.226  31.134  30.039  1.00  0.00    +0.000 C 
ATOM     36  C26 UNL A   1      41.355  32.352  30.684  1.00  0.00    +0.000 C 
ATOM     37  C27 UNL A   1      42.647  32.836  30.451  1.00  0.00    +0.000 C 
ATOM     38  C28 UNL A   1      43.333  31.903  29.692  1.00  0.00    +0.000 C 
ATOM     39  N4  UNL A   1      42.449  30.865  29.443  1.00  0.00    +0.000 N 
ATOM     40  C29 UNL A   1      44.695  31.951  29.225  1.00  0.00    +0.000 C 
ATOM     52  C36 UNL A   1      45.302  30.985  28.494  1.00  0.00    +0.000 C 
ATOM     53  N5  UNL A   1      44.785  29.779  28.044  1.00  0.00    +0.000 N 
ATOM     54  C37 UNL A   1      45.751  29.200  27.374  1.00  0.00    +0.000 C 
ATOM     55  C38 UNL A   1      45.760  27.864  26.685  1.00  0.00    +0.000 C 
ATOM     67  C45 UNL A   1      44.664  27.084  26.742  1.00  0.00    +0.000 C 
ATOM     68  C46 UNL A   1      44.529  25.766  26.129  1.00  0.00    +0.000 C 
ATOM     69  C47 UNL A   1      43.289  25.302  26.355  1.00  0.00    +0.000 C 
ATOM     70  C48 UNL A   1      42.552  26.280  27.157  1.00  0.00    +0.000 C 
ATOM     71  N6  UNL A   1      43.449  27.301  27.345  1.00  0.00    +0.000 N 
ATOM     72  C49 UNL A   1      46.989  29.991  27.302  1.00  0.00    +0.000 C 
ATOM     73  C50 UNL A   1      46.672  31.053  28.029  1.00  0.00    +0.000 C 
ATOM     74  C51 UNL A   1      38.916  28.177  29.325  1.00  0.00    +0.000 C 
ATOM     75  C52 UNL A   1      39.224  27.019  28.761  1.00  0.00    +0.000 C 
ATOM    111  H21 UNL A   1      40.624  32.822  31.241  1.00  0.00    +0.000 H 
ATOM    112  H22 UNL A   1      43.025  33.735  30.788  1.00  0.00    +0.000 H 
ATOM    113  H23 UNL A   1      42.658  30.057  28.921  1.00  0.00    +0.000 H 
ATOM    114  H24 UNL A   1      45.267  25.270  25.606  1.00  0.00    +0.000 H 
ATOM    115  H25 UNL A   1      42.917  24.401  26.017  1.00  0.00    +0.000 H 
ATOM    116  H26 UNL A   1      43.242  28.112  27.864  1.00  0.00    +0.000 H 
ATOM    117  H27 UNL A   1      47.872  29.775  26.814  1.00  0.00    +0.000 H 
ATOM    118  H28 UNL A   1      47.319  31.830  28.237  1.00  0.00    +0.000 H 
ATOM    119  H29 UNL A   1      37.982  28.419  29.689  1.00  0.00    +0.000 H 
ATOM    120  H30 UNL A   1      38.639  26.176  28.642  1.00  0.00    +0.000 H 
ENDROOT
BRANCH   19   18
ATOM     76  C53 UNL A   1      39.381  25.066  26.355  1.00  0.00    +0.000 C 
ATOM    109  H19 UNL A   1      40.467  21.593  27.538  1.00  0.00    +0.000 H 
ATOM     77  C54 UNL A   1      38.644  23.943  25.985  1.00  0.00    +0.000 C 
ATOM     15  C11 UNL A   1      39.076  22.670  26.369  1.00  0.00    +0.000 C 
ATOM     16  C12 UNL A   1      40.177  22.530  27.219  1.00  0.00    +0.000 C 
ATOM     17  C13 UNL A   1      40.880  23.661  27.637  1.00  0.00    +0.000 C 
ATOM    110  H20 UNL A   1      41.680  23.560  28.281  1.00  0.00    +0.000 H 
ATOM     18  C14 UNL A   1      40.505  24.937  27.184  1.00  0.00    +0.000 C 
ATOM    121  H31 UNL A   1      39.098  26.000  26.016  1.00  0.00    +0.000 H 
ATOM    122  H32 UNL A   1      37.781  24.050  25.429  1.00  0.00    +0.000 H 
BRANCH   15   13
ATOM     13  C10 UNL A   1      38.373  21.453  25.907  1.00  0.00    +0.000 C 
ATOM     14  O2  UNL A   1      39.022  20.454  25.611  1.00  0.00    +0.000 O 
BRANCH   13   12
ATOM    108  H18 UNL A   1      36.511  21.434  26.644  1.00  0.00    +0.000 H 
ATOM     12  N2  UNL A   1      37.006  21.448  25.792  1.00  0.00    +0.000 N 
BRANCH   12   11
ATOM    106  H16 UNL A   1      36.388  20.577  24.027  1.00  0.00    +0.000 H 
ATOM     11  C9  UNL A   1      36.183  21.461  24.594  1.00  0.00    +0.000 C 
ATOM    107  H17 UNL A   1      35.158  21.499  24.903  1.00  0.00    +0.000 H 
BRANCH   11   10
ATOM    105  H15 UNL A   1      36.469  22.322  22.707  1.00  0.00    +0.000 H 
ATOM     10  C8  UNL A   1      36.450  22.680  23.716  1.00  0.00    +0.000 C 
ATOM    104  H14 UNL A   1      37.374  23.119  24.029  1.00  0.00    +0.000 H 
BRANCH   10    9
ATOM      9  C7  UNL A   1      35.370  23.762  23.765  1.00  0.00    +0.000 C 
ATOM    102  H12 UNL A   1      35.785  24.663  23.363  1.00  0.00    +0.000 H 
ATOM    103  H13 UNL A   1      34.543  23.383  23.202  1.00  0.00    +0.000 H 
BRANCH    9    8
ATOM    100  H10 UNL A   1      34.196  23.263  25.461  1.00  0.00    +0.000 H 
ATOM    101  H11 UNL A   1      35.681  24.210  25.789  1.00  0.00    +0.000 H 
ATOM      8  C6  UNL A   1      34.825  24.075  25.161  1.00  0.00    +0.000 C 
BRANCH    8    7
ATOM     98  H8  UNL A   1      33.006  25.112  25.535  1.00  0.00    +0.000 H 
ATOM     99  H9  UNL A   1      34.498  25.971  26.012  1.00  0.00    +0.000 H 
ATOM      7  C5  UNL A   1      34.010  25.371  25.273  1.00  0.00    +0.000 C 
BRANCH    7    6
ATOM     97  H7  UNL A   1      34.580  25.739  23.256  1.00  0.00    +0.000 H 
ATOM      6  C4  UNL A   1      33.966  26.215  23.990  1.00  0.00    +0.000 C 
ATOM     96  H6  UNL A   1      34.327  27.199  24.210  1.00  0.00    +0.000 H 
BRANCH    6    5
ATOM      5  N1  UNL A   1      32.616  26.316  23.461  1.00  0.00    +0.000 N 
ATOM     95  H5  UNL A   1      32.025  27.022  23.811  1.00  0.00    +0.000 H 
BRANCH    5    3
ATOM      3  C3  UNL A   1      32.127  25.466  22.494  1.00  0.00    +0.000 C 
ATOM      4  O1  UNL A   1      32.634  25.529  21.376  1.00  0.00    +0.000 O 
BRANCH    3    2
ATOM      2  C2  UNL A   1      31.058  24.450  22.909  1.00  0.00    +0.000 C 
ATOM     94  H4  UNL A   1      30.636  24.085  21.996  1.00  0.00    +0.000 H 
BRANCH    2    1
ATOM      1  C1  UNL A   1      30.055  25.192  23.809  1.00  0.00    +0.000 C 
ATOM     91  H1  UNL A   1      30.210  24.905  24.828  1.00  0.00    +0.000 H 
ATOM     92  H2  UNL A   1      29.059  24.939  23.515  1.00  0.00    +0.000 H 
ATOM     93  H3  UNL A   1      30.200  26.247  23.710  1.00  0.00    +0.000 H 
ENDBRANCH    2    1
BRANCH    2   78
ATOM    130  H40 UNL A   1      33.358  20.360  23.241  1.00  0.00    +0.000 H 
ATOM     78  C55 UNL A   1      31.525  23.163  23.588  1.00  0.00    +0.000 C 
ATOM     79  C56 UNL A   1      31.189  22.978  24.945  1.00  0.00    +0.000 C 
ATOM     80  C57 UNL A   1      31.669  21.888  25.676  1.00  0.00    +0.000 C 
ATOM     81  C58 UNL A   1      32.507  20.942  25.080  1.00  0.00    +0.000 C 
ATOM     88  C64 UNL A   1      32.777  21.069  23.714  1.00  0.00    +0.000 C 
ATOM     89  C65 UNL A   1      32.270  22.147  22.981  1.00  0.00    +0.000 C 
ATOM     90  F16 UNL A   1      32.512  22.146  21.666  1.00  0.00    +0.000 F 
ATOM    123  H33 UNL A   1      30.575  23.664  25.410  1.00  0.00    +0.000 H 
ATOM    124  H34 UNL A   1      31.402  21.780  26.667  1.00  0.00    +0.000 H 
BRANCH   81   82
ATOM     82  C59 UNL A   1      33.107  19.815  25.893  1.00  0.00    +0.000 C 
ATOM    125  H35 UNL A   1      32.408  19.536  26.653  1.00  0.00    +0.000 H 
ATOM    126  H36 UNL A   1      34.027  20.177  26.304  1.00  0.00    +0.000 H 
BRANCH   82   83
ATOM    129  H39 UNL A   1      33.108  15.480  23.541  1.00  0.00    +0.000 H 
ATOM     83  C60 UNL A   1      33.435  18.596  25.070  1.00  0.00    +0.000 C 
ATOM     84  C61 UNL A   1      34.613  18.287  24.414  1.00  0.00    +0.000 C 
ATOM     85  C62 UNL A   1      34.558  17.029  23.748  1.00  0.00    +0.000 C 
ATOM     86  C63 UNL A   1      33.344  16.405  23.931  1.00  0.00    +0.000 C 
ATOM     87  S1  UNL A   1      32.276  17.345  24.879  1.00  0.00    +0.000 S 
ATOM    127  H37 UNL A   1      35.441  18.902  24.408  1.00  0.00    +0.000 H 
ATOM    128  H38 UNL A   1      35.334  16.633  23.196  1.00  0.00    +0.000 H 
ENDBRANCH   82   83
ENDBRANCH   81   82
ENDBRANCH    2   78
ENDBRANCH    3    2
ENDBRANCH    5    3
ENDBRANCH    6    5
ENDBRANCH    7    6
ENDBRANCH    8    7
ENDBRANCH    9    8
ENDBRANCH   10    9
ENDBRANCH   11   10
ENDBRANCH   12   11
ENDBRANCH   13   12
ENDBRANCH   15   13
ENDBRANCH   19   18
BRANCH   23   24
ATOM     33  C24 UNL A   1      37.805  31.359  29.836  1.00  0.00    +0.000 C 
ATOM     34  F5  UNL A   1      37.972  31.516  28.514  1.00  0.00    +0.000 F 
ATOM     24  C19 UNL A   1      38.800  30.740  30.606  1.00  0.00    +0.000 C 
ATOM     25  C20 UNL A   1      38.577  30.604  31.984  1.00  0.00    +0.000 C 
ATOM     26  F1  UNL A   1      39.494  30.009  32.760  1.00  0.00    +0.000 F 
ATOM     27  C21 UNL A   1      37.392  31.049  32.564  1.00  0.00    +0.000 C 
ATOM     28  F2  UNL A   1      37.181  30.869  33.875  1.00  0.00    +0.000 F 
ATOM     29  C22 UNL A   1      36.424  31.663  31.785  1.00  0.00    +0.000 C 
ATOM     30  F3  UNL A   1      35.285  32.094  32.345  1.00  0.00    +0.000 F 
ATOM     31  C23 UNL A   1      36.631  31.825  30.423  1.00  0.00    +0.000 C 
ATOM     32  F4  UNL A   1      35.701  32.428  29.671  1.00  0.00    +0.000 F 
ENDBRANCH   23   24
BRANCH   40   41
ATOM     41  C30 UNL A   1      45.515  33.152  29.589  1.00  0.00    +0.000 C 
ATOM     42  C31 UNL A   1      46.299  33.178  30.751  1.00  0.00    +0.000 C 
ATOM     43  F6  UNL A   1      46.290  32.136  31.596  1.00  0.00    +0.000 F 
ATOM     44  C32 UNL A   1      47.072  34.293  31.067  1.00  0.00    +0.000 C 
ATOM     45  F7  UNL A   1      47.784  34.313  32.202  1.00  0.00    +0.000 F 
ATOM     46  C33 UNL A   1      47.094  35.388  30.215  1.00  0.00    +0.000 C 
ATOM     47  F8  UNL A   1      47.842  36.458  30.519  1.00  0.00    +0.000 F 
ATOM     48  C34 UNL A   1      46.336  35.377  29.055  1.00  0.00    +0.000 C 
ATOM     49  F9  UNL A   1      46.364  36.431  28.226  1.00  0.00    +0.000 F 
ATOM     50  C35 UNL A   1      45.545  34.274  28.747  1.00  0.00    +0.000 C 
ATOM     51  F10 UNL A   1      44.815  34.295  27.623  1.00  0.00    +0.000 F 
ENDBRANCH   40   41
BRANCH   55   56
ATOM     65  C44 UNL A   1      47.980  26.679  26.639  1.00  0.00    +0.000 C 
ATOM     66  F15 UNL A   1      47.867  26.422  27.951  1.00  0.00    +0.000 F 
ATOM     56  C39 UNL A   1      46.970  27.384  25.972  1.00  0.00    +0.000 C 
ATOM     57  C40 UNL A   1      47.137  27.630  24.602  1.00  0.00    +0.000 C 
ATOM     58  F11 UNL A   1      46.185  28.283  23.919  1.00  0.00    +0.000 F 
ATOM     59  C41 UNL A   1      48.265  27.175  23.922  1.00  0.00    +0.000 C 
ATOM     60  F12 UNL A   1      48.383  27.392  22.606  1.00  0.00    +0.000 F 
ATOM     61  C42 UNL A   1      49.257  26.487  24.604  1.00  0.00    +0.000 C 
ATOM     62  F13 UNL A   1      50.343  26.053  23.952  1.00  0.00    +0.000 F 
ATOM     63  C43 UNL A   1      49.118  26.243  25.963  1.00  0.00    +0.000 C 
ATOM     64  F14 UNL A   1      50.080  25.589  26.627  1.00  0.00    +0.000 F 
ENDBRANCH   55   56
TORSDOF 19
ENDMDL
MODEL 2
REMARK VINA RESULT:     -10.7      2.878      8.123
ROOT
ATOM     19  C15 UNL A   1      40.675  27.790  28.399  1.00  0.00    +0.000 C 
ATOM     20  C16 UNL A   1      42.118  27.992  28.765  1.00  0.00    +0.000 C 
ATOM     21  N3  UNL A   1      42.689  29.015  29.349  1.00  0.00    +0.000 N 
ATOM     22  C17 UNL A   1      44.026  28.670  29.494  1.00  0.00    +0.000 C 
ATOM     23  C18 UNL A   1      45.040  29.412  29.998  1.00  0.00    +0.000 C 
ATOM     35  C25 UNL A   1      44.898  30.760  30.482  1.00  0.00    +0.000 C 
ATOM     36  C26 UNL A   1      45.879  31.617  30.949  1.00  0.00    +0.000 C 
ATOM     37  C27 UNL A   1      45.265  32.813  31.339  1.00  0.00    +0.000 C 
ATOM     38  C28 UNL A   1      43.909  32.713  31.081  1.00  0.00    +0.000 C 
ATOM     39  N4  UNL A   1      43.696  31.447  30.558  1.00  0.00    +0.000 N 
ATOM     40  C29 UNL A   1      42.879  33.696  31.294  1.00  0.00    +0.000 C 
ATOM     52  C36 UNL A   1      41.567  33.526  31.001  1.00  0.00    +0.000 C 
ATOM     53  N5  UNL A   1      40.933  32.422  30.450  1.00  0.00    +0.000 N 
ATOM     54  C37 UNL A   1      39.664  32.737  30.370  1.00  0.00    +0.000 C 
ATOM     55  C38 UNL A   1      38.518  31.928  29.830  1.00  0.00    +0.000 C 
ATOM     67  C45 UNL A   1      38.755  30.706  29.318  1.00  0.00    +0.000 C 
ATOM     68  C46 UNL A   1      37.747  29.812  28.755  1.00  0.00    +0.000 C 
ATOM     69  C47 UNL A   1      38.338  28.666  28.379  1.00  0.00    +0.000 C 
ATOM     70  C48 UNL A   1      39.774  28.758  28.647  1.00  0.00    +0.000 C 
ATOM     71  N6  UNL A   1      39.931  30.006  29.197  1.00  0.00    +0.000 N 
ATOM     72  C49 UNL A   1      39.344  34.076  30.887  1.00  0.00    +0.000 C 
ATOM     73  C50 UNL A   1      40.544  34.527  31.228  1.00  0.00    +0.000 C 
ATOM     74  C51 UNL A   1      44.174  27.326  28.975  1.00  0.00    +0.000 C 
ATOM     75  C52 UNL A   1      43.037  26.885  28.457  1.00  0.00    +0.000 C 
ATOM    111  H21 UNL A   1      46.888  31.411  31.001  1.00  0.00    +0.000 H 
ATOM    112  H22 UNL A   1      45.743  33.631  31.749  1.00  0.00    +0.000 H 
ATOM    113  H23 UNL A   1      42.822  31.089  30.282  1.00  0.00    +0.000 H 
ATOM    114  H24 UNL A   1      36.743  30.027  28.660  1.00  0.00    +0.000 H 
ATOM    115  H25 UNL A   1      37.857  27.852  27.968  1.00  0.00    +0.000 H 
ATOM    116  H26 UNL A   1      40.804  30.366  29.477  1.00  0.00    +0.000 H 
ATOM    117  H27 UNL A   1      38.427  34.542  30.964  1.00  0.00    +0.000 H 
ATOM    118  H28 UNL A   1      40.725  35.470  31.606  1.00  0.00    +0.000 H 
ATOM    119  H29 UNL A   1      45.051  26.783  29.005  1.00  0.00    +0.000 H 
ATOM    120  H30 UNL A   1      42.847  25.998  27.964  1.00  0.00    +0.000 H 
ENDROOT
BRANCH   19   18
ATOM     76  C53 UNL A   1      40.520  26.188  26.490  1.00  0.00    +0.000 C 
ATOM    109  H19 UNL A   1      38.626  23.652  28.642  1.00  0.00    +0.000 H 
ATOM     77  C54 UNL A   1      40.103  24.979  25.937  1.00  0.00    +0.000 C 
ATOM     15  C11 UNL A   1      39.464  24.029  26.739  1.00  0.00    +0.000 C 
ATOM     16  C12 UNL A   1      39.137  24.336  28.063  1.00  0.00    +0.000 C 
ATOM     17  C13 UNL A   1      39.504  25.572  28.601  1.00  0.00    +0.000 C 
ATOM    110  H20 UNL A   1      39.244  25.807  29.571  1.00  0.00    +0.000 H 
ATOM     18  C14 UNL A   1      40.224  26.496  27.827  1.00  0.00    +0.000 C 
ATOM    121  H31 UNL A   1      41.049  26.861  25.914  1.00  0.00    +0.000 H 
ATOM    122  H32 UNL A   1      40.266  24.785  24.936  1.00  0.00    +0.000 H 
BRANCH   15   13
ATOM     13  C10 UNL A   1      39.102  22.697  26.207  1.00  0.00    +0.000 C 
ATOM     14  O2  UNL A   1      39.966  21.831  26.101  1.00  0.00    +0.000 O 
BRANCH   13   12
ATOM    108  H18 UNL A   1      37.187  22.218  26.544  1.00  0.00    +0.000 H 
ATOM     12  N2  UNL A   1      37.813  22.439  25.816  1.00  0.00    +0.000 N 
BRANCH   12   11
ATOM    106  H16 UNL A   1      38.007  22.682  23.776  1.00  0.00    +0.000 H 
ATOM     11  C9  UNL A   1      37.238  22.443  24.481  1.00  0.00    +0.000 C 
ATOM    107  H17 UNL A   1      36.828  21.471  24.299  1.00  0.00    +0.000 H 
BRANCH   11   10
ATOM    105  H15 UNL A   1      35.244  22.904  24.034  1.00  0.00    +0.000 H 
ATOM     10  C8  UNL A   1      36.109  23.459  24.335  1.00  0.00    +0.000 C 
ATOM    104  H14 UNL A   1      36.413  24.194  23.620  1.00  0.00    +0.000 H 
BRANCH   10    9
ATOM      9  C7  UNL A   1      35.721  24.184  25.626  1.00  0.00    +0.000 C 
ATOM    102  H12 UNL A   1      36.132  23.636  26.449  1.00  0.00    +0.000 H 
ATOM    103  H13 UNL A   1      36.110  25.177  25.537  1.00  0.00    +0.000 H 
BRANCH    9    8
ATOM    100  H10 UNL A   1      34.027  25.348  26.152  1.00  0.00    +0.000 H 
ATOM    101  H11 UNL A   1      33.745  24.057  24.943  1.00  0.00    +0.000 H 
ATOM      8  C6  UNL A   1      34.216  24.336  25.862  1.00  0.00    +0.000 C 
BRANCH    8    7
ATOM     98  H8  UNL A   1      33.639  23.940  27.870  1.00  0.00    +0.000 H 
ATOM     99  H9  UNL A   1      32.637  23.164  26.609  1.00  0.00    +0.000 H 
ATOM      7  C5  UNL A   1      33.624  23.415  26.937  1.00  0.00    +0.000 C 
BRANCH    7    6
ATOM     97  H7  UNL A   1      34.504  21.925  28.176  1.00  0.00    +0.000 H 
ATOM      6  C4  UNL A   1      34.369  22.085  27.127  1.00  0.00    +0.000 C 
ATOM     96  H6  UNL A   1      35.313  22.142  26.624  1.00  0.00    +0.000 H 
BRANCH    6    5
ATOM      5  N1  UNL A   1      33.613  20.966  26.588  1.00  0.00    +0.000 N 
ATOM     95  H5  UNL A   1      33.042  20.447  27.199  1.00  0.00    +0.000 H 
BRANCH    5    3
ATOM      3  C3  UNL A   1      33.662  20.601  25.261  1.00  0.00    +0.000 C 
ATOM      4  O1  UNL A   1      34.694  20.068  24.858  1.00  0.00    +0.000 O 
BRANCH    3    2
ATOM      2  C2  UNL A   1      32.400  20.802  24.418  1.00  0.00    +0.000 C 
ATOM     94  H4  UNL A   1      31.582  20.755  25.105  1.00  0.00    +0.000 H 
BRANCH    2    1
ATOM      1  C1  UNL A   1      32.387  19.691  23.354  1.00  0.00    +0.000 C 
ATOM     91  H1  UNL A   1      32.334  20.131  22.380  1.00  0.00    +0.000 H 
ATOM     92  H2  UNL A   1      31.536  19.061  23.507  1.00  0.00    +0.000 H 
ATOM     93  H3  UNL A   1      33.281  19.109  23.434  1.00  0.00    +0.000 H 
ENDBRANCH    2    1
BRANCH    2   78
ATOM    130  H40 UNL A   1      30.580  25.115  23.955  1.00  0.00    +0.000 H 
ATOM     78  C55 UNL A   1      32.193  22.165  23.760  1.00  0.00    +0.000 C 
ATOM     79  C56 UNL A   1      33.000  22.488  22.650  1.00  0.00    +0.000 C 
ATOM     80  C57 UNL A   1      32.960  23.753  22.057  1.00  0.00    +0.000 C 
ATOM     81  C58 UNL A   1      32.112  24.747  22.554  1.00  0.00    +0.000 C 
ATOM     88  C64 UNL A   1      31.246  24.412  23.599  1.00  0.00    +0.000 C 
ATOM     89  C65 UNL A   1      31.272  23.135  24.169  1.00  0.00    +0.000 C 
ATOM     90  F16 UNL A   1      30.356  22.878  25.108  1.00  0.00    +0.000 F 
ATOM    123  H33 UNL A   1      33.638  21.773  22.266  1.00  0.00    +0.000 H 
ATOM    124  H34 UNL A   1      33.562  23.956  21.244  1.00  0.00    +0.000 H 
BRANCH   81   82
ATOM     82  C59 UNL A   1      32.136  26.146  21.978  1.00  0.00    +0.000 C 
ATOM    125  H35 UNL A   1      31.150  26.393  21.646  1.00  0.00    +0.000 H 
ATOM    126  H36 UNL A   1      32.844  26.146  21.176  1.00  0.00    +0.000 H 
BRANCH   82   83
ATOM    129  H39 UNL A   1      32.633  30.119  24.858  1.00  0.00    +0.000 H 
ATOM     83  C60 UNL A   1      32.585  27.190  22.969  1.00  0.00    +0.000 C 
ATOM     84  C61 UNL A   1      33.738  27.219  23.731  1.00  0.00    +0.000 C 
ATOM     85  C62 UNL A   1      33.829  28.383  24.547  1.00  0.00    +0.000 C 
ATOM     86  C63 UNL A   1      32.750  29.219  24.369  1.00  0.00    +0.000 C 
ATOM     87  S1  UNL A   1      31.628  28.588  23.244  1.00  0.00    +0.000 S 
ATOM    127  H37 UNL A   1      34.455  26.477  23.711  1.00  0.00    +0.000 H 
ATOM    128  H38 UNL A   1      34.611  28.576  25.192  1.00  0.00    +0.000 H 
ENDBRANCH   82   83
ENDBRANCH   81   82
ENDBRANCH    2   78
ENDBRANCH    3    2
ENDBRANCH    5    3
ENDBRANCH    6    5
ENDBRANCH    7    6
ENDBRANCH    8    7
ENDBRANCH    9    8
ENDBRANCH   10    9
ENDBRANCH   11   10
ENDBRANCH   12   11
ENDBRANCH   13   12
ENDBRANCH   15   13
ENDBRANCH   19   18
BRANCH   23   24
ATOM     33  C24 UNL A   1      47.269  28.876  28.949  1.00  0.00    +0.000 C 
ATOM     34  F5  UNL A   1      46.901  29.557  27.853  1.00  0.00    +0.000 F 
ATOM     24  C19 UNL A   1      46.400  28.781  30.046  1.00  0.00    +0.000 C 
ATOM     25  C20 UNL A   1      46.831  28.054  31.165  1.00  0.00    +0.000 C 
ATOM     26  F1  UNL A   1      46.041  27.944  32.244  1.00  0.00    +0.000 F 
ATOM     27  C21 UNL A   1      48.093  27.466  31.194  1.00  0.00    +0.000 C 
ATOM     28  F2  UNL A   1      48.501  26.814  32.292  1.00  0.00    +0.000 F 
ATOM     29  C22 UNL A   1      48.933  27.568  30.097  1.00  0.00    +0.000 C 
ATOM     30  F3  UNL A   1      50.146  26.999  30.125  1.00  0.00    +0.000 F 
ATOM     31  C23 UNL A   1      48.520  28.266  28.972  1.00  0.00    +0.000 C 
ATOM     32  F4  UNL A   1      49.328  28.356  27.906  1.00  0.00    +0.000 F 
ENDBRANCH   23   24
BRANCH   40   41
ATOM     41  C30 UNL A   1      43.286  35.020  31.869  1.00  0.00    +0.000 C 
ATOM     42  C31 UNL A   1      43.675  36.087  31.046  1.00  0.00    +0.000 C 
ATOM     43  F6  UNL A   1      43.739  35.925  29.716  1.00  0.00    +0.000 F 
ATOM     44  C32 UNL A   1      44.032  37.317  31.592  1.00  0.00    +0.000 C 
ATOM     45  F7  UNL A   1      44.438  38.312  30.790  1.00  0.00    +0.000 F 
ATOM     46  C33 UNL A   1      43.982  37.510  32.965  1.00  0.00    +0.000 C 
ATOM     47  F8  UNL A   1      44.322  38.696  33.488  1.00  0.00    +0.000 F 
ATOM     48  C34 UNL A   1      43.589  36.472  33.795  1.00  0.00    +0.000 C 
ATOM     49  F9  UNL A   1      43.531  36.660  35.122  1.00  0.00    +0.000 F 
ATOM     50  C35 UNL A   1      43.253  35.234  33.255  1.00  0.00    +0.000 C 
ATOM     51  F10 UNL A   1      42.885  34.245  34.083  1.00  0.00    +0.000 F 
ENDBRANCH   40   41
BRANCH   55   56
ATOM     65  C44 UNL A   1      36.257  32.236  30.894  1.00  0.00    +0.000 C 
ATOM     66  F15 UNL A   1      36.656  31.506  31.945  1.00  0.00    +0.000 F 
ATOM     56  C39 UNL A   1      37.137  32.472  29.828  1.00  0.00    +0.000 C 
ATOM     57  C40 UNL A   1      36.671  33.238  28.752  1.00  0.00    +0.000 C 
ATOM     58  F11 UNL A   1      37.485  33.507  27.720  1.00  0.00    +0.000 F 
ATOM     59  C41 UNL A   1      35.380  33.761  28.746  1.00  0.00    +0.000 C 
ATOM     60  F12 UNL A   1      34.971  34.520  27.721  1.00  0.00    +0.000 F 
ATOM     61  C42 UNL A   1      34.523  33.507  29.807  1.00  0.00    +0.000 C 
ATOM     62  F13 UNL A   1      33.279  34.006  29.800  1.00  0.00    +0.000 F 
ATOM     63  C43 UNL A   1      34.959  32.740  30.878  1.00  0.00    +0.000 C 
ATOM     64  F14 UNL A   1      34.130  32.484  31.898  1.00  0.00    +0.000 F 
ENDBRANCH   55   56
TORSDOF 19
ENDMDL
MODEL 3
REMARK VINA RESULT:     -10.6      1.375      7.541
ROOT
ATOM     19  C15 UNL A   1      42.214  25.930  27.734  1.00  0.00    +0.000 C 
ATOM     20  C16 UNL A   1      43.545  26.373  27.196  1.00  0.00    +0.000 C 
ATOM     21  N3  UNL A   1      44.139  27.535  27.309  1.00  0.00    +0.000 N 
ATOM     22  C17 UNL A   1      45.364  27.396  26.671  1.00  0.00    +0.000 C 
ATOM     23  C18 UNL A   1      46.323  28.330  26.473  1.00  0.00    +0.000 C 
ATOM     35  C25 UNL A   1      46.226  29.700  26.903  1.00  0.00    +0.000 C 
ATOM     36  C26 UNL A   1      47.116  30.737  26.691  1.00  0.00    +0.000 C 
ATOM     37  C27 UNL A   1      46.614  31.881  27.321  1.00  0.00    +0.000 C 
ATOM     38  C28 UNL A   1      45.394  31.565  27.895  1.00  0.00    +0.000 C 
ATOM     39  N4  UNL A   1      45.169  30.223  27.634  1.00  0.00    +0.000 N 
ATOM     40  C29 UNL A   1      44.497  32.420  28.628  1.00  0.00    +0.000 C 
ATOM     52  C36 UNL A   1      43.307  32.036  29.149  1.00  0.00    +0.000 C 
ATOM     53  N5  UNL A   1      42.696  30.791  29.102  1.00  0.00    +0.000 N 
ATOM     54  C37 UNL A   1      41.568  30.918  29.756  1.00  0.00    +0.000 C 
ATOM     55  C38 UNL A   1      40.494  29.896  30.002  1.00  0.00    +0.000 C 
ATOM     67  C45 UNL A   1      40.630  28.658  29.489  1.00  0.00    +0.000 C 
ATOM     68  C46 UNL A   1      39.670  27.568  29.641  1.00  0.00    +0.000 C 
ATOM     69  C47 UNL A   1      40.153  26.472  29.033  1.00  0.00    +0.000 C 
ATOM     70  C48 UNL A   1      41.444  26.793  28.423  1.00  0.00    +0.000 C 
ATOM     71  N6  UNL A   1      41.642  28.114  28.738  1.00  0.00    +0.000 N 
ATOM     72  C49 UNL A   1      41.347  32.260  30.317  1.00  0.00    +0.000 C 
ATOM     73  C50 UNL A   1      42.420  32.911  29.889  1.00  0.00    +0.000 C 
ATOM     74  C51 UNL A   1      45.447  26.026  26.207  1.00  0.00    +0.000 C 
ATOM     75  C52 UNL A   1      44.323  25.369  26.453  1.00  0.00    +0.000 C 
ATOM    111  H21 UNL A   1      47.999  30.678  26.159  1.00  0.00    +0.000 H 
ATOM    112  H22 UNL A   1      47.075  32.804  27.353  1.00  0.00    +0.000 H 
ATOM    113  H23 UNL A   1      44.377  29.716  27.923  1.00  0.00    +0.000 H 
ATOM    114  H24 UNL A   1      38.767  27.630  30.134  1.00  0.00    +0.000 H 
ATOM    115  H25 UNL A   1      39.688  25.551  29.003  1.00  0.00    +0.000 H 
ATOM    116  H26 UNL A   1      42.435  28.623  28.452  1.00  0.00    +0.000 H 
ATOM    117  H27 UNL A   1      40.562  32.604  30.891  1.00  0.00    +0.000 H 
ATOM    118  H28 UNL A   1      42.600  33.912  30.060  1.00  0.00    +0.000 H 
ATOM    119  H29 UNL A   1      46.273  25.616  25.745  1.00  0.00    +0.000 H 
ATOM    120  H30 UNL A   1      44.061  24.406  26.191  1.00  0.00    +0.000 H 
ENDROOT
BRANCH   19   18
ATOM     76  C53 UNL A   1      40.913  24.181  26.517  1.00  0.00    +0.000 C 
ATOM    109  H19 UNL A   1      42.161  21.455  28.895  1.00  0.00    +0.000 H 
ATOM     77  C54 UNL A   1      40.490  22.865  26.349  1.00  0.00    +0.000 C 
ATOM     15  C11 UNL A   1      40.992  21.860  27.182  1.00  0.00    +0.000 C 
ATOM     16  C12 UNL A   1      41.827  22.191  28.254  1.00  0.00    +0.000 C 
ATOM     17  C13 UNL A   1      42.205  23.519  28.456  1.00  0.00    +0.000 C 
ATOM    110  H20 UNL A   1      42.803  23.767  29.260  1.00  0.00    +0.000 H 
ATOM     18  C14 UNL A   1      41.774  24.522  27.572  1.00  0.00    +0.000 C 
ATOM    121  H31 UNL A   1      40.592  24.911  25.861  1.00  0.00    +0.000 H 
ATOM    122  H32 UNL A   1      39.806  22.631  25.613  1.00  0.00    +0.000 H 
BRANCH   15   13
ATOM     13  C10 UNL A   1      40.641  20.440  26.964  1.00  0.00    +0.000 C 
ATOM     14  O2  UNL A   1      40.921  19.607  27.822  1.00  0.00    +0.000 O 
BRANCH   13   12
ATOM    108  H18 UNL A   1      40.520  20.251  24.974  1.00  0.00    +0.000 H 
ATOM     12  N2  UNL A   1      40.023  20.054  25.802  1.00  0.00    +0.000 N 
BRANCH   12   11
ATOM    106  H16 UNL A   1      38.910  18.412  25.234  1.00  0.00    +0.000 H 
ATOM     11  C9  UNL A   1      38.739  19.397  25.616  1.00  0.00    +0.000 C 
ATOM    107  H17 UNL A   1      38.247  19.370  26.566  1.00  0.00    +0.000 H 
BRANCH   11   10
ATOM    105  H15 UNL A   1      37.829  19.579  23.739  1.00  0.00    +0.000 H 
ATOM     10  C8  UNL A   1      37.835  20.150  24.644  1.00  0.00    +0.000 C 
ATOM    104  H14 UNL A   1      38.228  21.137  24.522  1.00  0.00    +0.000 H 
BRANCH   10    9
ATOM      9  C7  UNL A   1      36.374  20.271  25.082  1.00  0.00    +0.000 C 
ATOM    102  H12 UNL A   1      35.767  20.312  24.201  1.00  0.00    +0.000 H 
ATOM    103  H13 UNL A   1      36.176  19.418  25.698  1.00  0.00    +0.000 H 
BRANCH    9    8
ATOM    100  H10 UNL A   1      35.031  21.769  25.756  1.00  0.00    +0.000 H 
ATOM    101  H11 UNL A   1      36.244  21.210  26.951  1.00  0.00    +0.000 H 
ATOM      8  C6  UNL A   1      36.050  21.497  25.939  1.00  0.00    +0.000 C 
BRANCH    8    7
ATOM     98  H8  UNL A   1      37.079  23.234  26.607  1.00  0.00    +0.000 H 
ATOM     99  H9  UNL A   1      37.829  22.371  25.233  1.00  0.00    +0.000 H 
ATOM      7  C5  UNL A   1      36.924  22.731  25.676  1.00  0.00    +0.000 C 
BRANCH    7    6
ATOM     97  H7  UNL A   1      35.958  23.199  23.838  1.00  0.00    +0.000 H 
ATOM      6  C4  UNL A   1      36.329  23.741  24.683  1.00  0.00    +0.000 C 
ATOM     96  H6  UNL A   1      37.093  24.430  24.389  1.00  0.00    +0.000 H 
BRANCH    6    5
ATOM      5  N1  UNL A   1      35.224  24.482  25.269  1.00  0.00    +0.000 N 
ATOM     95  H5  UNL A   1      35.346  24.878  26.162  1.00  0.00    +0.000 H 
BRANCH    5    3
ATOM      3  C3  UNL A   1      34.016  24.654  24.631  1.00  0.00    +0.000 C 
ATOM      4  O1  UNL A   1      33.998  25.379  23.638  1.00  0.00    +0.000 O 
BRANCH    3    2
ATOM      2  C2  UNL A   1      32.815  23.859  25.149  1.00  0.00    +0.000 C 
ATOM     94  H4  UNL A   1      31.949  24.397  24.824  1.00  0.00    +0.000 H 
BRANCH    2    1
ATOM      1  C1  UNL A   1      32.957  23.772  26.678  1.00  0.00    +0.000 C 
ATOM     91  H1  UNL A   1      33.936  24.094  26.964  1.00  0.00    +0.000 H 
ATOM     92  H2  UNL A   1      32.808  22.760  26.992  1.00  0.00    +0.000 H 
ATOM     93  H3  UNL A   1      32.226  24.400  27.142  1.00  0.00    +0.000 H 
ENDBRANCH    2    1
BRANCH    2   78
ATOM    130  H40 UNL A   1      32.282  20.678  21.725  1.00  0.00    +0.000 H 
ATOM     78  C55 UNL A   1      32.572  22.470  24.561  1.00  0.00    +0.000 C 
ATOM     79  C56 UNL A   1      32.499  21.382  25.455  1.00  0.00    +0.000 C 
ATOM     80  C57 UNL A   1      32.394  20.065  25.001  1.00  0.00    +0.000 C 
ATOM     81  C58 UNL A   1      32.362  19.783  23.632  1.00  0.00    +0.000 C 
ATOM     88  C64 UNL A   1      32.349  20.858  22.739  1.00  0.00    +0.000 C 
ATOM     89  C65 UNL A   1      32.425  22.176  23.202  1.00  0.00    +0.000 C 
ATOM     90  F16 UNL A   1      32.325  23.142  22.283  1.00  0.00    +0.000 F 
ATOM    123  H33 UNL A   1      32.525  21.563  26.471  1.00  0.00    +0.000 H 
ATOM    124  H34 UNL A   1      32.339  19.292  25.682  1.00  0.00    +0.000 H 
BRANCH   81   82
ATOM     82  C59 UNL A   1      32.348  18.354  23.135  1.00  0.00    +0.000 C 
ATOM    125  H35 UNL A   1      32.694  18.344  22.122  1.00  0.00    +0.000 H 
ATOM    126  H36 UNL A   1      31.342  17.999  23.221  1.00  0.00    +0.000 H 
BRANCH   82   83
ATOM    129  H39 UNL A   1      34.178  15.046  26.303  1.00  0.00    +0.000 H 
ATOM     83  C60 UNL A   1      33.219  17.431  23.948  1.00  0.00    +0.000 C 
ATOM     84  C61 UNL A   1      34.596  17.301  23.927  1.00  0.00    +0.000 C 
ATOM     85  C62 UNL A   1      35.071  16.331  24.855  1.00  0.00    +0.000 C 
ATOM     86  C63 UNL A   1      34.043  15.762  25.572  1.00  0.00    +0.000 C 
ATOM     87  S1  UNL A   1      32.518  16.379  25.108  1.00  0.00    +0.000 S 
ATOM    127  H37 UNL A   1      35.212  17.848  23.305  1.00  0.00    +0.000 H 
ATOM    128  H38 UNL A   1      36.066  16.086  24.976  1.00  0.00    +0.000 H 
ENDBRANCH   82   83
ENDBRANCH   81   82
ENDBRANCH    2   78
ENDBRANCH    3    2
ENDBRANCH    5    3
ENDBRANCH    6    5
ENDBRANCH    7    6
ENDBRANCH    8    7
ENDBRANCH    9    8
ENDBRANCH   10    9
ENDBRANCH   11   10
ENDBRANCH   12   11
ENDBRANCH   13   12
ENDBRANCH   15   13
ENDBRANCH   19   18
BRANCH   23   24
ATOM     33  C24 UNL A   1      47.573  27.779  24.354  1.00  0.00    +0.000 C 
ATOM     34  F5  UNL A   1      46.473  28.072  23.645  1.00  0.00    +0.000 F 
ATOM     24  C19 UNL A   1      47.567  27.901  25.751  1.00  0.00    +0.000 C 
ATOM     25  C20 UNL A   1      48.742  27.578  26.445  1.00  0.00    +0.000 C 
ATOM     26  F1  UNL A   1      48.789  27.690  27.780  1.00  0.00    +0.000 F 
ATOM     27  C21 UNL A   1      49.887  27.174  25.763  1.00  0.00    +0.000 C 
ATOM     28  F2  UNL A   1      51.012  26.914  26.444  1.00  0.00    +0.000 F 
ATOM     29  C22 UNL A   1      49.870  27.055  24.383  1.00  0.00    +0.000 C 
ATOM     30  F3  UNL A   1      50.971  26.662  23.728  1.00  0.00    +0.000 F 
ATOM     31  C23 UNL A   1      48.712  27.350  23.677  1.00  0.00    +0.000 C 
ATOM     32  F4  UNL A   1      48.691  27.226  22.344  1.00  0.00    +0.000 F 
ENDBRANCH   23   24
BRANCH   40   41
ATOM     41  C30 UNL A   1      44.898  33.852  28.817  1.00  0.00    +0.000 C 
ATOM     42  C31 UNL A   1      44.494  34.850  27.918  1.00  0.00    +0.000 C 
ATOM     43  F6  UNL A   1      43.776  34.530  26.831  1.00  0.00    +0.000 F 
ATOM     44  C32 UNL A   1      44.857  36.180  28.117  1.00  0.00    +0.000 C 
ATOM     45  F7  UNL A   1      44.493  37.112  27.225  1.00  0.00    +0.000 F 
ATOM     46  C33 UNL A   1      45.606  36.538  29.228  1.00  0.00    +0.000 C 
ATOM     47  F8  UNL A   1      45.950  37.819  29.420  1.00  0.00    +0.000 F 
ATOM     48  C34 UNL A   1      46.004  35.569  30.135  1.00  0.00    +0.000 C 
ATOM     49  F9  UNL A   1      46.720  35.916  31.215  1.00  0.00    +0.000 F 
ATOM     50  C35 UNL A   1      45.663  34.236  29.928  1.00  0.00    +0.000 C 
ATOM     51  F10 UNL A   1      46.070  33.318  30.817  1.00  0.00    +0.000 F 
ENDBRANCH   40   41
BRANCH   55   56
ATOM     65  C44 UNL A   1      38.151  30.803  30.158  1.00  0.00    +0.000 C 
ATOM     66  F15 UNL A   1      38.157  31.036  28.837  1.00  0.00    +0.000 F 
ATOM     56  C39 UNL A   1      39.276  30.243  30.777  1.00  0.00    +0.000 C 
ATOM     57  C40 UNL A   1      39.222  30.022  32.160  1.00  0.00    +0.000 C 
ATOM     58  F11 UNL A   1      40.268  29.469  32.791  1.00  0.00    +0.000 F 
ATOM     59  C41 UNL A   1      38.080  30.337  32.894  1.00  0.00    +0.000 C 
ATOM     60  F12 UNL A   1      38.041  30.082  34.208  1.00  0.00    +0.000 F 
ATOM     61  C42 UNL A   1      36.981  30.899  32.262  1.00  0.00    +0.000 C 
ATOM     62  F13 UNL A   1      35.884  31.205  32.968  1.00  0.00    +0.000 F 
ATOM     63  C43 UNL A   1      37.018  31.138  30.896  1.00  0.00    +0.000 C 
ATOM     64  F14 UNL A   1      35.962  31.691  30.285  1.00  0.00    +0.000 F 
ENDBRANCH   55   56
TORSDOF 19
ENDMDL
MODEL 4
REMARK VINA RESULT:     -10.5      0.474      2.011
ROOT
ATOM     19  C15 UNL A   1      41.558  26.273  27.552  1.00  0.00    +0.000 C 
ATOM     20  C16 UNL A   1      40.895  27.357  28.352  1.00  0.00    +0.000 C 
ATOM     21  N3  UNL A   1      41.355  28.537  28.689  1.00  0.00    +0.000 N 
ATOM     22  C17 UNL A   1      40.326  29.158  29.384  1.00  0.00    +0.000 C 
ATOM     23  C18 UNL A   1      40.324  30.373  29.982  1.00  0.00    +0.000 C 
ATOM     35  C25 UNL A   1      41.451  31.267  30.009  1.00  0.00    +0.000 C 
ATOM     36  C26 UNL A   1      41.567  32.490  30.646  1.00  0.00    +0.000 C 
ATOM     37  C27 UNL A   1      42.836  33.011  30.365  1.00  0.00    +0.000 C 
ATOM     38  C28 UNL A   1      43.522  32.095  29.585  1.00  0.00    +0.000 C 
ATOM     39  N4  UNL A   1      42.659  31.032  29.371  1.00  0.00    +0.000 N 
ATOM     40  C29 UNL A   1      44.864  32.180  29.070  1.00  0.00    +0.000 C 
ATOM     52  C36 UNL A   1      45.472  31.230  28.320  1.00  0.00    +0.000 C 
ATOM     53  N5  UNL A   1      44.975  30.007  27.893  1.00  0.00    +0.000 N 
ATOM     54  C37 UNL A   1      45.932  29.454  27.190  1.00  0.00    +0.000 C 
ATOM     55  C38 UNL A   1      45.955  28.116  26.506  1.00  0.00    +0.000 C 
ATOM     67  C45 UNL A   1      44.885  27.305  26.603  1.00  0.00    +0.000 C 
ATOM     68  C46 UNL A   1      44.766  25.981  25.999  1.00  0.00    +0.000 C 
ATOM     69  C47 UNL A   1      43.549  25.483  26.271  1.00  0.00    +0.000 C 
ATOM     70  C48 UNL A   1      42.813  26.442  27.096  1.00  0.00    +0.000 C 
ATOM     71  N6  UNL A   1      43.687  27.489  27.249  1.00  0.00    +0.000 N 
ATOM     72  C49 UNL A   1      47.143  30.280  27.072  1.00  0.00    +0.000 C 
ATOM     73  C50 UNL A   1      46.823  31.335  27.807  1.00  0.00    +0.000 C 
ATOM     74  C51 UNL A   1      39.204  28.243  29.387  1.00  0.00    +0.000 C 
ATOM     75  C52 UNL A   1      39.524  27.091  28.815  1.00  0.00    +0.000 C 
ATOM    111  H21 UNL A   1      40.844  32.942  31.227  1.00  0.00    +0.000 H 
ATOM    112  H22 UNL A   1      43.200  33.922  30.686  1.00  0.00    +0.000 H 
ATOM    113  H23 UNL A   1      42.873  30.228  28.844  1.00  0.00    +0.000 H 
ATOM    114  H24 UNL A   1      45.499  25.505  25.452  1.00  0.00    +0.000 H 
ATOM    115  H25 UNL A   1      43.191  24.570  25.949  1.00  0.00    +0.000 H 
ATOM    116  H26 UNL A   1      43.474  28.296  27.772  1.00  0.00    +0.000 H 
ATOM    117  H27 UNL A   1      48.014  30.087  26.553  1.00  0.00    +0.000 H 
ATOM    118  H28 UNL A   1      47.454  32.131  27.989  1.00  0.00    +0.000 H 
ATOM    119  H29 UNL A   1      38.276  28.459  29.783  1.00  0.00    +0.000 H 
ATOM    120  H30 UNL A   1      38.960  26.232  28.720  1.00  0.00    +0.000 H 
ENDROOT
BRANCH   19   18
ATOM     76  C53 UNL A   1      39.675  25.131  26.376  1.00  0.00    +0.000 C 
ATOM    109  H19 UNL A   1      40.841  21.705  27.623  1.00  0.00    +0.000 H 
ATOM     77  C54 UNL A   1      38.959  23.985  26.036  1.00  0.00    +0.000 C 
ATOM     15  C11 UNL A   1      39.419  22.729  26.443  1.00  0.00    +0.000 C 
ATOM     16  C12 UNL A   1      40.529  22.630  27.287  1.00  0.00    +0.000 C 
ATOM     17  C13 UNL A   1      41.212  23.783  27.675  1.00  0.00    +0.000 C 
ATOM    110  H20 UNL A   1      42.018  23.712  28.316  1.00  0.00    +0.000 H 
ATOM     18  C14 UNL A   1      40.808  25.041  27.199  1.00  0.00    +0.000 C 
ATOM    121  H31 UNL A   1      39.371  26.051  26.020  1.00  0.00    +0.000 H 
ATOM    122  H32 UNL A   1      38.090  24.063  25.484  1.00  0.00    +0.000 H 
BRANCH   15   13
ATOM     13  C10 UNL A   1      38.738  21.488  26.011  1.00  0.00    +0.000 C 
ATOM     14  O2  UNL A   1      39.381  20.447  25.912  1.00  0.00    +0.000 O 
BRANCH   13   12
ATOM    108  H18 UNL A   1      36.794  21.603  26.477  1.00  0.00    +0.000 H 
ATOM     12  N2  UNL A   1      37.400  21.508  25.707  1.00  0.00    +0.000 N 
BRANCH   12   11
ATOM    106  H16 UNL A   1      37.281  20.694  23.815  1.00  0.00    +0.000 H 
ATOM     11  C9  UNL A   1      36.750  21.406  24.411  1.00  0.00    +0.000 C 
ATOM    107  H17 UNL A   1      35.738  21.099  24.578  1.00  0.00    +0.000 H 
BRANCH   11   10
ATOM    105  H15 UNL A   1      36.882  22.509  22.636  1.00  0.00    +0.000 H 
ATOM     10  C8  UNL A   1      36.717  22.738  23.669  1.00  0.00    +0.000 C 
ATOM    104  H14 UNL A   1      37.470  23.371  24.089  1.00  0.00    +0.000 H 
BRANCH   10    9
ATOM      9  C7  UNL A   1      35.381  23.482  23.733  1.00  0.00    +0.000 C 
ATOM    102  H12 UNL A   1      35.469  24.371  23.143  1.00  0.00    +0.000 H 
ATOM    103  H13 UNL A   1      34.643  22.798  23.369  1.00  0.00    +0.000 H 
BRANCH    9    8
ATOM    100  H10 UNL A   1      34.264  23.133  25.503  1.00  0.00    +0.000 H 
ATOM    101  H11 UNL A   1      35.822  23.991  25.717  1.00  0.00    +0.000 H 
ATOM      8  C6  UNL A   1      34.929  23.888  25.138  1.00  0.00    +0.000 C 
BRANCH    8    7
ATOM     98  H8  UNL A   1      33.206  25.061  25.560  1.00  0.00    +0.000 H 
ATOM     99  H9  UNL A   1      34.776  25.839  25.910  1.00  0.00    +0.000 H 
ATOM      7  C5  UNL A   1      34.208  25.239  25.230  1.00  0.00    +0.000 C 
BRANCH    7    6
ATOM     97  H7  UNL A   1      34.608  25.438  23.149  1.00  0.00    +0.000 H 
ATOM      6  C4  UNL A   1      34.142  26.025  23.911  1.00  0.00    +0.000 C 
ATOM     96  H6  UNL A   1      34.649  26.959  24.039  1.00  0.00    +0.000 H 
BRANCH    6    5
ATOM      5  N1  UNL A   1      32.769  26.285  23.510  1.00  0.00    +0.000 N 
ATOM     95  H5  UNL A   1      32.268  26.990  23.980  1.00  0.00    +0.000 H 
BRANCH    5    3
ATOM      3  C3  UNL A   1      32.139  25.587  22.504  1.00  0.00    +0.000 C 
ATOM      4  O1  UNL A   1      32.534  25.771  21.354  1.00  0.00    +0.000 O 
BRANCH    3    2
ATOM      2  C2  UNL A   1      31.064  24.572  22.902  1.00  0.00    +0.000 C 
ATOM     94  H4  UNL A   1      30.633  24.232  21.984  1.00  0.00    +0.000 H 
BRANCH    2    1
ATOM      1  C1  UNL A   1      30.073  25.303  23.824  1.00  0.00    +0.000 C 
ATOM     91  H1  UNL A   1      29.575  26.073  23.273  1.00  0.00    +0.000 H 
ATOM     92  H2  UNL A   1      30.604  25.738  24.644  1.00  0.00    +0.000 H 
ATOM     93  H3  UNL A   1      29.351  24.607  24.196  1.00  0.00    +0.000 H 
ENDBRANCH    2    1
BRANCH    2   78
ATOM    130  H40 UNL A   1      33.344  20.464  23.136  1.00  0.00    +0.000 H 
ATOM     78  C55 UNL A   1      31.521  23.266  23.549  1.00  0.00    +0.000 C 
ATOM     79  C56 UNL A   1      31.180  23.047  24.899  1.00  0.00    +0.000 C 
ATOM     80  C57 UNL A   1      31.652  21.936  25.604  1.00  0.00    +0.000 C 
ATOM     81  C58 UNL A   1      32.488  21.002  24.987  1.00  0.00    +0.000 C 
ATOM     88  C64 UNL A   1      32.764  21.163  23.626  1.00  0.00    +0.000 C 
ATOM     89  C65 UNL A   1      32.264  22.263  22.919  1.00  0.00    +0.000 C 
ATOM     90  F16 UNL A   1      32.512  22.294  21.606  1.00  0.00    +0.000 F 
ATOM    123  H33 UNL A   1      30.567  23.724  25.380  1.00  0.00    +0.000 H 
ATOM    124  H34 UNL A   1      31.380  21.804  26.591  1.00  0.00    +0.000 H 
BRANCH   81   82
ATOM     82  C59 UNL A   1      33.080  19.852  25.772  1.00  0.00    +0.000 C 
ATOM    125  H35 UNL A   1      32.423  19.623  26.586  1.00  0.00    +0.000 H 
ATOM    126  H36 UNL A   1      34.046  20.164  26.110  1.00  0.00    +0.000 H 
BRANCH   82   83
ATOM    129  H39 UNL A   1      34.841  16.121  23.069  1.00  0.00    +0.000 H 
ATOM     83  C60 UNL A   1      33.275  18.606  24.948  1.00  0.00    +0.000 C 
ATOM     84  C61 UNL A   1      32.321  17.715  24.489  1.00  0.00    +0.000 C 
ATOM     85  C62 UNL A   1      32.882  16.657  23.720  1.00  0.00    +0.000 C 
ATOM     86  C63 UNL A   1      34.248  16.780  23.598  1.00  0.00    +0.000 C 
ATOM     87  S1  UNL A   1      34.845  18.150  24.427  1.00  0.00    +0.000 S 
ATOM    127  H37 UNL A   1      31.312  17.809  24.683  1.00  0.00    +0.000 H 
ATOM    128  H38 UNL A   1      32.331  15.890  23.303  1.00  0.00    +0.000 H 
ENDBRANCH   82   83
ENDBRANCH   81   82
ENDBRANCH    2   78
ENDBRANCH    3    2
ENDBRANCH    5    3
ENDBRANCH    6    5
ENDBRANCH    7    6
ENDBRANCH    8    7
ENDBRANCH    9    8
ENDBRANCH   10    9
ENDBRANCH   11   10
ENDBRANCH   12   11
ENDBRANCH   13   12
ENDBRANCH   15   13
ENDBRANCH   19   18
BRANCH   23   24
ATOM     33  C24 UNL A   1      38.872  30.570  32.033  1.00  0.00    +0.000 C 
ATOM     34  F5  UNL A   1      39.835  29.978  32.755  1.00  0.00    +0.000 F 
ATOM     24  C19 UNL A   1      39.059  30.806  30.663  1.00  0.00    +0.000 C 
ATOM     25  C20 UNL A   1      38.019  31.423  29.954  1.00  0.00    +0.000 C 
ATOM     26  F1  UNL A   1      38.155  31.680  28.645  1.00  0.00    +0.000 F 
ATOM     27  C21 UNL A   1      36.847  31.813  30.597  1.00  0.00    +0.000 C 
ATOM     28  F2  UNL A   1      35.885  32.442  29.908  1.00  0.00    +0.000 F 
ATOM     29  C22 UNL A   1      36.681  31.566  31.951  1.00  0.00    +0.000 C 
ATOM     30  F3  UNL A   1      35.551  31.938  32.567  1.00  0.00    +0.000 F 
ATOM     31  C23 UNL A   1      37.689  30.938  32.668  1.00  0.00    +0.000 C 
ATOM     32  F4  UNL A   1      37.525  30.689  33.974  1.00  0.00    +0.000 F 
ENDBRANCH   23   24
BRANCH   40   41
ATOM     41  C30 UNL A   1      45.661  33.406  29.401  1.00  0.00    +0.000 C 
ATOM     42  C31 UNL A   1      45.616  34.550  28.593  1.00  0.00    +0.000 C 
ATOM     43  F6  UNL A   1      44.887  34.551  27.466  1.00  0.00    +0.000 F 
ATOM     44  C32 UNL A   1      46.347  35.688  28.923  1.00  0.00    +0.000 C 
ATOM     45  F7  UNL A   1      46.319  36.758  28.115  1.00  0.00    +0.000 F 
ATOM     46  C33 UNL A   1      47.114  35.711  30.078  1.00  0.00    +0.000 C 
ATOM     47  F8  UNL A   1      47.813  36.809  30.397  1.00  0.00    +0.000 F 
ATOM     48  C34 UNL A   1      47.163  34.595  30.899  1.00  0.00    +0.000 C 
ATOM     49  F9  UNL A   1      47.897  34.619  32.021  1.00  0.00    +0.000 F 
ATOM     50  C35 UNL A   1      46.452  33.447  30.560  1.00  0.00    +0.000 C 
ATOM     51  F10 UNL A   1      46.526  32.379  31.367  1.00  0.00    +0.000 F 
ENDBRANCH   40   41
BRANCH   55   56
ATOM     65  C44 UNL A   1      47.216  27.771  24.354  1.00  0.00    +0.000 C 
ATOM     66  F15 UNL A   1      46.182  28.283  23.670  1.00  0.00    +0.000 F 
ATOM     56  C39 UNL A   1      47.153  27.668  25.750  1.00  0.00    +0.000 C 
ATOM     57  C40 UNL A   1      48.257  27.123  26.419  1.00  0.00    +0.000 C 
ATOM     58  F11 UNL A   1      48.248  27.025  27.756  1.00  0.00    +0.000 F 
ATOM     59  C41 UNL A   1      49.388  26.709  25.719  1.00  0.00    +0.000 C 
ATOM     60  F12 UNL A   1      50.445  26.224  26.385  1.00  0.00    +0.000 F 
ATOM     61  C42 UNL A   1      49.426  26.811  24.337  1.00  0.00    +0.000 C 
ATOM     62  F13 UNL A   1      50.513  26.409  23.663  1.00  0.00    +0.000 F 
ATOM     63  C43 UNL A   1      48.339  27.336  23.653  1.00  0.00    +0.000 C 
ATOM     64  F14 UNL A   1      48.369  27.425  22.317  1.00  0.00    +0.000 F 
ENDBRANCH   55   56
TORSDOF 19
ENDMDL
MODEL 5
REMARK VINA RESULT:     -10.5      4.207      9.372
ROOT
ATOM     19  C15 UNL A   1      38.083  30.082  29.846  1.00  0.00    +0.000 C 
ATOM     20  C16 UNL A   1      39.136  29.167  29.288  1.00  0.00    +0.000 C 
ATOM     21  N3  UNL A   1      40.239  28.736  29.846  1.00  0.00    +0.000 N 
ATOM     22  C17 UNL A   1      40.823  27.882  28.920  1.00  0.00    +0.000 C 
ATOM     23  C18 UNL A   1      42.002  27.223  29.005  1.00  0.00    +0.000 C 
ATOM     35  C25 UNL A   1      42.903  27.309  30.124  1.00  0.00    +0.000 C 
ATOM     36  C26 UNL A   1      44.151  26.731  30.274  1.00  0.00    +0.000 C 
ATOM     37  C27 UNL A   1      44.640  27.069  31.541  1.00  0.00    +0.000 C 
ATOM     38  C28 UNL A   1      43.712  27.886  32.165  1.00  0.00    +0.000 C 
ATOM     39  N4  UNL A   1      42.650  28.023  31.286  1.00  0.00    +0.000 N 
ATOM     40  C29 UNL A   1      43.785  28.498  33.466  1.00  0.00    +0.000 C 
ATOM     52  C36 UNL A   1      42.836  29.301  34.003  1.00  0.00    +0.000 C 
ATOM     53  N5  UNL A   1      41.628  29.709  33.455  1.00  0.00    +0.000 N 
ATOM     54  C37 UNL A   1      41.060  30.467  34.360  1.00  0.00    +0.000 C 
ATOM     55  C38 UNL A   1      39.747  31.198  34.297  1.00  0.00    +0.000 C 
ATOM     67  C45 UNL A   1      39.006  31.130  33.175  1.00  0.00    +0.000 C 
ATOM     68  C46 UNL A   1      37.719  31.788  32.968  1.00  0.00    +0.000 C 
ATOM     69  C47 UNL A   1      37.253  31.465  31.751  1.00  0.00    +0.000 C 
ATOM     70  C48 UNL A   1      38.225  30.600  31.080  1.00  0.00    +0.000 C 
ATOM     71  N6  UNL A   1      39.236  30.461  31.998  1.00  0.00    +0.000 N 
ATOM     72  C49 UNL A   1      41.836  30.607  35.601  1.00  0.00    +0.000 C 
ATOM     73  C50 UNL A   1      42.925  29.905  35.317  1.00  0.00    +0.000 C 
ATOM     74  C51 UNL A   1      39.932  27.823  27.779  1.00  0.00    +0.000 C 
ATOM     75  C52 UNL A   1      38.905  28.647  27.931  1.00  0.00    +0.000 C 
ATOM    111  H21 UNL A   1      44.638  26.152  29.573  1.00  0.00    +0.000 H 
ATOM    112  H22 UNL A   1      45.540  26.761  31.943  1.00  0.00    +0.000 H 
ATOM    113  H23 UNL A   1      41.836  28.549  31.460  1.00  0.00    +0.000 H 
ATOM    114  H24 UNL A   1      37.245  32.403  33.646  1.00  0.00    +0.000 H 
ATOM    115  H25 UNL A   1      36.353  31.777  31.352  1.00  0.00    +0.000 H 
ATOM    116  H26 UNL A   1      40.049  29.933  31.827  1.00  0.00    +0.000 H 
ATOM    117  H27 UNL A   1      41.597  31.118  36.465  1.00  0.00    +0.000 H 
ATOM    118  H28 UNL A   1      43.732  29.801  35.951  1.00  0.00    +0.000 H 
ATOM    119  H29 UNL A   1      40.079  27.219  26.956  1.00  0.00    +0.000 H 
ATOM    120  H30 UNL A   1      38.143  28.866  27.270  1.00  0.00    +0.000 H 
ENDROOT
BRANCH   19   18
ATOM     76  C53 UNL A   1      35.914  29.338  28.860  1.00  0.00    +0.000 C 
ATOM    109  H19 UNL A   1      35.222  32.842  27.484  1.00  0.00    +0.000 H 
ATOM     77  C54 UNL A   1      34.751  29.583  28.133  1.00  0.00    +0.000 C 
ATOM     15  C11 UNL A   1      34.471  30.877  27.681  1.00  0.00    +0.000 C 
ATOM     16  C12 UNL A   1      35.410  31.898  27.857  1.00  0.00    +0.000 C 
ATOM     17  C13 UNL A   1      36.601  31.638  28.536  1.00  0.00    +0.000 C 
ATOM    110  H20 UNL A   1      37.303  32.386  28.647  1.00  0.00    +0.000 H 
ATOM     18  C14 UNL A   1      36.850  30.363  29.069  1.00  0.00    +0.000 C 
ATOM    121  H31 UNL A   1      36.087  28.398  29.249  1.00  0.00    +0.000 H 
ATOM    122  H32 UNL A   1      34.097  28.811  27.926  1.00  0.00    +0.000 H 
BRANCH   15   13
ATOM     13  C10 UNL A   1      33.198  31.189  26.996  1.00  0.00    +0.000 C 
ATOM     14  O2  UNL A   1      32.642  32.263  27.209  1.00  0.00    +0.000 O 
BRANCH   13   12
ATOM    108  H18 UNL A   1      32.787  30.442  25.184  1.00  0.00    +0.000 H 
ATOM     12  N2  UNL A   1      32.633  30.275  26.143  1.00  0.00    +0.000 N 
BRANCH   12   11
ATOM    106  H16 UNL A   1      31.765  29.001  27.513  1.00  0.00    +0.000 H 
ATOM     11  C9  UNL A   1      31.840  29.096  26.450  1.00  0.00    +0.000 C 
ATOM    107  H17 UNL A   1      30.878  29.225  25.999  1.00  0.00    +0.000 H 
BRANCH   11   10
ATOM    105  H15 UNL A   1      33.512  27.920  25.997  1.00  0.00    +0.000 H 
ATOM     10  C8  UNL A   1      32.452  27.818  25.886  1.00  0.00    +0.000 C 
ATOM    104  H14 UNL A   1      32.139  27.721  24.867  1.00  0.00    +0.000 H 
BRANCH   10    9
ATOM      9  C7  UNL A   1      32.067  26.535  26.625  1.00  0.00    +0.000 C 
ATOM    102  H12 UNL A   1      32.870  25.835  26.514  1.00  0.00    +0.000 H 
ATOM    103  H13 UNL A   1      31.886  26.820  27.641  1.00  0.00    +0.000 H 
BRANCH    9    8
ATOM    100  H10 UNL A   1      30.041  25.969  26.902  1.00  0.00    +0.000 H 
ATOM    101  H11 UNL A   1      30.525  26.349  25.219  1.00  0.00    +0.000 H 
ATOM      8  C6  UNL A   1      30.781  25.862  26.137  1.00  0.00    +0.000 C 
BRANCH    8    7
ATOM     98  H8  UNL A   1      29.924  23.980  25.644  1.00  0.00    +0.000 H 
ATOM     99  H9  UNL A   1      31.533  24.306  24.938  1.00  0.00    +0.000 H 
ATOM      7  C5  UNL A   1      30.907  24.370  25.803  1.00  0.00    +0.000 C 
BRANCH    7    6
ATOM     97  H7  UNL A   1      30.894  23.399  27.697  1.00  0.00    +0.000 H 
ATOM      6  C4  UNL A   1      31.585  23.523  26.891  1.00  0.00    +0.000 C 
ATOM     96  H6  UNL A   1      32.471  24.025  27.220  1.00  0.00    +0.000 H 
BRANCH    6    5
ATOM      5  N1  UNL A   1      31.947  22.205  26.395  1.00  0.00    +0.000 N 
ATOM     95  H5  UNL A   1      31.230  21.609  26.077  1.00  0.00    +0.000 H 
BRANCH    5    3
ATOM      3  C3  UNL A   1      33.247  21.753  26.352  1.00  0.00    +0.000 C 
ATOM      4  O1  UNL A   1      33.739  21.343  27.402  1.00  0.00    +0.000 O 
BRANCH    3    2
ATOM      2  C2  UNL A   1      33.945  21.710  24.990  1.00  0.00    +0.000 C 
ATOM     94  H4  UNL A   1      33.435  20.956  24.427  1.00  0.00    +0.000 H 
BRANCH    2    1
ATOM      1  C1  UNL A   1      35.428  21.400  25.252  1.00  0.00    +0.000 C 
ATOM     91  H1  UNL A   1      35.578  21.235  26.299  1.00  0.00    +0.000 H 
ATOM     92  H2  UNL A   1      36.027  22.226  24.931  1.00  0.00    +0.000 H 
ATOM     93  H3  UNL A   1      35.710  20.522  24.710  1.00  0.00    +0.000 H 
ENDBRANCH    2    1
BRANCH    2   78
ATOM    130  H40 UNL A   1      32.452  24.147  21.253  1.00  0.00    +0.000 H 
ATOM     78  C55 UNL A   1      33.814  22.934  24.084  1.00  0.00    +0.000 C 
ATOM     79  C56 UNL A   1      34.381  24.145  24.530  1.00  0.00    +0.000 C 
ATOM     80  C57 UNL A   1      34.211  25.339  23.823  1.00  0.00    +0.000 C 
ATOM     81  C58 UNL A   1      33.464  25.368  22.643  1.00  0.00    +0.000 C 
ATOM     88  C64 UNL A   1      32.970  24.159  22.146  1.00  0.00    +0.000 C 
ATOM     89  C65 UNL A   1      33.168  22.963  22.844  1.00  0.00    +0.000 C 
ATOM     90  F16 UNL A   1      32.730  21.845  22.256  1.00  0.00    +0.000 F 
ATOM    123  H33 UNL A   1      34.933  24.151  25.402  1.00  0.00    +0.000 H 
ATOM    124  H34 UNL A   1      34.643  26.207  24.176  1.00  0.00    +0.000 H 
BRANCH   81   82
ATOM     82  C59 UNL A   1      33.197  26.674  21.927  1.00  0.00    +0.000 C 
ATOM    125  H35 UNL A   1      33.125  26.477  20.877  1.00  0.00    +0.000 H 
ATOM    126  H36 UNL A   1      34.006  27.334  22.159  1.00  0.00    +0.000 H 
BRANCH   82   83
ATOM    129  H39 UNL A   1      29.699  29.856  23.330  1.00  0.00    +0.000 H 
ATOM     83  C60 UNL A   1      31.926  27.350  22.376  1.00  0.00    +0.000 C 
ATOM     84  C61 UNL A   1      30.719  26.774  22.726  1.00  0.00    +0.000 C 
ATOM     85  C62 UNL A   1      29.744  27.736  23.118  1.00  0.00    +0.000 C 
ATOM     86  C63 UNL A   1      30.242  29.018  23.073  1.00  0.00    +0.000 C 
ATOM     87  S1  UNL A   1      31.866  29.057  22.538  1.00  0.00    +0.000 S 
ATOM    127  H37 UNL A   1      30.543  25.757  22.706  1.00  0.00    +0.000 H 
ATOM    128  H38 UNL A   1      28.781  27.499  23.402  1.00  0.00    +0.000 H 
ENDBRANCH   82   83
ENDBRANCH   81   82
ENDBRANCH    2   78
ENDBRANCH    3    2
ENDBRANCH    5    3
ENDBRANCH    6    5
ENDBRANCH    7    6
ENDBRANCH    8    7
ENDBRANCH    9    8
ENDBRANCH   10    9
ENDBRANCH   11   10
ENDBRANCH   12   11
ENDBRANCH   13   12
ENDBRANCH   15   13
ENDBRANCH   19   18
BRANCH   23   24
ATOM     33  C24 UNL A   1      43.264  26.824  26.859  1.00  0.00    +0.000 C 
ATOM     34  F5  UNL A   1      43.784  28.057  26.952  1.00  0.00    +0.000 F 
ATOM     24  C19 UNL A   1      42.390  26.349  27.848  1.00  0.00    +0.000 C 
ATOM     25  C20 UNL A   1      41.871  25.055  27.701  1.00  0.00    +0.000 C 
ATOM     26  F1  UNL A   1      41.041  24.552  28.627  1.00  0.00    +0.000 F 
ATOM     27  C21 UNL A   1      42.234  24.257  26.619  1.00  0.00    +0.000 C 
ATOM     28  F2  UNL A   1      41.761  23.007  26.523  1.00  0.00    +0.000 F 
ATOM     29  C22 UNL A   1      43.095  24.749  25.650  1.00  0.00    +0.000 C 
ATOM     30  F3  UNL A   1      43.440  23.981  24.607  1.00  0.00    +0.000 F 
ATOM     31  C23 UNL A   1      43.605  26.034  25.765  1.00  0.00    +0.000 C 
ATOM     32  F4  UNL A   1      44.429  26.513  24.824  1.00  0.00    +0.000 F 
ENDBRANCH   23   24
BRANCH   40   41
ATOM     41  C30 UNL A   1      45.013  28.245  34.288  1.00  0.00    +0.000 C 
ATOM     42  C31 UNL A   1      45.104  27.142  35.148  1.00  0.00    +0.000 C 
ATOM     43  F6  UNL A   1      44.061  26.310  35.292  1.00  0.00    +0.000 F 
ATOM     44  C32 UNL A   1      46.259  26.908  35.891  1.00  0.00    +0.000 C 
ATOM     45  F7  UNL A   1      46.310  25.869  36.737  1.00  0.00    +0.000 F 
ATOM     46  C33 UNL A   1      47.349  27.756  35.768  1.00  0.00    +0.000 C 
ATOM     47  F8  UNL A   1      48.461  27.527  36.480  1.00  0.00    +0.000 F 
ATOM     48  C34 UNL A   1      47.285  28.846  34.913  1.00  0.00    +0.000 C 
ATOM     49  F9  UNL A   1      48.342  29.661  34.785  1.00  0.00    +0.000 F 
ATOM     50  C35 UNL A   1      46.125  29.096  34.186  1.00  0.00    +0.000 C 
ATOM     51  F10 UNL A   1      46.087  30.162  33.374  1.00  0.00    +0.000 F 
ENDBRANCH   40   41
BRANCH   55   56
ATOM     65  C44 UNL A   1      38.464  31.468  36.446  1.00  0.00    +0.000 C 
ATOM     66  F15 UNL A   1      38.098  30.179  36.385  1.00  0.00    +0.000 F 
ATOM     56  C39 UNL A   1      39.276  32.015  35.443  1.00  0.00    +0.000 C 
ATOM     57  C40 UNL A   1      39.629  33.367  35.550  1.00  0.00    +0.000 C 
ATOM     58  F11 UNL A   1      40.421  33.927  34.624  1.00  0.00    +0.000 F 
ATOM     59  C41 UNL A   1      39.198  34.139  36.628  1.00  0.00    +0.000 C 
ATOM     60  F12 UNL A   1      39.580  35.420  36.725  1.00  0.00    +0.000 F 
ATOM     61  C42 UNL A   1      38.388  33.579  37.604  1.00  0.00    +0.000 C 
ATOM     62  F13 UNL A   1      37.971  34.322  38.638  1.00  0.00    +0.000 F 
ATOM     63  C43 UNL A   1      38.017  32.246  37.511  1.00  0.00    +0.000 C 
ATOM     64  F14 UNL A   1      37.225  31.706  38.447  1.00  0.00    +0.000 F 
ENDBRANCH   55   56
TORSDOF 19
ENDMDL
MODEL 6
REMARK VINA RESULT:     -10.4     24.241     32.595
ROOT
ATOM     19  C15 UNL A   1      21.796  19.319   5.258  1.00  0.00    +0.000 C 
ATOM     20  C16 UNL A   1      21.528  20.299   4.151  1.00  0.00    +0.000 C 
ATOM     21  N3  UNL A   1      20.399  20.859   3.795  1.00  0.00    +0.000 N 
ATOM     22  C17 UNL A   1      20.715  21.716   2.749  1.00  0.00    +0.000 C 
ATOM     23  C18 UNL A   1      19.884  22.485   2.008  1.00  0.00    +0.000 C 
ATOM     35  C25 UNL A   1      18.456  22.540   2.180  1.00  0.00    +0.000 C 
ATOM     36  C26 UNL A   1      17.523  23.238   1.435  1.00  0.00    +0.000 C 
ATOM     37  C27 UNL A   1      16.259  23.012   1.993  1.00  0.00    +0.000 C 
ATOM     38  C28 UNL A   1      16.402  22.144   3.062  1.00  0.00    +0.000 C 
ATOM     39  N4  UNL A   1      17.756  21.865   3.168  1.00  0.00    +0.000 N 
ATOM     40  C29 UNL A   1      15.383  21.608   3.926  1.00  0.00    +0.000 C 
ATOM     52  C36 UNL A   1      15.604  20.747   4.950  1.00  0.00    +0.000 C 
ATOM     53  N5  UNL A   1      16.802  20.202   5.386  1.00  0.00    +0.000 N 
ATOM     54  C37 UNL A   1      16.500  19.440   6.409  1.00  0.00    +0.000 C 
ATOM     55  C38 UNL A   1      17.403  18.588   7.257  1.00  0.00    +0.000 C 
ATOM     67  C45 UNL A   1      18.718  18.531   6.971  1.00  0.00    +0.000 C 
ATOM     68  C46 UNL A   1      19.710  17.746   7.699  1.00  0.00    +0.000 C 
ATOM     69  C47 UNL A   1      20.921  17.963   7.161  1.00  0.00    +0.000 C 
ATOM     70  C48 UNL A   1      20.784  18.879   6.029  1.00  0.00    +0.000 C 
ATOM     71  N6  UNL A   1      19.441  19.158   5.986  1.00  0.00    +0.000 N 
ATOM     72  C49 UNL A   1      15.071  19.436   6.753  1.00  0.00    +0.000 C 
ATOM     73  C50 UNL A   1      14.565  20.221   5.812  1.00  0.00    +0.000 C 
ATOM     74  C51 UNL A   1      22.147  21.634   2.554  1.00  0.00    +0.000 C 
ATOM     75  C52 UNL A   1      22.689  20.727   3.354  1.00  0.00    +0.000 C 
ATOM    111  H21 UNL A   1      17.723  23.825   0.610  1.00  0.00    +0.000 H 
ATOM    112  H22 UNL A   1      15.371  23.422   1.663  1.00  0.00    +0.000 H 
ATOM    113  H23 UNL A   1      18.159  21.275   3.845  1.00  0.00    +0.000 H 
ATOM    114  H24 UNL A   1      19.513  17.124   8.498  1.00  0.00    +0.000 H 
ATOM    115  H25 UNL A   1      21.806  17.549   7.494  1.00  0.00    +0.000 H 
ATOM    116  H26 UNL A   1      19.034  19.750   5.313  1.00  0.00    +0.000 H 
ATOM    117  H27 UNL A   1      14.588  18.949   7.524  1.00  0.00    +0.000 H 
ATOM    118  H28 UNL A   1      13.560  20.431   5.707  1.00  0.00    +0.000 H 
ATOM    119  H29 UNL A   1      22.677  22.207   1.879  1.00  0.00    +0.000 H 
ATOM    120  H30 UNL A   1      23.668  20.405   3.405  1.00  0.00    +0.000 H 
ENDROOT
BRANCH   19   18
ATOM     76  C53 UNL A   1      23.994  19.673   6.386  1.00  0.00    +0.000 C 
ATOM    109  H19 UNL A   1      25.369  16.399   4.957  1.00  0.00    +0.000 H 
ATOM     77  C54 UNL A   1      25.301  19.283   6.672  1.00  0.00    +0.000 C 
ATOM     15  C11 UNL A   1      25.782  18.058   6.198  1.00  0.00    +0.000 C 
ATOM     16  C12 UNL A   1      24.996  17.281   5.342  1.00  0.00    +0.000 C 
ATOM     17  C13 UNL A   1      23.707  17.701   5.009  1.00  0.00    +0.000 C 
ATOM    110  H20 UNL A   1      23.135  17.139   4.360  1.00  0.00    +0.000 H 
ATOM     18  C14 UNL A   1      23.185  18.887   5.552  1.00  0.00    +0.000 C 
ATOM    121  H31 UNL A   1      23.619  20.545   6.790  1.00  0.00    +0.000 H 
ATOM    122  H32 UNL A   1      25.913  19.896   7.232  1.00  0.00    +0.000 H 
BRANCH   15   13
ATOM     13  C10 UNL A   1      27.128  17.570   6.570  1.00  0.00    +0.000 C 
ATOM     14  O2  UNL A   1      27.922  17.253   5.689  1.00  0.00    +0.000 O 
BRANCH   13   12
ATOM    108  H18 UNL A   1      26.803  17.032   8.471  1.00  0.00    +0.000 H 
ATOM     12  N2  UNL A   1      27.478  17.454   7.891  1.00  0.00    +0.000 N 
BRANCH   12   11
ATOM    106  H16 UNL A   1      29.255  16.994   8.833  1.00  0.00    +0.000 H 
ATOM     11  C9  UNL A   1      28.701  17.867   8.559  1.00  0.00    +0.000 C 
ATOM    107  H17 UNL A   1      29.252  18.483   7.878  1.00  0.00    +0.000 H 
BRANCH   11   10
ATOM    105  H15 UNL A   1      28.891  19.643   9.653  1.00  0.00    +0.000 H 
ATOM     10  C8  UNL A   1      28.431  18.690   9.815  1.00  0.00    +0.000 C 
ATOM    104  H14 UNL A   1      28.834  18.160  10.652  1.00  0.00    +0.000 H 
BRANCH   10    9
ATOM      9  C7  UNL A   1      26.954  18.971  10.098  1.00  0.00    +0.000 C 
ATOM    102  H12 UNL A   1      26.377  18.534   9.310  1.00  0.00    +0.000 H 
ATOM    103  H13 UNL A   1      26.750  18.551  11.061  1.00  0.00    +0.000 H 
BRANCH    9    8
ATOM    100  H10 UNL A   1      27.427  21.029   9.886  1.00  0.00    +0.000 H 
ATOM    101  H11 UNL A   1      25.722  20.581   9.566  1.00  0.00    +0.000 H 
ATOM      8  C6  UNL A   1      26.579  20.453  10.193  1.00  0.00    +0.000 C 
BRANCH    8    7
ATOM     98  H8  UNL A   1      26.382  20.161  12.291  1.00  0.00    +0.000 H 
ATOM     99  H9  UNL A   1      26.700  21.840  11.770  1.00  0.00    +0.000 H 
ATOM      7  C5  UNL A   1      26.159  20.936  11.588  1.00  0.00    +0.000 C 
BRANCH    7    6
ATOM     97  H7  UNL A   1      24.190  21.081  10.791  1.00  0.00    +0.000 H 
ATOM      6  C4  UNL A   1      24.670  21.288  11.725  1.00  0.00    +0.000 C 
ATOM     96  H6  UNL A   1      24.581  22.324  11.978  1.00  0.00    +0.000 H 
BRANCH    6    5
ATOM      5  N1  UNL A   1      24.023  20.493  12.756  1.00  0.00    +0.000 N 
ATOM     95  H5  UNL A   1      24.281  20.641  13.694  1.00  0.00    +0.000 H 
BRANCH    5    3
ATOM      3  C3  UNL A   1      23.068  19.541  12.477  1.00  0.00    +0.000 C 
ATOM      4  O1  UNL A   1      22.015  19.926  11.971  1.00  0.00    +0.000 O 
BRANCH    3    2
ATOM      2  C2  UNL A   1      23.425  18.074  12.731  1.00  0.00    +0.000 C 
ATOM     94  H4  UNL A   1      22.578  17.651  13.229  1.00  0.00    +0.000 H 
BRANCH    2    1
ATOM      1  C1  UNL A   1      24.713  18.062  13.571  1.00  0.00    +0.000 C 
ATOM     91  H1  UNL A   1      25.246  17.151  13.394  1.00  0.00    +0.000 H 
ATOM     92  H2  UNL A   1      24.462  18.131  14.609  1.00  0.00    +0.000 H 
ATOM     93  H3  UNL A   1      25.327  18.893  13.296  1.00  0.00    +0.000 H 
ENDBRANCH    2    1
BRANCH    2   78
ATOM    130  H40 UNL A   1      23.532  13.969  10.435  1.00  0.00    +0.000 H 
ATOM     78  C55 UNL A   1      23.578  17.158  11.518  1.00  0.00    +0.000 C 
ATOM     79  C56 UNL A   1      23.727  17.762  10.253  1.00  0.00    +0.000 C 
ATOM     80  C57 UNL A   1      23.758  17.006   9.078  1.00  0.00    +0.000 C 
ATOM     81  C58 UNL A   1      23.639  15.615   9.122  1.00  0.00    +0.000 C 
ATOM     88  C64 UNL A   1      23.577  14.998  10.375  1.00  0.00    +0.000 C 
ATOM     89  C65 UNL A   1      23.575  15.760  11.548  1.00  0.00    +0.000 C 
ATOM     90  F16 UNL A   1      23.594  15.084  12.702  1.00  0.00    +0.000 F 
ATOM    123  H33 UNL A   1      23.813  18.789  10.192  1.00  0.00    +0.000 H 
ATOM    124  H34 UNL A   1      23.872  17.480   8.168  1.00  0.00    +0.000 H 
BRANCH   81   82
ATOM     82  C59 UNL A   1      23.574  14.801   7.847  1.00  0.00    +0.000 C 
ATOM    125  H35 UNL A   1      24.068  13.866   8.016  1.00  0.00    +0.000 H 
ATOM    126  H36 UNL A   1      24.051  15.375   7.080  1.00  0.00    +0.000 H 
BRANCH   82   83
ATOM    129  H39 UNL A   1      19.421  14.100   5.281  1.00  0.00    +0.000 H 
ATOM     83  C60 UNL A   1      22.166  14.524   7.388  1.00  0.00    +0.000 C 
ATOM     84  C61 UNL A   1      21.042  14.272   8.154  1.00  0.00    +0.000 C 
ATOM     85  C62 UNL A   1      19.873  14.073   7.364  1.00  0.00    +0.000 C 
ATOM     86  C63 UNL A   1      20.136  14.197   6.019  1.00  0.00    +0.000 C 
ATOM     87  S1  UNL A   1      21.785  14.527   5.715  1.00  0.00    +0.000 S 
ATOM    127  H37 UNL A   1      21.049  14.234   9.185  1.00  0.00    +0.000 H 
ATOM    128  H38 UNL A   1      18.941  13.862   7.754  1.00  0.00    +0.000 H 
ENDBRANCH   82   83
ENDBRANCH   81   82
ENDBRANCH    2   78
ENDBRANCH    3    2
ENDBRANCH    5    3
ENDBRANCH    6    5
ENDBRANCH    7    6
ENDBRANCH    8    7
ENDBRANCH    9    8
ENDBRANCH   10    9
ENDBRANCH   11   10
ENDBRANCH   12   11
ENDBRANCH   13   12
ENDBRANCH   15   13
ENDBRANCH   19   18
BRANCH   23   24
ATOM     33  C24 UNL A   1      20.973  24.620   1.226  1.00  0.00    +0.000 C 
ATOM     34  F5  UNL A   1      20.901  25.098   2.477  1.00  0.00    +0.000 F 
ATOM     24  C19 UNL A   1      20.501  23.332   0.934  1.00  0.00    +0.000 C 
ATOM     25  C20 UNL A   1      20.595  22.882  -0.391  1.00  0.00    +0.000 C 
ATOM     26  F1  UNL A   1      20.168  21.653  -0.718  1.00  0.00    +0.000 F 
ATOM     27  C21 UNL A   1      21.163  23.681  -1.380  1.00  0.00    +0.000 C 
ATOM     28  F2  UNL A   1      21.284  23.213  -2.629  1.00  0.00    +0.000 F 
ATOM     29  C22 UNL A   1      21.619  24.953  -1.069  1.00  0.00    +0.000 C 
ATOM     30  F3  UNL A   1      22.163  25.722  -2.023  1.00  0.00    +0.000 F 
ATOM     31  C23 UNL A   1      21.518  25.427   0.230  1.00  0.00    +0.000 C 
ATOM     32  F4  UNL A   1      21.948  26.660   0.529  1.00  0.00    +0.000 F 
ENDBRANCH   23   24
BRANCH   40   41
ATOM     41  C30 UNL A   1      13.964  22.015   3.667  1.00  0.00    +0.000 C 
ATOM     42  C31 UNL A   1      13.368  23.076   4.363  1.00  0.00    +0.000 C 
ATOM     43  F6  UNL A   1      14.049  23.722   5.321  1.00  0.00    +0.000 F 
ATOM     44  C32 UNL A   1      12.055  23.456   4.098  1.00  0.00    +0.000 C 
ATOM     45  F7  UNL A   1      11.492  24.449   4.802  1.00  0.00    +0.000 F 
ATOM     46  C33 UNL A   1      11.325  22.800   3.118  1.00  0.00    +0.000 C 
ATOM     47  F8  UNL A   1      10.063  23.171   2.862  1.00  0.00    +0.000 F 
ATOM     48  C34 UNL A   1      11.899  21.757   2.410  1.00  0.00    +0.000 C 
ATOM     49  F9  UNL A   1      11.197  21.128   1.455  1.00  0.00    +0.000 F 
ATOM     50  C35 UNL A   1      13.203  21.359   2.687  1.00  0.00    +0.000 C 
ATOM     51  F10 UNL A   1      13.731  20.340   1.993  1.00  0.00    +0.000 F 
ENDBRANCH   40   41
BRANCH   55   56
ATOM     65  C44 UNL A   1      16.664  16.406   8.270  1.00  0.00    +0.000 C 
ATOM     66  F15 UNL A   1      16.972  15.774   7.128  1.00  0.00    +0.000 F 
ATOM     56  C39 UNL A   1      16.858  17.789   8.383  1.00  0.00    +0.000 C 
ATOM     57  C40 UNL A   1      16.517  18.403   9.595  1.00  0.00    +0.000 C 
ATOM     58  F11 UNL A   1      16.706  19.721   9.754  1.00  0.00    +0.000 F 
ATOM     59  C41 UNL A   1      16.014  17.659  10.661  1.00  0.00    +0.000 C 
ATOM     60  F12 UNL A   1      15.730  18.265  11.822  1.00  0.00    +0.000 F 
ATOM     61  C42 UNL A   1      15.821  16.293  10.525  1.00  0.00    +0.000 C 
ATOM     62  F13 UNL A   1      15.334  15.578  11.548  1.00  0.00    +0.000 F 
ATOM     63  C43 UNL A   1      16.140  15.667   9.329  1.00  0.00    +0.000 C 
ATOM     64  F14 UNL A   1      15.944  14.349   9.191  1.00  0.00    +0.000 F 
ENDBRANCH   55   56
TORSDOF 19
ENDMDL
MODEL 7
REMARK VINA RESULT:     -10.4      2.649      7.631
ROOT
ATOM     19  C15 UNL A   1      40.698  27.844  28.386  1.00  0.00    +0.000 C 
ATOM     20  C16 UNL A   1      42.140  28.056  28.748  1.00  0.00    +0.000 C 
ATOM     21  N3  UNL A   1      42.706  29.085  29.328  1.00  0.00    +0.000 N 
ATOM     22  C17 UNL A   1      44.045  28.748  29.472  1.00  0.00    +0.000 C 
ATOM     23  C18 UNL A   1      45.056  29.499  29.970  1.00  0.00    +0.000 C 
ATOM     35  C25 UNL A   1      44.907  30.847  30.450  1.00  0.00    +0.000 C 
ATOM     36  C26 UNL A   1      45.884  31.712  30.912  1.00  0.00    +0.000 C 
ATOM     37  C27 UNL A   1      45.263  32.905  31.299  1.00  0.00    +0.000 C 
ATOM     38  C28 UNL A   1      43.907  32.796  31.044  1.00  0.00    +0.000 C 
ATOM     39  N4  UNL A   1      43.701  31.527  30.527  1.00  0.00    +0.000 N 
ATOM     40  C29 UNL A   1      42.872  33.774  31.257  1.00  0.00    +0.000 C 
ATOM     52  C36 UNL A   1      41.560  33.595  30.967  1.00  0.00    +0.000 C 
ATOM     53  N5  UNL A   1      40.932  32.485  30.421  1.00  0.00    +0.000 N 
ATOM     54  C37 UNL A   1      39.661  32.792  30.342  1.00  0.00    +0.000 C 
ATOM     55  C38 UNL A   1      38.519  31.974  29.808  1.00  0.00    +0.000 C 
ATOM     67  C45 UNL A   1      38.762  30.752  29.299  1.00  0.00    +0.000 C 
ATOM     68  C46 UNL A   1      37.759  29.850  28.742  1.00  0.00    +0.000 C 
ATOM     69  C47 UNL A   1      38.356  28.706  28.369  1.00  0.00    +0.000 C 
ATOM     70  C48 UNL A   1      39.791  28.808  28.633  1.00  0.00    +0.000 C 
ATOM     71  N6  UNL A   1      39.942  30.059  29.178  1.00  0.00    +0.000 N 
ATOM     72  C49 UNL A   1      39.334  34.131  30.856  1.00  0.00    +0.000 C 
ATOM     73  C50 UNL A   1      40.531  34.590  31.192  1.00  0.00    +0.000 C 
ATOM     74  C51 UNL A   1      44.201  27.404  28.957  1.00  0.00    +0.000 C 
ATOM     75  C52 UNL A   1      43.066  26.954  28.442  1.00  0.00    +0.000 C 
ATOM    111  H21 UNL A   1      46.894  31.512  30.962  1.00  0.00    +0.000 H 
ATOM    112  H22 UNL A   1      45.737  33.727  31.706  1.00  0.00    +0.000 H 
ATOM    113  H23 UNL A   1      42.829  31.163  30.253  1.00  0.00    +0.000 H 
ATOM    114  H24 UNL A   1      36.753  30.058  28.649  1.00  0.00    +0.000 H 
ATOM    115  H25 UNL A   1      37.878  27.887  27.961  1.00  0.00    +0.000 H 
ATOM    116  H26 UNL A   1      40.813  30.424  29.455  1.00  0.00    +0.000 H 
ATOM    117  H27 UNL A   1      38.414  34.592  30.933  1.00  0.00    +0.000 H 
ATOM    118  H28 UNL A   1      40.708  35.535  31.566  1.00  0.00    +0.000 H 
ATOM    119  H29 UNL A   1      45.081  26.866  28.986  1.00  0.00    +0.000 H 
ATOM    120  H30 UNL A   1      42.879  26.064  27.953  1.00  0.00    +0.000 H 
ENDROOT
BRANCH   19   18
ATOM     76  C53 UNL A   1      39.519  25.656  28.619  1.00  0.00    +0.000 C 
ATOM    109  H19 UNL A   1      40.286  24.741  24.982  1.00  0.00    +0.000 H 
ATOM     77  C54 UNL A   1      39.095  24.433  28.105  1.00  0.00    +0.000 C 
ATOM     15  C11 UNL A   1      39.324  24.125  26.760  1.00  0.00    +0.000 C 
ATOM     16  C12 UNL A   1      40.079  24.990  25.962  1.00  0.00    +0.000 C 
ATOM     17  C13 UNL A   1      40.554  26.190  26.495  1.00  0.00    +0.000 C 
ATOM    110  H20 UNL A   1      41.129  26.818  25.913  1.00  0.00    +0.000 H 
ATOM     18  C14 UNL A   1      40.253  26.546  27.820  1.00  0.00    +0.000 C 
ATOM    121  H31 UNL A   1      39.293  25.909  29.594  1.00  0.00    +0.000 H 
ATOM    122  H32 UNL A   1      38.612  23.754  28.715  1.00  0.00    +0.000 H 
BRANCH   15   13
ATOM     13  C10 UNL A   1      38.796  22.880  26.159  1.00  0.00    +0.000 C 
ATOM     14  O2  UNL A   1      39.544  21.921  25.996  1.00  0.00    +0.000 O 
BRANCH   13   12
ATOM    108  H18 UNL A   1      36.981  22.034  26.122  1.00  0.00    +0.000 H 
ATOM     12  N2  UNL A   1      37.482  22.807  25.771  1.00  0.00    +0.000 N 
BRANCH   12   11
ATOM    106  H16 UNL A   1      37.384  24.456  24.535  1.00  0.00    +0.000 H 
ATOM     11  C9  UNL A   1      36.724  23.704  24.915  1.00  0.00    +0.000 C 
ATOM    107  H17 UNL A   1      36.298  23.120  24.126  1.00  0.00    +0.000 H 
BRANCH   11   10
ATOM    105  H15 UNL A   1      35.996  25.268  26.103  1.00  0.00    +0.000 H 
ATOM     10  C8  UNL A   1      35.579  24.389  25.657  1.00  0.00    +0.000 C 
ATOM    104  H14 UNL A   1      35.185  23.696  26.371  1.00  0.00    +0.000 H 
BRANCH   10    9
ATOM      9  C7  UNL A   1      34.427  24.865  24.770  1.00  0.00    +0.000 C 
ATOM    102  H12 UNL A   1      34.755  24.824  23.752  1.00  0.00    +0.000 H 
ATOM    103  H13 UNL A   1      33.602  24.217  24.980  1.00  0.00    +0.000 H 
BRANCH    9    8
ATOM    100  H10 UNL A   1      32.927  26.221  25.414  1.00  0.00    +0.000 H 
ATOM    101  H11 UNL A   1      34.619  26.702  25.759  1.00  0.00    +0.000 H 
ATOM      8  C6  UNL A   1      33.932  26.286  25.052  1.00  0.00    +0.000 C 
BRANCH    8    7
ATOM     98  H8  UNL A   1      34.959  27.413  23.568  1.00  0.00    +0.000 H 
ATOM     99  H9  UNL A   1      33.371  26.754  23.079  1.00  0.00    +0.000 H 
ATOM      7  C5  UNL A   1      33.941  27.235  23.846  1.00  0.00    +0.000 C 
BRANCH    7    6
ATOM     97  H7  UNL A   1      34.004  29.360  23.946  1.00  0.00    +0.000 H 
ATOM      6  C4  UNL A   1      33.271  28.596  24.094  1.00  0.00    +0.000 C 
ATOM     96  H6  UNL A   1      32.891  28.618  25.094  1.00  0.00    +0.000 H 
BRANCH    6    5
ATOM      5  N1  UNL A   1      32.175  28.830  23.167  1.00  0.00    +0.000 N 
ATOM     95  H5  UNL A   1      32.390  29.035  22.228  1.00  0.00    +0.000 H 
BRANCH    5    3
ATOM      3  C3  UNL A   1      30.852  28.777  23.546  1.00  0.00    +0.000 C 
ATOM      4  O1  UNL A   1      30.378  29.774  24.089  1.00  0.00    +0.000 O 
BRANCH    3    2
ATOM      2  C2  UNL A   1      30.053  27.523  23.180  1.00  0.00    +0.000 C 
ATOM     94  H4  UNL A   1      30.338  27.281  22.177  1.00  0.00    +0.000 H 
BRANCH    2    1
ATOM      1  C1  UNL A   1      28.564  27.875  23.339  1.00  0.00    +0.000 C 
ATOM     91  H1  UNL A   1      28.254  28.491  22.521  1.00  0.00    +0.000 H 
ATOM     92  H2  UNL A   1      28.419  28.402  24.258  1.00  0.00    +0.000 H 
ATOM     93  H3  UNL A   1      27.984  26.977  23.347  1.00  0.00    +0.000 H 
ENDBRANCH    2    1
BRANCH    2   78
ATOM    130  H40 UNL A   1      30.678  24.793  26.959  1.00  0.00    +0.000 H 
ATOM     78  C55 UNL A   1      30.373  26.231  23.929  1.00  0.00    +0.000 C 
ATOM     79  C56 UNL A   1      30.563  25.060  23.168  1.00  0.00    +0.000 C 
ATOM     80  C57 UNL A   1      30.746  23.813  23.773  1.00  0.00    +0.000 C 
ATOM     81  C58 UNL A   1      30.742  23.689  25.164  1.00  0.00    +0.000 C 
ATOM     88  C64 UNL A   1      30.640  24.854  25.930  1.00  0.00    +0.000 C 
ATOM     89  C65 UNL A   1      30.486  26.102  25.317  1.00  0.00    +0.000 C 
ATOM     90  F16 UNL A   1      30.476  27.169  26.123  1.00  0.00    +0.000 F 
ATOM    123  H33 UNL A   1      30.566  25.124  22.138  1.00  0.00    +0.000 H 
ATOM    124  H34 UNL A   1      30.886  22.976  23.186  1.00  0.00    +0.000 H 
BRANCH   81   82
ATOM     82  C59 UNL A   1      30.842  22.329  25.821  1.00  0.00    +0.000 C 
ATOM    125  H35 UNL A   1      30.091  21.693  25.400  1.00  0.00    +0.000 H 
ATOM    126  H36 UNL A   1      30.704  22.475  26.873  1.00  0.00    +0.000 H 
BRANCH   82   83
ATOM    129  H39 UNL A   1      34.737  19.747  24.242  1.00  0.00    +0.000 H 
ATOM     83  C60 UNL A   1      32.186  21.674  25.634  1.00  0.00    +0.000 C 
ATOM     84  C61 UNL A   1      33.284  21.700  26.475  1.00  0.00    +0.000 C 
ATOM     85  C62 UNL A   1      34.381  20.944  25.970  1.00  0.00    +0.000 C 
ATOM     86  C63 UNL A   1      34.081  20.347  24.767  1.00  0.00    +0.000 C 
ATOM     87  S1  UNL A   1      32.497  20.719  24.243  1.00  0.00    +0.000 S 
ATOM    127  H37 UNL A   1      33.306  22.211  27.371  1.00  0.00    +0.000 H 
ATOM    128  H38 UNL A   1      35.290  20.853  26.450  1.00  0.00    +0.000 H 
ENDBRANCH   82   83
ENDBRANCH   81   82
ENDBRANCH    2   78
ENDBRANCH    3    2
ENDBRANCH    5    3
ENDBRANCH    6    5
ENDBRANCH    7    6
ENDBRANCH    8    7
ENDBRANCH    9    8
ENDBRANCH   10    9
ENDBRANCH   11   10
ENDBRANCH   12   11
ENDBRANCH   13   12
ENDBRANCH   15   13
ENDBRANCH   19   18
BRANCH   23   24
ATOM     33  C24 UNL A   1      47.278  28.956  28.912  1.00  0.00    +0.000 C 
ATOM     34  F5  UNL A   1      46.898  29.614  27.807  1.00  0.00    +0.000 F 
ATOM     24  C19 UNL A   1      46.420  28.876  30.018  1.00  0.00    +0.000 C 
ATOM     25  C20 UNL A   1      46.865  28.171  31.146  1.00  0.00    +0.000 C 
ATOM     26  F1  UNL A   1      46.085  28.077  32.233  1.00  0.00    +0.000 F 
ATOM     27  C21 UNL A   1      48.130  27.591  31.175  1.00  0.00    +0.000 C 
ATOM     28  F2  UNL A   1      48.552  26.961  32.280  1.00  0.00    +0.000 F 
ATOM     29  C22 UNL A   1      48.960  27.678  30.068  1.00  0.00    +0.000 C 
ATOM     30  F3  UNL A   1      50.177  27.116  30.095  1.00  0.00    +0.000 F 
ATOM     31  C23 UNL A   1      48.534  28.353  28.934  1.00  0.00    +0.000 C 
ATOM     32  F4  UNL A   1      49.331  28.429  27.860  1.00  0.00    +0.000 F 
ENDBRANCH   23   24
BRANCH   40   41
ATOM     41  C30 UNL A   1      43.273  35.102  31.825  1.00  0.00    +0.000 C 
ATOM     42  C31 UNL A   1      43.262  35.340  33.207  1.00  0.00    +0.000 C 
ATOM     43  F6  UNL A   1      42.838  34.389  34.053  1.00  0.00    +0.000 F 
ATOM     44  C32 UNL A   1      43.655  36.573  33.722  1.00  0.00    +0.000 C 
ATOM     45  F7  UNL A   1      43.600  36.792  35.044  1.00  0.00    +0.000 F 
ATOM     46  C33 UNL A   1      44.090  37.577  32.870  1.00  0.00    +0.000 C 
ATOM     47  F8  UNL A   1      44.473  38.760  33.369  1.00  0.00    +0.000 F 
ATOM     48  C34 UNL A   1      44.121  37.357  31.502  1.00  0.00    +0.000 C 
ATOM     49  F9  UNL A   1      44.551  38.324  30.678  1.00  0.00    +0.000 F 
ATOM     50  C35 UNL A   1      43.707  36.135  30.981  1.00  0.00    +0.000 C 
ATOM     51  F10 UNL A   1      43.738  35.954  29.652  1.00  0.00    +0.000 F 
ENDBRANCH   40   41
BRANCH   55   56
ATOM     65  C44 UNL A   1      36.257  32.269  30.874  1.00  0.00    +0.000 C 
ATOM     66  F15 UNL A   1      36.662  31.542  31.925  1.00  0.00    +0.000 F 
ATOM     56  C39 UNL A   1      37.134  32.510  29.807  1.00  0.00    +0.000 C 
ATOM     57  C40 UNL A   1      36.663  33.273  28.730  1.00  0.00    +0.000 C 
ATOM     58  F11 UNL A   1      37.474  33.545  27.698  1.00  0.00    +0.000 F 
ATOM     59  C41 UNL A   1      35.368  33.787  28.726  1.00  0.00    +0.000 C 
ATOM     60  F12 UNL A   1      34.954  34.543  27.700  1.00  0.00    +0.000 F 
ATOM     61  C42 UNL A   1      34.514  33.529  29.787  1.00  0.00    +0.000 C 
ATOM     62  F13 UNL A   1      33.268  34.021  29.782  1.00  0.00    +0.000 F 
ATOM     63  C43 UNL A   1      34.956  32.766  30.858  1.00  0.00    +0.000 C 
ATOM     64  F14 UNL A   1      34.129  32.505  31.880  1.00  0.00    +0.000 F 
ENDBRANCH   55   56
TORSDOF 19
ENDMDL
MODEL 8
REMARK VINA RESULT:     -10.4      4.519      9.686
ROOT
ATOM     19  C15 UNL A   1      38.038  30.139  29.849  1.00  0.00    +0.000 C 
ATOM     20  C16 UNL A   1      39.066  29.196  29.293  1.00  0.00    +0.000 C 
ATOM     21  N3  UNL A   1      40.154  28.732  29.856  1.00  0.00    +0.000 N 
ATOM     22  C17 UNL A   1      40.718  27.864  28.929  1.00  0.00    +0.000 C 
ATOM     23  C18 UNL A   1      41.878  27.171  29.018  1.00  0.00    +0.000 C 
ATOM     35  C25 UNL A   1      42.775  27.228  30.142  1.00  0.00    +0.000 C 
ATOM     36  C26 UNL A   1      44.005  26.614  30.296  1.00  0.00    +0.000 C 
ATOM     37  C27 UNL A   1      44.497  26.934  31.567  1.00  0.00    +0.000 C 
ATOM     38  C28 UNL A   1      43.590  27.776  32.188  1.00  0.00    +0.000 C 
ATOM     39  N4  UNL A   1      42.537  27.946  31.304  1.00  0.00    +0.000 N 
ATOM     40  C29 UNL A   1      43.675  28.382  33.492  1.00  0.00    +0.000 C 
ATOM     52  C36 UNL A   1      42.746  29.210  34.027  1.00  0.00    +0.000 C 
ATOM     53  N5  UNL A   1      41.553  29.654  33.474  1.00  0.00    +0.000 N 
ATOM     54  C37 UNL A   1      41.002  30.426  34.378  1.00  0.00    +0.000 C 
ATOM     55  C38 UNL A   1      39.711  31.194  34.311  1.00  0.00    +0.000 C 
ATOM     67  C45 UNL A   1      38.974  31.150  33.186  1.00  0.00    +0.000 C 
ATOM     68  C46 UNL A   1      37.708  31.845  32.974  1.00  0.00    +0.000 C 
ATOM     69  C47 UNL A   1      37.238  31.539  31.754  1.00  0.00    +0.000 C 
ATOM     70  C48 UNL A   1      38.188  30.649  31.085  1.00  0.00    +0.000 C 
ATOM     71  N6  UNL A   1      39.190  30.479  32.007  1.00  0.00    +0.000 N 
ATOM     72  C49 UNL A   1      41.776  30.539  35.623  1.00  0.00    +0.000 C 
ATOM     73  C50 UNL A   1      42.845  29.807  35.343  1.00  0.00    +0.000 C 
ATOM     74  C51 UNL A   1      39.832  27.834  27.784  1.00  0.00    +0.000 C 
ATOM     75  C52 UNL A   1      38.828  28.686  27.934  1.00  0.00    +0.000 C 
ATOM    111  H21 UNL A   1      44.479  26.023  29.596  1.00  0.00    +0.000 H 
ATOM    112  H22 UNL A   1      45.386  26.600  31.972  1.00  0.00    +0.000 H 
ATOM    113  H23 UNL A   1      41.738  28.494  31.476  1.00  0.00    +0.000 H 
ATOM    114  H24 UNL A   1      37.248  32.472  33.652  1.00  0.00    +0.000 H 
ATOM    115  H25 UNL A   1      36.350  31.878  31.352  1.00  0.00    +0.000 H 
ATOM    116  H26 UNL A   1      39.989  29.928  31.839  1.00  0.00    +0.000 H 
ATOM    117  H27 UNL A   1      41.547  31.054  36.488  1.00  0.00    +0.000 H 
ATOM    118  H28 UNL A   1      43.646  29.679  35.981  1.00  0.00    +0.000 H 
ATOM    119  H29 UNL A   1      39.965  27.229  26.960  1.00  0.00    +0.000 H 
ATOM    120  H30 UNL A   1      38.076  28.929  27.270  1.00  0.00    +0.000 H 
ENDROOT
BRANCH   19   18
ATOM     76  C53 UNL A   1      35.827  29.477  28.898  1.00  0.00    +0.000 C 
ATOM    109  H19 UNL A   1      35.313  32.962  27.401  1.00  0.00    +0.000 H 
ATOM     77  C54 UNL A   1      34.675  29.757  28.166  1.00  0.00    +0.000 C 
ATOM     15  C11 UNL A   1      34.461  31.047  27.670  1.00  0.00    +0.000 C 
ATOM     16  C12 UNL A   1      35.453  32.023  27.806  1.00  0.00    +0.000 C 
ATOM     17  C13 UNL A   1      36.633  31.724  28.490  1.00  0.00    +0.000 C 
ATOM    110  H20 UNL A   1      37.374  32.437  28.572  1.00  0.00    +0.000 H 
ATOM     18  C14 UNL A   1      36.817  30.457  29.066  1.00  0.00    +0.000 C 
ATOM    121  H31 UNL A   1      35.953  28.543  29.318  1.00  0.00    +0.000 H 
ATOM    122  H32 UNL A   1      33.980  29.014  27.989  1.00  0.00    +0.000 H 
BRANCH   15   13
ATOM     13  C10 UNL A   1      33.202  31.402  26.979  1.00  0.00    +0.000 C 
ATOM     14  O2  UNL A   1      32.504  32.310  27.420  1.00  0.00    +0.000 O 
BRANCH   13   12
ATOM    108  H18 UNL A   1      32.747  31.238  25.036  1.00  0.00    +0.000 H 
ATOM     12  N2  UNL A   1      32.810  30.707  25.863  1.00  0.00    +0.000 N 
BRANCH   12   11
ATOM    106  H16 UNL A   1      32.397  28.868  26.703  1.00  0.00    +0.000 H 
ATOM     11  C9  UNL A   1      32.473  29.299  25.727  1.00  0.00    +0.000 C 
ATOM    107  H17 UNL A   1      31.544  29.237  25.198  1.00  0.00    +0.000 H 
BRANCH   11   10
ATOM    105  H15 UNL A   1      34.469  28.904  25.234  1.00  0.00    +0.000 H 
ATOM     10  C8  UNL A   1      33.517  28.524  24.928  1.00  0.00    +0.000 C 
ATOM    104  H14 UNL A   1      33.315  28.670  23.888  1.00  0.00    +0.000 H 
BRANCH   10    9
ATOM      9  C7  UNL A   1      33.551  27.018  25.199  1.00  0.00    +0.000 C 
ATOM    102  H12 UNL A   1      33.299  26.513  24.290  1.00  0.00    +0.000 H 
ATOM    103  H13 UNL A   1      34.538  26.801  25.550  1.00  0.00    +0.000 H 
BRANCH    9    8
ATOM    100  H10 UNL A   1      32.695  27.184  27.134  1.00  0.00    +0.000 H 
ATOM    101  H11 UNL A   1      31.619  26.540  25.855  1.00  0.00    +0.000 H 
ATOM      8  C6  UNL A   1      32.595  26.531  26.292  1.00  0.00    +0.000 C 
BRANCH    8    7
ATOM     98  H8  UNL A   1      33.515  25.125  27.596  1.00  0.00    +0.000 H 
ATOM     99  H9  UNL A   1      31.868  24.706  27.042  1.00  0.00    +0.000 H 
ATOM      7  C5  UNL A   1      32.828  25.094  26.775  1.00  0.00    +0.000 C 
BRANCH    7    6
ATOM     97  H7  UNL A   1      34.338  23.772  26.066  1.00  0.00    +0.000 H 
ATOM      6  C4  UNL A   1      33.399  24.142  25.713  1.00  0.00    +0.000 C 
ATOM     96  H6  UNL A   1      33.520  24.680  24.795  1.00  0.00    +0.000 H 
BRANCH    6    5
ATOM      5  N1  UNL A   1      32.519  23.008  25.482  1.00  0.00    +0.000 N 
ATOM     95  H5  UNL A   1      32.899  22.101  25.535  1.00  0.00    +0.000 H 
BRANCH    5    3
ATOM      3  C3  UNL A   1      31.181  23.147  25.190  1.00  0.00    +0.000 C 
ATOM      4  O1  UNL A   1      30.385  23.056  26.124  1.00  0.00    +0.000 O 
BRANCH    3    2
ATOM      2  C2  UNL A   1      30.795  23.494  23.750  1.00  0.00    +0.000 C 
ATOM     94  H4  UNL A   1      29.783  23.167  23.634  1.00  0.00    +0.000 H 
BRANCH    2    1
ATOM      1  C1  UNL A   1      31.794  22.773  22.829  1.00  0.00    +0.000 C 
ATOM     91  H1  UNL A   1      31.470  21.765  22.672  1.00  0.00    +0.000 H 
ATOM     92  H2  UNL A   1      32.761  22.770  23.286  1.00  0.00    +0.000 H 
ATOM     93  H3  UNL A   1      31.844  23.281  21.889  1.00  0.00    +0.000 H 
ENDBRANCH    2    1
BRANCH    2   78
ATOM    130  H40 UNL A   1      29.449  27.975  24.243  1.00  0.00    +0.000 H 
ATOM     78  C55 UNL A   1      30.702  24.972  23.374  1.00  0.00    +0.000 C 
ATOM     79  C56 UNL A   1      31.469  25.420  22.279  1.00  0.00    +0.000 C 
ATOM     80  C57 UNL A   1      31.535  26.773  21.935  1.00  0.00    +0.000 C 
ATOM     81  C58 UNL A   1      30.839  27.732  22.675  1.00  0.00    +0.000 C 
ATOM     88  C64 UNL A   1      30.008  27.291  23.709  1.00  0.00    +0.000 C 
ATOM     89  C65 UNL A   1      29.924  25.931  24.029  1.00  0.00    +0.000 C 
ATOM     90  F16 UNL A   1      29.046  25.591  24.978  1.00  0.00    +0.000 F 
ATOM    123  H33 UNL A   1      31.997  24.733  21.718  1.00  0.00    +0.000 H 
ATOM    124  H34 UNL A   1      32.104  27.068  21.125  1.00  0.00    +0.000 H 
BRANCH   81   82
ATOM     82  C59 UNL A   1      30.985  29.206  22.367  1.00  0.00    +0.000 C 
ATOM    125  H35 UNL A   1      31.212  29.315  21.326  1.00  0.00    +0.000 H 
ATOM    126  H36 UNL A   1      31.767  29.585  22.992  1.00  0.00    +0.000 H 
BRANCH   82   83
ATOM    129  H39 UNL A   1      26.635  31.530  22.263  1.00  0.00    +0.000 H 
ATOM     83  C60 UNL A   1      29.743  30.005  22.672  1.00  0.00    +0.000 C 
ATOM     84  C61 UNL A   1      29.437  30.722  23.814  1.00  0.00    +0.000 C 
ATOM     85  C62 UNL A   1      28.170  31.369  23.734  1.00  0.00    +0.000 C 
ATOM     86  C63 UNL A   1      27.554  31.140  22.524  1.00  0.00    +0.000 C 
ATOM     87  S1  UNL A   1      28.490  30.134  21.507  1.00  0.00    +0.000 S 
ATOM    127  H37 UNL A   1      30.059  30.783  24.635  1.00  0.00    +0.000 H 
ATOM    128  H38 UNL A   1      27.764  31.940  24.491  1.00  0.00    +0.000 H 
ENDBRANCH   82   83
ENDBRANCH   81   82
ENDBRANCH    2   78
ENDBRANCH    3    2
ENDBRANCH    5    3
ENDBRANCH    6    5
ENDBRANCH    7    6
ENDBRANCH    8    7
ENDBRANCH    9    8
ENDBRANCH   10    9
ENDBRANCH   11   10
ENDBRANCH   12   11
ENDBRANCH   13   12
ENDBRANCH   15   13
ENDBRANCH   19   18
BRANCH   23   24
ATOM     33  C24 UNL A   1      43.137  26.743  26.877  1.00  0.00    +0.000 C 
ATOM     34  F5  UNL A   1      43.691  27.961  26.975  1.00  0.00    +0.000 F 
ATOM     24  C19 UNL A   1      42.246  26.290  27.861  1.00  0.00    +0.000 C 
ATOM     25  C20 UNL A   1      41.692  25.011  27.708  1.00  0.00    +0.000 C 
ATOM     26  F1  UNL A   1      40.844  24.529  28.629  1.00  0.00    +0.000 F 
ATOM     27  C21 UNL A   1      42.036  24.207  26.625  1.00  0.00    +0.000 C 
ATOM     28  F2  UNL A   1      41.529  22.970  26.523  1.00  0.00    +0.000 F 
ATOM     29  C22 UNL A   1      42.915  24.676  25.662  1.00  0.00    +0.000 C 
ATOM     30  F3  UNL A   1      43.243  23.902  24.618  1.00  0.00    +0.000 F 
ATOM     31  C23 UNL A   1      43.461  25.946  25.782  1.00  0.00    +0.000 C 
ATOM     32  F4  UNL A   1      44.301  26.405  24.846  1.00  0.00    +0.000 F 
ENDBRANCH   23   24
BRANCH   40   41
ATOM     41  C30 UNL A   1      44.891  28.091  34.319  1.00  0.00    +0.000 C 
ATOM     42  C31 UNL A   1      44.948  26.980  35.172  1.00  0.00    +0.000 C 
ATOM     43  F6  UNL A   1      43.883  26.175  35.304  1.00  0.00    +0.000 F 
ATOM     44  C32 UNL A   1      46.092  26.712  35.920  1.00  0.00    +0.000 C 
ATOM     45  F7  UNL A   1      46.111  25.666  36.758  1.00  0.00    +0.000 F 
ATOM     46  C33 UNL A   1      47.204  27.532  35.808  1.00  0.00    +0.000 C 
ATOM     47  F8  UNL A   1      48.306  27.269  36.525  1.00  0.00    +0.000 F 
ATOM     48  C34 UNL A   1      47.173  28.628  34.961  1.00  0.00    +0.000 C 
ATOM     49  F9  UNL A   1      48.252  29.417  34.845  1.00  0.00    +0.000 F 
ATOM     50  C35 UNL A   1      46.024  28.914  34.229  1.00  0.00    +0.000 C 
ATOM     51  F10 UNL A   1      46.019  29.986  33.424  1.00  0.00    +0.000 F 
ENDBRANCH   40   41
BRANCH   55   56
ATOM     65  C44 UNL A   1      39.671  33.352  35.607  1.00  0.00    +0.000 C 
ATOM     66  F15 UNL A   1      40.493  33.906  34.704  1.00  0.00    +0.000 F 
ATOM     56  C39 UNL A   1      39.258  32.021  35.458  1.00  0.00    +0.000 C 
ATOM     57  C40 UNL A   1      38.402  31.487  36.430  1.00  0.00    +0.000 C 
ATOM     58  F11 UNL A   1      37.965  30.224  36.316  1.00  0.00    +0.000 F 
ATOM     59  C41 UNL A   1      37.964  32.259  37.504  1.00  0.00    +0.000 C 
ATOM     60  F12 UNL A   1      37.117  31.735  38.400  1.00  0.00    +0.000 F 
ATOM     61  C42 UNL A   1      38.392  33.571  37.638  1.00  0.00    +0.000 C 
ATOM     62  F13 UNL A   1      37.974  34.312  38.672  1.00  0.00    +0.000 F 
ATOM     63  C43 UNL A   1      39.250  34.116  36.693  1.00  0.00    +0.000 C 
ATOM     64  F14 UNL A   1      39.675  35.380  36.826  1.00  0.00    +0.000 F 
ENDBRANCH   55   56
TORSDOF 19
ENDMDL
MODEL 9
REMARK VINA RESULT:     -10.3     25.191     29.723
ROOT
ATOM     19  C15 UNL A   1      23.565  36.326  47.371  1.00  0.00    +0.000 C 
ATOM     20  C16 UNL A   1      22.152  36.628  47.785  1.00  0.00    +0.000 C 
ATOM     21  N3  UNL A   1      21.602  37.781  48.075  1.00  0.00    +0.000 N 
ATOM     22  C17 UNL A   1      20.268  37.505  48.346  1.00  0.00    +0.000 C 
ATOM     23  C18 UNL A   1      19.294  38.357  48.742  1.00  0.00    +0.000 C 
ATOM     35  C25 UNL A   1      19.489  39.764  48.974  1.00  0.00    +0.000 C 
ATOM     36  C26 UNL A   1      18.579  40.696  49.441  1.00  0.00    +0.000 C 
ATOM     37  C27 UNL A   1      19.211  41.945  49.475  1.00  0.00    +0.000 C 
ATOM     38  C28 UNL A   1      20.523  41.783  49.064  1.00  0.00    +0.000 C 
ATOM     39  N4  UNL A   1      20.679  40.441  48.756  1.00  0.00    +0.000 N 
ATOM     40  C29 UNL A   1      21.560  42.776  48.958  1.00  0.00    +0.000 C 
ATOM     52  C36 UNL A   1      22.831  42.534  48.557  1.00  0.00    +0.000 C 
ATOM     53  N5  UNL A   1      23.411  41.332  48.177  1.00  0.00    +0.000 N 
ATOM     54  C37 UNL A   1      24.654  41.613  47.869  1.00  0.00    +0.000 C 
ATOM     55  C38 UNL A   1      25.750  40.691  47.413  1.00  0.00    +0.000 C 
ATOM     67  C45 UNL A   1      25.501  39.372  47.304  1.00  0.00    +0.000 C 
ATOM     68  C46 UNL A   1      26.465  38.360  46.881  1.00  0.00    +0.000 C 
ATOM     69  C47 UNL A   1      25.858  37.163  46.851  1.00  0.00    +0.000 C 
ATOM     70  C48 UNL A   1      24.469  37.320  47.284  1.00  0.00    +0.000 C 
ATOM     71  N6  UNL A   1      24.349  38.663  47.539  1.00  0.00    +0.000 N 
ATOM     72  C49 UNL A   1      24.996  43.038  47.997  1.00  0.00    +0.000 C 
ATOM     73  C50 UNL A   1      23.861  43.548  48.452  1.00  0.00    +0.000 C 
ATOM     74  C51 UNL A   1      20.081  36.083  48.146  1.00  0.00    +0.000 C 
ATOM     75  C52 UNL A   1      21.228  35.485  47.858  1.00  0.00    +0.000 C 
ATOM    111  H21 UNL A   1      17.604  40.504  49.716  1.00  0.00    +0.000 H 
ATOM    112  H22 UNL A   1      18.772  42.835  49.759  1.00  0.00    +0.000 H 
ATOM    113  H23 UNL A   1      21.512  40.029  48.432  1.00  0.00    +0.000 H 
ATOM    114  H24 UNL A   1      27.453  38.536  46.645  1.00  0.00    +0.000 H 
ATOM    115  H25 UNL A   1      26.301  36.275  46.569  1.00  0.00    +0.000 H 
ATOM    116  H26 UNL A   1      23.516  39.078  47.861  1.00  0.00    +0.000 H 
ATOM    117  H27 UNL A   1      25.888  43.514  47.788  1.00  0.00    +0.000 H 
ATOM    118  H28 UNL A   1      23.727  44.541  48.700  1.00  0.00    +0.000 H 
ATOM    119  H29 UNL A   1      19.173  35.598  48.219  1.00  0.00    +0.000 H 
ATOM    120  H30 UNL A   1      21.423  34.481  47.722  1.00  0.00    +0.000 H 
ENDROOT
BRANCH   19   18
ATOM     76  C53 UNL A   1      23.880  34.552  45.644  1.00  0.00    +0.000 C 
ATOM    109  H19 UNL A   1      25.143  32.075  48.273  1.00  0.00    +0.000 H 
ATOM     77  C54 UNL A   1      24.238  33.260  45.267  1.00  0.00    +0.000 C 
ATOM     15  C11 UNL A   1      24.755  32.375  46.218  1.00  0.00    +0.000 C 
ATOM     16  C12 UNL A   1      24.804  32.745  47.566  1.00  0.00    +0.000 C 
ATOM     17  C13 UNL A   1      24.390  34.021  47.951  1.00  0.00    +0.000 C 
ATOM    110  H20 UNL A   1      24.405  34.286  48.948  1.00  0.00    +0.000 H 
ATOM     18  C14 UNL A   1      23.952  34.945  46.989  1.00  0.00    +0.000 C 
ATOM    121  H31 UNL A   1      23.560  35.225  44.929  1.00  0.00    +0.000 H 
ATOM    122  H32 UNL A   1      24.122  32.956  44.287  1.00  0.00    +0.000 H 
BRANCH   15   13
ATOM     13  C10 UNL A   1      25.240  31.032  45.829  1.00  0.00    +0.000 C 
ATOM     14  O2  UNL A   1      26.445  30.796  45.840  1.00  0.00    +0.000 O 
BRANCH   13   12
ATOM    108  H18 UNL A   1      24.477  29.713  44.531  1.00  0.00    +0.000 H 
ATOM     12  N2  UNL A   1      24.349  30.064  45.442  1.00  0.00    +0.000 N 
BRANCH   12   11
ATOM    106  H16 UNL A   1      22.760  28.754  45.565  1.00  0.00    +0.000 H 
ATOM     11  C9  UNL A   1      23.241  29.483  46.183  1.00  0.00    +0.000 C 
ATOM    107  H17 UNL A   1      23.641  29.041  47.072  1.00  0.00    +0.000 H 
BRANCH   11   10
ATOM    105  H15 UNL A   1      22.763  31.411  46.847  1.00  0.00    +0.000 H 
ATOM     10  C8  UNL A   1      22.211  30.526  46.605  1.00  0.00    +0.000 C 
ATOM    104  H14 UNL A   1      21.657  30.131  47.430  1.00  0.00    +0.000 H 
BRANCH   10    9
ATOM      9  C7  UNL A   1      21.216  30.930  45.514  1.00  0.00    +0.000 C 
ATOM    102  H12 UNL A   1      21.729  30.909  44.575  1.00  0.00    +0.000 H 
ATOM    103  H13 UNL A   1      20.408  30.232  45.575  1.00  0.00    +0.000 H 
BRANCH    9    8
ATOM    100  H10 UNL A   1      19.539  32.193  45.819  1.00  0.00    +0.000 H 
ATOM    101  H11 UNL A   1      21.085  32.763  46.522  1.00  0.00    +0.000 H 
ATOM      8  C6  UNL A   1      20.593  32.318  45.682  1.00  0.00    +0.000 C 
BRANCH    8    7
ATOM     98  H8  UNL A   1      21.844  33.545  44.478  1.00  0.00    +0.000 H 
ATOM     99  H9  UNL A   1      20.477  32.766  43.630  1.00  0.00    +0.000 H 
ATOM      7  C5  UNL A   1      20.808  33.282  44.507  1.00  0.00    +0.000 C 
BRANCH    7    6
ATOM     97  H7  UNL A   1      19.838  34.936  43.585  1.00  0.00    +0.000 H 
ATOM      6  C4  UNL A   1      19.989  34.579  44.581  1.00  0.00    +0.000 C 
ATOM     96  H6  UNL A   1      20.526  35.296  45.167  1.00  0.00    +0.000 H 
BRANCH    6    5
ATOM      5  N1  UNL A   1      18.686  34.356  45.187  1.00  0.00    +0.000 N 
ATOM     95  H5  UNL A   1      18.641  34.183  46.155  1.00  0.00    +0.000 H 
BRANCH    5    3
ATOM      3  C3  UNL A   1      17.513  34.376  44.466  1.00  0.00    +0.000 C 
ATOM      4  O1  UNL A   1      16.686  35.241  44.752  1.00  0.00    +0.000 O 
BRANCH    3    2
ATOM      2  C2  UNL A   1      17.368  33.384  43.308  1.00  0.00    +0.000 C 
ATOM     94  H4  UNL A   1      18.325  33.356  42.830  1.00  0.00    +0.000 H 
BRANCH    2    1
ATOM      1  C1  UNL A   1      16.235  33.904  42.408  1.00  0.00    +0.000 C 
ATOM     91  H1  UNL A   1      16.328  33.473  41.433  1.00  0.00    +0.000 H 
ATOM     92  H2  UNL A   1      16.298  34.969  42.335  1.00  0.00    +0.000 H 
ATOM     93  H3  UNL A   1      15.290  33.630  42.829  1.00  0.00    +0.000 H 
ENDBRANCH    2    1
BRANCH    2   78
ATOM    130  H40 UNL A   1      14.895  29.650  44.746  1.00  0.00    +0.000 H 
ATOM     78  C55 UNL A   1      17.136  31.915  43.655  1.00  0.00    +0.000 C 
ATOM     79  C56 UNL A   1      18.176  31.003  43.382  1.00  0.00    +0.000 C 
ATOM     80  C57 UNL A   1      18.011  29.627  43.559  1.00  0.00    +0.000 C 
ATOM     81  C58 UNL A   1      16.796  29.107  44.013  1.00  0.00    +0.000 C 
ATOM     88  C64 UNL A   1      15.786  30.007  44.368  1.00  0.00    +0.000 C 
ATOM     89  C65 UNL A   1      15.969  31.385  44.215  1.00  0.00    +0.000 C 
ATOM     90  F16 UNL A   1      14.982  32.174  44.653  1.00  0.00    +0.000 F 
ATOM    123  H33 UNL A   1      19.083  31.361  43.041  1.00  0.00    +0.000 H 
ATOM    124  H34 UNL A   1      18.794  28.987  43.353  1.00  0.00    +0.000 H 
BRANCH   81   82
ATOM     82  C59 UNL A   1      16.580  27.613  44.113  1.00  0.00    +0.000 C 
ATOM    125  H35 UNL A   1      16.072  27.404  45.032  1.00  0.00    +0.000 H 
ATOM    126  H36 UNL A   1      17.544  27.150  44.071  1.00  0.00    +0.000 H 
BRANCH   82   83
ATOM    129  H39 UNL A   1      13.686  24.919  41.165  1.00  0.00    +0.000 H 
ATOM     83  C60 UNL A   1      15.766  27.051  42.976  1.00  0.00    +0.000 C 
ATOM     84  C61 UNL A   1      15.639  27.531  41.685  1.00  0.00    +0.000 C 
ATOM     85  C62 UNL A   1      14.790  26.720  40.878  1.00  0.00    +0.000 C 
ATOM     86  C63 UNL A   1      14.308  25.634  41.573  1.00  0.00    +0.000 C 
ATOM     87  S1  UNL A   1      14.858  25.611  43.191  1.00  0.00    +0.000 S 
ATOM    127  H37 UNL A   1      16.109  28.383  41.343  1.00  0.00    +0.000 H 
ATOM    128  H38 UNL A   1      14.565  26.922  39.892  1.00  0.00    +0.000 H 
ENDBRANCH   82   83
ENDBRANCH   81   82
ENDBRANCH    2   78
ENDBRANCH    3    2
ENDBRANCH    5    3
ENDBRANCH    6    5
ENDBRANCH    7    6
ENDBRANCH    8    7
ENDBRANCH    9    8
ENDBRANCH   10    9
ENDBRANCH   11   10
ENDBRANCH   12   11
ENDBRANCH   13   12
ENDBRANCH   15   13
ENDBRANCH   19   18
BRANCH   23   24
ATOM     33  C24 UNL A   1      17.131  37.407  47.863  1.00  0.00    +0.000 C 
ATOM     34  F5  UNL A   1      17.603  37.526  46.613  1.00  0.00    +0.000 F 
ATOM     24  C19 UNL A   1      17.923  37.787  48.957  1.00  0.00    +0.000 C 
ATOM     25  C20 UNL A   1      17.380  37.646  50.242  1.00  0.00    +0.000 C 
ATOM     26  F1  UNL A   1      18.103  37.984  51.320  1.00  0.00    +0.000 F 
ATOM     27  C21 UNL A   1      16.103  37.122  50.427  1.00  0.00    +0.000 C 
ATOM     28  F2  UNL A   1      15.623  36.955  51.666  1.00  0.00    +0.000 F 
ATOM     29  C22 UNL A   1      15.336  36.758  49.331  1.00  0.00    +0.000 C 
ATOM     30  F3  UNL A   1      14.106  36.257  49.510  1.00  0.00    +0.000 F 
ATOM     31  C23 UNL A   1      15.845  36.907  48.050  1.00  0.00    +0.000 C 
ATOM     32  F4  UNL A   1      15.100  36.566  46.990  1.00  0.00    +0.000 F 
ENDBRANCH   23   24
BRANCH   40   41
ATOM     41  C30 UNL A   1      21.217  44.186  49.335  1.00  0.00    +0.000 C 
ATOM     42  C31 UNL A   1      20.732  45.100  48.388  1.00  0.00    +0.000 C 
ATOM     43  F6  UNL A   1      20.613  44.740  47.101  1.00  0.00    +0.000 F 
ATOM     44  C32 UNL A   1      20.399  46.401  48.757  1.00  0.00    +0.000 C 
ATOM     45  F7  UNL A   1      19.974  47.270  47.829  1.00  0.00    +0.000 F 
ATOM     46  C33 UNL A   1      20.519  46.802  50.079  1.00  0.00    +0.000 C 
ATOM     47  F8  UNL A   1      20.194  48.053  50.432  1.00  0.00    +0.000 F 
ATOM     48  C34 UNL A   1      20.984  45.910  51.033  1.00  0.00    +0.000 C 
ATOM     49  F9  UNL A   1      21.092  46.294  52.313  1.00  0.00    +0.000 F 
ATOM     50  C35 UNL A   1      21.340  44.616  50.665  1.00  0.00    +0.000 C 
ATOM     51  F10 UNL A   1      21.796  43.777  51.607  1.00  0.00    +0.000 F 
ENDBRANCH   40   41
BRANCH   55   56
ATOM     65  C44 UNL A   1      27.989  41.588  48.133  1.00  0.00    +0.000 C 
ATOM     66  F15 UNL A   1      27.617  41.479  49.417  1.00  0.00    +0.000 F 
ATOM     56  C39 UNL A   1      27.106  41.213  47.111  1.00  0.00    +0.000 C 
ATOM     57  C40 UNL A   1      27.541  41.349  45.786  1.00  0.00    +0.000 C 
ATOM     58  F11 UNL A   1      26.737  40.983  44.777  1.00  0.00    +0.000 F 
ATOM     59  C41 UNL A   1      28.816  41.829  45.494  1.00  0.00    +0.000 C 
ATOM     60  F12 UNL A   1      29.220  41.916  44.219  1.00  0.00    +0.000 F 
ATOM     61  C42 UNL A   1      29.670  42.203  46.520  1.00  0.00    +0.000 C 
ATOM     62  F13 UNL A   1      30.895  42.669  46.239  1.00  0.00    +0.000 F 
ATOM     63  C43 UNL A   1      29.256  42.088  47.839  1.00  0.00    +0.000 C 
ATOM     64  F14 UNL A   1      30.075  42.460  48.832  1.00  0.00    +0.000 F 
ENDBRANCH   55   56
TORSDOF 19
ENDMDL
MODEL 10
REMARK VINA RESULT:     -10.3     37.196     42.982
ROOT
ATOM     19  C15 UNL A   1      13.866  53.625   5.466  1.00  0.00    +0.000 C 
ATOM     20  C16 UNL A   1      14.814  54.115   4.409  1.00  0.00    +0.000 C 
ATOM     21  N3  UNL A   1      15.306  53.477   3.377  1.00  0.00    +0.000 N 
ATOM     22  C17 UNL A   1      16.088  54.402   2.698  1.00  0.00    +0.000 C 
ATOM     23  C18 UNL A   1      16.847  54.216   1.593  1.00  0.00    +0.000 C 
ATOM     35  C25 UNL A   1      16.989  52.960   0.905  1.00  0.00    +0.000 C 
ATOM     36  C26 UNL A   1      17.787  52.657  -0.184  1.00  0.00    +0.000 C 
ATOM     37  C27 UNL A   1      17.571  51.316  -0.525  1.00  0.00    +0.000 C 
ATOM     38  C28 UNL A   1      16.667  50.776   0.374  1.00  0.00    +0.000 C 
ATOM     39  N4  UNL A   1      16.315  51.796   1.244  1.00  0.00    +0.000 N 
ATOM     40  C29 UNL A   1      16.160  49.431   0.438  1.00  0.00    +0.000 C 
ATOM     52  C36 UNL A   1      15.281  48.973   1.363  1.00  0.00    +0.000 C 
ATOM     53  N5  UNL A   1      14.693  49.655   2.419  1.00  0.00    +0.000 N 
ATOM     54  C37 UNL A   1      13.914  48.789   3.018  1.00  0.00    +0.000 C 
ATOM     55  C38 UNL A   1      13.052  48.972   4.236  1.00  0.00    +0.000 C 
ATOM     67  C45 UNL A   1      13.045  50.161   4.868  1.00  0.00    +0.000 C 
ATOM     68  C46 UNL A   1      12.265  50.483   6.059  1.00  0.00    +0.000 C 
ATOM     69  C47 UNL A   1      12.474  51.768   6.386  1.00  0.00    +0.000 C 
ATOM     70  C48 UNL A   1      13.429  52.352   5.442  1.00  0.00    +0.000 C 
ATOM     71  N6  UNL A   1      13.718  51.323   4.581  1.00  0.00    +0.000 N 
ATOM     72  C49 UNL A   1      13.902  47.458   2.392  1.00  0.00    +0.000 C 
ATOM     73  C50 UNL A   1      14.777  47.615   1.409  1.00  0.00    +0.000 C 
ATOM     74  C51 UNL A   1      15.972  55.657   3.410  1.00  0.00    +0.000 C 
ATOM     75  C52 UNL A   1      15.245  55.519   4.509  1.00  0.00    +0.000 C 
ATOM    111  H21 UNL A   1      18.430  53.306  -0.663  1.00  0.00    +0.000 H 
ATOM    112  H22 UNL A   1      18.012  50.815  -1.312  1.00  0.00    +0.000 H 
ATOM    113  H23 UNL A   1      15.682  51.707   1.992  1.00  0.00    +0.000 H 
ATOM    114  H24 UNL A   1      11.652  49.828   6.569  1.00  0.00    +0.000 H 
ATOM    115  H25 UNL A   1      12.033  52.265   7.175  1.00  0.00    +0.000 H 
ATOM    116  H26 UNL A   1      14.349  51.410   3.831  1.00  0.00    +0.000 H 
ATOM    117  H27 UNL A   1      13.355  46.622   2.650  1.00  0.00    +0.000 H 
ATOM    118  H28 UNL A   1      15.063  46.866   0.759  1.00  0.00    +0.000 H 
ATOM    119  H29 UNL A   1      16.401  56.544   3.103  1.00  0.00    +0.000 H 
ATOM    120  H30 UNL A   1      15.037  56.213   5.244  1.00  0.00    +0.000 H 
ENDROOT
BRANCH   19   18
ATOM     76  C53 UNL A   1      12.139  55.229   6.287  1.00  0.00    +0.000 C 
ATOM    109  H19 UNL A   1      14.050  55.770   9.558  1.00  0.00    +0.000 H 
ATOM     77  C54 UNL A   1      11.642  56.110   7.245  1.00  0.00    +0.000 C 
ATOM     15  C11 UNL A   1      12.311  56.262   8.464  1.00  0.00    +0.000 C 
ATOM     16  C12 UNL A   1      13.536  55.622   8.676  1.00  0.00    +0.000 C 
ATOM     17  C13 UNL A   1      14.062  54.785   7.691  1.00  0.00    +0.000 C 
ATOM    110  H20 UNL A   1      14.976  54.330   7.838  1.00  0.00    +0.000 H 
ATOM     18  C14 UNL A   1      13.353  54.559   6.500  1.00  0.00    +0.000 C 
ATOM    121  H31 UNL A   1      11.610  55.069   5.415  1.00  0.00    +0.000 H 
ATOM    122  H32 UNL A   1      10.783  56.650   7.057  1.00  0.00    +0.000 H 
BRANCH   15   13
ATOM     13  C10 UNL A   1      11.754  57.110   9.541  1.00  0.00    +0.000 C 
ATOM     14  O2  UNL A   1      11.695  58.326   9.385  1.00  0.00    +0.000 O 
BRANCH   13   12
ATOM    108  H18 UNL A   1      11.578  57.023  11.534  1.00  0.00    +0.000 H 
ATOM     12  N2  UNL A   1      11.324  56.541  10.713  1.00  0.00    +0.000 N 
BRANCH   12   11
ATOM    106  H16 UNL A   1       9.894  55.476  11.750  1.00  0.00    +0.000 H 
ATOM     11  C9  UNL A   1      10.549  55.328  10.918  1.00  0.00    +0.000 C 
ATOM    107  H17 UNL A   1      10.002  55.136  10.018  1.00  0.00    +0.000 H 
BRANCH   11   10
ATOM    105  H15 UNL A   1      12.109  54.042  10.372  1.00  0.00    +0.000 H 
ATOM     10  C8  UNL A   1      11.430  54.114  11.197  1.00  0.00    +0.000 C 
ATOM    104  H14 UNL A   1      10.794  53.259  11.299  1.00  0.00    +0.000 H 
BRANCH   10    9
ATOM      9  C7  UNL A   1      12.294  54.217  12.455  1.00  0.00    +0.000 C 
ATOM    102  H12 UNL A   1      12.071  55.148  12.934  1.00  0.00    +0.000 H 
ATOM    103  H13 UNL A   1      12.055  53.362  13.051  1.00  0.00    +0.000 H 
BRANCH    9    8
ATOM    100  H10 UNL A   1      14.075  54.997  11.605  1.00  0.00    +0.000 H 
ATOM    101  H11 UNL A   1      14.258  54.167  13.183  1.00  0.00    +0.000 H 
ATOM      8  C6  UNL A   1      13.805  54.159  12.214  1.00  0.00    +0.000 C 
BRANCH    8    7
ATOM     98  H8  UNL A   1      13.526  52.160  11.545  1.00  0.00    +0.000 H 
ATOM     99  H9  UNL A   1      14.593  53.174  10.531  1.00  0.00    +0.000 H 
ATOM      7  C5  UNL A   1      14.311  52.887  11.522  1.00  0.00    +0.000 C 
BRANCH    7    6
ATOM     97  H7  UNL A   1      15.367  52.124  13.205  1.00  0.00    +0.000 H 
ATOM      6  C4  UNL A   1      15.559  52.260  12.162  1.00  0.00    +0.000 C 
ATOM     96  H6  UNL A   1      16.393  52.913  12.008  1.00  0.00    +0.000 H 
BRANCH    6    5
ATOM      5  N1  UNL A   1      15.864  50.962  11.581  1.00  0.00    +0.000 N 
ATOM     95  H5  UNL A   1      15.452  50.161  11.978  1.00  0.00    +0.000 H 
BRANCH    5    3
ATOM      3  C3  UNL A   1      16.705  50.805  10.502  1.00  0.00    +0.000 C 
ATOM      4  O1  UNL A   1      17.906  50.995  10.687  1.00  0.00    +0.000 O 
BRANCH    3    2
ATOM      2  C2  UNL A   1      16.094  50.318   9.185  1.00  0.00    +0.000 C 
ATOM     94  H4  UNL A   1      16.876  49.791   8.680  1.00  0.00    +0.000 H 
BRANCH    2    1
ATOM      1  C1  UNL A   1      15.594  51.563   8.432  1.00  0.00    +0.000 C 
ATOM     91  H1  UNL A   1      14.560  51.438   8.185  1.00  0.00    +0.000 H 
ATOM     92  H2  UNL A   1      16.162  51.688   7.535  1.00  0.00    +0.000 H 
ATOM     93  H3  UNL A   1      15.710  52.426   9.053  1.00  0.00    +0.000 H 
ENDBRANCH    2    1
BRANCH    2   78
ATOM    130  H40 UNL A   1      14.313  45.976   9.508  1.00  0.00    +0.000 H 
ATOM     78  C55 UNL A   1      14.989  49.266   9.258  1.00  0.00    +0.000 C 
ATOM     79  C56 UNL A   1      13.656  49.718   9.343  1.00  0.00    +0.000 C 
ATOM     80  C57 UNL A   1      12.591  48.832   9.528  1.00  0.00    +0.000 C 
ATOM     81  C58 UNL A   1      12.818  47.458   9.640  1.00  0.00    +0.000 C 
ATOM     88  C64 UNL A   1      14.125  46.990   9.472  1.00  0.00    +0.000 C 
ATOM     89  C65 UNL A   1      15.182  47.881   9.259  1.00  0.00    +0.000 C 
ATOM     90  F16 UNL A   1      16.384  47.342   9.030  1.00  0.00    +0.000 F 
ATOM    123  H33 UNL A   1      13.461  50.729   9.268  1.00  0.00    +0.000 H 
ATOM    124  H34 UNL A   1      11.627  49.196   9.583  1.00  0.00    +0.000 H 
BRANCH   81   82
ATOM     82  C59 UNL A   1      11.681  46.505   9.938  1.00  0.00    +0.000 C 
ATOM    125  H35 UNL A   1      11.856  45.592   9.409  1.00  0.00    +0.000 H 
ATOM    126  H36 UNL A   1      10.776  46.985   9.627  1.00  0.00    +0.000 H 
BRANCH   82   83
ATOM    129  H39 UNL A   1      10.652  46.509  14.762  1.00  0.00    +0.000 H 
ATOM     83  C60 UNL A   1      11.537  46.190  11.405  1.00  0.00    +0.000 C 
ATOM     84  C61 UNL A   1      12.046  45.116  12.112  1.00  0.00    +0.000 C 
ATOM     85  C62 UNL A   1      11.716  45.163  13.497  1.00  0.00    +0.000 C 
ATOM     86  C63 UNL A   1      10.980  46.283  13.810  1.00  0.00    +0.000 C 
ATOM     87  S1  UNL A   1      10.671  47.253  12.437  1.00  0.00    +0.000 S 
ATOM    127  H37 UNL A   1      12.605  44.362  11.682  1.00  0.00    +0.000 H 
ATOM    128  H38 UNL A   1      11.997  44.444  14.182  1.00  0.00    +0.000 H 
ENDBRANCH   82   83
ENDBRANCH   81   82
ENDBRANCH    2   78
ENDBRANCH    3    2
ENDBRANCH    5    3
ENDBRANCH    6    5
ENDBRANCH    7    6
ENDBRANCH    8    7
ENDBRANCH    9    8
ENDBRANCH   10    9
ENDBRANCH   11   10
ENDBRANCH   12   11
ENDBRANCH   13   12
ENDBRANCH   15   13
ENDBRANCH   19   18
BRANCH   23   24
ATOM     33  C24 UNL A   1      18.859  55.735   1.558  1.00  0.00    +0.000 C 
ATOM     34  F5  UNL A   1      19.432  54.974   2.502  1.00  0.00    +0.000 F 
ATOM     24  C19 UNL A   1      17.591  55.404   1.058  1.00  0.00    +0.000 C 
ATOM     25  C20 UNL A   1      17.034  56.235   0.075  1.00  0.00    +0.000 C 
ATOM     26  F1  UNL A   1      15.829  55.955  -0.443  1.00  0.00    +0.000 F 
ATOM     27  C21 UNL A   1      17.732  57.340  -0.408  1.00  0.00    +0.000 C 
ATOM     28  F2  UNL A   1      17.200  58.094  -1.379  1.00  0.00    +0.000 F 
ATOM     29  C22 UNL A   1      18.982  57.651   0.104  1.00  0.00    +0.000 C 
ATOM     30  F3  UNL A   1      19.651  58.716  -0.358  1.00  0.00    +0.000 F 
ATOM     31  C23 UNL A   1      19.544  56.854   1.091  1.00  0.00    +0.000 C 
ATOM     32  F4  UNL A   1      20.747  57.160   1.594  1.00  0.00    +0.000 F 
ENDBRANCH   23   24
BRANCH   40   41
ATOM     41  C30 UNL A   1      16.650  48.450  -0.584  1.00  0.00    +0.000 C 
ATOM     42  C31 UNL A   1      17.908  47.841  -0.470  1.00  0.00    +0.000 C 
ATOM     43  F6  UNL A   1      18.727  48.167   0.541  1.00  0.00    +0.000 F 
ATOM     44  C32 UNL A   1      18.343  46.917  -1.417  1.00  0.00    +0.000 C 
ATOM     45  F7  UNL A   1      19.565  46.376  -1.310  1.00  0.00    +0.000 F 
ATOM     46  C33 UNL A   1      17.520  46.568  -2.477  1.00  0.00    +0.000 C 
ATOM     47  F8  UNL A   1      17.939  45.675  -3.385  1.00  0.00    +0.000 F 
ATOM     48  C34 UNL A   1      16.268  47.148  -2.602  1.00  0.00    +0.000 C 
ATOM     49  F9  UNL A   1      15.467  46.804  -3.621  1.00  0.00    +0.000 F 
ATOM     50  C35 UNL A   1      15.838  48.089  -1.670  1.00  0.00    +0.000 C 
ATOM     51  F10 UNL A   1      14.626  48.642  -1.820  1.00  0.00    +0.000 F 
ENDBRANCH   40   41
BRANCH   55   56
ATOM     65  C44 UNL A   1      12.714  47.010   5.777  1.00  0.00    +0.000 C 
ATOM     66  F15 UNL A   1      13.936  47.208   6.292  1.00  0.00    +0.000 F 
ATOM     56  C39 UNL A   1      12.233  47.852   4.764  1.00  0.00    +0.000 C 
ATOM     57  C40 UNL A   1      10.952  47.601   4.256  1.00  0.00    +0.000 C 
ATOM     58  F11 UNL A   1      10.444  48.394   3.301  1.00  0.00    +0.000 F 
ATOM     59  C41 UNL A   1      10.173  46.558   4.753  1.00  0.00    +0.000 C 
ATOM     60  F12 UNL A   1       8.937  46.362   4.275  1.00  0.00    +0.000 F 
ATOM     61  C42 UNL A   1      10.671  45.732   5.749  1.00  0.00    +0.000 C 
ATOM     62  F13 UNL A   1       9.924  44.726   6.224  1.00  0.00    +0.000 F 
ATOM     63  C43 UNL A   1      11.943  45.954   6.257  1.00  0.00    +0.000 C 
ATOM     64  F14 UNL A   1      12.431  45.151   7.212  1.00  0.00    +0.000 F 
ENDBRANCH   55   56
TORSDOF 19
ENDMDL
