MODEL 1
REMARK VINA RESULT:     -10.1      0.000      0.000
ROOT
ATOM    134  H36 UNL A   1      46.306  29.656  30.158  1.00  0.00    +0.000 H 
ATOM    135  H37 UNL A   1      45.091  29.653  32.530  1.00  0.00    +0.000 H 
ATOM    136  H38 UNL A   1      43.966  32.913  30.466  1.00  0.00    +0.000 H 
ATOM    137  H39 UNL A   1      36.860  28.590  30.537  1.00  0.00    +0.000 H 
ATOM    138  H40 UNL A   1      38.409  26.851  29.501  1.00  0.00    +0.000 H 
ATOM    139  H41 UNL A   1      40.579  30.374  29.878  1.00  0.00    +0.000 H 
ATOM    140  H42 UNL A   1      39.533  33.368  29.572  1.00  0.00    +0.000 H 
ATOM    141  H43 UNL A   1      42.024  33.301  30.228  1.00  0.00    +0.000 H 
ATOM    142  H44 UNL A   1      43.680  30.182  25.674  1.00  0.00    +0.000 H 
ATOM    143  H45 UNL A   1      41.587  28.696  25.827  1.00  0.00    +0.000 H 
ATOM     40  C34 UNL A   1      40.893  28.001  28.513  1.00  0.00    +0.000 C 
ATOM     41  C35 UNL A   1      41.991  28.899  28.050  1.00  0.00    +0.000 C 
ATOM     42  N5  UNL A   1      42.904  29.483  28.762  1.00  0.00    +0.000 N 
ATOM     43  C36 UNL A   1      43.657  30.246  27.870  1.00  0.00    +0.000 C 
ATOM     44  C37 UNL A   1      44.468  31.258  28.285  1.00  0.00    +0.000 C 
ATOM     56  C44 UNL A   1      44.803  31.143  29.676  1.00  0.00    +0.000 C 
ATOM     57  C45 UNL A   1      45.493  30.225  30.442  1.00  0.00    +0.000 C 
ATOM     58  C46 UNL A   1      44.844  30.233  31.712  1.00  0.00    +0.000 C 
ATOM     59  C47 UNL A   1      43.812  31.169  31.644  1.00  0.00    +0.000 C 
ATOM     60  N6  UNL A   1      44.153  31.952  30.572  1.00  0.00    +0.000 N 
ATOM     61  C48 UNL A   1      42.565  31.294  32.358  1.00  0.00    +0.000 C 
ATOM     73  C55 UNL A   1      41.468  31.950  31.881  1.00  0.00    +0.000 C 
ATOM     74  N7  UNL A   1      40.194  31.606  32.305  1.00  0.00    +0.000 N 
ATOM     75  C56 UNL A   1      39.413  31.928  31.312  1.00  0.00    +0.000 C 
ATOM     76  C57 UNL A   1      38.190  31.173  30.945  1.00  0.00    +0.000 C 
ATOM     88  C64 UNL A   1      38.583  29.978  30.446  1.00  0.00    +0.000 C 
ATOM     89  C65 UNL A   1      37.841  28.748  30.261  1.00  0.00    +0.000 C 
ATOM     90  C66 UNL A   1      38.647  27.841  29.667  1.00  0.00    +0.000 C 
ATOM     91  C67 UNL A   1      39.908  28.481  29.298  1.00  0.00    +0.000 C 
ATOM     92  N8  UNL A   1      39.836  29.729  29.872  1.00  0.00    +0.000 N 
ATOM     93  C68 UNL A   1      39.985  32.839  30.335  1.00  0.00    +0.000 C 
ATOM     94  C69 UNL A   1      41.265  32.795  30.711  1.00  0.00    +0.000 C 
ATOM     95  C70 UNL A   1      43.223  29.875  26.547  1.00  0.00    +0.000 C 
ATOM     96  C71 UNL A   1      42.152  29.081  26.600  1.00  0.00    +0.000 C 
ENDROOT
BRANCH   40   39
ATOM     97  C72 UNL A   1      40.149  26.129  27.013  1.00  0.00    +0.000 C 
ATOM     98  C73 UNL A   1      40.239  24.783  26.663  1.00  0.00    +0.000 C 
ATOM     36  C30 UNL A   1      41.157  23.923  27.294  1.00  0.00    +0.000 C 
ATOM     37  C31 UNL A   1      42.046  24.473  28.215  1.00  0.00    +0.000 C 
ATOM    132  H34 UNL A   1      42.796  23.886  28.616  1.00  0.00    +0.000 H 
ATOM     38  C32 UNL A   1      41.932  25.801  28.603  1.00  0.00    +0.000 C 
ATOM    133  H35 UNL A   1      42.569  26.183  29.319  1.00  0.00    +0.000 H 
ATOM     39  C33 UNL A   1      40.959  26.623  28.030  1.00  0.00    +0.000 C 
ATOM    144  H46 UNL A   1      39.489  26.753  26.523  1.00  0.00    +0.000 H 
ATOM    145  H47 UNL A   1      39.619  24.409  25.928  1.00  0.00    +0.000 H 
BRANCH   36   34
ATOM     34  C29 UNL A   1      41.050  22.475  26.960  1.00  0.00    +0.000 C 
ATOM     35  O2  UNL A   1      40.444  21.734  27.741  1.00  0.00    +0.000 O 
BRANCH   34   33
ATOM     33  N4  UNL A   1      41.626  21.874  25.874  1.00  0.00    +0.000 N 
ATOM    131  H33 UNL A   1      41.129  22.039  25.040  1.00  0.00    +0.000 H 
BRANCH   33   32
ATOM    129  H31 UNL A   1      42.922  20.420  26.528  1.00  0.00    +0.000 H 
ATOM    130  H32 UNL A   1      42.646  20.498  24.772  1.00  0.00    +0.000 H 
ATOM     32  C28 UNL A   1      42.803  21.052  25.674  1.00  0.00    +0.000 C 
BRANCH   32   31
ATOM    127  H29 UNL A   1      44.527  22.024  26.446  1.00  0.00    +0.000 H 
ATOM     31  C27 UNL A   1      44.093  21.855  25.484  1.00  0.00    +0.000 C 
ATOM    128  H30 UNL A   1      44.721  21.277  24.838  1.00  0.00    +0.000 H 
BRANCH   31   30
ATOM    126  H28 UNL A   1      42.852  23.424  24.848  1.00  0.00    +0.000 H 
ATOM    125  H27 UNL A   1      44.274  23.138  23.802  1.00  0.00    +0.000 H 
ATOM     30  C26 UNL A   1      43.899  23.213  24.802  1.00  0.00    +0.000 C 
BRANCH   30   29
ATOM    123  H25 UNL A   1      44.536  24.245  26.545  1.00  0.00    +0.000 H 
ATOM    124  H26 UNL A   1      45.611  24.387  25.126  1.00  0.00    +0.000 H 
ATOM     29  C25 UNL A   1      44.603  24.386  25.487  1.00  0.00    +0.000 C 
BRANCH   29   28
ATOM    121  H23 UNL A   1      43.718  25.762  24.125  1.00  0.00    +0.000 H 
ATOM    122  H24 UNL A   1      43.208  25.930  25.823  1.00  0.00    +0.000 H 
ATOM     28  C24 UNL A   1      44.023  25.766  25.151  1.00  0.00    +0.000 C 
BRANCH   28   27
ATOM     27  C23 UNL A   1      45.002  26.921  25.354  1.00  0.00    +0.000 C 
ATOM    119  H21 UNL A   1      45.940  26.664  24.908  1.00  0.00    +0.000 H 
ATOM    120  H22 UNL A   1      44.589  27.794  24.895  1.00  0.00    +0.000 H 
BRANCH   27   26
ATOM     26  N3  UNL A   1      45.209  27.199  26.762  1.00  0.00    +0.000 N 
ATOM    118  H20 UNL A   1      44.411  27.500  27.254  1.00  0.00    +0.000 H 
BRANCH   26   24
ATOM     25  O1  UNL A   1      47.088  28.093  27.549  1.00  0.00    +0.000 O 
ATOM     24  C22 UNL A   1      46.352  27.104  27.503  1.00  0.00    +0.000 C 
BRANCH   24   23
ATOM    116  H18 UNL A   1      45.958  25.091  28.019  1.00  0.00    +0.000 H 
ATOM    117  H19 UNL A   1      47.670  25.493  27.731  1.00  0.00    +0.000 H 
ATOM     23  C21 UNL A   1      46.745  25.800  28.174  1.00  0.00    +0.000 C 
BRANCH   23   22
ATOM      2  C2  UNL A   1      50.349  25.166  31.935  1.00  0.00    +0.000 C 
ATOM      3  C3  UNL A   1      50.539  25.174  30.553  1.00  0.00    +0.000 C 
ATOM      4  C4  UNL A   1      49.487  25.456  29.678  1.00  0.00    +0.000 C 
ATOM      5  C5  UNL A   1      48.214  25.711  30.217  1.00  0.00    +0.000 C 
ATOM      6  C6  UNL A   1      48.003  25.752  31.596  1.00  0.00    +0.000 C 
ATOM      7  C7  UNL A   1      49.085  25.472  32.462  1.00  0.00    +0.000 C 
ATOM    102  H4  UNL A   1      51.476  24.969  30.170  1.00  0.00    +0.000 H 
ATOM    104  H6  UNL A   1      48.944  25.492  33.484  1.00  0.00    +0.000 H 
ATOM    103  H5  UNL A   1      49.642  25.475  28.658  1.00  0.00    +0.000 H 
ATOM      8  C8  UNL A   1      46.633  26.088  31.803  1.00  0.00    +0.000 C 
ATOM     20  C19 UNL A   1      46.034  26.240  30.560  1.00  0.00    +0.000 C 
ATOM     22  N2  UNL A   1      46.983  25.913  29.609  1.00  0.00    +0.000 N 
BRANCH    2    1
ATOM      1  C1  UNL A   1      51.497  24.822  32.839  1.00  0.00    +0.000 C 
ATOM     99  H1  UNL A   1      51.120  24.508  33.790  1.00  0.00    +0.000 H 
ATOM    100  H2  UNL A   1      52.120  25.682  32.969  1.00  0.00    +0.000 H 
ATOM    101  H3  UNL A   1      52.069  24.029  32.403  1.00  0.00    +0.000 H 
ENDBRANCH    2    1
BRANCH    8    9
ATOM      9  C9  UNL A   1      45.907  26.258  33.056  1.00  0.00    +0.000 C 
ATOM     10  C10 UNL A   1      46.098  27.439  33.767  1.00  0.00    +0.000 C 
ATOM     11  C11 UNL A   1      45.372  27.617  34.922  1.00  0.00    +0.000 C 
ATOM    105  H7  UNL A   1      46.762  28.158  33.438  1.00  0.00    +0.000 H 
ATOM     13  C12 UNL A   1      44.296  25.560  34.730  1.00  0.00    +0.000 C 
ATOM    106  H8  UNL A   1      45.511  28.490  35.455  1.00  0.00    +0.000 H 
ATOM     12  N1  UNL A   1      44.488  26.716  35.400  1.00  0.00    +0.000 N 
ATOM     14  C13 UNL A   1      43.374  24.612  35.202  1.00  0.00    +0.000 C 
ATOM    112  H14 UNL A   1      45.308  23.828  32.027  1.00  0.00    +0.000 H 
ATOM     18  C17 UNL A   1      44.785  24.039  32.891  1.00  0.00    +0.000 C 
ATOM     19  C18 UNL A   1      45.005  25.275  33.541  1.00  0.00    +0.000 C 
ATOM     17  C16 UNL A   1      43.886  23.102  33.379  1.00  0.00    +0.000 C 
ATOM    111  H13 UNL A   1      43.747  22.203  32.891  1.00  0.00    +0.000 H 
ATOM     16  C15 UNL A   1      43.177  23.391  34.532  1.00  0.00    +0.000 C 
ATOM    110  H12 UNL A   1      42.501  22.705  34.905  1.00  0.00    +0.000 H 
BRANCH   14   15
ATOM    107  H9  UNL A   1      41.532  25.030  36.162  1.00  0.00    +0.000 H 
ATOM    108  H10 UNL A   1      42.930  25.721  36.952  1.00  0.00    +0.000 H 
ATOM    109  H11 UNL A   1      42.609  24.008  37.083  1.00  0.00    +0.000 H 
ATOM     15  C14 UNL A   1      42.551  24.860  36.439  1.00  0.00    +0.000 C 
ENDBRANCH   14   15
ENDBRANCH    8    9
BRANCH   20   21
ATOM    113  H15 UNL A   1      44.438  27.617  30.581  1.00  0.00    +0.000 H 
ATOM    114  H16 UNL A   1      43.953  25.944  30.716  1.00  0.00    +0.000 H 
ATOM    115  H17 UNL A   1      44.480  26.580  29.176  1.00  0.00    +0.000 H 
ATOM     21  C20 UNL A   1      44.626  26.622  30.236  1.00  0.00    +0.000 C 
ENDBRANCH   20   21
ENDBRANCH   23   22
ENDBRANCH   24   23
ENDBRANCH   26   24
ENDBRANCH   27   26
ENDBRANCH   28   27
ENDBRANCH   29   28
ENDBRANCH   30   29
ENDBRANCH   31   30
ENDBRANCH   32   31
ENDBRANCH   33   32
ENDBRANCH   34   33
ENDBRANCH   36   34
ENDBRANCH   40   39
BRANCH   44   45
ATOM     45  C38 UNL A   1      44.712  32.528  27.505  1.00  0.00    +0.000 C 
ATOM     46  C39 UNL A   1      45.917  32.687  26.790  1.00  0.00    +0.000 C 
ATOM     47  F1  UNL A   1      46.736  31.644  26.589  1.00  0.00    +0.000 F 
ATOM     48  C40 UNL A   1      46.353  33.938  26.345  1.00  0.00    +0.000 C 
ATOM     49  F2  UNL A   1      47.560  34.059  25.777  1.00  0.00    +0.000 F 
ATOM     50  C41 UNL A   1      45.576  35.064  26.546  1.00  0.00    +0.000 C 
ATOM     51  F3  UNL A   1      46.017  36.272  26.172  1.00  0.00    +0.000 F 
ATOM     52  C42 UNL A   1      44.360  34.939  27.184  1.00  0.00    +0.000 C 
ATOM     53  F4  UNL A   1      43.602  36.022  27.406  1.00  0.00    +0.000 F 
ATOM     54  C43 UNL A   1      43.947  33.701  27.677  1.00  0.00    +0.000 C 
ATOM     55  F5  UNL A   1      42.832  33.718  28.416  1.00  0.00    +0.000 F 
ENDBRANCH   44   45
BRANCH   61   62
ATOM     65  C51 UNL A   1      42.242  30.017  35.957  1.00  0.00    +0.000 C 
ATOM     66  F7  UNL A   1      42.395  30.464  37.213  1.00  0.00    +0.000 F 
ATOM     67  C52 UNL A   1      41.764  28.736  35.734  1.00  0.00    +0.000 C 
ATOM     68  F8  UNL A   1      41.447  27.947  36.771  1.00  0.00    +0.000 F 
ATOM     69  C53 UNL A   1      41.582  28.284  34.437  1.00  0.00    +0.000 C 
ATOM     70  F9  UNL A   1      41.070  27.065  34.218  1.00  0.00    +0.000 F 
ATOM     71  C54 UNL A   1      41.900  29.105  33.359  1.00  0.00    +0.000 C 
ATOM     72  F10 UNL A   1      41.685  28.648  32.115  1.00  0.00    +0.000 F 
ATOM     62  C49 UNL A   1      42.380  30.407  33.555  1.00  0.00    +0.000 C 
ATOM     63  C50 UNL A   1      42.523  30.855  34.879  1.00  0.00    +0.000 C 
ATOM     64  F6  UNL A   1      42.877  32.122  35.140  1.00  0.00    +0.000 F 
ENDBRANCH   61   62
BRANCH   76   77
ATOM     77  C58 UNL A   1      36.867  31.825  30.810  1.00  0.00    +0.000 C 
ATOM     78  C59 UNL A   1      36.025  31.977  31.923  1.00  0.00    +0.000 C 
ATOM     79  F11 UNL A   1      36.297  31.333  33.068  1.00  0.00    +0.000 F 
ATOM     80  C60 UNL A   1      34.936  32.853  31.904  1.00  0.00    +0.000 C 
ATOM     81  F12 UNL A   1      34.198  33.026  33.008  1.00  0.00    +0.000 F 
ATOM     82  C61 UNL A   1      34.651  33.592  30.766  1.00  0.00    +0.000 C 
ATOM     83  F13 UNL A   1      33.649  34.481  30.769  1.00  0.00    +0.000 F 
ATOM     84  C62 UNL A   1      35.439  33.437  29.641  1.00  0.00    +0.000 C 
ATOM     85  F14 UNL A   1      35.194  34.169  28.546  1.00  0.00    +0.000 F 
ATOM     86  C63 UNL A   1      36.531  32.570  29.663  1.00  0.00    +0.000 C 
ATOM     87  F15 UNL A   1      37.310  32.547  28.572  1.00  0.00    +0.000 F 
ENDBRANCH   76   77
TORSDOF 20
ENDMDL
MODEL 2
REMARK VINA RESULT:      -9.9      1.398      2.177
ROOT
ATOM    134  H36 UNL A   1      46.349  29.591  30.027  1.00  0.00    +0.000 H 
ATOM    135  H37 UNL A   1      45.176  29.561  32.418  1.00  0.00    +0.000 H 
ATOM    136  H38 UNL A   1      44.045  32.864  30.427  1.00  0.00    +0.000 H 
ATOM    137  H39 UNL A   1      36.902  28.602  30.552  1.00  0.00    +0.000 H 
ATOM    138  H40 UNL A   1      38.417  26.867  29.461  1.00  0.00    +0.000 H 
ATOM    139  H41 UNL A   1      40.626  30.364  29.857  1.00  0.00    +0.000 H 
ATOM    140  H42 UNL A   1      39.601  33.371  29.618  1.00  0.00    +0.000 H 
ATOM    141  H43 UNL A   1      42.102  33.272  30.228  1.00  0.00    +0.000 H 
ATOM    142  H44 UNL A   1      43.651  30.213  25.598  1.00  0.00    +0.000 H 
ATOM    143  H45 UNL A   1      41.548  28.743  25.763  1.00  0.00    +0.000 H 
ATOM     40  C34 UNL A   1      40.895  28.011  28.449  1.00  0.00    +0.000 C 
ATOM     41  C35 UNL A   1      41.993  28.907  27.981  1.00  0.00    +0.000 C 
ATOM     42  N5  UNL A   1      42.922  29.471  28.687  1.00  0.00    +0.000 N 
ATOM     43  C36 UNL A   1      43.666  30.242  27.794  1.00  0.00    +0.000 C 
ATOM     44  C37 UNL A   1      44.494  31.240  28.211  1.00  0.00    +0.000 C 
ATOM     56  C44 UNL A   1      44.852  31.099  29.595  1.00  0.00    +0.000 C 
ATOM     57  C45 UNL A   1      45.546  30.163  30.334  1.00  0.00    +0.000 C 
ATOM     58  C46 UNL A   1      44.919  30.157  31.614  1.00  0.00    +0.000 C 
ATOM     59  C47 UNL A   1      43.895  31.103  31.579  1.00  0.00    +0.000 C 
ATOM     60  N6  UNL A   1      44.224  31.900  30.514  1.00  0.00    +0.000 N 
ATOM     61  C48 UNL A   1      42.662  31.226  32.316  1.00  0.00    +0.000 C 
ATOM     73  C55 UNL A   1      41.563  31.900  31.870  1.00  0.00    +0.000 C 
ATOM     74  N7  UNL A   1      40.293  31.560  32.310  1.00  0.00    +0.000 N 
ATOM     75  C56 UNL A   1      39.498  31.905  31.336  1.00  0.00    +0.000 C 
ATOM     76  C57 UNL A   1      38.262  31.167  30.978  1.00  0.00    +0.000 C 
ATOM     88  C64 UNL A   1      38.636  29.976  30.453  1.00  0.00    +0.000 C 
ATOM     89  C65 UNL A   1      37.880  28.756  30.261  1.00  0.00    +0.000 C 
ATOM     90  C66 UNL A   1      38.667  27.852  29.639  1.00  0.00    +0.000 C 
ATOM     91  C67 UNL A   1      39.928  28.486  29.258  1.00  0.00    +0.000 C 
ATOM     92  N8  UNL A   1      39.876  29.725  29.854  1.00  0.00    +0.000 N 
ATOM     93  C68 UNL A   1      40.061  32.826  30.364  1.00  0.00    +0.000 C 
ATOM     94  C69 UNL A   1      41.347  32.766  30.716  1.00  0.00    +0.000 C 
ATOM     95  C70 UNL A   1      43.206  29.896  26.473  1.00  0.00    +0.000 C 
ATOM     96  C71 UNL A   1      42.130  29.111  26.532  1.00  0.00    +0.000 C 
ENDROOT
BRANCH   40   39
ATOM     97  C72 UNL A   1      40.398  26.258  26.721  1.00  0.00    +0.000 C 
ATOM     98  C73 UNL A   1      40.432  24.915  26.350  1.00  0.00    +0.000 C 
ATOM     36  C30 UNL A   1      41.035  23.944  27.173  1.00  0.00    +0.000 C 
ATOM     37  C31 UNL A   1      41.684  24.374  28.327  1.00  0.00    +0.000 C 
ATOM    132  H34 UNL A   1      42.222  23.698  28.894  1.00  0.00    +0.000 H 
ATOM     38  C32 UNL A   1      41.615  25.702  28.727  1.00  0.00    +0.000 C 
ATOM    133  H35 UNL A   1      42.064  25.997  29.607  1.00  0.00    +0.000 H 
ATOM     39  C33 UNL A   1      40.940  26.640  27.943  1.00  0.00    +0.000 C 
ATOM    144  H46 UNL A   1      39.976  26.961  26.094  1.00  0.00    +0.000 H 
ATOM    145  H47 UNL A   1      40.006  24.626  25.456  1.00  0.00    +0.000 H 
BRANCH   36   34
ATOM     34  C29 UNL A   1      40.865  22.523  26.758  1.00  0.00    +0.000 C 
ATOM     35  O2  UNL A   1      39.758  21.995  26.903  1.00  0.00    +0.000 O 
BRANCH   34   33
ATOM     33  N4  UNL A   1      41.864  21.720  26.279  1.00  0.00    +0.000 N 
ATOM    131  H33 UNL A   1      41.521  20.953  25.765  1.00  0.00    +0.000 H 
BRANCH   33   32
ATOM    129  H31 UNL A   1      43.596  22.390  27.157  1.00  0.00    +0.000 H 
ATOM    130  H32 UNL A   1      43.632  20.734  26.506  1.00  0.00    +0.000 H 
ATOM     32  C28 UNL A   1      43.311  21.744  26.354  1.00  0.00    +0.000 C 
BRANCH   32   31
ATOM    127  H29 UNL A   1      45.044  22.097  25.176  1.00  0.00    +0.000 H 
ATOM     31  C27 UNL A   1      43.989  22.238  25.073  1.00  0.00    +0.000 C 
ATOM    128  H30 UNL A   1      43.569  21.673  24.267  1.00  0.00    +0.000 H 
BRANCH   31   30
ATOM    126  H28 UNL A   1      42.671  23.835  24.729  1.00  0.00    +0.000 H 
ATOM    125  H27 UNL A   1      44.205  23.934  23.814  1.00  0.00    +0.000 H 
ATOM     30  C26 UNL A   1      43.733  23.714  24.750  1.00  0.00    +0.000 C 
BRANCH   30   29
ATOM    123  H25 UNL A   1      43.680  24.587  26.684  1.00  0.00    +0.000 H 
ATOM    124  H26 UNL A   1      45.295  24.477  25.930  1.00  0.00    +0.000 H 
ATOM     29  C25 UNL A   1      44.258  24.704  25.792  1.00  0.00    +0.000 C 
BRANCH   29   28
ATOM    121  H23 UNL A   1      44.087  26.215  24.302  1.00  0.00    +0.000 H 
ATOM    122  H24 UNL A   1      43.357  26.607  25.879  1.00  0.00    +0.000 H 
ATOM     28  C24 UNL A   1      44.191  26.176  25.367  1.00  0.00    +0.000 C 
BRANCH   28   27
ATOM     27  C23 UNL A   1      45.419  26.995  25.758  1.00  0.00    +0.000 C 
ATOM    119  H21 UNL A   1      45.149  28.029  25.800  1.00  0.00    +0.000 H 
ATOM    120  H22 UNL A   1      45.761  26.651  26.712  1.00  0.00    +0.000 H 
BRANCH   27   26
ATOM     26  N3  UNL A   1      46.495  26.827  24.800  1.00  0.00    +0.000 N 
ATOM    118  H20 UNL A   1      46.483  27.452  24.039  1.00  0.00    +0.000 H 
BRANCH   26   24
ATOM     25  O1  UNL A   1      47.342  24.850  24.229  1.00  0.00    +0.000 O 
ATOM     24  C22 UNL A   1      47.523  25.927  24.803  1.00  0.00    +0.000 C 
BRANCH   24   23
ATOM    116  H18 UNL A   1      49.381  25.304  25.597  1.00  0.00    +0.000 H 
ATOM    117  H19 UNL A   1      49.310  26.992  25.032  1.00  0.00    +0.000 H 
ATOM     23  C21 UNL A   1      48.808  26.207  25.559  1.00  0.00    +0.000 C 
BRANCH   23   22
ATOM      2  C2  UNL A   1      49.522  30.290  28.779  1.00  0.00    +0.000 C 
ATOM      3  C3  UNL A   1      49.643  30.258  27.390  1.00  0.00    +0.000 C 
ATOM      4  C4  UNL A   1      49.321  29.110  26.659  1.00  0.00    +0.000 C 
ATOM      5  C5  UNL A   1      48.891  27.968  27.357  1.00  0.00    +0.000 C 
ATOM      6  C6  UNL A   1      48.719  27.984  28.743  1.00  0.00    +0.000 C 
ATOM      7  C7  UNL A   1      49.043  29.159  29.458  1.00  0.00    +0.000 C 
ATOM    102  H4  UNL A   1      49.976  31.098  26.891  1.00  0.00    +0.000 H 
ATOM    104  H6  UNL A   1      48.927  29.185  30.483  1.00  0.00    +0.000 H 
ATOM    103  H5  UNL A   1      49.399  29.101  25.631  1.00  0.00    +0.000 H 
ATOM      8  C8  UNL A   1      48.225  26.701  29.121  1.00  0.00    +0.000 C 
ATOM     20  C19 UNL A   1      48.108  25.929  27.973  1.00  0.00    +0.000 C 
ATOM     22  N2  UNL A   1      48.608  26.680  26.925  1.00  0.00    +0.000 N 
BRANCH    2    1
ATOM      1  C1  UNL A   1      49.913  31.530  29.528  1.00  0.00    +0.000 C 
ATOM     99  H1  UNL A   1      50.662  32.059  28.977  1.00  0.00    +0.000 H 
ATOM    100  H2  UNL A   1      50.300  31.260  30.488  1.00  0.00    +0.000 H 
ATOM    101  H3  UNL A   1      49.053  32.157  29.653  1.00  0.00    +0.000 H 
ENDBRANCH    2    1
BRANCH    8    9
ATOM      9  C9  UNL A   1      47.881  26.203  30.447  1.00  0.00    +0.000 C 
ATOM     10  C10 UNL A   1      48.913  25.746  31.261  1.00  0.00    +0.000 C 
ATOM     11  C11 UNL A   1      48.590  25.325  32.531  1.00  0.00    +0.000 C 
ATOM    105  H7  UNL A   1      49.888  25.724  30.924  1.00  0.00    +0.000 H 
ATOM     13  C12 UNL A   1      46.320  25.765  32.251  1.00  0.00    +0.000 C 
ATOM    106  H8  UNL A   1      49.351  24.983  33.139  1.00  0.00    +0.000 H 
ATOM     12  N1  UNL A   1      47.335  25.333  33.029  1.00  0.00    +0.000 N 
ATOM     14  C13 UNL A   1      45.007  25.793  32.750  1.00  0.00    +0.000 C 
ATOM    112  H14 UNL A   1      45.606  26.934  29.177  1.00  0.00    +0.000 H 
ATOM     18  C17 UNL A   1      45.443  26.621  30.146  1.00  0.00    +0.000 C 
ATOM     19  C18 UNL A   1      46.545  26.203  30.926  1.00  0.00    +0.000 C 
ATOM     17  C16 UNL A   1      44.148  26.624  30.645  1.00  0.00    +0.000 C 
ATOM    111  H13 UNL A   1      43.358  26.928  30.053  1.00  0.00    +0.000 H 
ATOM     16  C15 UNL A   1      43.931  26.214  31.949  1.00  0.00    +0.000 C 
ATOM    110  H12 UNL A   1      42.974  26.216  32.335  1.00  0.00    +0.000 H 
BRANCH   14   15
ATOM    107  H9  UNL A   1      43.900  25.988  34.546  1.00  0.00    +0.000 H 
ATOM    108  H10 UNL A   1      45.564  25.505  34.775  1.00  0.00    +0.000 H 
ATOM    109  H11 UNL A   1      44.393  24.353  34.178  1.00  0.00    +0.000 H 
ATOM     15  C14 UNL A   1      44.693  25.380  34.165  1.00  0.00    +0.000 C 
ENDBRANCH   14   15
ENDBRANCH    8    9
BRANCH   20   21
ATOM    113  H15 UNL A   1      47.486  24.297  26.792  1.00  0.00    +0.000 H 
ATOM    114  H16 UNL A   1      46.664  24.435  28.328  1.00  0.00    +0.000 H 
ATOM    115  H17 UNL A   1      48.310  23.851  28.266  1.00  0.00    +0.000 H 
ATOM     21  C20 UNL A   1      47.606  24.529  27.830  1.00  0.00    +0.000 C 
ENDBRANCH   20   21
ENDBRANCH   23   22
ENDBRANCH   24   23
ENDBRANCH   26   24
ENDBRANCH   27   26
ENDBRANCH   28   27
ENDBRANCH   29   28
ENDBRANCH   30   29
ENDBRANCH   31   30
ENDBRANCH   32   31
ENDBRANCH   33   32
ENDBRANCH   34   33
ENDBRANCH   36   34
ENDBRANCH   40   39
BRANCH   44   45
ATOM     45  C38 UNL A   1      44.736  32.520  27.448  1.00  0.00    +0.000 C 
ATOM     46  C39 UNL A   1      45.955  32.704  26.762  1.00  0.00    +0.000 C 
ATOM     47  F1  UNL A   1      46.795  31.675  26.572  1.00  0.00    +0.000 F 
ATOM     48  C40 UNL A   1      46.381  33.965  26.338  1.00  0.00    +0.000 C 
ATOM     49  F2  UNL A   1      47.599  34.111  25.799  1.00  0.00    +0.000 F 
ATOM     50  C41 UNL A   1      45.581  35.077  26.530  1.00  0.00    +0.000 C 
ATOM     51  F3  UNL A   1      46.012  36.295  26.177  1.00  0.00    +0.000 F 
ATOM     52  C42 UNL A   1      44.353  34.928  27.138  1.00  0.00    +0.000 C 
ATOM     53  F4  UNL A   1      43.573  35.997  27.350  1.00  0.00    +0.000 F 
ATOM     54  C43 UNL A   1      43.949  33.679  27.611  1.00  0.00    +0.000 C 
ATOM     55  F5  UNL A   1      42.816  33.673  28.323  1.00  0.00    +0.000 F 
ENDBRANCH   44   45
BRANCH   61   62
ATOM     65  C51 UNL A   1      42.379  29.897  35.899  1.00  0.00    +0.000 C 
ATOM     66  F7  UNL A   1      42.548  30.323  37.160  1.00  0.00    +0.000 F 
ATOM     67  C52 UNL A   1      41.897  28.619  35.663  1.00  0.00    +0.000 C 
ATOM     68  F8  UNL A   1      41.590  27.815  36.692  1.00  0.00    +0.000 F 
ATOM     69  C53 UNL A   1      41.698  28.187  34.362  1.00  0.00    +0.000 C 
ATOM     70  F9  UNL A   1      41.182  26.973  34.131  1.00  0.00    +0.000 F 
ATOM     71  C54 UNL A   1      42.004  29.024  33.292  1.00  0.00    +0.000 C 
ATOM     72  F10 UNL A   1      41.774  28.586  32.045  1.00  0.00    +0.000 F 
ATOM     62  C49 UNL A   1      42.489  30.322  33.502  1.00  0.00    +0.000 C 
ATOM     63  C50 UNL A   1      42.649  30.750  34.831  1.00  0.00    +0.000 C 
ATOM     64  F6  UNL A   1      43.009  32.012  35.106  1.00  0.00    +0.000 F 
ENDBRANCH   61   62
BRANCH   76   77
ATOM     77  C58 UNL A   1      36.943  31.832  30.876  1.00  0.00    +0.000 C 
ATOM     78  C59 UNL A   1      36.115  31.959  32.003  1.00  0.00    +0.000 C 
ATOM     79  F11 UNL A   1      36.395  31.282  33.126  1.00  0.00    +0.000 F 
ATOM     80  C60 UNL A   1      35.033  32.844  32.020  1.00  0.00    +0.000 C 
ATOM     81  F12 UNL A   1      34.309  32.992  33.138  1.00  0.00    +0.000 F 
ATOM     82  C61 UNL A   1      34.741  33.616  30.907  1.00  0.00    +0.000 C 
ATOM     83  F13 UNL A   1      33.746  34.513  30.946  1.00  0.00    +0.000 F 
ATOM     84  C62 UNL A   1      35.514  33.487  29.769  1.00  0.00    +0.000 C 
ATOM     85  F14 UNL A   1      35.263  34.251  28.697  1.00  0.00    +0.000 F 
ATOM     86  C63 UNL A   1      36.600  32.611  29.754  1.00  0.00    +0.000 C 
ATOM     87  F15 UNL A   1      37.367  32.612  28.654  1.00  0.00    +0.000 F 
ENDBRANCH   76   77
TORSDOF 20
ENDMDL
MODEL 3
REMARK VINA RESULT:      -9.7     30.877     36.608
ROOT
ATOM    134  H36 UNL A   1      24.949  20.597   9.535  1.00  0.00    +0.000 H 
ATOM    135  H37 UNL A   1      26.705  19.637   7.776  1.00  0.00    +0.000 H 
ATOM    136  H38 UNL A   1      25.375  16.637  10.095  1.00  0.00    +0.000 H 
ATOM    137  H39 UNL A   1      21.957  14.589   2.794  1.00  0.00    +0.000 H 
ATOM    138  H40 UNL A   1      21.036  16.952   3.050  1.00  0.00    +0.000 H 
ATOM    139  H41 UNL A   1      23.051  16.021   6.562  1.00  0.00    +0.000 H 
ATOM    140  H42 UNL A   1      23.265  13.192   8.013  1.00  0.00    +0.000 H 
ATOM    141  H43 UNL A   1      24.641  14.989   9.242  1.00  0.00    +0.000 H 
ATOM    142  H44 UNL A   1      20.189  18.535  10.142  1.00  0.00    +0.000 H 
ATOM    143  H45 UNL A   1      19.243  18.075   7.796  1.00  0.00    +0.000 H 
ATOM     40  C34 UNL A   1      21.260  17.959   5.771  1.00  0.00    +0.000 C 
ATOM     41  C35 UNL A   1      21.442  18.133   7.242  1.00  0.00    +0.000 C 
ATOM     42  N5  UNL A   1      22.542  18.347   7.894  1.00  0.00    +0.000 N 
ATOM     43  C36 UNL A   1      22.188  18.386   9.242  1.00  0.00    +0.000 C 
ATOM     44  C37 UNL A   1      23.104  18.240  10.239  1.00  0.00    +0.000 C 
ATOM     56  C44 UNL A   1      24.440  18.504   9.783  1.00  0.00    +0.000 C 
ATOM     57  C45 UNL A   1      25.102  19.607   9.284  1.00  0.00    +0.000 C 
ATOM     58  C46 UNL A   1      26.045  19.088   8.350  1.00  0.00    +0.000 C 
ATOM     59  C47 UNL A   1      25.910  17.699   8.353  1.00  0.00    +0.000 C 
ATOM     60  N6  UNL A   1      25.266  17.438   9.533  1.00  0.00    +0.000 N 
ATOM     61  C48 UNL A   1      26.189  16.694   7.357  1.00  0.00    +0.000 C 
ATOM     73  C55 UNL A   1      25.587  15.472   7.309  1.00  0.00    +0.000 C 
ATOM     74  N7  UNL A   1      25.465  14.787   6.109  1.00  0.00    +0.000 N 
ATOM     75  C56 UNL A   1      24.403  14.044   6.255  1.00  0.00    +0.000 C 
ATOM     76  C57 UNL A   1      23.468  13.714   5.151  1.00  0.00    +0.000 C 
ATOM     88  C64 UNL A   1      22.813  14.851   4.820  1.00  0.00    +0.000 C 
ATOM     89  C65 UNL A   1      22.066  15.189   3.625  1.00  0.00    +0.000 C 
ATOM     90  C66 UNL A   1      21.537  16.422   3.780  1.00  0.00    +0.000 C 
ATOM     91  C67 UNL A   1      21.785  16.889   5.143  1.00  0.00    +0.000 C 
ATOM     92  N8  UNL A   1      22.627  15.942   5.677  1.00  0.00    +0.000 N 
ATOM     93  C68 UNL A   1      23.955  13.854   7.624  1.00  0.00    +0.000 C 
ATOM     94  C69 UNL A   1      24.695  14.782   8.233  1.00  0.00    +0.000 C 
ATOM     95  C70 UNL A   1      20.747  18.389   9.286  1.00  0.00    +0.000 C 
ATOM     96  C71 UNL A   1      20.232  18.178   8.075  1.00  0.00    +0.000 C 
ENDROOT
BRANCH   40   39
ATOM     97  C72 UNL A   1      19.073  18.965   5.053  1.00  0.00    +0.000 C 
ATOM     98  C73 UNL A   1      18.401  19.957   4.343  1.00  0.00    +0.000 C 
ATOM     36  C30 UNL A   1      19.099  21.004   3.711  1.00  0.00    +0.000 C 
ATOM     37  C31 UNL A   1      20.478  21.078   3.892  1.00  0.00    +0.000 C 
ATOM    132  H34 UNL A   1      21.000  21.891   3.527  1.00  0.00    +0.000 H 
ATOM     38  C32 UNL A   1      21.159  20.068   4.558  1.00  0.00    +0.000 C 
ATOM    133  H35 UNL A   1      22.186  20.114   4.648  1.00  0.00    +0.000 H 
ATOM     39  C33 UNL A   1      20.463  18.990   5.109  1.00  0.00    +0.000 C 
ATOM    144  H46 UNL A   1      18.545  18.219   5.533  1.00  0.00    +0.000 H 
ATOM    145  H47 UNL A   1      17.372  19.924   4.278  1.00  0.00    +0.000 H 
BRANCH   36   34
ATOM     34  C29 UNL A   1      18.295  21.911   2.843  1.00  0.00    +0.000 C 
ATOM     35  O2  UNL A   1      17.066  21.894   2.953  1.00  0.00    +0.000 O 
BRANCH   34   33
ATOM     33  N4  UNL A   1      18.809  22.731   1.875  1.00  0.00    +0.000 N 
ATOM    131  H33 UNL A   1      18.991  22.255   1.032  1.00  0.00    +0.000 H 
BRANCH   33   32
ATOM    129  H31 UNL A   1      18.433  24.681   2.398  1.00  0.00    +0.000 H 
ATOM    130  H32 UNL A   1      20.143  24.240   2.176  1.00  0.00    +0.000 H 
ATOM     32  C28 UNL A   1      19.143  24.139   1.810  1.00  0.00    +0.000 C 
BRANCH   32   31
ATOM    127  H29 UNL A   1      19.039  23.900  -0.299  1.00  0.00    +0.000 H 
ATOM     31  C27 UNL A   1      19.130  24.713   0.390  1.00  0.00    +0.000 C 
ATOM    128  H30 UNL A   1      18.306  25.394   0.343  1.00  0.00    +0.000 H 
BRANCH   31   30
ATOM    126  H28 UNL A   1      20.254  25.813  -1.000  1.00  0.00    +0.000 H 
ATOM    125  H27 UNL A   1      21.235  24.889   0.177  1.00  0.00    +0.000 H 
ATOM     30  C26 UNL A   1      20.381  25.515   0.020  1.00  0.00    +0.000 C 
BRANCH   30   29
ATOM    123  H25 UNL A   1      20.029  27.585   0.342  1.00  0.00    +0.000 H 
ATOM    124  H26 UNL A   1      20.246  26.598   1.815  1.00  0.00    +0.000 H 
ATOM     29  C25 UNL A   1      20.583  26.804   0.820  1.00  0.00    +0.000 C 
BRANCH   29   28
ATOM    121  H23 UNL A   1      22.626  26.430   1.286  1.00  0.00    +0.000 H 
ATOM    122  H24 UNL A   1      22.342  27.603  -0.024  1.00  0.00    +0.000 H 
ATOM     28  C24 UNL A   1      22.043  27.259   0.943  1.00  0.00    +0.000 C 
BRANCH   28   27
ATOM     27  C23 UNL A   1      22.253  28.423   1.910  1.00  0.00    +0.000 C 
ATOM    119  H21 UNL A   1      21.402  28.499   2.553  1.00  0.00    +0.000 H 
ATOM    120  H22 UNL A   1      23.141  28.233   2.475  1.00  0.00    +0.000 H 
BRANCH   27   26
ATOM     26  N3  UNL A   1      22.423  29.677   1.201  1.00  0.00    +0.000 N 
ATOM    118  H20 UNL A   1      23.333  30.054   1.224  1.00  0.00    +0.000 H 
BRANCH   26   24
ATOM     25  O1  UNL A   1      20.501  30.794   1.114  1.00  0.00    +0.000 O 
ATOM     24  C22 UNL A   1      21.503  30.409   0.506  1.00  0.00    +0.000 C 
BRANCH   24   23
ATOM    116  H18 UNL A   1      21.031  31.481  -1.254  1.00  0.00    +0.000 H 
ATOM    117  H19 UNL A   1      22.703  30.877  -1.144  1.00  0.00    +0.000 H 
ATOM     23  C21 UNL A   1      21.667  30.665  -0.981  1.00  0.00    +0.000 C 
BRANCH   23   22
ATOM      2  C2  UNL A   1      17.743  27.551  -2.548  1.00  0.00    +0.000 C 
ATOM      3  C3  UNL A   1      17.660  28.760  -1.856  1.00  0.00    +0.000 C 
ATOM      4  C4  UNL A   1      18.798  29.528  -1.596  1.00  0.00    +0.000 C 
ATOM      5  C5  UNL A   1      20.047  29.045  -2.026  1.00  0.00    +0.000 C 
ATOM      6  C6  UNL A   1      20.157  27.861  -2.757  1.00  0.00    +0.000 C 
ATOM      7  C7  UNL A   1      18.990  27.106  -3.015  1.00  0.00    +0.000 C 
ATOM    102  H4  UNL A   1      16.739  29.095  -1.532  1.00  0.00    +0.000 H 
ATOM    104  H6  UNL A   1      19.054  26.226  -3.549  1.00  0.00    +0.000 H 
ATOM    103  H5  UNL A   1      18.724  30.428  -1.097  1.00  0.00    +0.000 H 
ATOM      8  C8  UNL A   1      21.535  27.692  -3.081  1.00  0.00    +0.000 C 
ATOM     20  C19 UNL A   1      22.238  28.762  -2.545  1.00  0.00    +0.000 C 
ATOM     22  N2  UNL A   1      21.335  29.522  -1.825  1.00  0.00    +0.000 N 
BRANCH    2    1
ATOM      1  C1  UNL A   1      16.502  26.740  -2.775  1.00  0.00    +0.000 C 
ATOM     99  H1  UNL A   1      16.487  25.913  -2.096  1.00  0.00    +0.000 H 
ATOM    100  H2  UNL A   1      16.491  26.377  -3.781  1.00  0.00    +0.000 H 
ATOM    101  H3  UNL A   1      15.640  27.353  -2.607  1.00  0.00    +0.000 H 
ENDBRANCH    2    1
BRANCH    8    9
ATOM      9  C9  UNL A   1      22.178  26.620  -3.832  1.00  0.00    +0.000 C 
ATOM     10  C10 UNL A   1      22.423  25.418  -3.174  1.00  0.00    +0.000 C 
ATOM     11  C11 UNL A   1      22.982  24.392  -3.901  1.00  0.00    +0.000 C 
ATOM    105  H7  UNL A   1      22.192  25.299  -2.175  1.00  0.00    +0.000 H 
ATOM     13  C12 UNL A   1      23.081  25.646  -5.861  1.00  0.00    +0.000 C 
ATOM    106  H8  UNL A   1      23.168  23.499  -3.419  1.00  0.00    +0.000 H 
ATOM     12  N1  UNL A   1      23.303  24.485  -5.209  1.00  0.00    +0.000 N 
ATOM     14  C13 UNL A   1      23.396  25.764  -7.225  1.00  0.00    +0.000 C 
ATOM    112  H14 UNL A   1      21.937  28.783  -5.440  1.00  0.00    +0.000 H 
ATOM     18  C17 UNL A   1      22.336  27.964  -5.924  1.00  0.00    +0.000 C 
ATOM     19  C18 UNL A   1      22.524  26.765  -5.201  1.00  0.00    +0.000 C 
ATOM     17  C16 UNL A   1      22.671  28.074  -7.266  1.00  0.00    +0.000 C 
ATOM    111  H13 UNL A   1      22.530  28.963  -7.771  1.00  0.00    +0.000 H 
ATOM     16  C15 UNL A   1      23.197  26.972  -7.917  1.00  0.00    +0.000 C 
ATOM    110  H12 UNL A   1      23.445  27.037  -8.917  1.00  0.00    +0.000 H 
BRANCH   14   15
ATOM    107  H9  UNL A   1      23.164  24.122  -8.544  1.00  0.00    +0.000 H 
ATOM    108  H10 UNL A   1      24.408  23.906  -7.335  1.00  0.00    +0.000 H 
ATOM    109  H11 UNL A   1      24.688  24.962  -8.699  1.00  0.00    +0.000 H 
ATOM     15  C14 UNL A   1      23.955  24.604  -8.008  1.00  0.00    +0.000 C 
ENDBRANCH   14   15
ENDBRANCH    8    9
BRANCH   20   21
ATOM    113  H15 UNL A   1      23.839  30.124  -2.713  1.00  0.00    +0.000 H 
ATOM    114  H16 UNL A   1      24.111  28.586  -3.497  1.00  0.00    +0.000 H 
ATOM    115  H17 UNL A   1      24.193  28.706  -1.755  1.00  0.00    +0.000 H 
ATOM     21  C20 UNL A   1      23.698  29.066  -2.634  1.00  0.00    +0.000 C 
ENDBRANCH   20   21
ENDBRANCH   23   22
ENDBRANCH   24   23
ENDBRANCH   26   24
ENDBRANCH   27   26
ENDBRANCH   28   27
ENDBRANCH   29   28
ENDBRANCH   30   29
ENDBRANCH   31   30
ENDBRANCH   32   31
ENDBRANCH   33   32
ENDBRANCH   34   33
ENDBRANCH   36   34
ENDBRANCH   40   39
BRANCH   44   45
ATOM     45  C38 UNL A   1      22.828  17.557  11.557  1.00  0.00    +0.000 C 
ATOM     46  C39 UNL A   1      22.408  18.322  12.664  1.00  0.00    +0.000 C 
ATOM     47  F1  UNL A   1      22.015  19.595  12.507  1.00  0.00    +0.000 F 
ATOM     48  C40 UNL A   1      22.468  17.827  13.970  1.00  0.00    +0.000 C 
ATOM     49  F2  UNL A   1      22.173  18.630  15.001  1.00  0.00    +0.000 F 
ATOM     50  C41 UNL A   1      22.894  16.534  14.211  1.00  0.00    +0.000 C 
ATOM     51  F3  UNL A   1      23.008  16.077  15.465  1.00  0.00    +0.000 F 
ATOM     52  C42 UNL A   1      23.252  15.732  13.148  1.00  0.00    +0.000 C 
ATOM     53  F4  UNL A   1      23.686  14.482  13.363  1.00  0.00    +0.000 F 
ATOM     54  C43 UNL A   1      23.244  16.241  11.849  1.00  0.00    +0.000 C 
ATOM     55  F5  UNL A   1      23.758  15.435  10.912  1.00  0.00    +0.000 F 
ENDBRANCH   44   45
BRANCH   61   62
ATOM     65  C51 UNL A   1      28.971  17.161   4.762  1.00  0.00    +0.000 C 
ATOM     66  F7  UNL A   1      30.265  16.852   4.591  1.00  0.00    +0.000 F 
ATOM     67  C52 UNL A   1      28.271  17.789   3.744  1.00  0.00    +0.000 C 
ATOM     68  F8  UNL A   1      28.884  18.079   2.587  1.00  0.00    +0.000 F 
ATOM     69  C53 UNL A   1      26.928  18.085   3.912  1.00  0.00    +0.000 C 
ATOM     70  F9  UNL A   1      26.236  18.643   2.910  1.00  0.00    +0.000 F 
ATOM     71  C54 UNL A   1      26.287  17.774   5.108  1.00  0.00    +0.000 C 
ATOM     72  F10 UNL A   1      24.978  18.048   5.227  1.00  0.00    +0.000 F 
ATOM     62  C49 UNL A   1      26.969  17.134   6.152  1.00  0.00    +0.000 C 
ATOM     63  C50 UNL A   1      28.321  16.813   5.945  1.00  0.00    +0.000 C 
ATOM     64  F6  UNL A   1      29.006  16.110   6.858  1.00  0.00    +0.000 F 
ENDBRANCH   61   62
BRANCH   76   77
ATOM     77  C58 UNL A   1      23.100  12.320   4.815  1.00  0.00    +0.000 C 
ATOM     78  C59 UNL A   1      23.758  11.634   3.781  1.00  0.00    +0.000 C 
ATOM     79  F11 UNL A   1      24.559  12.297   2.934  1.00  0.00    +0.000 F 
ATOM     80  C60 UNL A   1      23.666  10.245   3.649  1.00  0.00    +0.000 C 
ATOM     81  F12 UNL A   1      24.366   9.617   2.694  1.00  0.00    +0.000 F 
ATOM     82  C61 UNL A   1      22.904   9.506   4.539  1.00  0.00    +0.000 C 
ATOM     83  F13 UNL A   1      22.869   8.169   4.454  1.00  0.00    +0.000 F 
ATOM     84  C62 UNL A   1      22.214  10.155   5.545  1.00  0.00    +0.000 C 
ATOM     85  F14 UNL A   1      21.500   9.449   6.433  1.00  0.00    +0.000 F 
ATOM     86  C63 UNL A   1      22.313  11.540   5.683  1.00  0.00    +0.000 C 
ATOM     87  F15 UNL A   1      21.701  12.090   6.741  1.00  0.00    +0.000 F 
ENDBRANCH   76   77
TORSDOF 20
ENDMDL
MODEL 4
REMARK VINA RESULT:      -9.6      1.758      4.180
ROOT
ATOM    134  H36 UNL A   1      46.194  29.389  30.148  1.00  0.00    +0.000 H 
ATOM    135  H37 UNL A   1      44.953  29.332  32.505  1.00  0.00    +0.000 H 
ATOM    136  H38 UNL A   1      43.926  32.687  30.545  1.00  0.00    +0.000 H 
ATOM    137  H39 UNL A   1      36.724  28.529  30.390  1.00  0.00    +0.000 H 
ATOM    138  H40 UNL A   1      38.244  26.792  29.310  1.00  0.00    +0.000 H 
ATOM    139  H41 UNL A   1      40.489  30.248  29.833  1.00  0.00    +0.000 H 
ATOM    140  H42 UNL A   1      39.514  33.274  29.621  1.00  0.00    +0.000 H 
ATOM    141  H43 UNL A   1      41.996  33.127  30.300  1.00  0.00    +0.000 H 
ATOM    142  H44 UNL A   1      43.632  30.132  25.657  1.00  0.00    +0.000 H 
ATOM    143  H45 UNL A   1      41.504  28.690  25.736  1.00  0.00    +0.000 H 
ATOM     40  C34 UNL A   1      40.765  27.918  28.389  1.00  0.00    +0.000 C 
ATOM     41  C35 UNL A   1      41.888  28.806  27.969  1.00  0.00    +0.000 C 
ATOM     42  N5  UNL A   1      42.805  29.344  28.710  1.00  0.00    +0.000 N 
ATOM     43  C36 UNL A   1      43.585  30.120  27.854  1.00  0.00    +0.000 C 
ATOM     44  C37 UNL A   1      44.415  31.098  28.312  1.00  0.00    +0.000 C 
ATOM     56  C44 UNL A   1      44.731  30.927  29.702  1.00  0.00    +0.000 C 
ATOM     57  C45 UNL A   1      45.391  29.967  30.443  1.00  0.00    +0.000 C 
ATOM     58  C46 UNL A   1      44.729  29.946  31.705  1.00  0.00    +0.000 C 
ATOM     59  C47 UNL A   1      43.719  30.907  31.659  1.00  0.00    +0.000 C 
ATOM     60  N6  UNL A   1      44.089  31.719  30.619  1.00  0.00    +0.000 N 
ATOM     61  C48 UNL A   1      42.467  31.035  32.364  1.00  0.00    +0.000 C 
ATOM     73  C55 UNL A   1      41.391  31.733  31.899  1.00  0.00    +0.000 C 
ATOM     74  N7  UNL A   1      40.105  31.404  32.297  1.00  0.00    +0.000 N 
ATOM     75  C56 UNL A   1      39.343  31.778  31.308  1.00  0.00    +0.000 C 
ATOM     76  C57 UNL A   1      38.106  31.065  30.902  1.00  0.00    +0.000 C 
ATOM     88  C64 UNL A   1      38.479  29.879  30.365  1.00  0.00    +0.000 C 
ATOM     89  C65 UNL A   1      37.711  28.674  30.130  1.00  0.00    +0.000 C 
ATOM     90  C66 UNL A   1      38.502  27.770  29.513  1.00  0.00    +0.000 C 
ATOM     91  C67 UNL A   1      39.782  28.392  29.179  1.00  0.00    +0.000 C 
ATOM     92  N8  UNL A   1      39.731  29.621  29.796  1.00  0.00    +0.000 N 
ATOM     93  C68 UNL A   1      39.946  32.709  30.370  1.00  0.00    +0.000 C 
ATOM     94  C69 UNL A   1      41.220  32.623  30.757  1.00  0.00    +0.000 C 
ATOM     95  C70 UNL A   1      43.158  29.805  26.514  1.00  0.00    +0.000 C 
ATOM     96  C71 UNL A   1      42.069  29.035  26.528  1.00  0.00    +0.000 C 
ENDROOT
BRANCH   40   39
ATOM     97  C72 UNL A   1      40.176  26.176  26.678  1.00  0.00    +0.000 C 
ATOM     98  C73 UNL A   1      40.215  24.840  26.284  1.00  0.00    +0.000 C 
ATOM     36  C30 UNL A   1      40.908  23.875  27.039  1.00  0.00    +0.000 C 
ATOM     37  C31 UNL A   1      41.638  24.306  28.144  1.00  0.00    +0.000 C 
ATOM    132  H34 UNL A   1      42.238  23.638  28.654  1.00  0.00    +0.000 H 
ATOM     38  C32 UNL A   1      41.566  25.626  28.570  1.00  0.00    +0.000 C 
ATOM    133  H35 UNL A   1      42.078  25.922  29.415  1.00  0.00    +0.000 H 
ATOM     39  C33 UNL A   1      40.805  26.557  27.858  1.00  0.00    +0.000 C 
ATOM    144  H46 UNL A   1      39.686  26.876  26.099  1.00  0.00    +0.000 H 
ATOM    145  H47 UNL A   1      39.725  24.552  25.422  1.00  0.00    +0.000 H 
BRANCH   36   34
ATOM     34  C29 UNL A   1      40.743  22.456  26.617  1.00  0.00    +0.000 C 
ATOM     35  O2  UNL A   1      39.704  21.866  26.929  1.00  0.00    +0.000 O 
BRANCH   34   33
ATOM     33  N4  UNL A   1      41.686  21.719  25.953  1.00  0.00    +0.000 N 
ATOM    131  H33 UNL A   1      41.390  21.443  25.055  1.00  0.00    +0.000 H 
BRANCH   33   32
ATOM    129  H31 UNL A   1      43.717  22.023  26.016  1.00  0.00    +0.000 H 
ATOM    130  H32 UNL A   1      43.029  21.024  27.318  1.00  0.00    +0.000 H 
ATOM     32  C28 UNL A   1      43.021  21.253  26.273  1.00  0.00    +0.000 C 
BRANCH   32   31
ATOM    127  H29 UNL A   1      43.552  19.196  26.257  1.00  0.00    +0.000 H 
ATOM     31  C27 UNL A   1      43.423  19.973  25.534  1.00  0.00    +0.000 C 
ATOM    128  H30 UNL A   1      42.640  19.766  24.834  1.00  0.00    +0.000 H 
BRANCH   31   30
ATOM    126  H28 UNL A   1      44.436  20.493  23.771  1.00  0.00    +0.000 H 
ATOM    125  H27 UNL A   1      45.157  19.117  24.657  1.00  0.00    +0.000 H 
ATOM     30  C26 UNL A   1      44.716  20.091  24.721  1.00  0.00    +0.000 C 
BRANCH   30   29
ATOM    123  H25 UNL A   1      45.408  21.389  26.252  1.00  0.00    +0.000 H 
ATOM    124  H26 UNL A   1      46.675  20.496  25.364  1.00  0.00    +0.000 H 
ATOM     29  C25 UNL A   1      45.759  21.047  25.301  1.00  0.00    +0.000 C 
BRANCH   29   28
ATOM    121  H23 UNL A   1      46.902  22.057  23.816  1.00  0.00    +0.000 H 
ATOM    122  H24 UNL A   1      45.170  22.472  23.863  1.00  0.00    +0.000 H 
ATOM     28  C24 UNL A   1      46.055  22.277  24.432  1.00  0.00    +0.000 C 
BRANCH   28   27
ATOM     27  C23 UNL A   1      46.357  23.545  25.227  1.00  0.00    +0.000 C 
ATOM    119  H21 UNL A   1      47.163  23.348  25.903  1.00  0.00    +0.000 H 
ATOM    120  H22 UNL A   1      46.620  24.318  24.537  1.00  0.00    +0.000 H 
BRANCH   27   26
ATOM     26  N3  UNL A   1      45.201  23.983  25.986  1.00  0.00    +0.000 N 
ATOM    118  H20 UNL A   1      45.065  23.526  26.848  1.00  0.00    +0.000 H 
BRANCH   26   24
ATOM     25  O1  UNL A   1      43.460  24.680  24.788  1.00  0.00    +0.000 O 
ATOM     24  C22 UNL A   1      44.276  24.939  25.677  1.00  0.00    +0.000 C 
BRANCH   24   23
ATOM    116  H18 UNL A   1      44.118  27.046  25.597  1.00  0.00    +0.000 H 
ATOM    117  H19 UNL A   1      43.558  26.287  27.108  1.00  0.00    +0.000 H 
ATOM     23  C21 UNL A   1      44.306  26.302  26.343  1.00  0.00    +0.000 C 
BRANCH   23   22
ATOM      2  C2  UNL A   1      46.748  26.480  30.985  1.00  0.00    +0.000 C 
ATOM      3  C3  UNL A   1      45.526  25.882  30.678  1.00  0.00    +0.000 C 
ATOM      4  C4  UNL A   1      45.052  25.833  29.364  1.00  0.00    +0.000 C 
ATOM      5  C5  UNL A   1      45.824  26.424  28.348  1.00  0.00    +0.000 C 
ATOM      6  C6  UNL A   1      47.070  26.993  28.619  1.00  0.00    +0.000 C 
ATOM      7  C7  UNL A   1      47.532  27.022  29.955  1.00  0.00    +0.000 C 
ATOM    102  H4  UNL A   1      44.961  25.466  31.435  1.00  0.00    +0.000 H 
ATOM    104  H6  UNL A   1      48.448  27.443  30.173  1.00  0.00    +0.000 H 
ATOM    103  H5  UNL A   1      44.154  25.374  29.144  1.00  0.00    +0.000 H 
ATOM      8  C8  UNL A   1      47.607  27.444  27.378  1.00  0.00    +0.000 C 
ATOM     20  C19 UNL A   1      46.687  27.151  26.379  1.00  0.00    +0.000 C 
ATOM     22  N2  UNL A   1      45.570  26.621  26.998  1.00  0.00    +0.000 N 
BRANCH    2    1
ATOM      1  C1  UNL A   1      47.203  26.544  32.414  1.00  0.00    +0.000 C 
ATOM     99  H1  UNL A   1      47.014  27.522  32.805  1.00  0.00    +0.000 H 
ATOM    100  H2  UNL A   1      48.250  26.335  32.465  1.00  0.00    +0.000 H 
ATOM    101  H3  UNL A   1      46.666  25.820  32.992  1.00  0.00    +0.000 H 
ENDBRANCH    2    1
BRANCH    8    9
ATOM      9  C9  UNL A   1      48.879  28.105  27.113  1.00  0.00    +0.000 C 
ATOM     10  C10 UNL A   1      48.932  29.491  27.231  1.00  0.00    +0.000 C 
ATOM     11  C11 UNL A   1      50.147  30.105  27.030  1.00  0.00    +0.000 C 
ATOM    105  H7  UNL A   1      48.088  30.039  27.462  1.00  0.00    +0.000 H 
ATOM     13  C12 UNL A   1      51.250  28.100  26.601  1.00  0.00    +0.000 C 
ATOM    106  H8  UNL A   1      50.192  31.133  27.114  1.00  0.00    +0.000 H 
ATOM     12  N1  UNL A   1      51.283  29.442  26.729  1.00  0.00    +0.000 N 
ATOM     14  C13 UNL A   1      52.421  27.387  26.299  1.00  0.00    +0.000 C 
ATOM    112  H14 UNL A   1      49.184  25.445  26.720  1.00  0.00    +0.000 H 
ATOM     18  C17 UNL A   1      50.062  25.972  26.603  1.00  0.00    +0.000 C 
ATOM     19  C18 UNL A   1      50.048  27.375  26.773  1.00  0.00    +0.000 C 
ATOM     17  C16 UNL A   1      51.224  25.282  26.284  1.00  0.00    +0.000 C 
ATOM    111  H13 UNL A   1      51.207  24.258  26.158  1.00  0.00    +0.000 H 
ATOM     16  C15 UNL A   1      52.404  25.990  26.136  1.00  0.00    +0.000 C 
ATOM    110  H12 UNL A   1      53.277  25.489  25.904  1.00  0.00    +0.000 H 
BRANCH   14   15
ATOM    107  H9  UNL A   1      54.478  27.384  25.786  1.00  0.00    +0.000 H 
ATOM    108  H10 UNL A   1      54.060  28.474  27.088  1.00  0.00    +0.000 H 
ATOM    109  H11 UNL A   1      53.650  28.883  25.439  1.00  0.00    +0.000 H 
ATOM     15  C14 UNL A   1      53.748  28.082  26.141  1.00  0.00    +0.000 C 
ENDBRANCH   14   15
ENDBRANCH    8    9
BRANCH   20   21
ATOM    113  H15 UNL A   1      47.120  26.495  24.423  1.00  0.00    +0.000 H 
ATOM    114  H16 UNL A   1      47.493  28.176  24.723  1.00  0.00    +0.000 H 
ATOM    115  H17 UNL A   1      45.832  27.671  24.524  1.00  0.00    +0.000 H 
ATOM     21  C20 UNL A   1      46.791  27.390  24.908  1.00  0.00    +0.000 C 
ENDBRANCH   20   21
ENDBRANCH   23   22
ENDBRANCH   24   23
ENDBRANCH   26   24
ENDBRANCH   27   26
ENDBRANCH   28   27
ENDBRANCH   29   28
ENDBRANCH   30   29
ENDBRANCH   31   30
ENDBRANCH   32   31
ENDBRANCH   33   32
ENDBRANCH   34   33
ENDBRANCH   36   34
ENDBRANCH   40   39
BRANCH   44   45
ATOM     45  C38 UNL A   1      44.696  32.388  27.580  1.00  0.00    +0.000 C 
ATOM     46  C39 UNL A   1      45.898  32.532  26.857  1.00  0.00    +0.000 C 
ATOM     47  F1  UNL A   1      46.676  31.469  26.604  1.00  0.00    +0.000 F 
ATOM     48  C40 UNL A   1      46.374  33.783  26.455  1.00  0.00    +0.000 C 
ATOM     49  F2  UNL A   1      47.579  33.883  25.877  1.00  0.00    +0.000 F 
ATOM     50  C41 UNL A   1      45.641  34.928  26.711  1.00  0.00    +0.000 C 
ATOM     51  F3  UNL A   1      46.122  36.132  26.380  1.00  0.00    +0.000 F 
ATOM     52  C42 UNL A   1      44.429  34.821  27.359  1.00  0.00    +0.000 C 
ATOM     53  F4  UNL A   1      43.713  35.921  27.633  1.00  0.00    +0.000 F 
ATOM     54  C43 UNL A   1      43.977  33.580  27.808  1.00  0.00    +0.000 C 
ATOM     55  F5  UNL A   1      42.871  33.608  28.561  1.00  0.00    +0.000 F 
ENDBRANCH   44   45
BRANCH   61   62
ATOM     65  C51 UNL A   1      41.693  27.946  34.494  1.00  0.00    +0.000 C 
ATOM     66  F7  UNL A   1      41.235  26.693  34.343  1.00  0.00    +0.000 F 
ATOM     67  C52 UNL A   1      42.113  28.380  35.741  1.00  0.00    +0.000 C 
ATOM     68  F8  UNL A   1      42.073  27.547  36.792  1.00  0.00    +0.000 F 
ATOM     69  C53 UNL A   1      42.609  29.665  35.892  1.00  0.00    +0.000 C 
ATOM     70  F9  UNL A   1      43.067  30.070  37.084  1.00  0.00    +0.000 F 
ATOM     71  C54 UNL A   1      42.663  30.527  34.800  1.00  0.00    +0.000 C 
ATOM     72  F10 UNL A   1      43.175  31.755  34.974  1.00  0.00    +0.000 F 
ATOM     62  C49 UNL A   1      42.249  30.112  33.527  1.00  0.00    +0.000 C 
ATOM     63  C50 UNL A   1      41.783  28.794  33.392  1.00  0.00    +0.000 C 
ATOM     64  F6  UNL A   1      41.468  28.298  32.187  1.00  0.00    +0.000 F 
ENDBRANCH   61   62
BRANCH   76   77
ATOM     77  C58 UNL A   1      36.801  31.751  30.776  1.00  0.00    +0.000 C 
ATOM     78  C59 UNL A   1      35.968  31.920  31.894  1.00  0.00    +0.000 C 
ATOM     79  F11 UNL A   1      36.229  31.264  33.035  1.00  0.00    +0.000 F 
ATOM     80  C60 UNL A   1      34.902  32.824  31.883  1.00  0.00    +0.000 C 
ATOM     81  F12 UNL A   1      34.174  33.011  32.992  1.00  0.00    +0.000 F 
ATOM     82  C61 UNL A   1      34.631  33.575  30.750  1.00  0.00    +0.000 C 
ATOM     83  F13 UNL A   1      33.652  34.490  30.762  1.00  0.00    +0.000 F 
ATOM     84  C62 UNL A   1      35.409  33.405  29.621  1.00  0.00    +0.000 C 
ATOM     85  F14 UNL A   1      35.178  34.148  28.530  1.00  0.00    +0.000 F 
ATOM     86  C63 UNL A   1      36.479  32.510  29.634  1.00  0.00    +0.000 C 
ATOM     87  F15 UNL A   1      37.252  32.471  28.539  1.00  0.00    +0.000 F 
ENDBRANCH   76   77
TORSDOF 20
ENDMDL
MODEL 5
REMARK VINA RESULT:      -9.6     40.561     45.733
ROOT
ATOM    134  H36 UNL A   1      11.426  -2.889  25.547  1.00  0.00    +0.000 H 
ATOM    135  H37 UNL A   1       8.809  -2.855  26.048  1.00  0.00    +0.000 H 
ATOM    136  H38 UNL A   1      10.539   0.315  27.812  1.00  0.00    +0.000 H 
ATOM    137  H39 UNL A   1       6.084   4.076  21.879  1.00  0.00    +0.000 H 
ATOM    138  H40 UNL A   1       7.444   2.471  20.440  1.00  0.00    +0.000 H 
ATOM    139  H41 UNL A   1       8.855   2.141  24.334  1.00  0.00    +0.000 H 
ATOM    140  H42 UNL A   1       9.100   4.433  26.535  1.00  0.00    +0.000 H 
ATOM    141  H43 UNL A   1       9.813   2.142  27.474  1.00  0.00    +0.000 H 
ATOM    142  H44 UNL A   1      13.944   1.234  23.562  1.00  0.00    +0.000 H 
ATOM    143  H45 UNL A   1      12.484   2.195  21.676  1.00  0.00    +0.000 H 
ATOM     40  C34 UNL A   1       9.748   1.377  21.843  1.00  0.00    +0.000 C 
ATOM     41  C35 UNL A   1      10.857   1.078  22.795  1.00  0.00    +0.000 C 
ATOM     42  N5  UNL A   1      10.828   0.322  23.848  1.00  0.00    +0.000 N 
ATOM     43  C36 UNL A   1      12.097   0.410  24.419  1.00  0.00    +0.000 C 
ATOM     44  C37 UNL A   1      12.341   0.043  25.708  1.00  0.00    +0.000 C 
ATOM     56  C44 UNL A   1      11.322  -0.830  26.220  1.00  0.00    +0.000 C 
ATOM     57  C45 UNL A   1      10.870  -2.096  25.905  1.00  0.00    +0.000 C 
ATOM     58  C46 UNL A   1       9.472  -2.074  26.182  1.00  0.00    +0.000 C 
ATOM     59  C47 UNL A   1       9.165  -0.803  26.666  1.00  0.00    +0.000 C 
ATOM     60  N6  UNL A   1      10.377  -0.304  27.063  1.00  0.00    +0.000 N 
ATOM     61  C48 UNL A   1       7.947  -0.029  26.659  1.00  0.00    +0.000 C 
ATOM     73  C55 UNL A   1       7.901   1.332  26.727  1.00  0.00    +0.000 C 
ATOM     74  N7  UNL A   1       6.832   2.035  26.193  1.00  0.00    +0.000 N 
ATOM     75  C56 UNL A   1       7.324   3.199  25.873  1.00  0.00    +0.000 C 
ATOM     76  C57 UNL A   1       6.874   3.993  24.703  1.00  0.00    +0.000 C 
ATOM     88  C64 UNL A   1       7.286   3.344  23.589  1.00  0.00    +0.000 C 
ATOM     89  C65 UNL A   1       6.846   3.467  22.214  1.00  0.00    +0.000 C 
ATOM     90  C66 UNL A   1       7.599   2.653  21.444  1.00  0.00    +0.000 C 
ATOM     91  C67 UNL A   1       8.668   2.071  22.253  1.00  0.00    +0.000 C 
ATOM     92  N8  UNL A   1       8.366   2.455  23.539  1.00  0.00    +0.000 N 
ATOM     93  C68 UNL A   1       8.598   3.532  26.488  1.00  0.00    +0.000 C 
ATOM     94  C69 UNL A   1       8.930   2.336  26.977  1.00  0.00    +0.000 C 
ATOM     95  C70 UNL A   1      12.922   1.118  23.474  1.00  0.00    +0.000 C 
ATOM     96  C71 UNL A   1      12.190   1.605  22.471  1.00  0.00    +0.000 C 
ENDROOT
BRANCH   40   39
ATOM     97  C72 UNL A   1      10.273   1.743  19.414  1.00  0.00    +0.000 C 
ATOM     98  C73 UNL A   1      10.380   1.211  18.131  1.00  0.00    +0.000 C 
ATOM     36  C30 UNL A   1      10.199  -0.165  17.892  1.00  0.00    +0.000 C 
ATOM     37  C31 UNL A   1      10.003  -1.001  18.989  1.00  0.00    +0.000 C 
ATOM    132  H34 UNL A   1       9.971  -2.024  18.852  1.00  0.00    +0.000 H 
ATOM     38  C32 UNL A   1       9.849  -0.473  20.263  1.00  0.00    +0.000 C 
ATOM    133  H35 UNL A   1       9.662  -1.101  21.060  1.00  0.00    +0.000 H 
ATOM     39  C33 UNL A   1       9.947   0.904  20.474  1.00  0.00    +0.000 C 
ATOM    144  H46 UNL A   1      10.436   2.750  19.576  1.00  0.00    +0.000 H 
ATOM    145  H47 UNL A   1      10.595   1.838  17.339  1.00  0.00    +0.000 H 
BRANCH   36   34
ATOM     34  C29 UNL A   1      10.170  -0.594  16.466  1.00  0.00    +0.000 C 
ATOM     35  O2  UNL A   1      11.077  -0.217  15.718  1.00  0.00    +0.000 O 
BRANCH   34   33
ATOM     33  N4  UNL A   1       9.173  -1.334  15.888  1.00  0.00    +0.000 N 
ATOM    131  H33 UNL A   1       9.484  -2.218  15.584  1.00  0.00    +0.000 H 
BRANCH   33   32
ATOM    129  H31 UNL A   1       7.658  -0.802  14.607  1.00  0.00    +0.000 H 
ATOM    130  H32 UNL A   1       7.261  -2.032  15.831  1.00  0.00    +0.000 H 
ATOM     32  C28 UNL A   1       7.766  -1.111  15.625  1.00  0.00    +0.000 C 
BRANCH   32   31
ATOM    127  H29 UNL A   1       7.886   0.662  16.790  1.00  0.00    +0.000 H 
ATOM     31  C27 UNL A   1       7.130  -0.046  16.523  1.00  0.00    +0.000 C 
ATOM    128  H30 UNL A   1       6.330   0.390  15.961  1.00  0.00    +0.000 H 
BRANCH   31   30
ATOM    126  H28 UNL A   1       5.513  -0.203  17.853  1.00  0.00    +0.000 H 
ATOM    125  H27 UNL A   1       7.121  -0.279  18.633  1.00  0.00    +0.000 H 
ATOM     30  C26 UNL A   1       6.509  -0.592  17.813  1.00  0.00    +0.000 C 
BRANCH   30   29
ATOM    123  H25 UNL A   1       5.369  -2.374  17.623  1.00  0.00    +0.000 H 
ATOM    124  H26 UNL A   1       7.094  -2.509  17.181  1.00  0.00    +0.000 H 
ATOM     29  C25 UNL A   1       6.377  -2.115  17.871  1.00  0.00    +0.000 C 
BRANCH   29   28
ATOM    121  H23 UNL A   1       7.703  -3.124  19.197  1.00  0.00    +0.000 H 
ATOM    122  H24 UNL A   1       6.595  -1.958  19.962  1.00  0.00    +0.000 H 
ATOM     28  C24 UNL A   1       6.707  -2.735  19.236  1.00  0.00    +0.000 C 
BRANCH   28   27
ATOM     27  C23 UNL A   1       5.767  -3.865  19.651  1.00  0.00    +0.000 C 
ATOM    119  H21 UNL A   1       5.907  -4.069  20.691  1.00  0.00    +0.000 H 
ATOM    120  H22 UNL A   1       4.763  -3.554  19.455  1.00  0.00    +0.000 H 
BRANCH   27   26
ATOM     26  N3  UNL A   1       6.026  -5.075  18.894  1.00  0.00    +0.000 N 
ATOM    118  H20 UNL A   1       5.226  -5.547  18.567  1.00  0.00    +0.000 H 
BRANCH   26   24
ATOM     25  O1  UNL A   1       7.665  -5.450  17.436  1.00  0.00    +0.000 O 
ATOM     24  C22 UNL A   1       7.220  -5.653  18.569  1.00  0.00    +0.000 C 
BRANCH   24   23
ATOM    116  H18 UNL A   1       7.319  -7.448  19.682  1.00  0.00    +0.000 H 
ATOM    117  H19 UNL A   1       8.879  -6.814  19.100  1.00  0.00    +0.000 H 
ATOM     23  C21 UNL A   1       7.930  -6.581  19.537  1.00  0.00    +0.000 C 
BRANCH   23   22
ATOM      2  C2  UNL A   1      11.296  -3.564  22.204  1.00  0.00    +0.000 C 
ATOM      3  C3  UNL A   1      11.222  -3.761  20.825  1.00  0.00    +0.000 C 
ATOM      4  C4  UNL A   1      10.199  -4.523  20.254  1.00  0.00    +0.000 C 
ATOM      5  C5  UNL A   1       9.248  -5.114  21.103  1.00  0.00    +0.000 C 
ATOM      6  C6  UNL A   1       9.270  -4.900  22.482  1.00  0.00    +0.000 C 
ATOM      7  C7  UNL A   1      10.310  -4.119  23.035  1.00  0.00    +0.000 C 
ATOM    102  H4  UNL A   1      11.937  -3.334  20.214  1.00  0.00    +0.000 H 
ATOM    104  H6  UNL A   1      10.345  -3.955  24.054  1.00  0.00    +0.000 H 
ATOM    103  H5  UNL A   1      10.145  -4.650  19.231  1.00  0.00    +0.000 H 
ATOM      8  C8  UNL A   1       8.149  -5.586  23.034  1.00  0.00    +0.000 C 
ATOM     20  C19 UNL A   1       7.469  -6.206  21.994  1.00  0.00    +0.000 C 
ATOM     22  N2  UNL A   1       8.203  -5.990  20.842  1.00  0.00    +0.000 N 
BRANCH    2    1
ATOM      1  C1  UNL A   1      12.431  -2.770  22.780  1.00  0.00    +0.000 C 
ATOM     99  H1  UNL A   1      12.897  -2.199  22.004  1.00  0.00    +0.000 H 
ATOM    100  H2  UNL A   1      13.148  -3.434  23.214  1.00  0.00    +0.000 H 
ATOM    101  H3  UNL A   1      12.057  -2.107  23.533  1.00  0.00    +0.000 H 
ENDBRANCH    2    1
BRANCH    8    9
ATOM      9  C9  UNL A   1       7.720  -5.677  24.425  1.00  0.00    +0.000 C 
ATOM     10  C10 UNL A   1       6.986  -4.619  24.952  1.00  0.00    +0.000 C 
ATOM     11  C11 UNL A   1       6.539  -4.733  26.249  1.00  0.00    +0.000 C 
ATOM    105  H7  UNL A   1       6.782  -3.778  24.390  1.00  0.00    +0.000 H 
ATOM     13  C12 UNL A   1       7.488  -6.839  26.540  1.00  0.00    +0.000 C 
ATOM    106  H8  UNL A   1       5.996  -3.950  26.647  1.00  0.00    +0.000 H 
ATOM     12  N1  UNL A   1       6.770  -5.808  27.032  1.00  0.00    +0.000 N 
ATOM     14  C13 UNL A   1       7.732  -7.973  27.332  1.00  0.00    +0.000 C 
ATOM    112  H14 UNL A   1       9.156  -7.888  23.811  1.00  0.00    +0.000 H 
ATOM     18  C17 UNL A   1       8.772  -7.910  24.768  1.00  0.00    +0.000 C 
ATOM     19  C18 UNL A   1       8.005  -6.814  25.225  1.00  0.00    +0.000 C 
ATOM     17  C16 UNL A   1       9.023  -9.015  25.569  1.00  0.00    +0.000 C 
ATOM    111  H13 UNL A   1       9.592  -9.801  25.214  1.00  0.00    +0.000 H 
ATOM     16  C15 UNL A   1       8.500  -9.049  26.849  1.00  0.00    +0.000 C 
ATOM    110  H12 UNL A   1       8.674  -9.867  27.454  1.00  0.00    +0.000 H 
BRANCH   14   15
ATOM    107  H9  UNL A   1       7.981  -8.285  29.414  1.00  0.00    +0.000 H 
ATOM    108  H10 UNL A   1       6.478  -8.900  28.767  1.00  0.00    +0.000 H 
ATOM    109  H11 UNL A   1       6.692  -7.181  28.999  1.00  0.00    +0.000 H 
ATOM     15  C14 UNL A   1       7.181  -8.093  28.729  1.00  0.00    +0.000 C 
ENDBRANCH   14   15
ENDBRANCH    8    9
BRANCH   20   21
ATOM    113  H15 UNL A   1       5.764  -6.919  23.009  1.00  0.00    +0.000 H 
ATOM    114  H16 UNL A   1       6.447  -8.045  21.861  1.00  0.00    +0.000 H 
ATOM    115  H17 UNL A   1       5.534  -6.666  21.296  1.00  0.00    +0.000 H 
ATOM     21  C20 UNL A   1       6.215  -7.016  22.044  1.00  0.00    +0.000 C 
ENDBRANCH   20   21
ENDBRANCH   23   22
ENDBRANCH   24   23
ENDBRANCH   26   24
ENDBRANCH   27   26
ENDBRANCH   28   27
ENDBRANCH   29   28
ENDBRANCH   30   29
ENDBRANCH   31   30
ENDBRANCH   32   31
ENDBRANCH   33   32
ENDBRANCH   34   33
ENDBRANCH   36   34
ENDBRANCH   40   39
BRANCH   44   45
ATOM     45  C38 UNL A   1      13.344   0.719  26.611  1.00  0.00    +0.000 C 
ATOM     46  C39 UNL A   1      13.066   2.004  27.123  1.00  0.00    +0.000 C 
ATOM     47  F1  UNL A   1      11.835   2.528  27.025  1.00  0.00    +0.000 F 
ATOM     48  C40 UNL A   1      14.066   2.816  27.665  1.00  0.00    +0.000 C 
ATOM     49  F2  UNL A   1      13.779   4.073  28.027  1.00  0.00    +0.000 F 
ATOM     50  C41 UNL A   1      15.365   2.354  27.767  1.00  0.00    +0.000 C 
ATOM     51  F3  UNL A   1      16.336   3.150  28.232  1.00  0.00    +0.000 F 
ATOM     52  C42 UNL A   1      15.664   1.079  27.337  1.00  0.00    +0.000 C 
ATOM     53  F4  UNL A   1      16.922   0.620  27.411  1.00  0.00    +0.000 F 
ATOM     54  C43 UNL A   1      14.679   0.286  26.747  1.00  0.00    +0.000 C 
ATOM     55  F5  UNL A   1      15.107  -0.868  26.222  1.00  0.00    +0.000 F 
ENDBRANCH   44   45
BRANCH   61   62
ATOM     65  C51 UNL A   1       4.521  -1.742  26.759  1.00  0.00    +0.000 C 
ATOM     66  F7  UNL A   1       3.608  -2.143  27.657  1.00  0.00    +0.000 F 
ATOM     67  C52 UNL A   1       4.253  -1.863  25.404  1.00  0.00    +0.000 C 
ATOM     68  F8  UNL A   1       3.082  -2.371  24.993  1.00  0.00    +0.000 F 
ATOM     69  C53 UNL A   1       5.184  -1.427  24.476  1.00  0.00    +0.000 C 
ATOM     70  F9  UNL A   1       4.907  -1.493  23.167  1.00  0.00    +0.000 F 
ATOM     71  C54 UNL A   1       6.396  -0.888  24.901  1.00  0.00    +0.000 C 
ATOM     72  F10 UNL A   1       7.265  -0.448  23.977  1.00  0.00    +0.000 F 
ATOM     62  C49 UNL A   1       6.691  -0.749  26.264  1.00  0.00    +0.000 C 
ATOM     63  C50 UNL A   1       5.716  -1.167  27.186  1.00  0.00    +0.000 C 
ATOM     64  F6  UNL A   1       5.887  -0.969  28.501  1.00  0.00    +0.000 F 
ENDBRANCH   61   62
BRANCH   76   77
ATOM     77  C58 UNL A   1       6.424   5.398  24.824  1.00  0.00    +0.000 C 
ATOM     78  C59 UNL A   1       5.251   5.718  25.527  1.00  0.00    +0.000 C 
ATOM     79  F11 UNL A   1       4.401   4.749  25.896  1.00  0.00    +0.000 F 
ATOM     80  C60 UNL A   1       4.973   7.027  25.930  1.00  0.00    +0.000 C 
ATOM     81  F12 UNL A   1       3.881   7.283  26.662  1.00  0.00    +0.000 F 
ATOM     82  C61 UNL A   1       5.854   8.055  25.631  1.00  0.00    +0.000 C 
ATOM     83  F13 UNL A   1       5.622   9.298  26.074  1.00  0.00    +0.000 F 
ATOM     84  C62 UNL A   1       6.999   7.779  24.907  1.00  0.00    +0.000 C 
ATOM     85  F14 UNL A   1       7.875   8.757  24.640  1.00  0.00    +0.000 F 
ATOM     86  C63 UNL A   1       7.282   6.471  24.513  1.00  0.00    +0.000 C 
ATOM     87  F15 UNL A   1       8.458   6.261  23.906  1.00  0.00    +0.000 F 
ENDBRANCH   76   77
TORSDOF 20
ENDMDL
MODEL 6
REMARK VINA RESULT:      -9.5     41.126     46.732
ROOT
ATOM    134  H36 UNL A   1       5.231  16.250  41.437  1.00  0.00    +0.000 H 
ATOM    135  H37 UNL A   1       6.564  15.690  39.199  1.00  0.00    +0.000 H 
ATOM    136  H38 UNL A   1       6.898  12.602  41.749  1.00  0.00    +0.000 H 
ATOM    137  H39 UNL A   1       2.140   9.218  35.825  1.00  0.00    +0.000 H 
ATOM    138  H40 UNL A   1       0.718  11.252  36.406  1.00  0.00    +0.000 H 
ATOM    139  H41 UNL A   1       3.880  11.142  39.099  1.00  0.00    +0.000 H 
ATOM    140  H42 UNL A   1       5.307   8.581  40.349  1.00  0.00    +0.000 H 
ATOM    141  H43 UNL A   1       6.431  10.764  41.130  1.00  0.00    +0.000 H 
ATOM    142  H44 UNL A   1       1.657  13.013  43.444  1.00  0.00    +0.000 H 
ATOM    143  H45 UNL A   1       0.212  12.157  41.498  1.00  0.00    +0.000 H 
ATOM     40  C34 UNL A   1       1.466  12.461  38.946  1.00  0.00    +0.000 C 
ATOM     41  C35 UNL A   1       2.030  12.775  40.291  1.00  0.00    +0.000 C 
ATOM     42  N5  UNL A   1       3.170  13.324  40.574  1.00  0.00    +0.000 N 
ATOM     43  C36 UNL A   1       3.246  13.355  41.966  1.00  0.00    +0.000 C 
ATOM     44  C37 UNL A   1       4.424  13.531  42.626  1.00  0.00    +0.000 C 
ATOM     56  C44 UNL A   1       5.429  14.118  41.784  1.00  0.00    +0.000 C 
ATOM     57  C45 UNL A   1       5.571  15.325  41.129  1.00  0.00    +0.000 C 
ATOM     58  C46 UNL A   1       6.292  15.021  39.937  1.00  0.00    +0.000 C 
ATOM     59  C47 UNL A   1       6.558  13.652  39.951  1.00  0.00    +0.000 C 
ATOM     60  N6  UNL A   1       6.403  13.304  41.267  1.00  0.00    +0.000 N 
ATOM     61  C48 UNL A   1       6.791  12.697  38.896  1.00  0.00    +0.000 C 
ATOM     73  C55 UNL A   1       6.570  11.356  39.009  1.00  0.00    +0.000 C 
ATOM     74  N7  UNL A   1       6.286  10.586  37.892  1.00  0.00    +0.000 N 
ATOM     75  C56 UNL A   1       5.571   9.593  38.344  1.00  0.00    +0.000 C 
ATOM     76  C57 UNL A   1       4.477   8.947  37.577  1.00  0.00    +0.000 C 
ATOM     88  C64 UNL A   1       3.461   9.838  37.491  1.00  0.00    +0.000 C 
ATOM     89  C65 UNL A   1       2.324   9.880  36.594  1.00  0.00    +0.000 C 
ATOM     90  C66 UNL A   1       1.544  10.929  36.933  1.00  0.00    +0.000 C 
ATOM     91  C67 UNL A   1       2.053  11.536  38.161  1.00  0.00    +0.000 C 
ATOM     92  N8  UNL A   1       3.247  10.891  38.387  1.00  0.00    +0.000 N 
ATOM     93  C68 UNL A   1       5.632   9.379  39.779  1.00  0.00    +0.000 C 
ATOM     94  C69 UNL A   1       6.231  10.513  40.150  1.00  0.00    +0.000 C 
ATOM     95  C70 UNL A   1       1.946  12.968  42.455  1.00  0.00    +0.000 C 
ATOM     96  C71 UNL A   1       1.168  12.544  41.458  1.00  0.00    +0.000 C 
ENDROOT
BRANCH   40   39
ATOM     97  C72 UNL A   1       0.242  14.301  37.751  1.00  0.00    +0.000 C 
ATOM     98  C73 UNL A   1      -0.958  14.969  37.516  1.00  0.00    +0.000 C 
ATOM     36  C30 UNL A   1      -2.167  14.519  38.079  1.00  0.00    +0.000 C 
ATOM     37  C31 UNL A   1      -2.152  13.329  38.802  1.00  0.00    +0.000 C 
ATOM    132  H34 UNL A   1      -3.041  12.922  39.137  1.00  0.00    +0.000 H 
ATOM     38  C32 UNL A   1      -0.955  12.684  39.080  1.00  0.00    +0.000 C 
ATOM    133  H35 UNL A   1      -0.954  11.826  39.654  1.00  0.00    +0.000 H 
ATOM     39  C33 UNL A   1       0.250  13.188  38.586  1.00  0.00    +0.000 C 
ATOM    144  H46 UNL A   1       1.116  14.628  37.310  1.00  0.00    +0.000 H 
ATOM    145  H47 UNL A   1      -0.960  15.810  36.919  1.00  0.00    +0.000 H 
BRANCH   36   34
ATOM     34  C29 UNL A   1      -3.354  15.402  37.898  1.00  0.00    +0.000 C 
ATOM     35  O2  UNL A   1      -3.599  16.244  38.767  1.00  0.00    +0.000 O 
BRANCH   34   33
ATOM     33  N4  UNL A   1      -4.246  15.318  36.864  1.00  0.00    +0.000 N 
ATOM    131  H33 UNL A   1      -4.083  15.993  36.166  1.00  0.00    +0.000 H 
BRANCH   33   32
ATOM    129  H31 UNL A   1      -5.977  14.375  37.442  1.00  0.00    +0.000 H 
ATOM    130  H32 UNL A   1      -5.898  14.908  35.746  1.00  0.00    +0.000 H 
ATOM     32  C28 UNL A   1      -5.374  14.459  36.563  1.00  0.00    +0.000 C 
BRANCH   32   31
ATOM    127  H29 UNL A   1      -5.531  12.810  35.232  1.00  0.00    +0.000 H 
ATOM     31  C27 UNL A   1      -4.976  13.050  36.115  1.00  0.00    +0.000 C 
ATOM    128  H30 UNL A   1      -3.918  13.068  35.951  1.00  0.00    +0.000 H 
BRANCH   31   30
ATOM    126  H28 UNL A   1      -5.741  12.433  37.969  1.00  0.00    +0.000 H 
ATOM    125  H27 UNL A   1      -4.294  11.530  37.431  1.00  0.00    +0.000 H 
ATOM     30  C26 UNL A   1      -5.236  11.956  37.156  1.00  0.00    +0.000 C 
BRANCH   30   29
ATOM    123  H25 UNL A   1      -7.017  11.259  36.232  1.00  0.00    +0.000 H 
ATOM    124  H26 UNL A   1      -5.575  10.228  36.010  1.00  0.00    +0.000 H 
ATOM     29  C25 UNL A   1      -6.152  10.823  36.687  1.00  0.00    +0.000 C 
BRANCH   29   28
ATOM    121  H23 UNL A   1      -5.832   9.782  38.516  1.00  0.00    +0.000 H 
ATOM    122  H24 UNL A   1      -7.507  10.310  38.218  1.00  0.00    +0.000 H 
ATOM     28  C24 UNL A   1      -6.623   9.878  37.801  1.00  0.00    +0.000 C 
BRANCH   28   27
ATOM     27  C23 UNL A   1      -7.001   8.481  37.314  1.00  0.00    +0.000 C 
ATOM    119  H21 UNL A   1      -6.583   7.756  37.980  1.00  0.00    +0.000 H 
ATOM    120  H22 UNL A   1      -8.068   8.411  37.296  1.00  0.00    +0.000 H 
BRANCH   27   26
ATOM     26  N3  UNL A   1      -6.505   8.234  35.974  1.00  0.00    +0.000 N 
ATOM    118  H20 UNL A   1      -6.575   8.994  35.352  1.00  0.00    +0.000 H 
BRANCH   26   24
ATOM     25  O1  UNL A   1      -6.722   6.185  35.133  1.00  0.00    +0.000 O 
ATOM     24  C22 UNL A   1      -5.955   7.098  35.452  1.00  0.00    +0.000 C 
BRANCH   24   23
ATOM    116  H18 UNL A   1      -4.191   5.965  35.726  1.00  0.00    +0.000 H 
ATOM    117  H19 UNL A   1      -4.198   7.052  34.315  1.00  0.00    +0.000 H 
ATOM     23  C21 UNL A   1      -4.450   6.932  35.348  1.00  0.00    +0.000 C 
BRANCH   23   22
ATOM      2  C2  UNL A   1      -1.927  11.513  34.907  1.00  0.00    +0.000 C 
ATOM      3  C3  UNL A   1      -2.787  10.911  33.987  1.00  0.00    +0.000 C 
ATOM      4  C4  UNL A   1      -3.465   9.728  34.294  1.00  0.00    +0.000 C 
ATOM      5  C5  UNL A   1      -3.246   9.134  35.549  1.00  0.00    +0.000 C 
ATOM      6  C6  UNL A   1      -2.426   9.736  36.506  1.00  0.00    +0.000 C 
ATOM      7  C7  UNL A   1      -1.757  10.937  36.175  1.00  0.00    +0.000 C 
ATOM    102  H4  UNL A   1      -2.925  11.349  33.063  1.00  0.00    +0.000 H 
ATOM    104  H6  UNL A   1      -1.143  11.391  36.868  1.00  0.00    +0.000 H 
ATOM    103  H5  UNL A   1      -4.110   9.299  33.613  1.00  0.00    +0.000 H 
ATOM      8  C8  UNL A   1      -2.466   8.916  37.671  1.00  0.00    +0.000 C 
ATOM     20  C19 UNL A   1      -3.298   7.835  37.409  1.00  0.00    +0.000 C 
ATOM     22  N2  UNL A   1      -3.686   7.932  36.085  1.00  0.00    +0.000 N 
BRANCH    2    1
ATOM      1  C1  UNL A   1      -1.190  12.763  34.524  1.00  0.00    +0.000 C 
ATOM     99  H1  UNL A   1      -0.279  12.825  35.081  1.00  0.00    +0.000 H 
ATOM    100  H2  UNL A   1      -1.798  13.616  34.739  1.00  0.00    +0.000 H 
ATOM    101  H3  UNL A   1      -0.966  12.739  33.477  1.00  0.00    +0.000 H 
ENDBRANCH    2    1
BRANCH    8    9
ATOM      9  C9  UNL A   1      -1.786   9.099  38.948  1.00  0.00    +0.000 C 
ATOM     10  C10 UNL A   1      -0.476   8.642  39.062  1.00  0.00    +0.000 C 
ATOM     11  C11 UNL A   1       0.178   8.864  40.252  1.00  0.00    +0.000 C 
ATOM    105  H7  UNL A   1      -0.011   8.155  38.280  1.00  0.00    +0.000 H 
ATOM     13  C12 UNL A   1      -1.647   9.940  41.218  1.00  0.00    +0.000 C 
ATOM    106  H8  UNL A   1       1.149   8.526  40.343  1.00  0.00    +0.000 H 
ATOM     12  N1  UNL A   1      -0.375   9.498  41.307  1.00  0.00    +0.000 N 
ATOM     14  C13 UNL A   1      -2.241  10.612  42.299  1.00  0.00    +0.000 C 
ATOM    112  H14 UNL A   1      -4.307  10.061  39.159  1.00  0.00    +0.000 H 
ATOM     18  C17 UNL A   1      -3.747  10.208  40.013  1.00  0.00    +0.000 C 
ATOM     19  C18 UNL A   1      -2.411   9.748  40.045  1.00  0.00    +0.000 C 
ATOM     17  C16 UNL A   1      -4.328  10.852  41.096  1.00  0.00    +0.000 C 
ATOM    111  H13 UNL A   1      -5.309  11.173  41.051  1.00  0.00    +0.000 H 
ATOM     16  C15 UNL A   1      -3.573  11.058  42.237  1.00  0.00    +0.000 C 
ATOM    110  H12 UNL A   1      -3.991  11.541  43.049  1.00  0.00    +0.000 H 
BRANCH   14   15
ATOM    107  H9  UNL A   1      -1.447  11.946  43.742  1.00  0.00    +0.000 H 
ATOM    108  H10 UNL A   1      -0.481  10.513  43.476  1.00  0.00    +0.000 H 
ATOM    109  H11 UNL A   1      -1.967  10.409  44.390  1.00  0.00    +0.000 H 
ATOM     15  C14 UNL A   1      -1.479  10.890  43.569  1.00  0.00    +0.000 C 
ENDBRANCH   14   15
ENDBRANCH    8    9
BRANCH   20   21
ATOM    113  H15 UNL A   1      -4.752   6.565  38.256  1.00  0.00    +0.000 H 
ATOM    114  H16 UNL A   1      -3.421   6.954  39.321  1.00  0.00    +0.000 H 
ATOM    115  H17 UNL A   1      -3.192   5.818  38.013  1.00  0.00    +0.000 H 
ATOM     21  C20 UNL A   1      -3.694   6.714  38.314  1.00  0.00    +0.000 C 
ENDBRANCH   20   21
ENDBRANCH   23   22
ENDBRANCH   24   23
ENDBRANCH   26   24
ENDBRANCH   27   26
ENDBRANCH   28   27
ENDBRANCH   29   28
ENDBRANCH   30   29
ENDBRANCH   31   30
ENDBRANCH   32   31
ENDBRANCH   33   32
ENDBRANCH   34   33
ENDBRANCH   36   34
ENDBRANCH   40   39
BRANCH   44   45
ATOM     45  C38 UNL A   1       4.764  12.888  43.949  1.00  0.00    +0.000 C 
ATOM     46  C39 UNL A   1       4.614  11.495  44.106  1.00  0.00    +0.000 C 
ATOM     47  F1  UNL A   1       4.413  10.703  43.042  1.00  0.00    +0.000 F 
ATOM     48  C40 UNL A   1       4.575  10.893  45.367  1.00  0.00    +0.000 C 
ATOM     49  F2  UNL A   1       4.310   9.584  45.473  1.00  0.00    +0.000 F 
ATOM     50  C41 UNL A   1       4.742  11.652  46.512  1.00  0.00    +0.000 C 
ATOM     51  F3  UNL A   1       4.648  11.087  47.722  1.00  0.00    +0.000 F 
ATOM     52  C42 UNL A   1       4.957  13.008  46.396  1.00  0.00    +0.000 C 
ATOM     53  F4  UNL A   1       5.102  13.763  47.495  1.00  0.00    +0.000 F 
ATOM     54  C43 UNL A   1       4.943  13.620  45.142  1.00  0.00    +0.000 C 
ATOM     55  F5  UNL A   1       5.001  14.956  45.152  1.00  0.00    +0.000 F 
ENDBRANCH   44   45
BRANCH   61   62
ATOM     65  C51 UNL A   1       6.222  14.032  35.349  1.00  0.00    +0.000 C 
ATOM     66  F7  UNL A   1       5.225  14.173  34.461  1.00  0.00    +0.000 F 
ATOM     67  C52 UNL A   1       7.480  14.534  35.057  1.00  0.00    +0.000 C 
ATOM     68  F8  UNL A   1       7.699  15.168  33.895  1.00  0.00    +0.000 F 
ATOM     69  C53 UNL A   1       8.503  14.411  35.984  1.00  0.00    +0.000 C 
ATOM     70  F9  UNL A   1       9.706  14.943  35.728  1.00  0.00    +0.000 F 
ATOM     71  C54 UNL A   1       8.276  13.765  37.196  1.00  0.00    +0.000 C 
ATOM     72  F10 UNL A   1       9.280  13.688  38.083  1.00  0.00    +0.000 F 
ATOM     62  C49 UNL A   1       7.012  13.252  37.518  1.00  0.00    +0.000 C 
ATOM     63  C50 UNL A   1       5.982  13.419  36.577  1.00  0.00    +0.000 C 
ATOM     64  F6  UNL A   1       4.726  13.047  36.862  1.00  0.00    +0.000 F 
ENDBRANCH   61   62
BRANCH   76   77
ATOM     77  C58 UNL A   1       4.430   7.487  37.341  1.00  0.00    +0.000 C 
ATOM     78  C59 UNL A   1       3.331   6.725  37.770  1.00  0.00    +0.000 C 
ATOM     79  F11 UNL A   1       2.423   7.260  38.600  1.00  0.00    +0.000 F 
ATOM     80  C60 UNL A   1       3.105   5.431  37.292  1.00  0.00    +0.000 C 
ATOM     81  F12 UNL A   1       2.006   4.763  37.668  1.00  0.00    +0.000 F 
ATOM     82  C61 UNL A   1       3.978   4.858  36.382  1.00  0.00    +0.000 C 
ATOM     83  F13 UNL A   1       3.726   3.645  35.872  1.00  0.00    +0.000 F 
ATOM     84  C62 UNL A   1       5.090   5.567  35.968  1.00  0.00    +0.000 C 
ATOM     85  F14 UNL A   1       5.925   5.037  35.063  1.00  0.00    +0.000 F 
ATOM     86  C63 UNL A   1       5.311   6.862  36.437  1.00  0.00    +0.000 C 
ATOM     87  F15 UNL A   1       6.351   7.528  35.915  1.00  0.00    +0.000 F 
ENDBRANCH   76   77
TORSDOF 20
ENDMDL
MODEL 7
REMARK VINA RESULT:      -9.3     39.137     45.034
ROOT
ATOM    134  H36 UNL A   1       6.300  29.707  -4.766  1.00  0.00    +0.000 H 
ATOM    135  H37 UNL A   1       8.632  28.465  -5.114  1.00  0.00    +0.000 H 
ATOM    136  H38 UNL A   1       9.256  32.430  -4.925  1.00  0.00    +0.000 H 
ATOM    137  H39 UNL A   1      12.781  29.962   2.193  1.00  0.00    +0.000 H 
ATOM    138  H40 UNL A   1      10.449  28.984   2.509  1.00  0.00    +0.000 H 
ATOM    139  H41 UNL A   1      10.382  31.244  -0.977  1.00  0.00    +0.000 H 
ATOM    140  H42 UNL A   1      11.958  33.943  -1.598  1.00  0.00    +0.000 H 
ATOM    141  H43 UNL A   1      10.600  33.151  -3.640  1.00  0.00    +0.000 H 
ATOM    142  H44 UNL A   1       5.518  33.158  -0.925  1.00  0.00    +0.000 H 
ATOM    143  H45 UNL A   1       6.565  32.184   1.212  1.00  0.00    +0.000 H 
ATOM     40  C34 UNL A   1       8.489  30.134   0.689  1.00  0.00    +0.000 C 
ATOM     41  C35 UNL A   1       7.741  30.967  -0.298  1.00  0.00    +0.000 C 
ATOM     42  N5  UNL A   1       7.749  30.877  -1.591  1.00  0.00    +0.000 N 
ATOM     43  C36 UNL A   1       6.929  31.906  -2.052  1.00  0.00    +0.000 C 
ATOM     44  C37 UNL A   1       6.970  32.347  -3.340  1.00  0.00    +0.000 C 
ATOM     56  C44 UNL A   1       7.565  31.381  -4.220  1.00  0.00    +0.000 C 
ATOM     57  C45 UNL A   1       7.244  30.103  -4.628  1.00  0.00    +0.000 C 
ATOM     58  C46 UNL A   1       8.494  29.445  -4.820  1.00  0.00    +0.000 C 
ATOM     59  C47 UNL A   1       9.497  30.371  -4.534  1.00  0.00    +0.000 C 
ATOM     60  N6  UNL A   1       8.860  31.580  -4.626  1.00  0.00    +0.000 N 
ATOM     61  C48 UNL A   1      10.859  30.220  -4.085  1.00  0.00    +0.000 C 
ATOM     73  C55 UNL A   1      11.556  31.177  -3.407  1.00  0.00    +0.000 C 
ATOM     74  N7  UNL A   1      12.594  30.831  -2.556  1.00  0.00    +0.000 N 
ATOM     75  C56 UNL A   1      12.631  31.785  -1.669  1.00  0.00    +0.000 C 
ATOM     76  C57 UNL A   1      12.998  31.578  -0.246  1.00  0.00    +0.000 C 
ATOM     88  C64 UNL A   1      11.997  30.873   0.333  1.00  0.00    +0.000 C 
ATOM     89  C65 UNL A   1      11.976  30.113   1.566  1.00  0.00    +0.000 C 
ATOM     90  C66 UNL A   1      10.728  29.636   1.759  1.00  0.00    +0.000 C 
ATOM     91  C67 UNL A   1       9.835  30.185   0.741  1.00  0.00    +0.000 C 
ATOM     92  N8  UNL A   1      10.676  30.842  -0.128  1.00  0.00    +0.000 N 
ATOM     93  C68 UNL A   1      11.935  33.007  -2.034  1.00  0.00    +0.000 C 
ATOM     94  C69 UNL A   1      11.259  32.570  -3.098  1.00  0.00    +0.000 C 
ATOM     95  C70 UNL A   1       6.277  32.460  -0.891  1.00  0.00    +0.000 C 
ATOM     96  C71 UNL A   1       6.786  31.950   0.231  1.00  0.00    +0.000 C 
ENDROOT
BRANCH   40   39
ATOM     97  C72 UNL A   1       7.270  28.021   1.286  1.00  0.00    +0.000 C 
ATOM     98  C73 UNL A   1       6.430  27.346   2.170  1.00  0.00    +0.000 C 
ATOM     36  C30 UNL A   1       6.002  27.942   3.372  1.00  0.00    +0.000 C 
ATOM     37  C31 UNL A   1       6.518  29.192   3.705  1.00  0.00    +0.000 C 
ATOM    132  H34 UNL A   1       6.302  29.606   4.626  1.00  0.00    +0.000 H 
ATOM     38  C32 UNL A   1       7.317  29.890   2.809  1.00  0.00    +0.000 C 
ATOM    133  H35 UNL A   1       7.656  30.834   3.051  1.00  0.00    +0.000 H 
ATOM     39  C33 UNL A   1       7.665  29.321   1.582  1.00  0.00    +0.000 C 
ATOM    144  H46 UNL A   1       7.596  27.560   0.422  1.00  0.00    +0.000 H 
ATOM    145  H47 UNL A   1       6.114  26.391   1.938  1.00  0.00    +0.000 H 
BRANCH   36   34
ATOM     34  C29 UNL A   1       4.976  27.197   4.155  1.00  0.00    +0.000 C 
ATOM     35  O2  UNL A   1       3.960  27.799   4.517  1.00  0.00    +0.000 O 
BRANCH   34   33
ATOM     33  N4  UNL A   1       5.093  25.897   4.566  1.00  0.00    +0.000 N 
ATOM    131  H33 UNL A   1       5.585  25.338   3.923  1.00  0.00    +0.000 H 
BRANCH   33   32
ATOM    129  H31 UNL A   1       3.616  25.355   5.888  1.00  0.00    +0.000 H 
ATOM    130  H32 UNL A   1       4.857  24.126   5.544  1.00  0.00    +0.000 H 
ATOM     32  C28 UNL A   1       4.656  25.159   5.735  1.00  0.00    +0.000 C 
BRANCH   32   31
ATOM    127  H29 UNL A   1       5.470  26.594   7.074  1.00  0.00    +0.000 H 
ATOM     31  C27 UNL A   1       5.410  25.528   7.016  1.00  0.00    +0.000 C 
ATOM    128  H30 UNL A   1       4.863  25.095   7.828  1.00  0.00    +0.000 H 
BRANCH   31   30
ATOM    126  H28 UNL A   1       7.427  25.556   6.437  1.00  0.00    +0.000 H 
ATOM    125  H27 UNL A   1       6.795  23.929   6.827  1.00  0.00    +0.000 H 
ATOM     30  C26 UNL A   1       6.832  24.964   7.099  1.00  0.00    +0.000 C 
BRANCH   30   29
ATOM    123  H25 UNL A   1       7.075  25.918   8.981  1.00  0.00    +0.000 H 
ATOM    124  H26 UNL A   1       7.291  24.145   8.979  1.00  0.00    +0.000 H 
ATOM     29  C25 UNL A   1       7.489  25.069   8.477  1.00  0.00    +0.000 C 
BRANCH   29   28
ATOM    121  H23 UNL A   1       9.456  24.261   8.577  1.00  0.00    +0.000 H 
ATOM    122  H24 UNL A   1       9.262  25.672   7.508  1.00  0.00    +0.000 H 
ATOM     28  C24 UNL A   1       9.015  25.228   8.449  1.00  0.00    +0.000 C 
BRANCH   28   27
ATOM     27  C23 UNL A   1       9.566  26.153   9.532  1.00  0.00    +0.000 C 
ATOM    119  H21 UNL A   1      10.631  26.059   9.560  1.00  0.00    +0.000 H 
ATOM    120  H22 UNL A   1       9.278  27.155   9.294  1.00  0.00    +0.000 H 
BRANCH   27   26
ATOM     26  N3  UNL A   1       9.028  25.821  10.837  1.00  0.00    +0.000 N 
ATOM    118  H20 UNL A   1       8.546  24.963  10.888  1.00  0.00    +0.000 H 
BRANCH   26   24
ATOM     25  O1  UNL A   1       9.565  25.957  12.992  1.00  0.00    +0.000 O 
ATOM     24  C22 UNL A   1       9.094  26.527  12.004  1.00  0.00    +0.000 C 
BRANCH   24   23
ATOM    116  H18 UNL A   1       9.228  28.540  12.636  1.00  0.00    +0.000 H 
ATOM    117  H19 UNL A   1       8.365  28.269  11.101  1.00  0.00    +0.000 H 
ATOM     23  C21 UNL A   1       8.527  27.931  12.104  1.00  0.00    +0.000 C 
BRANCH   23   22
ATOM      2  C2  UNL A   1       6.246  28.357  16.811  1.00  0.00    +0.000 C 
ATOM      3  C3  UNL A   1       7.590  28.541  16.486  1.00  0.00    +0.000 C 
ATOM      4  C4  UNL A   1       8.030  28.489  15.160  1.00  0.00    +0.000 C 
ATOM      5  C5  UNL A   1       7.089  28.222  14.150  1.00  0.00    +0.000 C 
ATOM      6  C6  UNL A   1       5.731  28.076  14.440  1.00  0.00    +0.000 C 
ATOM      7  C7  UNL A   1       5.310  28.141  15.788  1.00  0.00    +0.000 C 
ATOM    102  H4  UNL A   1       8.273  28.720  17.239  1.00  0.00    +0.000 H 
ATOM    104  H6  UNL A   1       4.311  28.029  16.020  1.00  0.00    +0.000 H 
ATOM    103  H5  UNL A   1       9.024  28.642  14.928  1.00  0.00    +0.000 H 
ATOM      8  C8  UNL A   1       5.054  27.874  13.202  1.00  0.00    +0.000 C 
ATOM     20  C19 UNL A   1       6.000  27.896  12.185  1.00  0.00    +0.000 C 
ATOM     22  N2  UNL A   1       7.241  28.011  12.787  1.00  0.00    +0.000 N 
BRANCH    2    1
ATOM      1  C1  UNL A   1       5.822  28.384  18.250  1.00  0.00    +0.000 C 
ATOM     99  H1  UNL A   1       4.885  28.894  18.336  1.00  0.00    +0.000 H 
ATOM    100  H2  UNL A   1       6.561  28.894  18.831  1.00  0.00    +0.000 H 
ATOM    101  H3  UNL A   1       5.715  27.380  18.609  1.00  0.00    +0.000 H 
ENDBRANCH    2    1
BRANCH    8    9
ATOM      9  C9  UNL A   1       3.632  27.671  12.954  1.00  0.00    +0.000 C 
ATOM     10  C10 UNL A   1       3.215  26.409  12.539  1.00  0.00    +0.000 C 
ATOM     11  C11 UNL A   1       1.866  26.208  12.357  1.00  0.00    +0.000 C 
ATOM    105  H7  UNL A   1       3.895  25.650  12.375  1.00  0.00    +0.000 H 
ATOM     13  C12 UNL A   1       1.316  28.391  12.953  1.00  0.00    +0.000 C 
ATOM    106  H8  UNL A   1       1.551  25.275  12.047  1.00  0.00    +0.000 H 
ATOM     12  N1  UNL A   1       0.930  27.159  12.559  1.00  0.00    +0.000 N 
ATOM     14  C13 UNL A   1       0.360  29.394  13.179  1.00  0.00    +0.000 C 
ATOM    112  H14 UNL A   1       4.028  30.248  13.679  1.00  0.00    +0.000 H 
ATOM     18  C17 UNL A   1       3.032  30.017  13.540  1.00  0.00    +0.000 C 
ATOM     19  C18 UNL A   1       2.680  28.704  13.153  1.00  0.00    +0.000 C 
ATOM     17  C16 UNL A   1       2.078  31.005  13.741  1.00  0.00    +0.000 C 
ATOM    111  H13 UNL A   1       2.361  31.959  14.018  1.00  0.00    +0.000 H 
ATOM     16  C15 UNL A   1       0.742  30.692  13.565  1.00  0.00    +0.000 C 
ATOM    110  H12 UNL A   1       0.021  31.415  13.716  1.00  0.00    +0.000 H 
BRANCH   14   15
ATOM    107  H9  UNL A   1      -1.664  29.767  13.685  1.00  0.00    +0.000 H 
ATOM    108  H10 UNL A   1      -1.319  28.104  13.270  1.00  0.00    +0.000 H 
ATOM    109  H11 UNL A   1      -1.409  29.318  12.016  1.00  0.00    +0.000 H 
ATOM     15  C14 UNL A   1      -1.115  29.127  13.026  1.00  0.00    +0.000 C 
ENDBRANCH   14   15
ENDBRANCH    8    9
BRANCH   20   21
ATOM    113  H15 UNL A   1       4.964  28.364  10.410  1.00  0.00    +0.000 H 
ATOM    114  H16 UNL A   1       5.607  26.740  10.466  1.00  0.00    +0.000 H 
ATOM    115  H17 UNL A   1       6.678  28.096  10.199  1.00  0.00    +0.000 H 
ATOM     21  C20 UNL A   1       5.798  27.765  10.711  1.00  0.00    +0.000 C 
ENDBRANCH   20   21
ENDBRANCH   23   22
ENDBRANCH   24   23
ENDBRANCH   26   24
ENDBRANCH   27   26
ENDBRANCH   28   27
ENDBRANCH   29   28
ENDBRANCH   30   29
ENDBRANCH   31   30
ENDBRANCH   32   31
ENDBRANCH   33   32
ENDBRANCH   34   33
ENDBRANCH   36   34
ENDBRANCH   40   39
BRANCH   44   45
ATOM     45  C38 UNL A   1       6.750  33.782  -3.756  1.00  0.00    +0.000 C 
ATOM     46  C39 UNL A   1       5.678  34.103  -4.614  1.00  0.00    +0.000 C 
ATOM     47  F1  UNL A   1       4.712  33.207  -4.867  1.00  0.00    +0.000 F 
ATOM     48  C40 UNL A   1       5.621  35.318  -5.303  1.00  0.00    +0.000 C 
ATOM     49  F2  UNL A   1       4.647  35.530  -6.199  1.00  0.00    +0.000 F 
ATOM     50  C41 UNL A   1       6.600  36.277  -5.116  1.00  0.00    +0.000 C 
ATOM     51  F3  UNL A   1       6.578  37.416  -5.818  1.00  0.00    +0.000 F 
ATOM     52  C42 UNL A   1       7.630  36.026  -4.236  1.00  0.00    +0.000 C 
ATOM     53  F4  UNL A   1       8.599  36.935  -4.057  1.00  0.00    +0.000 F 
ATOM     54  C43 UNL A   1       7.719  34.793  -3.587  1.00  0.00    +0.000 C 
ATOM     55  F5  UNL A   1       8.837  34.594  -2.881  1.00  0.00    +0.000 F 
ENDBRANCH   44   45
BRANCH   61   62
ATOM     65  C51 UNL A   1      11.668  26.572  -3.235  1.00  0.00    +0.000 C 
ATOM     66  F7  UNL A   1      11.440  25.679  -2.259  1.00  0.00    +0.000 F 
ATOM     67  C52 UNL A   1      12.336  26.181  -4.384  1.00  0.00    +0.000 C 
ATOM     68  F8  UNL A   1      12.745  24.911  -4.525  1.00  0.00    +0.000 F 
ATOM     69  C53 UNL A   1      12.549  27.096  -5.402  1.00  0.00    +0.000 C 
ATOM     70  F9  UNL A   1      13.146  26.708  -6.537  1.00  0.00    +0.000 F 
ATOM     71  C54 UNL A   1      12.113  28.411  -5.264  1.00  0.00    +0.000 C 
ATOM     72  F10 UNL A   1      12.310  29.265  -6.280  1.00  0.00    +0.000 F 
ATOM     62  C49 UNL A   1      11.431  28.832  -4.114  1.00  0.00    +0.000 C 
ATOM     63  C50 UNL A   1      11.197  27.877  -3.110  1.00  0.00    +0.000 C 
ATOM     64  F6  UNL A   1      10.461  28.183  -2.032  1.00  0.00    +0.000 F 
ENDBRANCH   61   62
BRANCH   76   77
ATOM     77  C58 UNL A   1      14.064  32.360   0.420  1.00  0.00    +0.000 C 
ATOM     78  C59 UNL A   1      13.744  33.425   1.277  1.00  0.00    +0.000 C 
ATOM     79  F11 UNL A   1      12.490  33.900   1.324  1.00  0.00    +0.000 F 
ATOM     80  C60 UNL A   1      14.687  33.967   2.155  1.00  0.00    +0.000 C 
ATOM     81  F12 UNL A   1      14.326  34.934   3.009  1.00  0.00    +0.000 F 
ATOM     82  C61 UNL A   1      15.979  33.467   2.192  1.00  0.00    +0.000 C 
ATOM     83  F13 UNL A   1      16.864  33.940   3.080  1.00  0.00    +0.000 F 
ATOM     84  C62 UNL A   1      16.336  32.444   1.335  1.00  0.00    +0.000 C 
ATOM     85  F14 UNL A   1      17.573  31.929   1.383  1.00  0.00    +0.000 F 
ATOM     86  C63 UNL A   1      15.393  31.896   0.464  1.00  0.00    +0.000 C 
ATOM     87  F15 UNL A   1      15.781  30.840  -0.264  1.00  0.00    +0.000 F 
ENDBRANCH   76   77
TORSDOF 20
ENDMDL
MODEL 8
REMARK VINA RESULT:      -9.3     40.316     45.991
ROOT
ATOM    134  H36 UNL A   1       7.377  29.127  -4.319  1.00  0.00    +0.000 H 
ATOM    135  H37 UNL A   1       9.793  28.006  -4.262  1.00  0.00    +0.000 H 
ATOM    136  H38 UNL A   1      10.187  31.990  -4.607  1.00  0.00    +0.000 H 
ATOM    137  H39 UNL A   1      13.099  30.802   3.094  1.00  0.00    +0.000 H 
ATOM    138  H40 UNL A   1      10.801  29.727   3.335  1.00  0.00    +0.000 H 
ATOM    139  H41 UNL A   1      10.969  31.457  -0.439  1.00  0.00    +0.000 H 
ATOM    140  H42 UNL A   1      12.457  34.138  -1.306  1.00  0.00    +0.000 H 
ATOM    141  H43 UNL A   1      11.356  32.975  -3.324  1.00  0.00    +0.000 H 
ATOM    142  H44 UNL A   1       6.032  33.032  -1.122  1.00  0.00    +0.000 H 
ATOM    143  H45 UNL A   1       6.907  32.445   1.223  1.00  0.00    +0.000 H 
ATOM     40  C34 UNL A   1       8.978  30.473   1.191  1.00  0.00    +0.000 C 
ATOM     41  C35 UNL A   1       8.291  31.105   0.027  1.00  0.00    +0.000 C 
ATOM     42  N5  UNL A   1       8.435  30.833  -1.233  1.00  0.00    +0.000 N 
ATOM     43  C36 UNL A   1       7.612  31.729  -1.915  1.00  0.00    +0.000 C 
ATOM     44  C37 UNL A   1       7.760  31.983  -3.245  1.00  0.00    +0.000 C 
ATOM     56  C44 UNL A   1       8.491  30.943  -3.913  1.00  0.00    +0.000 C 
ATOM     57  C45 UNL A   1       8.279  29.601  -4.154  1.00  0.00    +0.000 C 
ATOM     58  C46 UNL A   1       9.575  29.007  -4.130  1.00  0.00    +0.000 C 
ATOM     59  C47 UNL A   1      10.495  30.029  -3.894  1.00  0.00    +0.000 C 
ATOM     60  N6  UNL A   1       9.808  31.168  -4.222  1.00  0.00    +0.000 N 
ATOM     61  C48 UNL A   1      11.811  30.034  -3.303  1.00  0.00    +0.000 C 
ATOM     73  C55 UNL A   1      12.384  31.121  -2.714  1.00  0.00    +0.000 C 
ATOM     74  N7  UNL A   1      13.347  30.970  -1.728  1.00  0.00    +0.000 N 
ATOM     75  C56 UNL A   1      13.245  32.042  -0.993  1.00  0.00    +0.000 C 
ATOM     76  C57 UNL A   1      13.476  32.064   0.473  1.00  0.00    +0.000 C 
ATOM     88  C64 UNL A   1      12.460  31.385   1.055  1.00  0.00    +0.000 C 
ATOM     89  C65 UNL A   1      12.355  30.809   2.380  1.00  0.00    +0.000 C 
ATOM     90  C66 UNL A   1      11.120  30.282   2.526  1.00  0.00    +0.000 C 
ATOM     91  C67 UNL A   1      10.307  30.620   1.359  1.00  0.00    +0.000 C 
ATOM     92  N8  UNL A   1      11.196  31.200   0.484  1.00  0.00    +0.000 N 
ATOM     93  C68 UNL A   1      12.527  33.150  -1.598  1.00  0.00    +0.000 C 
ATOM     94  C69 UNL A   1      11.985  32.522  -2.644  1.00  0.00    +0.000 C 
ATOM     95  C70 UNL A   1       6.819  32.398  -0.915  1.00  0.00    +0.000 C 
ATOM     96  C71 UNL A   1       7.237  32.088   0.313  1.00  0.00    +0.000 C 
ENDROOT
BRANCH   40   39
ATOM     97  C72 UNL A   1       8.531  28.638   2.847  1.00  0.00    +0.000 C 
ATOM     98  C73 UNL A   1       7.615  27.966   3.654  1.00  0.00    +0.000 C 
ATOM     36  C30 UNL A   1       6.282  28.406   3.770  1.00  0.00    +0.000 C 
ATOM     37  C31 UNL A   1       5.923  29.590   3.129  1.00  0.00    +0.000 C 
ATOM    132  H34 UNL A   1       4.983  29.989   3.281  1.00  0.00    +0.000 H 
ATOM     38  C32 UNL A   1       6.816  30.238   2.287  1.00  0.00    +0.000 C 
ATOM    133  H35 UNL A   1       6.523  31.090   1.785  1.00  0.00    +0.000 H 
ATOM     39  C33 UNL A   1       8.111  29.743   2.114  1.00  0.00    +0.000 C 
ATOM    144  H46 UNL A   1       9.511  28.319   2.794  1.00  0.00    +0.000 H 
ATOM    145  H47 UNL A   1       7.919  27.130   4.177  1.00  0.00    +0.000 H 
BRANCH   36   34
ATOM     34  C29 UNL A   1       5.352  27.519   4.524  1.00  0.00    +0.000 C 
ATOM     35  O2  UNL A   1       4.202  27.915   4.736  1.00  0.00    +0.000 O 
BRANCH   34   33
ATOM     33  N4  UNL A   1       5.688  26.307   5.063  1.00  0.00    +0.000 N 
ATOM    131  H33 UNL A   1       6.091  25.696   4.404  1.00  0.00    +0.000 H 
BRANCH   33   32
ATOM    129  H31 UNL A   1       5.093  26.419   7.027  1.00  0.00    +0.000 H 
ATOM    130  H32 UNL A   1       5.038  24.806   6.277  1.00  0.00    +0.000 H 
ATOM     32  C28 UNL A   1       5.584  25.720   6.384  1.00  0.00    +0.000 C 
BRANCH   32   31
ATOM    127  H29 UNL A   1       7.257  26.182   7.611  1.00  0.00    +0.000 H 
ATOM     31  C27 UNL A   1       6.936  25.359   7.008  1.00  0.00    +0.000 C 
ATOM    128  H30 UNL A   1       6.782  24.463   7.573  1.00  0.00    +0.000 H 
BRANCH   31   30
ATOM    126  H28 UNL A   1       7.617  25.230   5.027  1.00  0.00    +0.000 H 
ATOM    125  H27 UNL A   1       8.351  24.036   6.138  1.00  0.00    +0.000 H 
ATOM     30  C26 UNL A   1       8.040  25.050   5.992  1.00  0.00    +0.000 C 
BRANCH   30   29
ATOM    123  H25 UNL A   1       9.241  26.656   5.293  1.00  0.00    +0.000 H 
ATOM    124  H26 UNL A   1       9.247  26.399   7.060  1.00  0.00    +0.000 H 
ATOM     29  C25 UNL A   1       9.278  25.945   6.092  1.00  0.00    +0.000 C 
BRANCH   29   28
ATOM    121  H23 UNL A   1      11.373  25.816   6.445  1.00  0.00    +0.000 H 
ATOM    122  H24 UNL A   1      10.486  24.273   6.524  1.00  0.00    +0.000 H 
ATOM     28  C24 UNL A   1      10.616  25.199   6.006  1.00  0.00    +0.000 C 
BRANCH   28   27
ATOM     27  C23 UNL A   1      11.047  24.854   4.583  1.00  0.00    +0.000 C 
ATOM    119  H21 UNL A   1      12.115  24.836   4.538  1.00  0.00    +0.000 H 
ATOM    120  H22 UNL A   1      10.639  23.897   4.332  1.00  0.00    +0.000 H 
BRANCH   27   26
ATOM     26  N3  UNL A   1      10.550  25.825   3.627  1.00  0.00    +0.000 N 
ATOM    118  H20 UNL A   1       9.910  26.481   3.987  1.00  0.00    +0.000 H 
BRANCH   26   24
ATOM     25  O1  UNL A   1      11.650  26.839   1.979  1.00  0.00    +0.000 O 
ATOM     24  C22 UNL A   1      10.844  25.961   2.300  1.00  0.00    +0.000 C 
BRANCH   24   23
ATOM    116  H18 UNL A   1      10.688  25.194   0.336  1.00  0.00    +0.000 H 
ATOM    117  H19 UNL A   1      10.103  24.121   1.632  1.00  0.00    +0.000 H 
ATOM     23  C21 UNL A   1      10.139  25.121   1.252  1.00  0.00    +0.000 C 
BRANCH   23   22
ATOM      2  C2  UNL A   1       5.127  24.044   2.378  1.00  0.00    +0.000 C 
ATOM      3  C3  UNL A   1       6.274  23.569   3.014  1.00  0.00    +0.000 C 
ATOM      4  C4  UNL A   1       7.545  24.029   2.658  1.00  0.00    +0.000 C 
ATOM      5  C5  UNL A   1       7.653  24.972   1.621  1.00  0.00    +0.000 C 
ATOM      6  C6  UNL A   1       6.521  25.497   0.995  1.00  0.00    +0.000 C 
ATOM      7  C7  UNL A   1       5.246  25.022   1.378  1.00  0.00    +0.000 C 
ATOM    102  H4  UNL A   1       6.182  22.864   3.763  1.00  0.00    +0.000 H 
ATOM    104  H6  UNL A   1       4.399  25.396   0.922  1.00  0.00    +0.000 H 
ATOM    103  H5  UNL A   1       8.386  23.682   3.146  1.00  0.00    +0.000 H 
ATOM      8  C8  UNL A   1       6.973  26.456   0.042  1.00  0.00    +0.000 C 
ATOM     20  C19 UNL A   1       8.360  26.498   0.097  1.00  0.00    +0.000 C 
ATOM     22  N2  UNL A   1       8.760  25.521   0.991  1.00  0.00    +0.000 N 
BRANCH    2    1
ATOM      1  C1  UNL A   1       3.784  23.497   2.764  1.00  0.00    +0.000 C 
ATOM     99  H1  UNL A   1       3.390  22.917   1.957  1.00  0.00    +0.000 H 
ATOM    100  H2  UNL A   1       3.119  24.305   2.982  1.00  0.00    +0.000 H 
ATOM    101  H3  UNL A   1       3.888  22.876   3.631  1.00  0.00    +0.000 H 
ENDBRANCH    2    1
BRANCH    8    9
ATOM      9  C9  UNL A   1       6.193  27.286  -0.868  1.00  0.00    +0.000 C 
ATOM     10  C10 UNL A   1       5.592  28.432  -0.355  1.00  0.00    +0.000 C 
ATOM     11  C11 UNL A   1       4.901  29.239  -1.230  1.00  0.00    +0.000 C 
ATOM    105  H7  UNL A   1       5.664  28.669   0.647  1.00  0.00    +0.000 H 
ATOM     13  C12 UNL A   1       5.343  27.873  -3.063  1.00  0.00    +0.000 C 
ATOM    106  H8  UNL A   1       4.451  30.089  -0.855  1.00  0.00    +0.000 H 
ATOM     12  N1  UNL A   1       4.775  28.984  -2.549  1.00  0.00    +0.000 N 
ATOM     14  C13 UNL A   1       5.235  27.591  -4.434  1.00  0.00    +0.000 C 
ATOM    112  H14 UNL A   1       7.134  25.146  -2.232  1.00  0.00    +0.000 H 
ATOM     18  C17 UNL A   1       6.615  25.808  -2.829  1.00  0.00    +0.000 C 
ATOM     19  C18 UNL A   1       6.062  26.970  -2.246  1.00  0.00    +0.000 C 
ATOM     17  C16 UNL A   1       6.484  25.531  -4.183  1.00  0.00    +0.000 C 
ATOM    111  H13 UNL A   1       6.891  24.672  -4.585  1.00  0.00    +0.000 H 
ATOM     16  C15 UNL A   1       5.797  26.425  -4.986  1.00  0.00    +0.000 C 
ATOM    110  H12 UNL A   1       5.696  26.235  -5.996  1.00  0.00    +0.000 H 
BRANCH   14   15
ATOM    107  H9  UNL A   1       3.465  28.465  -5.204  1.00  0.00    +0.000 H 
ATOM    108  H10 UNL A   1       4.732  28.240  -6.387  1.00  0.00    +0.000 H 
ATOM    109  H11 UNL A   1       4.854  29.525  -5.209  1.00  0.00    +0.000 H 
ATOM     15  C14 UNL A   1       4.520  28.523  -5.377  1.00  0.00    +0.000 C 
ENDBRANCH   14   15
ENDBRANCH    8    9
BRANCH   20   21
ATOM    113  H15 UNL A   1      10.068  27.727  -0.019  1.00  0.00    +0.000 H 
ATOM    114  H16 UNL A   1       8.771  28.186  -1.097  1.00  0.00    +0.000 H 
ATOM    115  H17 UNL A   1       9.754  26.786  -1.457  1.00  0.00    +0.000 H 
ATOM     21  C20 UNL A   1       9.305  27.360  -0.673  1.00  0.00    +0.000 C 
ENDBRANCH   20   21
ENDBRANCH   23   22
ENDBRANCH   24   23
ENDBRANCH   26   24
ENDBRANCH   27   26
ENDBRANCH   28   27
ENDBRANCH   29   28
ENDBRANCH   30   29
ENDBRANCH   31   30
ENDBRANCH   32   31
ENDBRANCH   33   32
ENDBRANCH   34   33
ENDBRANCH   36   34
ENDBRANCH   40   39
BRANCH   44   45
ATOM     45  C38 UNL A   1       7.509  33.326  -3.888  1.00  0.00    +0.000 C 
ATOM     46  C39 UNL A   1       8.295  34.436  -3.514  1.00  0.00    +0.000 C 
ATOM     47  F1  UNL A   1       9.410  34.271  -2.787  1.00  0.00    +0.000 F 
ATOM     48  C40 UNL A   1       7.904  35.747  -3.799  1.00  0.00    +0.000 C 
ATOM     49  F2  UNL A   1       8.618  36.774  -3.320  1.00  0.00    +0.000 F 
ATOM     50  C41 UNL A   1       6.748  35.994  -4.517  1.00  0.00    +0.000 C 
ATOM     51  F3  UNL A   1       6.341  37.250  -4.741  1.00  0.00    +0.000 F 
ATOM     52  C42 UNL A   1       5.987  34.932  -4.956  1.00  0.00    +0.000 C 
ATOM     53  F4  UNL A   1       4.852  35.152  -5.636  1.00  0.00    +0.000 F 
ATOM     54  C43 UNL A   1       6.346  33.625  -4.627  1.00  0.00    +0.000 C 
ATOM     55  F5  UNL A   1       5.458  32.682  -4.965  1.00  0.00    +0.000 F 
ENDBRANCH   44   45
BRANCH   61   62
ATOM     65  C51 UNL A   1      13.018  26.780  -1.678  1.00  0.00    +0.000 C 
ATOM     66  F7  UNL A   1      13.061  26.200  -0.469  1.00  0.00    +0.000 F 
ATOM     67  C52 UNL A   1      13.455  26.081  -2.793  1.00  0.00    +0.000 C 
ATOM     68  F8  UNL A   1      13.909  24.826  -2.664  1.00  0.00    +0.000 F 
ATOM     69  C53 UNL A   1      13.388  26.671  -4.045  1.00  0.00    +0.000 C 
ATOM     70  F9  UNL A   1      13.759  25.979  -5.131  1.00  0.00    +0.000 F 
ATOM     71  C54 UNL A   1      12.906  27.969  -4.182  1.00  0.00    +0.000 C 
ATOM     72  F10 UNL A   1      12.828  28.501  -5.413  1.00  0.00    +0.000 F 
ATOM     62  C49 UNL A   1      12.454  28.697  -3.073  1.00  0.00    +0.000 C 
ATOM     63  C50 UNL A   1      12.499  28.065  -1.819  1.00  0.00    +0.000 C 
ATOM     64  F6  UNL A   1      11.987  28.662  -0.732  1.00  0.00    +0.000 F 
ENDBRANCH   61   62
BRANCH   76   77
ATOM     77  C58 UNL A   1      14.428  33.002   1.111  1.00  0.00    +0.000 C 
ATOM     78  C59 UNL A   1      13.969  34.028   1.953  1.00  0.00    +0.000 C 
ATOM     79  F11 UNL A   1      12.661  34.321   2.007  1.00  0.00    +0.000 F 
ATOM     80  C60 UNL A   1      14.834  34.715   2.809  1.00  0.00    +0.000 C 
ATOM     81  F12 UNL A   1      14.348  35.637   3.650  1.00  0.00    +0.000 F 
ATOM     82  C61 UNL A   1      16.184  34.404   2.838  1.00  0.00    +0.000 C 
ATOM     83  F13 UNL A   1      17.002  35.015   3.706  1.00  0.00    +0.000 F 
ATOM     84  C62 UNL A   1      16.674  33.425   1.994  1.00  0.00    +0.000 C 
ATOM     85  F14 UNL A   1      17.972  33.092   2.036  1.00  0.00    +0.000 F 
ATOM     86  C63 UNL A   1      15.810  32.733   1.146  1.00  0.00    +0.000 C 
ATOM     87  F15 UNL A   1      16.335  31.728   0.432  1.00  0.00    +0.000 F 
ENDBRANCH   76   77
TORSDOF 20
ENDMDL
MODEL 9
REMARK VINA RESULT:      -9.2     40.531     45.718
ROOT
ATOM    134  H36 UNL A   1      12.118  -2.997  25.348  1.00  0.00    +0.000 H 
ATOM    135  H37 UNL A   1       9.627  -2.979  26.293  1.00  0.00    +0.000 H 
ATOM    136  H38 UNL A   1      11.592   0.245  27.670  1.00  0.00    +0.000 H 
ATOM    137  H39 UNL A   1       6.130   3.834  22.524  1.00  0.00    +0.000 H 
ATOM    138  H40 UNL A   1       7.243   2.212  20.904  1.00  0.00    +0.000 H 
ATOM    139  H41 UNL A   1       9.308   1.980  24.501  1.00  0.00    +0.000 H 
ATOM    140  H42 UNL A   1       9.898   4.320  26.582  1.00  0.00    +0.000 H 
ATOM    141  H43 UNL A   1      10.793   2.057  27.428  1.00  0.00    +0.000 H 
ATOM    142  H44 UNL A   1      14.200   1.108  22.879  1.00  0.00    +0.000 H 
ATOM    143  H45 UNL A   1      12.424   2.013  21.256  1.00  0.00    +0.000 H 
ATOM     40  C34 UNL A   1       9.769   1.172  21.908  1.00  0.00    +0.000 C 
ATOM     41  C35 UNL A   1      11.030   0.904  22.660  1.00  0.00    +0.000 C 
ATOM     42  N5  UNL A   1      11.193   0.170  23.716  1.00  0.00    +0.000 N 
ATOM     43  C36 UNL A   1      12.540   0.283  24.058  1.00  0.00    +0.000 C 
ATOM     44  C37 UNL A   1      13.007  -0.054  25.292  1.00  0.00    +0.000 C 
ATOM     56  C44 UNL A   1      12.104  -0.926  25.989  1.00  0.00    +0.000 C 
ATOM     57  C45 UNL A   1      11.622  -2.202  25.781  1.00  0.00    +0.000 C 
ATOM     58  C46 UNL A   1      10.292  -2.189  26.295  1.00  0.00    +0.000 C 
ATOM     59  C47 UNL A   1      10.056  -0.910  26.800  1.00  0.00    +0.000 C 
ATOM     60  N6  UNL A   1      11.312  -0.391  26.973  1.00  0.00    +0.000 N 
ATOM     61  C48 UNL A   1       8.845  -0.150  26.989  1.00  0.00    +0.000 C 
ATOM     73  C55 UNL A   1       8.793   1.212  27.038  1.00  0.00    +0.000 C 
ATOM     74  N7  UNL A   1       7.638   1.892  26.683  1.00  0.00    +0.000 N 
ATOM     75  C56 UNL A   1       8.051   3.055  26.261  1.00  0.00    +0.000 C 
ATOM     76  C57 UNL A   1       7.395   3.819  25.171  1.00  0.00    +0.000 C 
ATOM     88  C64 UNL A   1       7.619   3.150  24.015  1.00  0.00    +0.000 C 
ATOM     89  C65 UNL A   1       6.946   3.240  22.735  1.00  0.00    +0.000 C 
ATOM     90  C66 UNL A   1       7.567   2.417  21.861  1.00  0.00    +0.000 C 
ATOM     91  C67 UNL A   1       8.767   1.863  22.485  1.00  0.00    +0.000 C 
ATOM     92  N8  UNL A   1       8.686   2.272  23.797  1.00  0.00    +0.000 N 
ATOM     93  C68 UNL A   1       9.407   3.413  26.640  1.00  0.00    +0.000 C 
ATOM     94  C69 UNL A   1       9.835   2.231  27.087  1.00  0.00    +0.000 C 
ATOM     95  C70 UNL A   1      13.180   0.980  22.971  1.00  0.00    +0.000 C 
ATOM     96  C71 UNL A   1      12.280   1.438  22.101  1.00  0.00    +0.000 C 
ENDROOT
BRANCH   40   39
ATOM     97  C72 UNL A   1       9.402  -0.637  20.205  1.00  0.00    +0.000 C 
ATOM     98  C73 UNL A   1       9.460  -1.041  18.872  1.00  0.00    +0.000 C 
ATOM     36  C30 UNL A   1       9.816  -0.140  17.850  1.00  0.00    +0.000 C 
ATOM     37  C31 UNL A   1      10.017   1.195  18.192  1.00  0.00    +0.000 C 
ATOM    132  H34 UNL A   1      10.177   1.895  17.450  1.00  0.00    +0.000 H 
ATOM     38  C32 UNL A   1      10.007   1.595  19.522  1.00  0.00    +0.000 C 
ATOM    133  H35 UNL A   1      10.201   2.579  19.764  1.00  0.00    +0.000 H 
ATOM     39  C33 UNL A   1       9.736   0.672  20.535  1.00  0.00    +0.000 C 
ATOM    144  H46 UNL A   1       9.114  -1.303  20.939  1.00  0.00    +0.000 H 
ATOM    145  H47 UNL A   1       9.239  -2.019  18.630  1.00  0.00    +0.000 H 
BRANCH   36   34
ATOM     34  C29 UNL A   1      10.008  -0.718  16.491  1.00  0.00    +0.000 C 
ATOM     35  O2  UNL A   1      10.982  -0.352  15.827  1.00  0.00    +0.000 O 
BRANCH   34   33
ATOM     33  N4  UNL A   1       9.149  -1.592  15.880  1.00  0.00    +0.000 N 
ATOM    131  H33 UNL A   1       8.434  -1.135  15.381  1.00  0.00    +0.000 H 
BRANCH   33   32
ATOM    129  H31 UNL A   1       9.065  -3.318  14.769  1.00  0.00    +0.000 H 
ATOM    130  H32 UNL A   1       9.889  -3.432  16.343  1.00  0.00    +0.000 H 
ATOM     32  C28 UNL A   1       9.056  -3.036  15.801  1.00  0.00    +0.000 C 
BRANCH   32   31
ATOM    127  H29 UNL A   1       7.343  -2.844  17.043  1.00  0.00    +0.000 H 
ATOM     31  C27 UNL A   1       7.792  -3.610  16.447  1.00  0.00    +0.000 C 
ATOM    128  H30 UNL A   1       7.162  -3.940  15.647  1.00  0.00    +0.000 H 
BRANCH   31   30
ATOM    126  H28 UNL A   1       7.254  -5.525  17.119  1.00  0.00    +0.000 H 
ATOM    125  H27 UNL A   1       8.034  -4.500  18.360  1.00  0.00    +0.000 H 
ATOM     30  C26 UNL A   1       8.036  -4.830  17.342  1.00  0.00    +0.000 C 
BRANCH   30   29
ATOM    123  H25 UNL A   1       9.120  -6.531  16.678  1.00  0.00    +0.000 H 
ATOM    124  H26 UNL A   1       9.917  -4.954  16.413  1.00  0.00    +0.000 H 
ATOM     29  C25 UNL A   1       9.351  -5.568  17.083  1.00  0.00    +0.000 C 
BRANCH   29   28
ATOM    121  H23 UNL A   1      10.334  -6.823  18.495  1.00  0.00    +0.000 H 
ATOM    122  H24 UNL A   1      11.160  -5.287  18.130  1.00  0.00    +0.000 H 
ATOM     28  C24 UNL A   1      10.227  -5.771  18.327  1.00  0.00    +0.000 C 
BRANCH   28   27
ATOM     27  C23 UNL A   1       9.662  -5.139  19.597  1.00  0.00    +0.000 C 
ATOM    119  H21 UNL A   1       8.763  -4.612  19.354  1.00  0.00    +0.000 H 
ATOM    120  H22 UNL A   1       9.466  -5.920  20.301  1.00  0.00    +0.000 H 
BRANCH   27   26
ATOM     26  N3  UNL A   1      10.605  -4.213  20.193  1.00  0.00    +0.000 N 
ATOM    118  H20 UNL A   1      10.988  -3.546  19.577  1.00  0.00    +0.000 H 
BRANCH   26   24
ATOM     25  O1  UNL A   1      12.091  -4.708  21.774  1.00  0.00    +0.000 O 
ATOM     24  C22 UNL A   1      11.038  -4.132  21.486  1.00  0.00    +0.000 C 
BRANCH   24   23
ATOM    116  H18 UNL A   1      10.847  -3.203  23.376  1.00  0.00    +0.000 H 
ATOM    117  H19 UNL A   1       9.798  -2.557  22.089  1.00  0.00    +0.000 H 
ATOM     23  C21 UNL A   1      10.210  -3.432  22.548  1.00  0.00    +0.000 C 
BRANCH   23   22
ATOM      2  C2  UNL A   1       5.037  -4.185  22.074  1.00  0.00    +0.000 C 
ATOM      3  C3  UNL A   1       5.881  -3.455  21.237  1.00  0.00    +0.000 C 
ATOM      4  C4  UNL A   1       7.263  -3.429  21.443  1.00  0.00    +0.000 C 
ATOM      5  C5  UNL A   1       7.794  -4.142  22.533  1.00  0.00    +0.000 C 
ATOM      6  C6  UNL A   1       6.979  -4.916  23.362  1.00  0.00    +0.000 C 
ATOM      7  C7  UNL A   1       5.585  -4.932  23.129  1.00  0.00    +0.000 C 
ATOM    102  H4  UNL A   1       5.477  -2.923  20.450  1.00  0.00    +0.000 H 
ATOM    104  H6  UNL A   1       4.969  -5.494  23.735  1.00  0.00    +0.000 H 
ATOM    103  H5  UNL A   1       7.881  -2.899  20.809  1.00  0.00    +0.000 H 
ATOM      8  C8  UNL A   1       7.828  -5.544  24.320  1.00  0.00    +0.000 C 
ATOM     20  C19 UNL A   1       9.134  -5.143  24.067  1.00  0.00    +0.000 C 
ATOM     22  N2  UNL A   1       9.083  -4.217  23.041  1.00  0.00    +0.000 N 
BRANCH    2    1
ATOM      1  C1  UNL A   1       3.555  -4.156  21.841  1.00  0.00    +0.000 C 
ATOM     99  H1  UNL A   1       3.064  -4.733  22.595  1.00  0.00    +0.000 H 
ATOM    100  H2  UNL A   1       3.337  -4.567  20.878  1.00  0.00    +0.000 H 
ATOM    101  H3  UNL A   1       3.208  -3.144  21.884  1.00  0.00    +0.000 H 
ENDBRANCH    2    1
BRANCH    8    9
ATOM      9  C9  UNL A   1       7.476  -6.452  25.405  1.00  0.00    +0.000 C 
ATOM     10  C10 UNL A   1       6.963  -5.902  26.577  1.00  0.00    +0.000 C 
ATOM     11  C11 UNL A   1       6.584  -6.767  27.577  1.00  0.00    +0.000 C 
ATOM    105  H7  UNL A   1       6.870  -4.881  26.690  1.00  0.00    +0.000 H 
ATOM     13  C12 UNL A   1       7.182  -8.661  26.361  1.00  0.00    +0.000 C 
ATOM    106  H8  UNL A   1       6.205  -6.366  28.449  1.00  0.00    +0.000 H 
ATOM     12  N1  UNL A   1       6.679  -8.111  27.486  1.00  0.00    +0.000 N 
ATOM     14  C13 UNL A   1       7.281 -10.057  26.238  1.00  0.00    +0.000 C 
ATOM    112  H14 UNL A   1       8.480  -7.900  23.350  1.00  0.00    +0.000 H 
ATOM     18  C17 UNL A   1       8.157  -8.485  24.136  1.00  0.00    +0.000 C 
ATOM     19  C18 UNL A   1       7.615  -7.859  25.281  1.00  0.00    +0.000 C 
ATOM     17  C16 UNL A   1       8.268  -9.865  24.036  1.00  0.00    +0.000 C 
ATOM    111  H13 UNL A   1       8.675 -10.299  23.192  1.00  0.00    +0.000 H 
ATOM     16  C15 UNL A   1       7.826 -10.651  25.086  1.00  0.00    +0.000 C 
ATOM    110  H12 UNL A   1       7.897 -11.679  25.023  1.00  0.00    +0.000 H 
BRANCH   14   15
ATOM    107  H9  UNL A   1       7.645 -11.465  27.779  1.00  0.00    +0.000 H 
ATOM    108  H10 UNL A   1       6.148 -11.716  26.912  1.00  0.00    +0.000 H 
ATOM    109  H11 UNL A   1       6.279 -10.415  28.071  1.00  0.00    +0.000 H 
ATOM     15  C14 UNL A   1       6.804 -10.980  27.329  1.00  0.00    +0.000 C 
ENDBRANCH   14   15
ENDBRANCH    8    9
BRANCH   20   21
ATOM    113  H15 UNL A   1      10.687  -4.772  25.443  1.00  0.00    +0.000 H 
ATOM    114  H16 UNL A   1      11.166  -5.702  24.043  1.00  0.00    +0.000 H 
ATOM    115  H17 UNL A   1      10.223  -6.452  25.310  1.00  0.00    +0.000 H 
ATOM     21  C20 UNL A   1      10.392  -5.546  24.765  1.00  0.00    +0.000 C 
ENDBRANCH   20   21
ENDBRANCH   23   22
ENDBRANCH   24   23
ENDBRANCH   26   24
ENDBRANCH   27   26
ENDBRANCH   28   27
ENDBRANCH   29   28
ENDBRANCH   30   29
ENDBRANCH   31   30
ENDBRANCH   32   31
ENDBRANCH   33   32
ENDBRANCH   34   33
ENDBRANCH   36   34
ENDBRANCH   40   39
BRANCH   44   45
ATOM     45  C38 UNL A   1      14.141   0.652  25.995  1.00  0.00    +0.000 C 
ATOM     46  C39 UNL A   1      15.416   0.052  26.040  1.00  0.00    +0.000 C 
ATOM     47  F1  UNL A   1      15.701  -1.008  25.268  1.00  0.00    +0.000 F 
ATOM     48  C40 UNL A   1      16.397   0.467  26.945  1.00  0.00    +0.000 C 
ATOM     49  F2  UNL A   1      17.549  -0.211  27.036  1.00  0.00    +0.000 F 
ATOM     50  C41 UNL A   1      16.162   1.531  27.796  1.00  0.00    +0.000 C 
ATOM     51  F3  UNL A   1      17.078   1.893  28.703  1.00  0.00    +0.000 F 
ATOM     52  C42 UNL A   1      14.951   2.187  27.736  1.00  0.00    +0.000 C 
ATOM     53  F4  UNL A   1      14.697   3.209  28.566  1.00  0.00    +0.000 F 
ATOM     54  C43 UNL A   1      13.950   1.741  26.872  1.00  0.00    +0.000 C 
ATOM     55  F5  UNL A   1      12.763   2.344  27.006  1.00  0.00    +0.000 F 
ENDBRANCH   44   45
BRANCH   61   62
ATOM     65  C51 UNL A   1       5.756  -1.850  25.488  1.00  0.00    +0.000 C 
ATOM     66  F7  UNL A   1       5.151  -1.997  24.299  1.00  0.00    +0.000 F 
ATOM     67  C52 UNL A   1       5.258  -2.510  26.600  1.00  0.00    +0.000 C 
ATOM     68  F8  UNL A   1       4.182  -3.302  26.486  1.00  0.00    +0.000 F 
ATOM     69  C53 UNL A   1       5.897  -2.378  27.822  1.00  0.00    +0.000 C 
ATOM     70  F9  UNL A   1       5.451  -3.057  28.887  1.00  0.00    +0.000 F 
ATOM     71  C54 UNL A   1       7.022  -1.566  27.940  1.00  0.00    +0.000 C 
ATOM     72  F10 UNL A   1       7.634  -1.483  29.132  1.00  0.00    +0.000 F 
ATOM     62  C49 UNL A   1       7.549  -0.891  26.831  1.00  0.00    +0.000 C 
ATOM     63  C50 UNL A   1       6.904  -1.068  25.595  1.00  0.00    +0.000 C 
ATOM     64  F6  UNL A   1       7.413  -0.537  24.474  1.00  0.00    +0.000 F 
ENDBRANCH   61   62
BRANCH   76   77
ATOM     77  C58 UNL A   1       6.954   5.222  25.341  1.00  0.00    +0.000 C 
ATOM     78  C59 UNL A   1       6.049   5.571  26.355  1.00  0.00    +0.000 C 
ATOM     79  F11 UNL A   1       5.392   4.617  27.032  1.00  0.00    +0.000 F 
ATOM     80  C60 UNL A   1       5.862   6.900  26.744  1.00  0.00    +0.000 C 
ATOM     81  F12 UNL A   1       5.044   7.189  27.765  1.00  0.00    +0.000 F 
ATOM     82  C61 UNL A   1       6.566   7.919  26.121  1.00  0.00    +0.000 C 
ATOM     83  F13 UNL A   1       6.438   9.186  26.538  1.00  0.00    +0.000 F 
ATOM     84  C62 UNL A   1       7.437   7.611  25.093  1.00  0.00    +0.000 C 
ATOM     85  F14 UNL A   1       8.149   8.583  24.504  1.00  0.00    +0.000 F 
ATOM     86  C63 UNL A   1       7.631   6.284  24.711  1.00  0.00    +0.000 C 
ATOM     87  F15 UNL A   1       8.566   6.051  23.778  1.00  0.00    +0.000 F 
ENDBRANCH   76   77
TORSDOF 20
ENDMDL
MODEL 10
REMARK VINA RESULT:      -9.2     38.762     44.243
ROOT
ATOM    134  H36 UNL A   1       6.869  29.577  -4.433  1.00  0.00    +0.000 H 
ATOM    135  H37 UNL A   1       9.282  28.473  -4.667  1.00  0.00    +0.000 H 
ATOM    136  H38 UNL A   1       9.655  32.473  -4.589  1.00  0.00    +0.000 H 
ATOM    137  H39 UNL A   1      13.086  30.450   2.713  1.00  0.00    +0.000 H 
ATOM    138  H40 UNL A   1      10.809  29.339   2.988  1.00  0.00    +0.000 H 
ATOM    139  H41 UNL A   1      10.720  31.482  -0.571  1.00  0.00    +0.000 H 
ATOM    140  H42 UNL A   1      12.147  34.254  -1.230  1.00  0.00    +0.000 H 
ATOM    141  H43 UNL A   1      10.909  33.316  -3.287  1.00  0.00    +0.000 H 
ATOM    142  H44 UNL A   1       5.748  33.089  -0.734  1.00  0.00    +0.000 H 
ATOM    143  H45 UNL A   1       6.782  32.249   1.466  1.00  0.00    +0.000 H 
ATOM     40  C34 UNL A   1       8.844  30.307   1.071  1.00  0.00    +0.000 C 
ATOM     41  C35 UNL A   1       8.080  31.061   0.034  1.00  0.00    +0.000 C 
ATOM     42  N5  UNL A   1       8.137  30.933  -1.255  1.00  0.00    +0.000 N 
ATOM     43  C36 UNL A   1       7.270  31.894  -1.774  1.00  0.00    +0.000 C 
ATOM     44  C37 UNL A   1       7.326  32.297  -3.074  1.00  0.00    +0.000 C 
ATOM     56  C44 UNL A   1       8.009  31.343  -3.903  1.00  0.00    +0.000 C 
ATOM     57  C45 UNL A   1       7.781  30.035  -4.278  1.00  0.00    +0.000 C 
ATOM     58  C46 UNL A   1       9.075  29.451  -4.409  1.00  0.00    +0.000 C 
ATOM     59  C47 UNL A   1      10.009  30.447  -4.123  1.00  0.00    +0.000 C 
ATOM     60  N6  UNL A   1       9.302  31.610  -4.274  1.00  0.00    +0.000 N 
ATOM     61  C48 UNL A   1      11.362  30.394  -3.627  1.00  0.00    +0.000 C 
ATOM     73  C55 UNL A   1      11.976  31.413  -2.959  1.00  0.00    +0.000 C 
ATOM     74  N7  UNL A   1      13.004  31.159  -2.065  1.00  0.00    +0.000 N 
ATOM     75  C56 UNL A   1      12.953  32.141  -1.209  1.00  0.00    +0.000 C 
ATOM     76  C57 UNL A   1      13.284  32.001   0.230  1.00  0.00    +0.000 C 
ATOM     88  C64 UNL A   1      12.310  31.254   0.801  1.00  0.00    +0.000 C 
ATOM     89  C65 UNL A   1      12.295  30.532   2.056  1.00  0.00    +0.000 C 
ATOM     90  C66 UNL A   1      11.073  29.983   2.226  1.00  0.00    +0.000 C 
ATOM     91  C67 UNL A   1      10.182  30.444   1.163  1.00  0.00    +0.000 C 
ATOM     92  N8  UNL A   1      11.009  31.125   0.300  1.00  0.00    +0.000 N 
ATOM     93  C68 UNL A   1      12.196  33.306  -1.636  1.00  0.00    +0.000 C 
ATOM     94  C69 UNL A   1      11.583  32.795  -2.706  1.00  0.00    +0.000 C 
ATOM     95  C70 UNL A   1       6.547  32.441  -0.653  1.00  0.00    +0.000 C 
ATOM     96  C71 UNL A   1       7.049  31.999   0.500  1.00  0.00    +0.000 C 
ENDROOT
BRANCH   40   39
ATOM     97  C72 UNL A   1       7.769  29.808   3.285  1.00  0.00    +0.000 C 
ATOM     98  C73 UNL A   1       7.049  28.919   4.080  1.00  0.00    +0.000 C 
ATOM     36  C30 UNL A   1       6.563  27.703   3.561  1.00  0.00    +0.000 C 
ATOM     37  C31 UNL A   1       6.738  27.453   2.202  1.00  0.00    +0.000 C 
ATOM    132  H34 UNL A   1       6.302  26.619   1.775  1.00  0.00    +0.000 H 
ATOM     38  C32 UNL A   1       7.494  28.311   1.415  1.00  0.00    +0.000 C 
ATOM    133  H35 UNL A   1       7.651  28.091   0.420  1.00  0.00    +0.000 H 
ATOM     39  C33 UNL A   1       8.043  29.473   1.963  1.00  0.00    +0.000 C 
ATOM    144  H46 UNL A   1       8.096  30.707   3.673  1.00  0.00    +0.000 H 
ATOM    145  H47 UNL A   1       6.869  29.154   5.068  1.00  0.00    +0.000 H 
BRANCH   36   34
ATOM     34  C29 UNL A   1       5.956  26.758   4.539  1.00  0.00    +0.000 C 
ATOM     35  O2  UNL A   1       6.706  26.084   5.251  1.00  0.00    +0.000 O 
BRANCH   34   33
ATOM     33  N4  UNL A   1       4.614  26.524   4.677  1.00  0.00    +0.000 N 
ATOM    131  H33 UNL A   1       4.190  27.122   5.334  1.00  0.00    +0.000 H 
BRANCH   33   32
ATOM    129  H31 UNL A   1       2.899  26.162   3.605  1.00  0.00    +0.000 H 
ATOM    130  H32 UNL A   1       4.232  25.005   3.375  1.00  0.00    +0.000 H 
ATOM     32  C28 UNL A   1       3.678  25.597   4.073  1.00  0.00    +0.000 C 
BRANCH   32   31
ATOM    127  H29 UNL A   1       2.398  25.187   5.719  1.00  0.00    +0.000 H 
ATOM     31  C27 UNL A   1       3.038  24.627   5.070  1.00  0.00    +0.000 C 
ATOM    128  H30 UNL A   1       2.510  23.897   4.491  1.00  0.00    +0.000 H 
BRANCH   31   30
ATOM    126  H28 UNL A   1       5.012  24.165   5.614  1.00  0.00    +0.000 H 
ATOM    125  H27 UNL A   1       3.860  22.809   5.797  1.00  0.00    +0.000 H 
ATOM     30  C26 UNL A   1       4.040  23.856   5.935  1.00  0.00    +0.000 C 
BRANCH   30   29
ATOM    123  H25 UNL A   1       3.212  24.900   7.589  1.00  0.00    +0.000 H 
ATOM    124  H26 UNL A   1       3.747  23.229   7.919  1.00  0.00    +0.000 H 
ATOM     29  C25 UNL A   1       3.966  24.157   7.434  1.00  0.00    +0.000 C 
BRANCH   29   28
ATOM    121  H23 UNL A   1       5.552  25.573   7.547  1.00  0.00    +0.000 H 
ATOM    122  H24 UNL A   1       5.089  24.816   9.092  1.00  0.00    +0.000 H 
ATOM     28  C24 UNL A   1       5.275  24.669   8.049  1.00  0.00    +0.000 C 
BRANCH   28   27
ATOM     27  C23 UNL A   1       6.440  23.688   7.943  1.00  0.00    +0.000 C 
ATOM    119  H21 UNL A   1       6.365  22.972   8.734  1.00  0.00    +0.000 H 
ATOM    120  H22 UNL A   1       6.387  23.207   6.988  1.00  0.00    +0.000 H 
BRANCH   27   26
ATOM     26  N3  UNL A   1       7.717  24.367   8.041  1.00  0.00    +0.000 N 
ATOM    118  H20 UNL A   1       7.669  25.350   8.084  1.00  0.00    +0.000 H 
BRANCH   26   24
ATOM     25  O1  UNL A   1       9.084  22.631   8.303  1.00  0.00    +0.000 O 
ATOM     24  C22 UNL A   1       8.976  23.840   8.083  1.00  0.00    +0.000 C 
BRANCH   24   23
ATOM    116  H18 UNL A   1       9.878  25.746   7.922  1.00  0.00    +0.000 H 
ATOM    117  H19 UNL A   1      10.827  24.514   8.792  1.00  0.00    +0.000 H 
ATOM     23  C21 UNL A   1      10.201  24.726   7.950  1.00  0.00    +0.000 C 
BRANCH   23   22
ATOM      2  C2  UNL A   1      10.870  26.072   2.921  1.00  0.00    +0.000 C 
ATOM      3  C3  UNL A   1      10.103  26.718   3.890  1.00  0.00    +0.000 C 
ATOM      4  C4  UNL A   1      10.104  26.290   5.221  1.00  0.00    +0.000 C 
ATOM      5  C5  UNL A   1      10.882  25.171   5.567  1.00  0.00    +0.000 C 
ATOM      6  C6  UNL A   1      11.693  24.531   4.628  1.00  0.00    +0.000 C 
ATOM      7  C7  UNL A   1      11.681  24.987   3.290  1.00  0.00    +0.000 C 
ATOM    102  H4  UNL A   1       9.523  27.528   3.620  1.00  0.00    +0.000 H 
ATOM    104  H6  UNL A   1      12.270  24.522   2.582  1.00  0.00    +0.000 H 
ATOM    103  H5  UNL A   1       9.545  26.785   5.934  1.00  0.00    +0.000 H 
ATOM      8  C8  UNL A   1      12.383  23.486   5.309  1.00  0.00    +0.000 C 
ATOM     20  C19 UNL A   1      11.984  23.502   6.639  1.00  0.00    +0.000 C 
ATOM     22  N2  UNL A   1      11.000  24.468   6.757  1.00  0.00    +0.000 N 
BRANCH    2    1
ATOM      1  C1  UNL A   1      10.811  26.540   1.496  1.00  0.00    +0.000 C 
ATOM     99  H1  UNL A   1      11.804  26.615   1.105  1.00  0.00    +0.000 H 
ATOM    100  H2  UNL A   1      10.337  27.497   1.454  1.00  0.00    +0.000 H 
ATOM    101  H3  UNL A   1      10.251  25.837   0.913  1.00  0.00    +0.000 H 
ENDBRANCH    2    1
BRANCH    8    9
ATOM      9  C9  UNL A   1      13.348  22.527   4.785  1.00  0.00    +0.000 C 
ATOM     10  C10 UNL A   1      12.859  21.424   4.089  1.00  0.00    +0.000 C 
ATOM     11  C11 UNL A   1      13.775  20.549   3.552  1.00  0.00    +0.000 C 
ATOM    105  H7  UNL A   1      11.845  21.269   3.979  1.00  0.00    +0.000 H 
ATOM     13  C12 UNL A   1      15.604  21.758   4.337  1.00  0.00    +0.000 C 
ATOM    106  H8  UNL A   1      13.420  19.729   3.036  1.00  0.00    +0.000 H 
ATOM     12  N1  UNL A   1      15.112  20.700   3.659  1.00  0.00    +0.000 N 
ATOM     14  C13 UNL A   1      16.991  21.943   4.453  1.00  0.00    +0.000 C 
ATOM    112  H14 UNL A   1      14.687  24.470   6.108  1.00  0.00    +0.000 H 
ATOM     18  C17 UNL A   1      15.313  23.782   5.661  1.00  0.00    +0.000 C 
ATOM     19  C18 UNL A   1      14.747  22.707   4.940  1.00  0.00    +0.000 C 
ATOM     17  C16 UNL A   1      16.686  23.942   5.786  1.00  0.00    +0.000 C 
ATOM    111  H13 UNL A   1      17.076  24.732   6.324  1.00  0.00    +0.000 H 
ATOM     16  C15 UNL A   1      17.525  23.024   5.178  1.00  0.00    +0.000 C 
ATOM    110  H12 UNL A   1      18.549  23.133   5.257  1.00  0.00    +0.000 H 
BRANCH   14   15
ATOM    107  H9  UNL A   1      18.041  21.220   2.760  1.00  0.00    +0.000 H 
ATOM    108  H10 UNL A   1      17.630  19.991   3.934  1.00  0.00    +0.000 H 
ATOM    109  H11 UNL A   1      18.931  21.112   4.260  1.00  0.00    +0.000 H 
ATOM     15  C14 UNL A   1      17.969  20.998   3.805  1.00  0.00    +0.000 C 
ENDBRANCH   14   15
ENDBRANCH    8    9
BRANCH   20   21
ATOM    113  H15 UNL A   1      12.908  21.756   7.375  1.00  0.00    +0.000 H 
ATOM    114  H16 UNL A   1      11.595  22.352   8.363  1.00  0.00    +0.000 H 
ATOM    115  H17 UNL A   1      13.139  23.172   8.372  1.00  0.00    +0.000 H 
ATOM     21  C20 UNL A   1      12.438  22.634   7.767  1.00  0.00    +0.000 C 
ENDBRANCH   20   21
ENDBRANCH   23   22
ENDBRANCH   24   23
ENDBRANCH   26   24
ENDBRANCH   27   26
ENDBRANCH   28   27
ENDBRANCH   29   28
ENDBRANCH   30   29
ENDBRANCH   31   30
ENDBRANCH   32   31
ENDBRANCH   33   32
ENDBRANCH   34   33
ENDBRANCH   36   34
ENDBRANCH   40   39
BRANCH   44   45
ATOM     45  C38 UNL A   1       7.033  33.701  -3.544  1.00  0.00    +0.000 C 
ATOM     46  C39 UNL A   1       5.986  33.925  -4.460  1.00  0.00    +0.000 C 
ATOM     47  F1  UNL A   1       5.095  32.960  -4.732  1.00  0.00    +0.000 F 
ATOM     48  C40 UNL A   1       5.882  35.114  -5.188  1.00  0.00    +0.000 C 
ATOM     49  F2  UNL A   1       4.942  35.236  -6.135  1.00  0.00    +0.000 F 
ATOM     50  C41 UNL A   1       6.785  36.142  -4.985  1.00  0.00    +0.000 C 
ATOM     51  F3  UNL A   1       6.723  37.258  -5.721  1.00  0.00    +0.000 F 
ATOM     52  C42 UNL A   1       7.785  35.986  -4.049  1.00  0.00    +0.000 C 
ATOM     53  F4  UNL A   1       8.681  36.963  -3.852  1.00  0.00    +0.000 F 
ATOM     54  C43 UNL A   1       7.923  34.780  -3.360  1.00  0.00    +0.000 C 
ATOM     55  F5  UNL A   1       9.016  34.676  -2.595  1.00  0.00    +0.000 F 
ENDBRANCH   44   45
BRANCH   61   62
ATOM     65  C51 UNL A   1      12.517  26.909  -2.531  1.00  0.00    +0.000 C 
ATOM     66  F7  UNL A   1      12.476  26.115  -1.450  1.00  0.00    +0.000 F 
ATOM     67  C52 UNL A   1      13.061  26.433  -3.714  1.00  0.00    +0.000 C 
ATOM     68  F8  UNL A   1      13.535  25.180  -3.780  1.00  0.00    +0.000 F 
ATOM     69  C53 UNL A   1      13.081  27.243  -4.838  1.00  0.00    +0.000 C 
ATOM     70  F9  UNL A   1      13.556  26.769  -5.997  1.00  0.00    +0.000 F 
ATOM     71  C54 UNL A   1      12.578  28.540  -4.775  1.00  0.00    +0.000 C 
ATOM     72  F10 UNL A   1      12.586  29.289  -5.888  1.00  0.00    +0.000 F 
ATOM     62  C49 UNL A   1      12.019  29.045  -3.593  1.00  0.00    +0.000 C 
ATOM     63  C50 UNL A   1      11.978  28.192  -2.477  1.00  0.00    +0.000 C 
ATOM     64  F6  UNL A   1      11.365  28.572  -1.346  1.00  0.00    +0.000 F 
ENDBRANCH   61   62
BRANCH   76   77
ATOM     77  C58 UNL A   1      14.278  32.868   0.903  1.00  0.00    +0.000 C 
ATOM     78  C59 UNL A   1      13.866  33.886   1.779  1.00  0.00    +0.000 C 
ATOM     79  F11 UNL A   1      12.574  34.242   1.839  1.00  0.00    +0.000 F 
ATOM     80  C60 UNL A   1      14.760  34.499   2.661  1.00  0.00    +0.000 C 
ATOM     81  F12 UNL A   1      14.316  35.416   3.532  1.00  0.00    +0.000 F 
ATOM     82  C61 UNL A   1      16.093  34.121   2.683  1.00  0.00    +0.000 C 
ATOM     83  F13 UNL A   1      16.936  34.660   3.574  1.00  0.00    +0.000 F 
ATOM     84  C62 UNL A   1      16.538  33.148   1.808  1.00  0.00    +0.000 C 
ATOM     85  F14 UNL A   1      17.817  32.750   1.842  1.00  0.00    +0.000 F 
ATOM     86  C63 UNL A   1      15.644  32.529   0.934  1.00  0.00    +0.000 C 
ATOM     87  F15 UNL A   1      16.123  31.524   0.187  1.00  0.00    +0.000 F 
ENDBRANCH   76   77
TORSDOF 20
ENDMDL
