MODEL 1
REMARK VINA RESULT:      -6.9      0.000      0.000
ROOT
ATOM    140  H40 UNL A   1      13.968  46.622   3.667  1.00  0.00    +0.000 H 
ATOM    141  H41 UNL A   1      15.395  46.721   1.487  1.00  0.00    +0.000 H 
ATOM    142  H42 UNL A   1      15.089  50.557   3.019  1.00  0.00    +0.000 H 
ATOM    143  H43 UNL A   1      16.481  56.773   2.656  1.00  0.00    +0.000 H 
ATOM    144  H44 UNL A   1      15.007  56.691   4.724  1.00  0.00    +0.000 H 
ATOM    145  H45 UNL A   1      15.326  52.823   3.235  1.00  0.00    +0.000 H 
ATOM    146  H46 UNL A   1      18.162  53.166  -0.905  1.00  0.00    +0.000 H 
ATOM    147  H47 UNL A   1      17.697  50.676  -1.278  1.00  0.00    +0.000 H 
ATOM    148  H48 UNL A   1      12.364  50.302   7.220  1.00  0.00    +0.000 H 
ATOM    149  H49 UNL A   1      12.383  52.860   7.339  1.00  0.00    +0.000 H 
ATOM     38  C31 UNL A   1      14.028  54.090   5.362  1.00  0.00    +0.000 C 
ATOM     39  C32 UNL A   1      13.702  52.629   5.508  1.00  0.00    +0.000 C 
ATOM     40  N4  UNL A   1      14.087  51.615   4.772  1.00  0.00    +0.000 N 
ATOM     41  C33 UNL A   1      13.546  50.485   5.370  1.00  0.00    +0.000 C 
ATOM     42  C34 UNL A   1      13.626  49.194   4.969  1.00  0.00    +0.000 C 
ATOM     54  C41 UNL A   1      14.297  48.752   3.775  1.00  0.00    +0.000 C 
ATOM     55  C42 UNL A   1      14.387  47.471   3.257  1.00  0.00    +0.000 C 
ATOM     56  C43 UNL A   1      15.144  47.525   2.081  1.00  0.00    +0.000 C 
ATOM     57  C44 UNL A   1      15.500  48.845   1.854  1.00  0.00    +0.000 C 
ATOM     58  N5  UNL A   1      14.983  49.583   2.906  1.00  0.00    +0.000 N 
ATOM     59  C45 UNL A   1      16.250  49.395   0.756  1.00  0.00    +0.000 C 
ATOM     71  C52 UNL A   1      16.602  50.698   0.632  1.00  0.00    +0.000 C 
ATOM     72  N6  UNL A   1      16.325  51.761   1.481  1.00  0.00    +0.000 N 
ATOM     73  C53 UNL A   1      16.890  52.811   0.938  1.00  0.00    +0.000 C 
ATOM     74  C54 UNL A   1      16.886  54.239   1.407  1.00  0.00    +0.000 C 
ATOM     86  C61 UNL A   1      16.178  54.575   2.502  1.00  0.00    +0.000 C 
ATOM     87  C62 UNL A   1      16.045  55.923   3.047  1.00  0.00    +0.000 C 
ATOM     88  C63 UNL A   1      15.262  55.882   4.138  1.00  0.00    +0.000 C 
ATOM     89  C64 UNL A   1      14.829  54.502   4.361  1.00  0.00    +0.000 C 
ATOM     90  N7  UNL A   1      15.426  53.796   3.346  1.00  0.00    +0.000 N 
ATOM     91  C65 UNL A   1      17.613  52.526  -0.310  1.00  0.00    +0.000 C 
ATOM     92  C66 UNL A   1      17.374  51.232  -0.471  1.00  0.00    +0.000 C 
ATOM     93  C67 UNL A   1      12.828  50.931   6.546  1.00  0.00    +0.000 C 
ATOM     94  C68 UNL A   1      12.847  52.253   6.645  1.00  0.00    +0.000 C 
ENDROOT
BRANCH   38   37
ATOM     34  C27 UNL A   1      12.509  57.017   8.116  1.00  0.00    +0.000 C 
ATOM     35  C28 UNL A   1      13.839  56.590   8.206  1.00  0.00    +0.000 C 
ATOM     36  C29 UNL A   1      14.333  55.632   7.316  1.00  0.00    +0.000 C 
ATOM     37  C30 UNL A   1      13.496  55.075   6.337  1.00  0.00    +0.000 C 
ATOM    138  H38 UNL A   1      14.457  56.983   8.933  1.00  0.00    +0.000 H 
ATOM    139  H39 UNL A   1      15.319  55.334   7.379  1.00  0.00    +0.000 H 
ATOM    150  H50 UNL A   1      11.527  55.071   5.566  1.00  0.00    +0.000 H 
ATOM    151  H51 UNL A   1      10.715  56.839   7.015  1.00  0.00    +0.000 H 
ATOM     95  C69 UNL A   1      12.161  55.497   6.261  1.00  0.00    +0.000 C 
ATOM     96  C70 UNL A   1      11.682  56.491   7.118  1.00  0.00    +0.000 C 
BRANCH   34   32
ATOM     33  O4  UNL A   1      12.675  59.164   9.040  1.00  0.00    +0.000 O 
ATOM     32  C26 UNL A   1      12.058  58.101   9.020  1.00  0.00    +0.000 C 
BRANCH   32   31
ATOM    137  H37 UNL A   1      10.167  58.462   9.553  1.00  0.00    +0.000 H 
ATOM     31  N3  UNL A   1      10.961  57.950   9.829  1.00  0.00    +0.000 N 
BRANCH   31   30
ATOM     30  C25 UNL A   1      10.786  57.152  11.030  1.00  0.00    +0.000 C 
ATOM    135  H35 UNL A   1      11.683  57.200  11.611  1.00  0.00    +0.000 H 
ATOM    136  H36 UNL A   1       9.953  57.550  11.572  1.00  0.00    +0.000 H 
BRANCH   30   29
ATOM    133  H33 UNL A   1       9.512  55.460  11.091  1.00  0.00    +0.000 H 
ATOM     29  C24 UNL A   1      10.484  55.689  10.707  1.00  0.00    +0.000 C 
ATOM    134  H34 UNL A   1      10.559  55.601   9.643  1.00  0.00    +0.000 H 
BRANCH   29   28
ATOM    131  H31 UNL A   1      12.105  55.187  11.979  1.00  0.00    +0.000 H 
ATOM     28  C23 UNL A   1      11.474  54.671  11.286  1.00  0.00    +0.000 C 
ATOM    132  H32 UNL A   1      10.873  53.904  11.729  1.00  0.00    +0.000 H 
BRANCH   28   27
ATOM    129  H29 UNL A   1      12.070  52.931  10.223  1.00  0.00    +0.000 H 
ATOM    130  H30 UNL A   1      12.257  54.485   9.348  1.00  0.00    +0.000 H 
ATOM     27  C22 UNL A   1      12.375  53.956  10.271  1.00  0.00    +0.000 C 
BRANCH   27   26
ATOM     26  C21 UNL A   1      13.875  53.987  10.585  1.00  0.00    +0.000 C 
ATOM    127  H27 UNL A   1      14.263  54.936  10.282  1.00  0.00    +0.000 H 
ATOM    128  H28 UNL A   1      13.974  53.816  11.637  1.00  0.00    +0.000 H 
BRANCH   26   25
ATOM     25  C20 UNL A   1      14.681  52.892   9.883  1.00  0.00    +0.000 C 
ATOM    125  H25 UNL A   1      14.057  52.419   9.154  1.00  0.00    +0.000 H 
ATOM    126  H26 UNL A   1      15.532  53.350   9.426  1.00  0.00    +0.000 H 
BRANCH   25   24
ATOM    124  H24 UNL A   1      15.544  51.089  10.389  1.00  0.00    +0.000 H 
ATOM     24  N2  UNL A   1      15.158  51.890  10.813  1.00  0.00    +0.000 N 
BRANCH   24   22
ATOM     22  C19 UNL A   1      15.159  51.868  12.173  1.00  0.00    +0.000 C 
ATOM     23  O3  UNL A   1      16.181  52.282  12.734  1.00  0.00    +0.000 O 
BRANCH   22   20
ATOM     20  C17 UNL A   1      13.978  51.355  13.010  1.00  0.00    +0.000 C 
ATOM    120  H20 UNL A   1      13.418  52.219  13.299  1.00  0.00    +0.000 H 
BRANCH   20   19
ATOM     97  C71 UNL A   1      11.648  50.997  12.143  1.00  0.00    +0.000 C 
ATOM     98  C72 UNL A   1      10.694  50.318  11.383  1.00  0.00    +0.000 C 
ATOM     99  F16 UNL A   1       9.434  50.781  11.426  1.00  0.00    +0.000 F 
ATOM     16  C13 UNL A   1      11.017  49.190  10.610  1.00  0.00    +0.000 C 
ATOM     17  C14 UNL A   1      12.347  48.743  10.683  1.00  0.00    +0.000 C 
ATOM     18  C15 UNL A   1      13.301  49.397  11.478  1.00  0.00    +0.000 C 
ATOM     19  C16 UNL A   1      12.975  50.552  12.199  1.00  0.00    +0.000 C 
ATOM    118  H18 UNL A   1      12.629  47.914  10.137  1.00  0.00    +0.000 H 
ATOM    119  H19 UNL A   1      14.260  49.019  11.534  1.00  0.00    +0.000 H 
ATOM    152  H52 UNL A   1      11.372  51.839  12.671  1.00  0.00    +0.000 H 
BRANCH   16   15
ATOM    100  C73 UNL A   1       9.530  49.080   8.583  1.00  0.00    +0.000 C 
ATOM     11  C8  UNL A   1       8.490  48.504   7.846  1.00  0.00    +0.000 C 
ATOM     12  C9  UNL A   1       7.944  47.292   8.267  1.00  0.00    +0.000 C 
ATOM     13  C10 UNL A   1       8.448  46.657   9.400  1.00  0.00    +0.000 C 
ATOM     14  C11 UNL A   1       9.460  47.260  10.151  1.00  0.00    +0.000 C 
ATOM     15  C12 UNL A   1      10.009  48.499   9.773  1.00  0.00    +0.000 C 
ATOM    115  H15 UNL A   1       7.166  46.866   7.740  1.00  0.00    +0.000 H 
ATOM    116  H16 UNL A   1       8.071  45.739   9.685  1.00  0.00    +0.000 H 
ATOM    117  H17 UNL A   1       9.812  46.789  10.999  1.00  0.00    +0.000 H 
ATOM    153  H53 UNL A   1       9.957  49.958   8.247  1.00  0.00    +0.000 H 
BRANCH   11   10
ATOM     10  N1  UNL A   1       7.883  49.155   6.761  1.00  0.00    +0.000 N 
ATOM    114  H14 UNL A   1       7.121  49.736   6.986  1.00  0.00    +0.000 H 
BRANCH   10    8
ATOM      9  O2  UNL A   1       7.861  48.146   4.743  1.00  0.00    +0.000 O 
ATOM      8  C7  UNL A   1       8.209  49.093   5.433  1.00  0.00    +0.000 C 
BRANCH    8    7
ATOM      7  O1  UNL A   1       9.037  50.093   5.032  1.00  0.00    +0.000 O 
BRANCH    7    6
ATOM    113  H13 UNL A   1       7.557  51.424   5.471  1.00  0.00    +0.000 H 
ATOM      6  C6  UNL A   1       8.487  51.417   4.942  1.00  0.00    +0.000 C 
ATOM    112  H12 UNL A   1       8.347  51.663   3.909  1.00  0.00    +0.000 H 
BRANCH    6    5
ATOM      5  C5  UNL A   1       9.401  52.469   5.580  1.00  0.00    +0.000 C 
ATOM    110  H10 UNL A   1      10.044  51.967   6.272  1.00  0.00    +0.000 H 
ATOM    111  H11 UNL A   1       9.916  52.936   4.766  1.00  0.00    +0.000 H 
BRANCH    5    4
ATOM    108  H8  UNL A   1       8.809  54.501   5.761  1.00  0.00    +0.000 H 
ATOM      4  C4  UNL A   1       8.694  53.604   6.332  1.00  0.00    +0.000 C 
ATOM    109  H9  UNL A   1       7.675  53.297   6.445  1.00  0.00    +0.000 H 
BRANCH    4    3
ATOM    106  H6  UNL A   1      10.239  54.184   7.672  1.00  0.00    +0.000 H 
ATOM      3  C3  UNL A   1       9.218  53.872   7.748  1.00  0.00    +0.000 C 
ATOM    107  H7  UNL A   1       8.577  54.619   8.170  1.00  0.00    +0.000 H 
BRANCH    3    2
ATOM    105  H5  UNL A   1       9.612  52.969   9.619  1.00  0.00    +0.000 H 
ATOM      2  C2  UNL A   1       9.158  52.672   8.697  1.00  0.00    +0.000 C 
ATOM    104  H4  UNL A   1       9.676  51.853   8.244  1.00  0.00    +0.000 H 
BRANCH    2    1
ATOM      1  C1  UNL A   1       7.734  52.236   9.005  1.00  0.00    +0.000 C 
ATOM    101  H1  UNL A   1       7.233  53.012   9.546  1.00  0.00    +0.000 H 
ATOM    102  H2  UNL A   1       7.755  51.345   9.597  1.00  0.00    +0.000 H 
ATOM    103  H3  UNL A   1       7.213  52.045   8.091  1.00  0.00    +0.000 H 
ENDBRANCH    2    1
ENDBRANCH    3    2
ENDBRANCH    4    3
ENDBRANCH    5    4
ENDBRANCH    6    5
ENDBRANCH    7    6
ENDBRANCH    8    7
ENDBRANCH   10    8
ENDBRANCH   11   10
ENDBRANCH   16   15
ENDBRANCH   20   19
BRANCH   20   21
ATOM    121  H21 UNL A   1      13.825  49.882  14.554  1.00  0.00    +0.000 H 
ATOM    122  H22 UNL A   1      14.164  51.495  15.137  1.00  0.00    +0.000 H 
ATOM    123  H23 UNL A   1      15.426  50.560  14.370  1.00  0.00    +0.000 H 
ATOM     21  C18 UNL A   1      14.378  50.780  14.370  1.00  0.00    +0.000 C 
ENDBRANCH   20   21
ENDBRANCH   22   20
ENDBRANCH   24   22
ENDBRANCH   25   24
ENDBRANCH   26   25
ENDBRANCH   27   26
ENDBRANCH   28   27
ENDBRANCH   29   28
ENDBRANCH   30   29
ENDBRANCH   31   30
ENDBRANCH   32   31
ENDBRANCH   34   32
ENDBRANCH   38   37
BRANCH   42   43
ATOM     43  C35 UNL A   1      12.962  48.160   5.829  1.00  0.00    +0.000 C 
ATOM     44  C36 UNL A   1      11.731  47.591   5.472  1.00  0.00    +0.000 C 
ATOM     45  F1  UNL A   1      11.093  48.003   4.366  1.00  0.00    +0.000 F 
ATOM     46  C37 UNL A   1      11.136  46.618   6.271  1.00  0.00    +0.000 C 
ATOM     47  F2  UNL A   1       9.941  46.114   5.931  1.00  0.00    +0.000 F 
ATOM     48  C38 UNL A   1      11.771  46.178   7.422  1.00  0.00    +0.000 C 
ATOM     49  F3  UNL A   1      11.199  45.237   8.187  1.00  0.00    +0.000 F 
ATOM     50  C39 UNL A   1      12.996  46.716   7.786  1.00  0.00    +0.000 C 
ATOM     51  F4  UNL A   1      13.615  46.286   8.894  1.00  0.00    +0.000 F 
ATOM     52  C40 UNL A   1      13.584  47.706   7.001  1.00  0.00    +0.000 C 
ATOM     53  F5  UNL A   1      14.765  48.216   7.382  1.00  0.00    +0.000 F 
ENDBRANCH   42   43
BRANCH   59   60
ATOM     65  C49 UNL A   1      17.479  46.749  -2.409  1.00  0.00    +0.000 C 
ATOM     66  F8  UNL A   1      17.862  45.918  -3.388  1.00  0.00    +0.000 F 
ATOM     67  C50 UNL A   1      18.351  47.052  -1.375  1.00  0.00    +0.000 C 
ATOM     68  F9  UNL A   1      19.583  46.524  -1.361  1.00  0.00    +0.000 F 
ATOM     69  C51 UNL A   1      17.946  47.898  -0.346  1.00  0.00    +0.000 C 
ATOM     70  F10 UNL A   1      18.805  48.163   0.650  1.00  0.00    +0.000 F 
ATOM     60  C46 UNL A   1      16.664  48.468  -0.344  1.00  0.00    +0.000 C 
ATOM     61  C47 UNL A   1      15.805  48.162  -1.409  1.00  0.00    +0.000 C 
ATOM     62  F6  UNL A   1      14.564  48.673  -1.441  1.00  0.00    +0.000 F 
ATOM     63  C48 UNL A   1      16.206  47.301  -2.424  1.00  0.00    +0.000 C 
ATOM     64  F7  UNL A   1      15.354  46.989  -3.412  1.00  0.00    +0.000 F 
ENDBRANCH   59   60
BRANCH   74   75
ATOM     75  C55 UNL A   1      17.617  55.286   0.652  1.00  0.00    +0.000 C 
ATOM     76  C56 UNL A   1      18.900  55.691   1.046  1.00  0.00    +0.000 C 
ATOM     77  F11 UNL A   1      19.472  55.141   2.127  1.00  0.00    +0.000 F 
ATOM     78  C57 UNL A   1      19.579  56.692   0.356  1.00  0.00    +0.000 C 
ATOM     79  F12 UNL A   1      20.787  57.090   0.777  1.00  0.00    +0.000 F 
ATOM     80  C58 UNL A   1      19.001  57.287  -0.755  1.00  0.00    +0.000 C 
ATOM     81  F13 UNL A   1      19.655  58.250  -1.418  1.00  0.00    +0.000 F 
ATOM     82  C59 UNL A   1      17.740  56.888  -1.172  1.00  0.00    +0.000 C 
ATOM     83  F14 UNL A   1      17.182  57.455  -2.251  1.00  0.00    +0.000 F 
ATOM     84  C60 UNL A   1      17.049  55.903  -0.470  1.00  0.00    +0.000 C 
ATOM     85  F15 UNL A   1      15.826  55.545  -0.887  1.00  0.00    +0.000 F 
ENDBRANCH   74   75
TORSDOF 27
ENDMDL
MODEL 2
REMARK VINA RESULT:      -6.8     43.205     48.308
ROOT
ATOM    140  H40 UNL A   1      16.427  34.933  48.043  1.00  0.00    +0.000 H 
ATOM    141  H41 UNL A   1      15.335  36.031  50.142  1.00  0.00    +0.000 H 
ATOM    142  H42 UNL A   1      19.016  37.819  49.502  1.00  0.00    +0.000 H 
ATOM    143  H43 UNL A   1      23.435  42.107  51.174  1.00  0.00    +0.000 H 
ATOM    144  H44 UNL A   1      24.542  40.968  49.190  1.00  0.00    +0.000 H 
ATOM    145  H45 UNL A   1      20.836  39.178  49.781  1.00  0.00    +0.000 H 
ATOM    146  H46 UNL A   1      18.829  41.449  53.796  1.00  0.00    +0.000 H 
ATOM    147  H47 UNL A   1      16.906  39.768  53.629  1.00  0.00    +0.000 H 
ATOM    148  H48 UNL A   1      21.053  35.694  45.443  1.00  0.00    +0.000 H 
ATOM    149  H49 UNL A   1      23.208  37.003  45.889  1.00  0.00    +0.000 H 
ATOM     38  C31 UNL A   1      22.994  38.873  48.031  1.00  0.00    +0.000 C 
ATOM     39  C32 UNL A   1      21.967  37.871  47.578  1.00  0.00    +0.000 C 
ATOM     40  N4  UNL A   1      20.771  37.633  48.059  1.00  0.00    +0.000 N 
ATOM     41  C33 UNL A   1      20.225  36.649  47.246  1.00  0.00    +0.000 C 
ATOM     42  C34 UNL A   1      19.020  36.037  47.351  1.00  0.00    +0.000 C 
ATOM     54  C41 UNL A   1      18.064  36.294  48.395  1.00  0.00    +0.000 C 
ATOM     55  C42 UNL A   1      16.840  35.685  48.615  1.00  0.00    +0.000 C 
ATOM     56  C43 UNL A   1      16.258  36.268  49.748  1.00  0.00    +0.000 C 
ATOM     57  C44 UNL A   1      17.135  37.217  50.247  1.00  0.00    +0.000 C 
ATOM     58  N5  UNL A   1      18.232  37.230  49.402  1.00  0.00    +0.000 N 
ATOM     59  C45 UNL A   1      16.988  38.048  51.413  1.00  0.00    +0.000 C 
ATOM     71  C52 UNL A   1      17.873  38.995  51.808  1.00  0.00    +0.000 C 
ATOM     72  N6  UNL A   1      19.078  39.360  51.224  1.00  0.00    +0.000 N 
ATOM     73  C53 UNL A   1      19.558  40.328  51.965  1.00  0.00    +0.000 C 
ATOM     74  C54 UNL A   1      20.852  41.080  51.821  1.00  0.00    +0.000 C 
ATOM     86  C61 UNL A   1      21.718  40.730  50.852  1.00  0.00    +0.000 C 
ATOM     87  C62 UNL A   1      23.026  41.337  50.621  1.00  0.00    +0.000 C 
ATOM     88  C63 UNL A   1      23.614  40.733  49.575  1.00  0.00    +0.000 C 
ATOM     89  C64 UNL A   1      22.725  39.686  49.069  1.00  0.00    +0.000 C 
ATOM     90  N7  UNL A   1      21.622  39.762  49.883  1.00  0.00    +0.000 N 
ATOM     91  C65 UNL A   1      18.695  40.704  53.094  1.00  0.00    +0.000 C 
ATOM     92  C66 UNL A   1      17.702  39.836  52.974  1.00  0.00    +0.000 C 
ATOM     93  C67 UNL A   1      21.204  36.353  46.222  1.00  0.00    +0.000 C 
ATOM     94  C68 UNL A   1      22.321  37.040  46.416  1.00  0.00    +0.000 C 
ENDROOT
BRANCH   38   37
ATOM     34  C27 UNL A   1      26.780  39.264  46.039  1.00  0.00    +0.000 C 
ATOM     35  C28 UNL A   1      25.755  40.184  45.788  1.00  0.00    +0.000 C 
ATOM     36  C29 UNL A   1      24.520  40.054  46.429  1.00  0.00    +0.000 C 
ATOM     37  C30 UNL A   1      24.289  38.990  47.314  1.00  0.00    +0.000 C 
ATOM    138  H38 UNL A   1      25.911  40.961  45.126  1.00  0.00    +0.000 H 
ATOM    139  H39 UNL A   1      23.774  40.745  46.250  1.00  0.00    +0.000 H 
ATOM    150  H50 UNL A   1      25.147  37.260  48.175  1.00  0.00    +0.000 H 
ATOM    151  H51 UNL A   1      27.335  37.573  47.177  1.00  0.00    +0.000 H 
ATOM     95  C69 UNL A   1      25.316  38.064  47.551  1.00  0.00    +0.000 C 
ATOM     96  C70 UNL A   1      26.566  38.224  46.949  1.00  0.00    +0.000 C 
BRANCH   34   32
ATOM     33  O4  UNL A   1      28.648  40.590  45.543  1.00  0.00    +0.000 O 
ATOM     32  C26 UNL A   1      28.102  39.497  45.408  1.00  0.00    +0.000 C 
BRANCH   32   31
ATOM    137  H37 UNL A   1      28.504  38.495  43.729  1.00  0.00    +0.000 H 
ATOM     31  N3  UNL A   1      28.734  38.519  44.685  1.00  0.00    +0.000 N 
BRANCH   31   30
ATOM     30  C25 UNL A   1      29.691  37.513  45.110  1.00  0.00    +0.000 C 
ATOM    135  H35 UNL A   1      30.469  37.445  44.378  1.00  0.00    +0.000 H 
ATOM    136  H36 UNL A   1      30.081  37.809  46.062  1.00  0.00    +0.000 H 
BRANCH   30   29
ATOM    133  H33 UNL A   1      29.814  35.399  45.192  1.00  0.00    +0.000 H 
ATOM     29  C24 UNL A   1      29.044  36.138  45.272  1.00  0.00    +0.000 C 
ATOM    134  H34 UNL A   1      28.557  36.152  46.224  1.00  0.00    +0.000 H 
BRANCH   29   28
ATOM    131  H31 UNL A   1      27.561  36.720  43.872  1.00  0.00    +0.000 H 
ATOM     28  C23 UNL A   1      27.957  35.799  44.245  1.00  0.00    +0.000 C 
ATOM    132  H32 UNL A   1      28.438  35.197  43.503  1.00  0.00    +0.000 H 
BRANCH   28   27
ATOM    129  H29 UNL A   1      26.818  34.005  44.275  1.00  0.00    +0.000 H 
ATOM    130  H30 UNL A   1      26.903  34.904  45.824  1.00  0.00    +0.000 H 
ATOM     27  C22 UNL A   1      26.782  34.958  44.762  1.00  0.00    +0.000 C 
BRANCH   27   26
ATOM     26  C21 UNL A   1      25.390  35.555  44.527  1.00  0.00    +0.000 C 
ATOM    127  H27 UNL A   1      24.933  35.728  45.478  1.00  0.00    +0.000 H 
ATOM    128  H28 UNL A   1      25.531  36.456  43.966  1.00  0.00    +0.000 H 
BRANCH   26   25
ATOM     25  C20 UNL A   1      24.461  34.663  43.702  1.00  0.00    +0.000 C 
ATOM    125  H25 UNL A   1      23.953  35.269  42.980  1.00  0.00    +0.000 H 
ATOM    126  H26 UNL A   1      25.058  33.913  43.228  1.00  0.00    +0.000 H 
BRANCH   25   24
ATOM    124  H24 UNL A   1      22.796  34.593  44.916  1.00  0.00    +0.000 H 
ATOM     24  N2  UNL A   1      23.475  33.996  44.527  1.00  0.00    +0.000 N 
BRANCH   24   22
ATOM     22  C19 UNL A   1      23.334  32.684  44.857  1.00  0.00    +0.000 C 
ATOM     23  O3  UNL A   1      22.945  31.925  43.961  1.00  0.00    +0.000 O 
BRANCH   22   20
ATOM     20  C17 UNL A   1      23.620  32.130  46.260  1.00  0.00    +0.000 C 
ATOM    120  H20 UNL A   1      24.598  31.698  46.217  1.00  0.00    +0.000 H 
BRANCH   20   19
ATOM     97  C71 UNL A   1      22.638  33.610  48.035  1.00  0.00    +0.000 C 
ATOM     98  C72 UNL A   1      22.726  34.578  49.037  1.00  0.00    +0.000 C 
ATOM     99  F16 UNL A   1      21.584  34.936  49.646  1.00  0.00    +0.000 F 
ATOM     16  C13 UNL A   1      23.947  35.173  49.399  1.00  0.00    +0.000 C 
ATOM     17  C14 UNL A   1      25.075  34.781  48.659  1.00  0.00    +0.000 C 
ATOM     18  C15 UNL A   1      24.985  33.840  47.622  1.00  0.00    +0.000 C 
ATOM     19  C16 UNL A   1      23.771  33.217  47.311  1.00  0.00    +0.000 C 
ATOM    118  H18 UNL A   1      25.993  35.196  48.885  1.00  0.00    +0.000 H 
ATOM    119  H19 UNL A   1      25.830  33.602  47.077  1.00  0.00    +0.000 H 
ATOM    152  H52 UNL A   1      21.725  33.180  47.824  1.00  0.00    +0.000 H 
BRANCH   16   15
ATOM    100  C73 UNL A   1      22.943  36.430  51.333  1.00  0.00    +0.000 C 
ATOM     11  C8  UNL A   1      22.971  37.452  52.288  1.00  0.00    +0.000 C 
ATOM     12  C9  UNL A   1      24.135  38.204  52.451  1.00  0.00    +0.000 C 
ATOM     13  C10 UNL A   1      25.261  37.919  51.683  1.00  0.00    +0.000 C 
ATOM     14  C11 UNL A   1      25.210  36.921  50.705  1.00  0.00    +0.000 C 
ATOM     15  C12 UNL A   1      24.042  36.168  50.491  1.00  0.00    +0.000 C 
ATOM    115  H15 UNL A   1      24.161  38.970  53.141  1.00  0.00    +0.000 H 
ATOM    116  H16 UNL A   1      26.135  38.447  51.835  1.00  0.00    +0.000 H 
ATOM    117  H17 UNL A   1      26.045  36.732  50.130  1.00  0.00    +0.000 H 
ATOM    153  H53 UNL A   1      22.093  35.852  51.242  1.00  0.00    +0.000 H 
BRANCH   11   10
ATOM     10  N1  UNL A   1      21.832  37.842  53.010  1.00  0.00    +0.000 N 
ATOM    114  H14 UNL A   1      21.504  38.752  52.828  1.00  0.00    +0.000 H 
BRANCH   10    8
ATOM      9  O2  UNL A   1      19.894  37.131  53.920  1.00  0.00    +0.000 O 
ATOM      8  C7  UNL A   1      21.116  37.126  53.932  1.00  0.00    +0.000 C 
BRANCH    8    7
ATOM      7  O1  UNL A   1      21.889  36.551  54.889  1.00  0.00    +0.000 O 
BRANCH    7    6
ATOM    113  H13 UNL A   1      23.215  35.002  54.868  1.00  0.00    +0.000 H 
ATOM      6  C6  UNL A   1      22.159  35.144  54.770  1.00  0.00    +0.000 C 
ATOM    112  H12 UNL A   1      21.808  34.805  53.817  1.00  0.00    +0.000 H 
BRANCH    6    5
ATOM      5  C5  UNL A   1      21.469  34.328  55.869  1.00  0.00    +0.000 C 
ATOM    110  H10 UNL A   1      21.214  33.374  55.457  1.00  0.00    +0.000 H 
ATOM    111  H11 UNL A   1      22.169  34.281  56.677  1.00  0.00    +0.000 H 
BRANCH    5    4
ATOM    108  H8  UNL A   1      20.479  35.612  57.243  1.00  0.00    +0.000 H 
ATOM      4  C4  UNL A   1      20.193  34.942  56.459  1.00  0.00    +0.000 C 
ATOM    109  H9  UNL A   1      19.692  35.426  55.646  1.00  0.00    +0.000 H 
BRANCH    4    3
ATOM    106  H6  UNL A   1      19.316  33.007  56.518  1.00  0.00    +0.000 H 
ATOM      3  C3  UNL A   1      19.192  33.934  57.037  1.00  0.00    +0.000 C 
ATOM    107  H7  UNL A   1      19.404  33.865  58.083  1.00  0.00    +0.000 H 
BRANCH    3    2
ATOM    105  H5  UNL A   1      17.166  33.744  57.613  1.00  0.00    +0.000 H 
ATOM      2  C2  UNL A   1      17.722  34.347  56.926  1.00  0.00    +0.000 C 
ATOM    104  H4  UNL A   1      17.401  34.197  55.916  1.00  0.00    +0.000 H 
BRANCH    2    1
ATOM      1  C1  UNL A   1      17.489  35.802  57.299  1.00  0.00    +0.000 C 
ATOM    101  H1  UNL A   1      17.752  36.430  56.472  1.00  0.00    +0.000 H 
ATOM    102  H2  UNL A   1      18.094  36.055  58.145  1.00  0.00    +0.000 H 
ATOM    103  H3  UNL A   1      16.458  35.948  57.543  1.00  0.00    +0.000 H 
ENDBRANCH    2    1
ENDBRANCH    3    2
ENDBRANCH    4    3
ENDBRANCH    5    4
ENDBRANCH    6    5
ENDBRANCH    7    6
ENDBRANCH    8    7
ENDBRANCH   10    8
ENDBRANCH   11   10
ENDBRANCH   16   15
ENDBRANCH   20   19
BRANCH   20   21
ATOM    121  H21 UNL A   1      23.101  30.061  46.099  1.00  0.00    +0.000 H 
ATOM    122  H22 UNL A   1      21.742  31.117  46.404  1.00  0.00    +0.000 H 
ATOM    123  H23 UNL A   1      22.859  30.736  47.693  1.00  0.00    +0.000 H 
ATOM     21  C18 UNL A   1      22.767  30.920  46.642  1.00  0.00    +0.000 C 
ENDBRANCH   20   21
ENDBRANCH   22   20
ENDBRANCH   24   22
ENDBRANCH   25   24
ENDBRANCH   26   25
ENDBRANCH   27   26
ENDBRANCH   28   27
ENDBRANCH   29   28
ENDBRANCH   30   29
ENDBRANCH   31   30
ENDBRANCH   32   31
ENDBRANCH   34   32
ENDBRANCH   38   37
BRANCH   42   43
ATOM     43  C35 UNL A   1      18.670  35.018  46.308  1.00  0.00    +0.000 C 
ATOM     44  C36 UNL A   1      17.819  35.329  45.237  1.00  0.00    +0.000 C 
ATOM     45  F1  UNL A   1      17.256  36.543  45.153  1.00  0.00    +0.000 F 
ATOM     46  C37 UNL A   1      17.518  34.378  44.266  1.00  0.00    +0.000 C 
ATOM     47  F2  UNL A   1      16.673  34.683  43.271  1.00  0.00    +0.000 F 
ATOM     48  C38 UNL A   1      18.081  33.112  44.332  1.00  0.00    +0.000 C 
ATOM     49  F3  UNL A   1      17.795  32.200  43.393  1.00  0.00    +0.000 F 
ATOM     50  C39 UNL A   1      18.937  32.789  45.374  1.00  0.00    +0.000 C 
ATOM     51  F4  UNL A   1      19.488  31.569  45.434  1.00  0.00    +0.000 F 
ATOM     52  C40 UNL A   1      19.223  33.730  46.360  1.00  0.00    +0.000 C 
ATOM     53  F5  UNL A   1      20.046  33.387  47.362  1.00  0.00    +0.000 F 
ENDBRANCH   42   43
BRANCH   59   60
ATOM     65  C49 UNL A   1      13.489  37.514  53.863  1.00  0.00    +0.000 C 
ATOM     66  F8  UNL A   1      12.396  37.342  54.618  1.00  0.00    +0.000 F 
ATOM     67  C50 UNL A   1      13.392  38.156  52.637  1.00  0.00    +0.000 C 
ATOM     68  F9  UNL A   1      12.206  38.617  52.215  1.00  0.00    +0.000 F 
ATOM     69  C51 UNL A   1      14.522  38.316  51.842  1.00  0.00    +0.000 C 
ATOM     70  F10 UNL A   1      14.398  38.928  50.655  1.00  0.00    +0.000 F 
ATOM     60  C46 UNL A   1      15.775  37.848  52.268  1.00  0.00    +0.000 C 
ATOM     61  C47 UNL A   1      15.854  37.218  53.518  1.00  0.00    +0.000 C 
ATOM     62  F6  UNL A   1      17.028  36.742  53.959  1.00  0.00    +0.000 F 
ATOM     63  C48 UNL A   1      14.718  37.042  54.301  1.00  0.00    +0.000 C 
ATOM     64  F7  UNL A   1      14.808  36.400  55.475  1.00  0.00    +0.000 F 
ENDBRANCH   59   60
BRANCH   74   75
ATOM     75  C55 UNL A   1      21.201  42.173  52.762  1.00  0.00    +0.000 C 
ATOM     76  C56 UNL A   1      21.862  41.897  53.968  1.00  0.00    +0.000 C 
ATOM     77  F11 UNL A   1      22.171  40.631  54.286  1.00  0.00    +0.000 F 
ATOM     78  C57 UNL A   1      22.168  42.915  54.866  1.00  0.00    +0.000 C 
ATOM     79  F12 UNL A   1      22.764  42.620  56.030  1.00  0.00    +0.000 F 
ATOM     80  C58 UNL A   1      21.844  44.230  54.567  1.00  0.00    +0.000 C 
ATOM     81  F13 UNL A   1      22.139  45.209  55.432  1.00  0.00    +0.000 F 
ATOM     82  C59 UNL A   1      21.205  44.526  53.371  1.00  0.00    +0.000 C 
ATOM     83  F14 UNL A   1      20.899  45.797  53.074  1.00  0.00    +0.000 F 
ATOM     84  C60 UNL A   1      20.878  43.506  52.481  1.00  0.00    +0.000 C 
ATOM     85  F15 UNL A   1      20.250  43.819  51.338  1.00  0.00    +0.000 F 
ENDBRANCH   74   75
TORSDOF 27
ENDMDL
MODEL 3
REMARK VINA RESULT:      -6.7     42.898     48.979
ROOT
ATOM    140  H40 UNL A   1      33.926  35.404  44.703  1.00  0.00    +0.000 H 
ATOM    141  H41 UNL A   1      35.500  34.747  46.677  1.00  0.00    +0.000 H 
ATOM    142  H42 UNL A   1      31.842  32.892  47.253  1.00  0.00    +0.000 H 
ATOM    143  H43 UNL A   1      28.076  29.063  50.699  1.00  0.00    +0.000 H 
ATOM    144  H44 UNL A   1      26.512  29.784  48.830  1.00  0.00    +0.000 H 
ATOM    145  H45 UNL A   1      30.184  31.631  48.200  1.00  0.00    +0.000 H 
ATOM    146  H46 UNL A   1      33.120  30.207  52.029  1.00  0.00    +0.000 H 
ATOM    147  H47 UNL A   1      34.891  31.806  51.100  1.00  0.00    +0.000 H 
ATOM    148  H48 UNL A   1      28.871  34.164  43.419  1.00  0.00    +0.000 H 
ATOM    149  H49 UNL A   1      26.922  32.988  44.591  1.00  0.00    +0.000 H 
ATOM     38  C31 UNL A   1      27.680  31.590  46.958  1.00  0.00    +0.000 C 
ATOM     39  C32 UNL A   1      28.540  32.472  46.095  1.00  0.00    +0.000 C 
ATOM     40  N4  UNL A   1      29.803  32.794  46.237  1.00  0.00    +0.000 N 
ATOM     41  C33 UNL A   1      30.117  33.589  45.142  1.00  0.00    +0.000 C 
ATOM     42  C34 UNL A   1      31.289  34.201  44.849  1.00  0.00    +0.000 C 
ATOM     54  C41 UNL A   1      32.463  34.154  45.679  1.00  0.00    +0.000 C 
ATOM     55  C42 UNL A   1      33.681  34.786  45.491  1.00  0.00    +0.000 C 
ATOM     56  C43 UNL A   1      34.522  34.441  46.556  1.00  0.00    +0.000 C 
ATOM     57  C44 UNL A   1      33.817  33.619  47.420  1.00  0.00    +0.000 C 
ATOM     58  N5  UNL A   1      32.560  33.443  46.863  1.00  0.00    +0.000 N 
ATOM     59  C45 UNL A   1      34.251  33.041  48.664  1.00  0.00    +0.000 C 
ATOM     71  C52 UNL A   1      33.513  32.201  49.429  1.00  0.00    +0.000 C 
ATOM     72  N6  UNL A   1      32.224  31.733  49.216  1.00  0.00    +0.000 N 
ATOM     73  C53 UNL A   1      31.959  30.938  50.224  1.00  0.00    +0.000 C 
ATOM     74  C54 UNL A   1      30.696  30.182  50.528  1.00  0.00    +0.000 C 
ATOM     86  C61 UNL A   1      29.623  30.334  49.730  1.00  0.00    +0.000 C 
ATOM     87  C62 UNL A   1      28.321  29.702  49.926  1.00  0.00    +0.000 C 
ATOM     88  C63 UNL A   1      27.492  30.086  48.941  1.00  0.00    +0.000 C 
ATOM     89  C64 UNL A   1      28.205  31.002  48.050  1.00  0.00    +0.000 C 
ATOM     90  N7  UNL A   1      29.463  31.086  48.592  1.00  0.00    +0.000 N 
ATOM     91  C65 UNL A   1      33.066  30.793  51.181  1.00  0.00    +0.000 C 
ATOM     92  C66 UNL A   1      33.973  31.612  50.670  1.00  0.00    +0.000 C 
ATOM     93  C67 UNL A   1      28.923  33.678  44.328  1.00  0.00    +0.000 C 
ATOM     94  C68 UNL A   1      27.905  33.052  44.902  1.00  0.00    +0.000 C 
ENDROOT
BRANCH   38   37
ATOM     34  C27 UNL A   1      23.566  30.823  45.989  1.00  0.00    +0.000 C 
ATOM     35  C28 UNL A   1      24.557  29.903  45.627  1.00  0.00    +0.000 C 
ATOM     36  C29 UNL A   1      25.897  30.154  45.934  1.00  0.00    +0.000 C 
ATOM     37  C30 UNL A   1      26.264  31.339  46.590  1.00  0.00    +0.000 C 
ATOM    138  H38 UNL A   1      24.297  29.036  45.130  1.00  0.00    +0.000 H 
ATOM    139  H39 UNL A   1      26.620  29.464  45.677  1.00  0.00    +0.000 H 
ATOM    150  H50 UNL A   1      25.529  33.152  47.393  1.00  0.00    +0.000 H 
ATOM    151  H51 UNL A   1      23.191  32.644  46.991  1.00  0.00    +0.000 H 
ATOM     95  C69 UNL A   1      25.267  32.263  46.938  1.00  0.00    +0.000 C 
ATOM     96  C70 UNL A   1      23.923  31.987  46.677  1.00  0.00    +0.000 C 
BRANCH   34   32
ATOM     33  O4  UNL A   1      21.798  29.294  45.811  1.00  0.00    +0.000 O 
ATOM     32  C26 UNL A   1      22.150  30.469  45.726  1.00  0.00    +0.000 C 
BRANCH   32   31
ATOM    137  H37 UNL A   1      21.539  32.116  44.777  1.00  0.00    +0.000 H 
ATOM     31  N3  UNL A   1      21.221  31.422  45.398  1.00  0.00    +0.000 N 
BRANCH   31   30
ATOM     30  C25 UNL A   1      19.840  31.569  45.823  1.00  0.00    +0.000 C 
ATOM    135  H35 UNL A   1      19.527  30.663  46.299  1.00  0.00    +0.000 H 
ATOM    136  H36 UNL A   1      19.789  32.398  46.499  1.00  0.00    +0.000 H 
BRANCH   30   29
ATOM    133  H33 UNL A   1      18.933  31.015  43.990  1.00  0.00    +0.000 H 
ATOM     29  C24 UNL A   1      18.907  31.858  44.648  1.00  0.00    +0.000 C 
ATOM    134  H34 UNL A   1      17.943  32.042  45.076  1.00  0.00    +0.000 H 
BRANCH   29   28
ATOM    131  H31 UNL A   1      20.317  33.197  43.800  1.00  0.00    +0.000 H 
ATOM     28  C23 UNL A   1      19.252  33.108  43.829  1.00  0.00    +0.000 C 
ATOM    132  H32 UNL A   1      18.799  32.958  42.870  1.00  0.00    +0.000 H 
BRANCH   28   27
ATOM    129  H29 UNL A   1      19.258  34.725  45.207  1.00  0.00    +0.000 H 
ATOM    130  H30 UNL A   1      18.745  35.124  43.537  1.00  0.00    +0.000 H 
ATOM     27  C22 UNL A   1      18.683  34.433  44.352  1.00  0.00    +0.000 C 
BRANCH   27   26
ATOM     26  C21 UNL A   1      17.207  34.401  44.765  1.00  0.00    +0.000 C 
ATOM    127  H27 UNL A   1      16.625  34.127  43.911  1.00  0.00    +0.000 H 
ATOM    128  H28 UNL A   1      17.126  33.693  45.564  1.00  0.00    +0.000 H 
BRANCH   26   25
ATOM     25  C20 UNL A   1      16.680  35.733  45.301  1.00  0.00    +0.000 C 
ATOM    125  H25 UNL A   1      17.405  36.495  45.101  1.00  0.00    +0.000 H 
ATOM    126  H26 UNL A   1      15.753  35.942  44.812  1.00  0.00    +0.000 H 
BRANCH   25   24
ATOM    124  H24 UNL A   1      15.911  34.905  47.026  1.00  0.00    +0.000 H 
ATOM     24  N2  UNL A   1      16.434  35.684  46.727  1.00  0.00    +0.000 N 
BRANCH   24   22
ATOM     22  C19 UNL A   1      16.802  36.536  47.722  1.00  0.00    +0.000 C 
ATOM     23  O3  UNL A   1      16.078  37.521  47.906  1.00  0.00    +0.000 O 
BRANCH   22   20
ATOM     20  C17 UNL A   1      18.052  36.330  48.591  1.00  0.00    +0.000 C 
ATOM    120  H20 UNL A   1      17.879  35.439  49.157  1.00  0.00    +0.000 H 
BRANCH   20   19
ATOM     97  C71 UNL A   1      19.782  36.933  46.872  1.00  0.00    +0.000 C 
ATOM     98  C72 UNL A   1      20.937  36.684  46.130  1.00  0.00    +0.000 C 
ATOM     99  F16 UNL A   1      21.309  37.622  45.243  1.00  0.00    +0.000 F 
ATOM     16  C13 UNL A   1      21.685  35.505  46.281  1.00  0.00    +0.000 C 
ATOM     17  C14 UNL A   1      21.179  34.556  47.185  1.00  0.00    +0.000 C 
ATOM     18  C15 UNL A   1      19.995  34.782  47.903  1.00  0.00    +0.000 C 
ATOM     19  C16 UNL A   1      19.292  35.986  47.781  1.00  0.00    +0.000 C 
ATOM    118  H18 UNL A   1      21.692  33.671  47.324  1.00  0.00    +0.000 H 
ATOM    119  H19 UNL A   1      19.635  34.047  48.533  1.00  0.00    +0.000 H 
ATOM    152  H52 UNL A   1      19.281  37.826  46.749  1.00  0.00    +0.000 H 
BRANCH   16   15
ATOM    100  C73 UNL A   1      24.151  35.851  45.918  1.00  0.00    +0.000 C 
ATOM     11  C8  UNL A   1      25.312  35.739  45.146  1.00  0.00    +0.000 C 
ATOM     12  C9  UNL A   1      25.283  34.984  43.974  1.00  0.00    +0.000 C 
ATOM     13  C10 UNL A   1      24.112  34.332  43.594  1.00  0.00    +0.000 C 
ATOM     14  C11 UNL A   1      22.947  34.482  44.352  1.00  0.00    +0.000 C 
ATOM     15  C12 UNL A   1      22.934  35.265  45.520  1.00  0.00    +0.000 C 
ATOM    115  H15 UNL A   1      26.129  34.907  43.388  1.00  0.00    +0.000 H 
ATOM    116  H16 UNL A   1      24.104  33.738  42.750  1.00  0.00    +0.000 H 
ATOM    117  H17 UNL A   1      22.082  34.009  44.050  1.00  0.00    +0.000 H 
ATOM    153  H53 UNL A   1      24.187  36.380  46.804  1.00  0.00    +0.000 H 
BRANCH   11   10
ATOM     10  N1  UNL A   1      26.482  36.459  45.432  1.00  0.00    +0.000 N 
ATOM    114  H14 UNL A   1      26.830  37.016  44.699  1.00  0.00    +0.000 H 
BRANCH   10    8
ATOM      9  O2  UNL A   1      27.336  35.492  47.283  1.00  0.00    +0.000 O 
ATOM      8  C7  UNL A   1      27.203  36.493  46.596  1.00  0.00    +0.000 C 
BRANCH    8    7
ATOM      7  O1  UNL A   1      27.617  37.741  46.940  1.00  0.00    +0.000 O 
BRANCH    7    6
ATOM    113  H13 UNL A   1      27.015  39.098  48.336  1.00  0.00    +0.000 H 
ATOM      6  C6  UNL A   1      26.628  38.654  47.443  1.00  0.00    +0.000 C 
ATOM    112  H12 UNL A   1      25.725  38.113  47.637  1.00  0.00    +0.000 H 
BRANCH    6    5
ATOM      5  C5  UNL A   1      26.323  39.781  46.449  1.00  0.00    +0.000 C 
ATOM    110  H10 UNL A   1      26.900  40.636  46.735  1.00  0.00    +0.000 H 
ATOM    111  H11 UNL A   1      26.571  39.390  45.484  1.00  0.00    +0.000 H 
BRANCH    5    4
ATOM    108  H8  UNL A   1      24.717  41.058  47.000  1.00  0.00    +0.000 H 
ATOM      4  C4  UNL A   1      24.854  40.214  46.358  1.00  0.00    +0.000 C 
ATOM    109  H9  UNL A   1      24.671  40.428  45.325  1.00  0.00    +0.000 H 
BRANCH    4    3
ATOM    106  H6  UNL A   1      23.140  39.024  45.950  1.00  0.00    +0.000 H 
ATOM      3  C3  UNL A   1      23.833  39.142  46.758  1.00  0.00    +0.000 C 
ATOM    107  H7  UNL A   1      24.393  38.255  46.966  1.00  0.00    +0.000 H 
BRANCH    3    2
ATOM    105  H5  UNL A   1      22.105  39.886  47.722  1.00  0.00    +0.000 H 
ATOM      2  C2  UNL A   1      23.034  39.452  48.026  1.00  0.00    +0.000 C 
ATOM    104  H4  UNL A   1      23.606  40.121  48.634  1.00  0.00    +0.000 H 
BRANCH    2    1
ATOM      1  C1  UNL A   1      22.715  38.207  48.840  1.00  0.00    +0.000 C 
ATOM    101  H1  UNL A   1      22.615  38.473  49.872  1.00  0.00    +0.000 H 
ATOM    102  H2  UNL A   1      23.507  37.496  48.729  1.00  0.00    +0.000 H 
ATOM    103  H3  UNL A   1      21.799  37.778  48.492  1.00  0.00    +0.000 H 
ENDBRANCH    2    1
ENDBRANCH    3    2
ENDBRANCH    4    3
ENDBRANCH    5    4
ENDBRANCH    6    5
ENDBRANCH    7    6
ENDBRANCH    8    7
ENDBRANCH   10    8
ENDBRANCH   11   10
ENDBRANCH   16   15
ENDBRANCH   20   19
BRANCH   20   21
ATOM    121  H21 UNL A   1      17.741  37.025  50.589  1.00  0.00    +0.000 H 
ATOM    122  H22 UNL A   1      17.784  38.296  49.390  1.00  0.00    +0.000 H 
ATOM    123  H23 UNL A   1      19.266  37.517  49.892  1.00  0.00    +0.000 H 
ATOM     21  C18 UNL A   1      18.223  37.369  49.698  1.00  0.00    +0.000 C 
ENDBRANCH   20   21
ENDBRANCH   22   20
ENDBRANCH   24   22
ENDBRANCH   25   24
ENDBRANCH   26   25
ENDBRANCH   27   26
ENDBRANCH   28   27
ENDBRANCH   29   28
ENDBRANCH   30   29
ENDBRANCH   31   30
ENDBRANCH   32   31
ENDBRANCH   34   32
ENDBRANCH   38   37
BRANCH   42   43
ATOM     43  C35 UNL A   1      31.359  34.984  43.572  1.00  0.00    +0.000 C 
ATOM     44  C36 UNL A   1      31.067  36.356  43.537  1.00  0.00    +0.000 C 
ATOM     45  F1  UNL A   1      30.666  36.989  44.650  1.00  0.00    +0.000 F 
ATOM     46  C37 UNL A   1      31.155  37.075  42.348  1.00  0.00    +0.000 C 
ATOM     47  F2  UNL A   1      30.835  38.376  42.329  1.00  0.00    +0.000 F 
ATOM     48  C38 UNL A   1      31.561  36.444  41.181  1.00  0.00    +0.000 C 
ATOM     49  F3  UNL A   1      31.650  37.139  40.039  1.00  0.00    +0.000 F 
ATOM     50  C39 UNL A   1      31.869  35.093  41.197  1.00  0.00    +0.000 C 
ATOM     51  F4  UNL A   1      32.269  34.484  40.072  1.00  0.00    +0.000 F 
ATOM     52  C40 UNL A   1      31.760  34.365  42.379  1.00  0.00    +0.000 C 
ATOM     53  F5  UNL A   1      32.055  33.056  42.362  1.00  0.00    +0.000 F 
ENDBRANCH   42   43
BRANCH   59   60
ATOM     65  C49 UNL A   1      38.179  34.036  50.115  1.00  0.00    +0.000 C 
ATOM     66  F8  UNL A   1      39.405  34.348  50.558  1.00  0.00    +0.000 F 
ATOM     67  C50 UNL A   1      37.994  32.923  49.310  1.00  0.00    +0.000 C 
ATOM     68  F9  UNL A   1      39.040  32.149  48.986  1.00  0.00    +0.000 F 
ATOM     69  C51 UNL A   1      36.725  32.610  48.832  1.00  0.00    +0.000 C 
ATOM     70  F10 UNL A   1      36.576  31.536  48.043  1.00  0.00    +0.000 F 
ATOM     60  C46 UNL A   1      35.615  33.401  49.165  1.00  0.00    +0.000 C 
ATOM     61  C47 UNL A   1      35.822  34.512  49.995  1.00  0.00    +0.000 C 
ATOM     62  F6  UNL A   1      34.792  35.306  50.327  1.00  0.00    +0.000 F 
ATOM     63  C48 UNL A   1      37.095  34.833  50.454  1.00  0.00    +0.000 C 
ATOM     64  F7  UNL A   1      37.278  35.923  51.213  1.00  0.00    +0.000 F 
ENDBRANCH   59   60
BRANCH   74   75
ATOM     75  C55 UNL A   1      30.608  29.306  51.723  1.00  0.00    +0.000 C 
ATOM     76  C56 UNL A   1      30.817  27.923  51.615  1.00  0.00    +0.000 C 
ATOM     77  F11 UNL A   1      31.084  27.379  50.419  1.00  0.00    +0.000 F 
ATOM     78  C57 UNL A   1      30.710  27.094  52.728  1.00  0.00    +0.000 C 
ATOM     79  F12 UNL A   1      30.874  25.771  52.592  1.00  0.00    +0.000 F 
ATOM     80  C58 UNL A   1      30.418  27.632  53.972  1.00  0.00    +0.000 C 
ATOM     81  F13 UNL A   1      30.315  26.833  55.043  1.00  0.00    +0.000 F 
ATOM     82  C59 UNL A   1      30.225  29.000  54.104  1.00  0.00    +0.000 C 
ATOM     83  F14 UNL A   1      29.952  29.524  55.306  1.00  0.00    +0.000 F 
ATOM     84  C60 UNL A   1      30.310  29.828  52.987  1.00  0.00    +0.000 C 
ATOM     85  F15 UNL A   1      30.107  31.145  53.139  1.00  0.00    +0.000 F 
ENDBRANCH   74   75
TORSDOF 27
ENDMDL
MODEL 4
REMARK VINA RESULT:      -6.7     42.884     49.255
ROOT
ATOM    140  H40 UNL A   1      33.930  35.368  44.699  1.00  0.00    +0.000 H 
ATOM    141  H41 UNL A   1      35.503  34.666  46.657  1.00  0.00    +0.000 H 
ATOM    142  H42 UNL A   1      31.827  32.843  47.221  1.00  0.00    +0.000 H 
ATOM    143  H43 UNL A   1      28.032  29.006  50.626  1.00  0.00    +0.000 H 
ATOM    144  H44 UNL A   1      26.470  29.771  48.773  1.00  0.00    +0.000 H 
ATOM    145  H45 UNL A   1      30.159  31.586  48.156  1.00  0.00    +0.000 H 
ATOM    146  H46 UNL A   1      33.094  30.076  51.952  1.00  0.00    +0.000 H 
ATOM    147  H47 UNL A   1      34.879  31.668  51.040  1.00  0.00    +0.000 H 
ATOM    148  H48 UNL A   1      28.857  34.203  43.416  1.00  0.00    +0.000 H 
ATOM    149  H49 UNL A   1      26.899  33.031  44.579  1.00  0.00    +0.000 H 
ATOM     38  C31 UNL A   1      27.650  31.590  46.923  1.00  0.00    +0.000 C 
ATOM     39  C32 UNL A   1      28.517  32.476  46.069  1.00  0.00    +0.000 C 
ATOM     40  N4  UNL A   1      29.784  32.782  46.210  1.00  0.00    +0.000 N 
ATOM     41  C33 UNL A   1      30.102  33.588  45.126  1.00  0.00    +0.000 C 
ATOM     42  C34 UNL A   1      31.280  34.192  44.837  1.00  0.00    +0.000 C 
ATOM     54  C41 UNL A   1      32.456  34.121  45.662  1.00  0.00    +0.000 C 
ATOM     55  C42 UNL A   1      33.680  34.742  45.479  1.00  0.00    +0.000 C 
ATOM     56  C43 UNL A   1      34.522  34.373  46.536  1.00  0.00    +0.000 C 
ATOM     57  C44 UNL A   1      33.810  33.546  47.390  1.00  0.00    +0.000 C 
ATOM     58  N5  UNL A   1      32.550  33.391  46.836  1.00  0.00    +0.000 N 
ATOM     59  C45 UNL A   1      34.243  32.946  48.624  1.00  0.00    +0.000 C 
ATOM     71  C52 UNL A   1      33.499  32.102  49.380  1.00  0.00    +0.000 C 
ATOM     72  N6  UNL A   1      32.204  31.652  49.166  1.00  0.00    +0.000 N 
ATOM     73  C53 UNL A   1      31.934  30.846  50.163  1.00  0.00    +0.000 C 
ATOM     74  C54 UNL A   1      30.664  30.099  50.461  1.00  0.00    +0.000 C 
ATOM     86  C61 UNL A   1      29.589  30.274  49.669  1.00  0.00    +0.000 C 
ATOM     87  C62 UNL A   1      28.282  29.654  49.861  1.00  0.00    +0.000 C 
ATOM     88  C63 UNL A   1      27.453  30.061  48.885  1.00  0.00    +0.000 C 
ATOM     89  C64 UNL A   1      28.172  30.982  48.004  1.00  0.00    +0.000 C 
ATOM     90  N7  UNL A   1      29.434  31.043  48.542  1.00  0.00    +0.000 N 
ATOM     91  C65 UNL A   1      33.043  30.675  51.113  1.00  0.00    +0.000 C 
ATOM     92  C66 UNL A   1      33.957  31.491  50.610  1.00  0.00    +0.000 C 
ATOM     93  C67 UNL A   1      28.906  33.703  44.318  1.00  0.00    +0.000 C 
ATOM     94  C68 UNL A   1      27.883  33.080  44.886  1.00  0.00    +0.000 C 
ENDROOT
BRANCH   38   37
ATOM     34  C27 UNL A   1      23.524  30.883  45.959  1.00  0.00    +0.000 C 
ATOM     35  C28 UNL A   1      24.503  29.952  45.588  1.00  0.00    +0.000 C 
ATOM     36  C29 UNL A   1      25.846  30.184  45.894  1.00  0.00    +0.000 C 
ATOM     37  C30 UNL A   1      26.230  31.360  46.557  1.00  0.00    +0.000 C 
ATOM    138  H38 UNL A   1      24.231  29.092  45.086  1.00  0.00    +0.000 H 
ATOM    139  H39 UNL A   1      26.560  29.486  45.631  1.00  0.00    +0.000 H 
ATOM    150  H50 UNL A   1      25.521  33.177  47.372  1.00  0.00    +0.000 H 
ATOM    151  H51 UNL A   1      23.176  32.703  46.973  1.00  0.00    +0.000 H 
ATOM     95  C69 UNL A   1      25.247  32.295  46.913  1.00  0.00    +0.000 C 
ATOM     96  C70 UNL A   1      23.898  32.038  46.653  1.00  0.00    +0.000 C 
BRANCH   34   32
ATOM     33  O4  UNL A   1      21.742  29.375  45.750  1.00  0.00    +0.000 O 
ATOM     32  C26 UNL A   1      22.104  30.549  45.696  1.00  0.00    +0.000 C 
BRANCH   32   31
ATOM    137  H37 UNL A   1      21.525  32.276  44.878  1.00  0.00    +0.000 H 
ATOM     31  N3  UNL A   1      21.181  31.520  45.405  1.00  0.00    +0.000 N 
BRANCH   31   30
ATOM     30  C25 UNL A   1      19.773  31.606  45.749  1.00  0.00    +0.000 C 
ATOM    135  H35 UNL A   1      19.456  30.666  46.150  1.00  0.00    +0.000 H 
ATOM    136  H36 UNL A   1      19.656  32.391  46.468  1.00  0.00    +0.000 H 
BRANCH   30   29
ATOM    133  H33 UNL A   1      19.000  31.146  43.830  1.00  0.00    +0.000 H 
ATOM     29  C24 UNL A   1      18.906  31.945  44.536  1.00  0.00    +0.000 C 
ATOM    134  H34 UNL A   1      17.912  32.073  44.912  1.00  0.00    +0.000 H 
BRANCH   29   28
ATOM    131  H31 UNL A   1      20.327  33.340  43.807  1.00  0.00    +0.000 H 
ATOM     28  C23 UNL A   1      19.261  33.253  43.821  1.00  0.00    +0.000 C 
ATOM    132  H32 UNL A   1      18.815  33.181  42.850  1.00  0.00    +0.000 H 
BRANCH   28   27
ATOM    129  H29 UNL A   1      19.220  34.722  45.355  1.00  0.00    +0.000 H 
ATOM    130  H30 UNL A   1      18.822  35.302  43.707  1.00  0.00    +0.000 H 
ATOM     27  C22 UNL A   1      18.693  34.535  44.442  1.00  0.00    +0.000 C 
BRANCH   27   26
ATOM     26  C21 UNL A   1      17.194  34.506  44.762  1.00  0.00    +0.000 C 
ATOM    127  H27 UNL A   1      16.661  34.300  43.858  1.00  0.00    +0.000 H 
ATOM    128  H28 UNL A   1      17.052  33.750  45.507  1.00  0.00    +0.000 H 
BRANCH   26   25
ATOM     25  C20 UNL A   1      16.656  35.811  45.350  1.00  0.00    +0.000 C 
ATOM    125  H25 UNL A   1      17.397  36.575  45.229  1.00  0.00    +0.000 H 
ATOM    126  H26 UNL A   1      15.754  36.060  44.833  1.00  0.00    +0.000 H 
BRANCH   25   24
ATOM    124  H24 UNL A   1      15.799  34.894  46.987  1.00  0.00    +0.000 H 
ATOM     24  N2  UNL A   1      16.344  35.682  46.759  1.00  0.00    +0.000 N 
BRANCH   24   22
ATOM     22  C19 UNL A   1      16.674  36.469  47.818  1.00  0.00    +0.000 C 
ATOM     23  O3  UNL A   1      15.938  37.437  48.042  1.00  0.00    +0.000 O 
BRANCH   22   20
ATOM     20  C17 UNL A   1      17.897  36.212  48.712  1.00  0.00    +0.000 C 
ATOM    120  H20 UNL A   1      17.720  35.276  49.198  1.00  0.00    +0.000 H 
BRANCH   20   19
ATOM     97  C71 UNL A   1      19.665  36.973  47.098  1.00  0.00    +0.000 C 
ATOM     98  C72 UNL A   1      20.849  36.803  46.379  1.00  0.00    +0.000 C 
ATOM     99  F16 UNL A   1      21.226  37.808  45.573  1.00  0.00    +0.000 F 
ATOM     16  C13 UNL A   1      21.621  35.632  46.473  1.00  0.00    +0.000 C 
ATOM     17  C14 UNL A   1      21.109  34.611  47.291  1.00  0.00    +0.000 C 
ATOM     18  C15 UNL A   1      19.897  34.760  47.984  1.00  0.00    +0.000 C 
ATOM     19  C16 UNL A   1      19.169  35.954  47.922  1.00  0.00    +0.000 C 
ATOM    118  H18 UNL A   1      21.638  33.730  47.386  1.00  0.00    +0.000 H 
ATOM    119  H19 UNL A   1      19.535  33.975  48.549  1.00  0.00    +0.000 H 
ATOM    152  H52 UNL A   1      19.147  37.861  47.021  1.00  0.00    +0.000 H 
BRANCH   16   15
ATOM    100  C73 UNL A   1      24.057  36.165  46.143  1.00  0.00    +0.000 C 
ATOM     11  C8  UNL A   1      25.238  36.126  45.393  1.00  0.00    +0.000 C 
ATOM     12  C9  UNL A   1      25.291  35.342  44.241  1.00  0.00    +0.000 C 
ATOM     13  C10 UNL A   1      24.182  34.590  43.859  1.00  0.00    +0.000 C 
ATOM     14  C11 UNL A   1      22.996  34.665  44.593  1.00  0.00    +0.000 C 
ATOM     15  C12 UNL A   1      22.898  35.473  45.740  1.00  0.00    +0.000 C 
ATOM    115  H15 UNL A   1      26.151  35.319  43.672  1.00  0.00    +0.000 H 
ATOM    116  H16 UNL A   1      24.238  33.976  43.031  1.00  0.00    +0.000 H 
ATOM    117  H17 UNL A   1      22.176  34.118  44.290  1.00  0.00    +0.000 H 
ATOM    153  H53 UNL A   1      24.035  36.716  47.015  1.00  0.00    +0.000 H 
BRANCH   11   10
ATOM     10  N1  UNL A   1      26.342  36.944  45.680  1.00  0.00    +0.000 N 
ATOM    114  H14 UNL A   1      26.416  37.764  45.141  1.00  0.00    +0.000 H 
BRANCH   10    8
ATOM      9  O2  UNL A   1      28.192  37.601  46.793  1.00  0.00    +0.000 O 
ATOM      8  C7  UNL A   1      27.328  36.756  46.612  1.00  0.00    +0.000 C 
BRANCH    8    7
ATOM      7  O1  UNL A   1      27.304  35.524  47.183  1.00  0.00    +0.000 O 
BRANCH    7    6
ATOM    113  H13 UNL A   1      26.356  35.102  48.937  1.00  0.00    +0.000 H 
ATOM      6  C6  UNL A   1      27.314  35.454  48.618  1.00  0.00    +0.000 C 
ATOM    112  H12 UNL A   1      27.519  36.430  49.009  1.00  0.00    +0.000 H 
BRANCH    6    5
ATOM      5  C5  UNL A   1      28.375  34.481  49.143  1.00  0.00    +0.000 C 
ATOM    110  H10 UNL A   1      27.868  33.620  49.527  1.00  0.00    +0.000 H 
ATOM    111  H11 UNL A   1      29.015  34.274  48.310  1.00  0.00    +0.000 H 
BRANCH    5    4
ATOM    108  H8  UNL A   1      28.862  35.926  50.622  1.00  0.00    +0.000 H 
ATOM      4  C4  UNL A   1      29.291  35.020  50.249  1.00  0.00    +0.000 C 
ATOM    109  H9  UNL A   1      29.360  34.245  50.983  1.00  0.00    +0.000 H 
BRANCH    4    3
ATOM    106  H6  UNL A   1      31.180  35.947  50.557  1.00  0.00    +0.000 H 
ATOM      3  C3  UNL A   1      30.731  35.322  49.812  1.00  0.00    +0.000 C 
ATOM    107  H7  UNL A   1      31.217  34.375  49.705  1.00  0.00    +0.000 H 
BRANCH    3    2
ATOM    105  H5  UNL A   1      30.084  36.760  48.404  1.00  0.00    +0.000 H 
ATOM      2  C2  UNL A   1      30.861  36.026  48.460  1.00  0.00    +0.000 C 
ATOM    104  H4  UNL A   1      30.774  35.295  47.684  1.00  0.00    +0.000 H 
BRANCH    2    1
ATOM      1  C1  UNL A   1      32.189  36.750  48.299  1.00  0.00    +0.000 C 
ATOM    101  H1  UNL A   1      32.164  37.668  48.850  1.00  0.00    +0.000 H 
ATOM    102  H2  UNL A   1      32.357  36.960  47.263  1.00  0.00    +0.000 H 
ATOM    103  H3  UNL A   1      32.979  36.133  48.671  1.00  0.00    +0.000 H 
ENDBRANCH    2    1
ENDBRANCH    3    2
ENDBRANCH    4    3
ENDBRANCH    5    4
ENDBRANCH    6    5
ENDBRANCH    7    6
ENDBRANCH    8    7
ENDBRANCH   10    8
ENDBRANCH   11   10
ENDBRANCH   16   15
ENDBRANCH   20   19
BRANCH   20   21
ATOM    121  H21 UNL A   1      19.029  37.205  50.231  1.00  0.00    +0.000 H 
ATOM    122  H22 UNL A   1      17.394  36.807  50.704  1.00  0.00    +0.000 H 
ATOM    123  H23 UNL A   1      17.688  38.140  49.614  1.00  0.00    +0.000 H 
ATOM     21  C18 UNL A   1      18.011  37.162  49.904  1.00  0.00    +0.000 C 
ENDBRANCH   20   21
ENDBRANCH   22   20
ENDBRANCH   24   22
ENDBRANCH   25   24
ENDBRANCH   26   25
ENDBRANCH   27   26
ENDBRANCH   28   27
ENDBRANCH   29   28
ENDBRANCH   30   29
ENDBRANCH   31   30
ENDBRANCH   32   31
ENDBRANCH   34   32
ENDBRANCH   38   37
BRANCH   42   43
ATOM     43  C35 UNL A   1      31.354  34.993  43.572  1.00  0.00    +0.000 C 
ATOM     44  C36 UNL A   1      31.671  34.396  42.343  1.00  0.00    +0.000 C 
ATOM     45  F1  UNL A   1      31.968  33.089  42.286  1.00  0.00    +0.000 F 
ATOM     46  C37 UNL A   1      31.717  35.149  41.173  1.00  0.00    +0.000 C 
ATOM     47  F2  UNL A   1      32.060  34.566  40.016  1.00  0.00    +0.000 F 
ATOM     48  C38 UNL A   1      31.420  36.504  41.205  1.00  0.00    +0.000 C 
ATOM     49  F3  UNL A   1      31.459  37.226  40.076  1.00  0.00    +0.000 F 
ATOM     50  C39 UNL A   1      31.089  37.111  42.406  1.00  0.00    +0.000 C 
ATOM     51  F4  UNL A   1      30.794  38.418  42.437  1.00  0.00    +0.000 F 
ATOM     52  C40 UNL A   1      31.064  36.366  43.582  1.00  0.00    +0.000 C 
ATOM     53  F5  UNL A   1      30.750  36.982  44.732  1.00  0.00    +0.000 F 
ENDBRANCH   42   43
BRANCH   59   60
ATOM     65  C49 UNL A   1      38.187  33.877  50.074  1.00  0.00    +0.000 C 
ATOM     66  F8  UNL A   1      39.418  34.169  50.517  1.00  0.00    +0.000 F 
ATOM     67  C50 UNL A   1      37.989  32.783  49.246  1.00  0.00    +0.000 C 
ATOM     68  F9  UNL A   1      39.027  32.009  48.898  1.00  0.00    +0.000 F 
ATOM     69  C51 UNL A   1      36.715  32.492  48.768  1.00  0.00    +0.000 C 
ATOM     70  F10 UNL A   1      36.552  31.437  47.956  1.00  0.00    +0.000 F 
ATOM     60  C46 UNL A   1      35.613  33.284  49.125  1.00  0.00    +0.000 C 
ATOM     61  C47 UNL A   1      35.833  34.374  49.979  1.00  0.00    +0.000 C 
ATOM     62  F6  UNL A   1      34.811  35.168  50.335  1.00  0.00    +0.000 F 
ATOM     63  C48 UNL A   1      37.111  34.674  50.437  1.00  0.00    +0.000 C 
ATOM     64  F7  UNL A   1      37.307  35.746  51.220  1.00  0.00    +0.000 F 
ENDBRANCH   59   60
BRANCH   74   75
ATOM     75  C55 UNL A   1      30.571  29.206  51.643  1.00  0.00    +0.000 C 
ATOM     76  C56 UNL A   1      30.311  29.729  52.917  1.00  0.00    +0.000 C 
ATOM     77  F11 UNL A   1      30.160  31.052  53.080  1.00  0.00    +0.000 F 
ATOM     78  C57 UNL A   1      30.249  28.899  54.034  1.00  0.00    +0.000 C 
ATOM     79  F12 UNL A   1      30.040  29.428  55.247  1.00  0.00    +0.000 F 
ATOM     80  C58 UNL A   1      30.418  27.530  53.893  1.00  0.00    +0.000 C 
ATOM     81  F13 UNL A   1      30.358  26.731  54.968  1.00  0.00    +0.000 F 
ATOM     82  C59 UNL A   1      30.658  26.990  52.638  1.00  0.00    +0.000 C 
ATOM     83  F14 UNL A   1      30.814  25.666  52.498  1.00  0.00    +0.000 F 
ATOM     84  C60 UNL A   1      30.744  27.821  51.524  1.00  0.00    +0.000 C 
ATOM     85  F15 UNL A   1      30.989  27.275  50.324  1.00  0.00    +0.000 F 
ENDBRANCH   74   75
TORSDOF 27
ENDMDL
MODEL 5
REMARK VINA RESULT:      -6.6     62.480     68.605
ROOT
ATOM    140  H40 UNL A   1      48.207   7.126  53.760  1.00  0.00    +0.000 H 
ATOM    141  H41 UNL A   1      50.257   8.545  54.525  1.00  0.00    +0.000 H 
ATOM    142  H42 UNL A   1      48.676  10.275  51.110  1.00  0.00    +0.000 H 
ATOM    143  H43 UNL A   1      48.790  14.880  46.695  1.00  0.00    +0.000 H 
ATOM    144  H44 UNL A   1      46.855  13.441  45.894  1.00  0.00    +0.000 H 
ATOM    145  H45 UNL A   1      48.393  11.700  49.342  1.00  0.00    +0.000 H 
ATOM    146  H46 UNL A   1      52.273  14.584  50.733  1.00  0.00    +0.000 H 
ATOM    147  H47 UNL A   1      52.736  12.859  52.567  1.00  0.00    +0.000 H 
ATOM    148  H48 UNL A   1      44.725   7.527  49.704  1.00  0.00    +0.000 H 
ATOM    149  H49 UNL A   1      44.551   8.939  47.576  1.00  0.00    +0.000 H 
ATOM     38  C31 UNL A   1      46.357  11.145  47.509  1.00  0.00    +0.000 C 
ATOM     39  C32 UNL A   1      46.270  10.058  48.546  1.00  0.00    +0.000 C 
ATOM     40  N4  UNL A   1      46.991   9.881  49.626  1.00  0.00    +0.000 N 
ATOM     41  C33 UNL A   1      46.465   8.761  50.254  1.00  0.00    +0.000 C 
ATOM     42  C34 UNL A   1      46.885   8.150  51.388  1.00  0.00    +0.000 C 
ATOM     54  C41 UNL A   1      48.027   8.562  52.160  1.00  0.00    +0.000 C 
ATOM     55  C42 UNL A   1      48.562   7.974  53.294  1.00  0.00    +0.000 C 
ATOM     56  C43 UNL A   1      49.669   8.730  53.699  1.00  0.00    +0.000 C 
ATOM     57  C44 UNL A   1      49.838   9.770  52.799  1.00  0.00    +0.000 C 
ATOM     58  N5  UNL A   1      48.818   9.661  51.868  1.00  0.00    +0.000 N 
ATOM     59  C45 UNL A   1      50.857  10.786  52.783  1.00  0.00    +0.000 C 
ATOM     71  C52 UNL A   1      50.924  11.805  51.893  1.00  0.00    +0.000 C 
ATOM     72  N6  UNL A   1      50.079  12.090  50.828  1.00  0.00    +0.000 N 
ATOM     73  C53 UNL A   1      50.551  13.182  50.278  1.00  0.00    +0.000 C 
ATOM     74  C54 UNL A   1      50.053  13.925  49.070  1.00  0.00    +0.000 C 
ATOM     86  C61 UNL A   1      49.015  13.432  48.368  1.00  0.00    +0.000 C 
ATOM     87  C62 UNL A   1      48.455  14.018  47.154  1.00  0.00    +0.000 C 
ATOM     88  C63 UNL A   1      47.435  13.255  46.727  1.00  0.00    +0.000 C 
ATOM     89  C64 UNL A   1      47.278  12.118  47.635  1.00  0.00    +0.000 C 
ATOM     90  N7  UNL A   1      48.254  12.309  48.582  1.00  0.00    +0.000 N 
ATOM     91  C65 UNL A   1      51.739  13.728  50.949  1.00  0.00    +0.000 C 
ATOM     92  C66 UNL A   1      51.946  12.831  51.902  1.00  0.00    +0.000 C 
ATOM     93  C67 UNL A   1      45.344   8.314  49.454  1.00  0.00    +0.000 C 
ATOM     94  C68 UNL A   1      45.216   9.048  48.357  1.00  0.00    +0.000 C 
ENDROOT
BRANCH   38   37
ATOM     34  C27 UNL A   1      43.565  11.118  44.244  1.00  0.00    +0.000 C 
ATOM     35  C28 UNL A   1      44.810  10.491  44.111  1.00  0.00    +0.000 C 
ATOM     36  C29 UNL A   1      45.723  10.505  45.169  1.00  0.00    +0.000 C 
ATOM     37  C30 UNL A   1      45.409  11.165  46.367  1.00  0.00    +0.000 C 
ATOM    138  H38 UNL A   1      45.055  10.017  43.227  1.00  0.00    +0.000 H 
ATOM    139  H39 UNL A   1      46.632  10.027  45.068  1.00  0.00    +0.000 H 
ATOM    150  H50 UNL A   1      43.937  12.318  47.354  1.00  0.00    +0.000 H 
ATOM    151  H51 UNL A   1      42.299  12.164  45.572  1.00  0.00    +0.000 H 
ATOM     95  C69 UNL A   1      44.166  11.803  46.489  1.00  0.00    +0.000 C 
ATOM     96  C70 UNL A   1      43.234  11.744  45.450  1.00  0.00    +0.000 C 
BRANCH   34   32
ATOM     33  O4  UNL A   1      42.498   9.927  42.531  1.00  0.00    +0.000 O 
ATOM     32  C26 UNL A   1      42.595  10.996  43.130  1.00  0.00    +0.000 C 
BRANCH   32   31
ATOM    137  H37 UNL A   1      41.461  12.598  43.499  1.00  0.00    +0.000 H 
ATOM     31  N3  UNL A   1      41.796  12.045  42.757  1.00  0.00    +0.000 N 
BRANCH   31   30
ATOM     30  C25 UNL A   1      41.366  12.471  41.436  1.00  0.00    +0.000 C 
ATOM    135  H35 UNL A   1      41.868  11.878  40.701  1.00  0.00    +0.000 H 
ATOM    136  H36 UNL A   1      40.304  12.343  41.378  1.00  0.00    +0.000 H 
BRANCH   30   29
ATOM    133  H33 UNL A   1      41.898  14.060  40.139  1.00  0.00    +0.000 H 
ATOM     29  C24 UNL A   1      41.678  13.945  41.180  1.00  0.00    +0.000 C 
ATOM    134  H34 UNL A   1      40.814  14.489  41.499  1.00  0.00    +0.000 H 
BRANCH   29   28
ATOM    131  H31 UNL A   1      43.332  13.702  42.486  1.00  0.00    +0.000 H 
ATOM     28  C23 UNL A   1      42.857  14.515  41.978  1.00  0.00    +0.000 C 
ATOM    132  H32 UNL A   1      43.481  15.006  41.259  1.00  0.00    +0.000 H 
BRANCH   28   27
ATOM    129  H29 UNL A   1      41.573  16.023  42.746  1.00  0.00    +0.000 H 
ATOM    130  H30 UNL A   1      42.484  15.076  43.965  1.00  0.00    +0.000 H 
ATOM     27  C22 UNL A   1      42.509  15.583  43.022  1.00  0.00    +0.000 C 
BRANCH   27   26
ATOM     26  C21 UNL A   1      43.534  16.712  43.178  1.00  0.00    +0.000 C 
ATOM    127  H27 UNL A   1      43.426  17.381  42.351  1.00  0.00    +0.000 H 
ATOM    128  H28 UNL A   1      43.334  17.182  44.119  1.00  0.00    +0.000 H 
BRANCH   26   25
ATOM     25  C20 UNL A   1      44.986  16.234  43.224  1.00  0.00    +0.000 C 
ATOM    125  H25 UNL A   1      45.055  15.405  43.898  1.00  0.00    +0.000 H 
ATOM    126  H26 UNL A   1      45.273  15.953  42.233  1.00  0.00    +0.000 H 
BRANCH   25   24
ATOM    124  H24 UNL A   1      46.302  17.797  42.947  1.00  0.00    +0.000 H 
ATOM     24  N2  UNL A   1      45.886  17.276  43.672  1.00  0.00    +0.000 N 
BRANCH   24   22
ATOM     22  C19 UNL A   1      46.254  17.654  44.926  1.00  0.00    +0.000 C 
ATOM     23  O3  UNL A   1      47.468  17.761  45.140  1.00  0.00    +0.000 O 
BRANCH   22   20
ATOM     20  C17 UNL A   1      45.249  17.934  46.053  1.00  0.00    +0.000 C 
ATOM    120  H20 UNL A   1      44.293  18.033  45.583  1.00  0.00    +0.000 H 
BRANCH   20   19
ATOM     97  C71 UNL A   1      45.920  16.607  48.077  1.00  0.00    +0.000 C 
ATOM     98  C72 UNL A   1      45.763  15.559  48.985  1.00  0.00    +0.000 C 
ATOM     99  F16 UNL A   1      46.668  15.463  49.972  1.00  0.00    +0.000 F 
ATOM     16  C13 UNL A   1      44.715  14.628  48.881  1.00  0.00    +0.000 C 
ATOM     17  C14 UNL A   1      43.859  14.773  47.777  1.00  0.00    +0.000 C 
ATOM     18  C15 UNL A   1      44.037  15.799  46.836  1.00  0.00    +0.000 C 
ATOM     19  C16 UNL A   1      45.053  16.751  46.985  1.00  0.00    +0.000 C 
ATOM    118  H18 UNL A   1      43.079  14.108  47.655  1.00  0.00    +0.000 H 
ATOM    119  H19 UNL A   1      43.409  15.853  46.019  1.00  0.00    +0.000 H 
ATOM    152  H52 UNL A   1      46.686  17.284  48.210  1.00  0.00    +0.000 H 
BRANCH   16   15
ATOM    100  C73 UNL A   1      45.525  13.247  50.822  1.00  0.00    +0.000 C 
ATOM     11  C8  UNL A   1      45.423  12.149  51.683  1.00  0.00    +0.000 C 
ATOM     12  C9  UNL A   1      44.280  11.351  51.639  1.00  0.00    +0.000 C 
ATOM     13  C10 UNL A   1      43.246  11.663  50.760  1.00  0.00    +0.000 C 
ATOM     14  C11 UNL A   1      43.375  12.738  49.877  1.00  0.00    +0.000 C 
ATOM     15  C12 UNL A   1      44.529  13.543  49.872  1.00  0.00    +0.000 C 
ATOM    115  H15 UNL A   1      44.201  10.530  52.259  1.00  0.00    +0.000 H 
ATOM    116  H16 UNL A   1      42.383  11.096  50.760  1.00  0.00    +0.000 H 
ATOM    117  H17 UNL A   1      42.610  12.948  49.218  1.00  0.00    +0.000 H 
ATOM    153  H53 UNL A   1      46.356  13.857  50.884  1.00  0.00    +0.000 H 
BRANCH   11   10
ATOM     10  N1  UNL A   1      46.479  11.737  52.510  1.00  0.00    +0.000 N 
ATOM    114  H14 UNL A   1      47.181  11.205  52.071  1.00  0.00    +0.000 H 
BRANCH   10    8
ATOM      9  O2  UNL A   1      46.867  11.062  54.628  1.00  0.00    +0.000 O 
ATOM      8  C7  UNL A   1      46.666  11.978  53.845  1.00  0.00    +0.000 C 
BRANCH    8    7
ATOM      7  O1  UNL A   1      46.475  13.278  54.192  1.00  0.00    +0.000 O 
BRANCH    7    6
ATOM    113  H13 UNL A   1      45.349  13.535  55.871  1.00  0.00    +0.000 H 
ATOM      6  C6  UNL A   1      45.227  13.625  54.813  1.00  0.00    +0.000 C 
ATOM    112  H12 UNL A   1      44.466  12.963  54.451  1.00  0.00    +0.000 H 
BRANCH    6    5
ATOM      5  C5  UNL A   1      44.810  15.068  54.506  1.00  0.00    +0.000 C 
ATOM    110  H10 UNL A   1      43.772  15.168  54.745  1.00  0.00    +0.000 H 
ATOM    111  H11 UNL A   1      45.455  15.686  55.096  1.00  0.00    +0.000 H 
BRANCH    5    4
ATOM    108  H8  UNL A   1      45.763  14.917  52.613  1.00  0.00    +0.000 H 
ATOM      4  C4  UNL A   1      45.005  15.528  53.055  1.00  0.00    +0.000 C 
ATOM    109  H9  UNL A   1      44.049  15.433  52.582  1.00  0.00    +0.000 H 
BRANCH    4    3
ATOM    106  H6  UNL A   1      45.126  17.527  53.770  1.00  0.00    +0.000 H 
ATOM      3  C3  UNL A   1      45.419  16.996  52.887  1.00  0.00    +0.000 C 
ATOM    107  H7  UNL A   1      46.476  16.993  52.726  1.00  0.00    +0.000 H 
BRANCH    3    2
ATOM    105  H5  UNL A   1      45.440  17.523  50.840  1.00  0.00    +0.000 H 
ATOM      2  C2  UNL A   1      44.803  17.706  51.680  1.00  0.00    +0.000 C 
ATOM    104  H4  UNL A   1      44.726  18.750  51.900  1.00  0.00    +0.000 H 
BRANCH    2    1
ATOM      1  C1  UNL A   1      43.420  17.180  51.329  1.00  0.00    +0.000 C 
ATOM    101  H1  UNL A   1      43.374  16.131  51.536  1.00  0.00    +0.000 H 
ATOM    102  H2  UNL A   1      43.227  17.348  50.290  1.00  0.00    +0.000 H 
ATOM    103  H3  UNL A   1      42.685  17.691  51.915  1.00  0.00    +0.000 H 
ENDBRANCH    2    1
ENDBRANCH    3    2
ENDBRANCH    4    3
ENDBRANCH    5    4
ENDBRANCH    6    5
ENDBRANCH    7    6
ENDBRANCH    8    7
ENDBRANCH   10    8
ENDBRANCH   11   10
ENDBRANCH   16   15
ENDBRANCH   20   19
BRANCH   20   21
ATOM    121  H21 UNL A   1      45.155  20.071  46.007  1.00  0.00    +0.000 H 
ATOM    122  H22 UNL A   1      46.427  19.433  47.024  1.00  0.00    +0.000 H 
ATOM    123  H23 UNL A   1      44.764  19.372  47.560  1.00  0.00    +0.000 H 
ATOM     21  C18 UNL A   1      45.411  19.305  46.710  1.00  0.00    +0.000 C 
ENDBRANCH   20   21
ENDBRANCH   22   20
ENDBRANCH   24   22
ENDBRANCH   25   24
ENDBRANCH   26   25
ENDBRANCH   27   26
ENDBRANCH   28   27
ENDBRANCH   29   28
ENDBRANCH   30   29
ENDBRANCH   31   30
ENDBRANCH   32   31
ENDBRANCH   34   32
ENDBRANCH   38   37
BRANCH   42   43
ATOM     43  C35 UNL A   1      46.106   6.960  51.862  1.00  0.00    +0.000 C 
ATOM     44  C36 UNL A   1      44.963   7.103  52.663  1.00  0.00    +0.000 C 
ATOM     45  F1  UNL A   1      44.571   8.321  53.067  1.00  0.00    +0.000 F 
ATOM     46  C37 UNL A   1      44.239   5.990  53.079  1.00  0.00    +0.000 C 
ATOM     47  F2  UNL A   1      43.172   6.146  53.875  1.00  0.00    +0.000 F 
ATOM     48  C38 UNL A   1      44.625   4.718  52.681  1.00  0.00    +0.000 C 
ATOM     49  F3  UNL A   1      43.923   3.648  53.078  1.00  0.00    +0.000 F 
ATOM     50  C39 UNL A   1      45.743   4.555  51.877  1.00  0.00    +0.000 C 
ATOM     51  F4  UNL A   1      46.113   3.328  51.485  1.00  0.00    +0.000 F 
ATOM     52  C40 UNL A   1      46.483   5.665  51.477  1.00  0.00    +0.000 C 
ATOM     53  F5  UNL A   1      47.566   5.476  50.707  1.00  0.00    +0.000 F 
ENDBRANCH   42   43
BRANCH   59   60
ATOM     65  C49 UNL A   1      53.961  10.610  55.761  1.00  0.00    +0.000 C 
ATOM     66  F8  UNL A   1      54.921  10.551  56.694  1.00  0.00    +0.000 F 
ATOM     67  C50 UNL A   1      52.807  11.342  55.997  1.00  0.00    +0.000 C 
ATOM     68  F9  UNL A   1      52.658  12.003  57.155  1.00  0.00    +0.000 F 
ATOM     69  C51 UNL A   1      51.800  11.387  55.038  1.00  0.00    +0.000 C 
ATOM     70  F10 UNL A   1      50.688  12.091  55.298  1.00  0.00    +0.000 F 
ATOM     60  C46 UNL A   1      51.938  10.710  53.817  1.00  0.00    +0.000 C 
ATOM     61  C47 UNL A   1      53.120   9.991  53.591  1.00  0.00    +0.000 C 
ATOM     62  F6  UNL A   1      53.289   9.316  52.443  1.00  0.00    +0.000 F 
ATOM     63  C48 UNL A   1      54.116   9.932  54.561  1.00  0.00    +0.000 C 
ATOM     64  F7  UNL A   1      55.221   9.205  54.341  1.00  0.00    +0.000 F 
ENDBRANCH   59   60
BRANCH   74   75
ATOM     75  C55 UNL A   1      50.722  15.170  48.619  1.00  0.00    +0.000 C 
ATOM     76  C56 UNL A   1      51.826  15.119  47.756  1.00  0.00    +0.000 C 
ATOM     77  F11 UNL A   1      52.297  13.934  47.342  1.00  0.00    +0.000 F 
ATOM     78  C57 UNL A   1      52.473  16.283  47.351  1.00  0.00    +0.000 C 
ATOM     79  F12 UNL A   1      53.551  16.206  46.558  1.00  0.00    +0.000 F 
ATOM     80  C58 UNL A   1      52.015  17.520  47.779  1.00  0.00    +0.000 C 
ATOM     81  F13 UNL A   1      52.639  18.641  47.389  1.00  0.00    +0.000 F 
ATOM     82  C59 UNL A   1      50.913  17.594  48.619  1.00  0.00    +0.000 C 
ATOM     83  F14 UNL A   1      50.462  18.788  49.028  1.00  0.00    +0.000 F 
ATOM     84  C60 UNL A   1      50.278  16.429  49.044  1.00  0.00    +0.000 C 
ATOM     85  F15 UNL A   1      49.223  16.527  49.865  1.00  0.00    +0.000 F 
ENDBRANCH   74   75
TORSDOF 27
ENDMDL
MODEL 6
REMARK VINA RESULT:      -6.5     44.135     46.703
ROOT
ATOM    140  H40 UNL A   1      18.228  35.056  48.203  1.00  0.00    +0.000 H 
ATOM    141  H41 UNL A   1      20.189  33.705  47.139  1.00  0.00    +0.000 H 
ATOM    142  H42 UNL A   1      21.502  37.568  47.846  1.00  0.00    +0.000 H 
ATOM    143  H43 UNL A   1      26.135  41.950  47.631  1.00  0.00    +0.000 H 
ATOM    144  H44 UNL A   1      24.194  43.293  48.574  1.00  0.00    +0.000 H 
ATOM    145  H45 UNL A   1      22.855  39.413  47.913  1.00  0.00    +0.000 H 
ATOM    146  H46 UNL A   1      26.757  36.921  45.945  1.00  0.00    +0.000 H 
ATOM    147  H47 UNL A   1      25.174  34.931  45.648  1.00  0.00    +0.000 H 
ATOM    148  H48 UNL A   1      17.706  40.109  49.916  1.00  0.00    +0.000 H 
ATOM    149  H49 UNL A   1      19.103  42.249  49.752  1.00  0.00    +0.000 H 
ATOM     38  C31 UNL A   1      21.774  41.812  48.856  1.00  0.00    +0.000 C 
ATOM     39  C32 UNL A   1      20.662  40.805  48.958  1.00  0.00    +0.000 C 
ATOM     40  N4  UNL A   1      20.667  39.529  48.659  1.00  0.00    +0.000 N 
ATOM     41  C33 UNL A   1      19.404  39.057  48.987  1.00  0.00    +0.000 C 
ATOM     42  C34 UNL A   1      18.900  37.808  48.832  1.00  0.00    +0.000 C 
ATOM     54  C41 UNL A   1      19.615  36.708  48.244  1.00  0.00    +0.000 C 
ATOM     55  C42 UNL A   1      19.170  35.420  47.996  1.00  0.00    +0.000 C 
ATOM     56  C43 UNL A   1      20.219  34.698  47.415  1.00  0.00    +0.000 C 
ATOM     57  C44 UNL A   1      21.306  35.545  47.276  1.00  0.00    +0.000 C 
ATOM     58  N5  UNL A   1      20.925  36.771  47.799  1.00  0.00    +0.000 N 
ATOM     59  C45 UNL A   1      22.596  35.264  46.705  1.00  0.00    +0.000 C 
ATOM     71  C52 UNL A   1      23.630  36.137  46.652  1.00  0.00    +0.000 C 
ATOM     72  N6  UNL A   1      23.686  37.451  47.099  1.00  0.00    +0.000 N 
ATOM     73  C53 UNL A   1      24.900  37.868  46.837  1.00  0.00    +0.000 C 
ATOM     74  C54 UNL A   1      25.509  39.222  47.076  1.00  0.00    +0.000 C 
ATOM     86  C61 UNL A   1      24.746  40.214  47.573  1.00  0.00    +0.000 C 
ATOM     87  C62 UNL A   1      25.187  41.585  47.813  1.00  0.00    +0.000 C 
ATOM     88  C63 UNL A   1      24.160  42.297  48.307  1.00  0.00    +0.000 C 
ATOM     89  C64 UNL A   1      22.985  41.431  48.407  1.00  0.00    +0.000 C 
ATOM     90  N7  UNL A   1      23.428  40.212  47.956  1.00  0.00    +0.000 N 
ATOM     91  C65 UNL A   1      25.763  36.853  46.215  1.00  0.00    +0.000 C 
ATOM     92  C66 UNL A   1      24.929  35.831  46.089  1.00  0.00    +0.000 C 
ATOM     93  C67 UNL A   1      18.664  40.174  49.536  1.00  0.00    +0.000 C 
ATOM     94  C68 UNL A   1      19.377  41.290  49.487  1.00  0.00    +0.000 C 
ENDROOT
BRANCH   38   37
ATOM     34  C27 UNL A   1      21.023  45.858  50.088  1.00  0.00    +0.000 C 
ATOM     35  C28 UNL A   1      21.140  45.547  48.728  1.00  0.00    +0.000 C 
ATOM     36  C29 UNL A   1      21.392  44.234  48.325  1.00  0.00    +0.000 C 
ATOM     37  C30 UNL A   1      21.550  43.217  49.280  1.00  0.00    +0.000 C 
ATOM    138  H38 UNL A   1      21.041  46.292  48.019  1.00  0.00    +0.000 H 
ATOM    139  H39 UNL A   1      21.462  44.009  47.320  1.00  0.00    +0.000 H 
ATOM    150  H50 UNL A   1      21.591  42.805  51.353  1.00  0.00    +0.000 H 
ATOM    151  H51 UNL A   1      21.007  45.056  52.042  1.00  0.00    +0.000 H 
ATOM     95  C69 UNL A   1      21.445  43.538  50.641  1.00  0.00    +0.000 C 
ATOM     96  C70 UNL A   1      21.142  44.842  51.041  1.00  0.00    +0.000 C 
BRANCH   34   32
ATOM     33  O4  UNL A   1      19.863  47.870  49.764  1.00  0.00    +0.000 O 
ATOM     32  C26 UNL A   1      20.662  47.247  50.461  1.00  0.00    +0.000 C 
BRANCH   32   31
ATOM    137  H37 UNL A   1      20.540  48.070  52.277  1.00  0.00    +0.000 H 
ATOM     31  N3  UNL A   1      21.191  47.852  51.572  1.00  0.00    +0.000 N 
BRANCH   31   30
ATOM     30  C25 UNL A   1      22.564  48.218  51.874  1.00  0.00    +0.000 C 
ATOM    135  H35 UNL A   1      22.618  49.280  52.001  1.00  0.00    +0.000 H 
ATOM    136  H36 UNL A   1      22.853  47.706  52.769  1.00  0.00    +0.000 H 
BRANCH   30   29
ATOM    133  H33 UNL A   1      22.949  47.609  49.881  1.00  0.00    +0.000 H 
ATOM     29  C24 UNL A   1      23.526  47.803  50.761  1.00  0.00    +0.000 C 
ATOM    134  H34 UNL A   1      24.218  48.612  50.653  1.00  0.00    +0.000 H 
BRANCH   29   28
ATOM    131  H31 UNL A   1      25.196  46.861  51.666  1.00  0.00    +0.000 H 
ATOM     28  C23 UNL A   1      24.372  46.559  51.056  1.00  0.00    +0.000 C 
ATOM    132  H32 UNL A   1      23.708  45.864  51.528  1.00  0.00    +0.000 H 
BRANCH   28   27
ATOM    129  H29 UNL A   1      24.905  44.774  50.034  1.00  0.00    +0.000 H 
ATOM    130  H30 UNL A   1      24.330  46.123  49.003  1.00  0.00    +0.000 H 
ATOM     27  C22 UNL A   1      24.937  45.825  49.833  1.00  0.00    +0.000 C 
BRANCH   27   26
ATOM     26  C21 UNL A   1      26.377  46.189  49.452  1.00  0.00    +0.000 C 
ATOM    127  H27 UNL A   1      26.374  47.166  49.019  1.00  0.00    +0.000 H 
ATOM    128  H28 UNL A   1      26.956  46.137  50.351  1.00  0.00    +0.000 H 
BRANCH   26   25
ATOM     25  C20 UNL A   1      27.021  45.223  48.457  1.00  0.00    +0.000 C 
ATOM    125  H25 UNL A   1      26.284  44.517  48.134  1.00  0.00    +0.000 H 
ATOM    126  H26 UNL A   1      27.395  45.796  47.635  1.00  0.00    +0.000 H 
BRANCH   25   24
ATOM    124  H24 UNL A   1      28.800  45.073  49.490  1.00  0.00    +0.000 H 
ATOM     24  N2  UNL A   1      28.133  44.503  49.042  1.00  0.00    +0.000 N 
BRANCH   24   22
ATOM     22  C19 UNL A   1      28.411  43.171  49.075  1.00  0.00    +0.000 C 
ATOM     23  O3  UNL A   1      28.551  42.606  47.984  1.00  0.00    +0.000 O 
BRANCH   22   20
ATOM     20  C17 UNL A   1      28.544  42.368  50.377  1.00  0.00    +0.000 C 
ATOM    120  H20 UNL A   1      28.755  43.080  51.147  1.00  0.00    +0.000 H 
BRANCH   20   19
ATOM     97  C71 UNL A   1      26.222  42.595  51.308  1.00  0.00    +0.000 C 
ATOM     98  C72 UNL A   1      24.985  42.084  51.705  1.00  0.00    +0.000 C 
ATOM     99  F16 UNL A   1      24.091  42.956  52.197  1.00  0.00    +0.000 F 
ATOM     16  C13 UNL A   1      24.676  40.716  51.613  1.00  0.00    +0.000 C 
ATOM     17  C14 UNL A   1      25.700  39.875  51.148  1.00  0.00    +0.000 C 
ATOM     18  C15 UNL A   1      26.960  40.378  50.786  1.00  0.00    +0.000 C 
ATOM     19  C16 UNL A   1      27.233  41.749  50.833  1.00  0.00    +0.000 C 
ATOM    118  H18 UNL A   1      25.520  38.861  51.069  1.00  0.00    +0.000 H 
ATOM    119  H19 UNL A   1      27.699  39.724  50.482  1.00  0.00    +0.000 H 
ATOM    152  H52 UNL A   1      26.394  43.610  51.366  1.00  0.00    +0.000 H 
BRANCH   16   15
ATOM    100  C73 UNL A   1      22.962  38.874  51.653  1.00  0.00    +0.000 C 
ATOM     11  C8  UNL A   1      21.670  38.397  51.896  1.00  0.00    +0.000 C 
ATOM     12  C9  UNL A   1      20.747  39.220  52.541  1.00  0.00    +0.000 C 
ATOM     13  C10 UNL A   1      21.123  40.495  52.957  1.00  0.00    +0.000 C 
ATOM     14  C11 UNL A   1      22.404  40.976  52.676  1.00  0.00    +0.000 C 
ATOM     15  C12 UNL A   1      23.347  40.185  51.996  1.00  0.00    +0.000 C 
ATOM    115  H15 UNL A   1      19.787  38.884  52.711  1.00  0.00    +0.000 H 
ATOM    116  H16 UNL A   1      20.452  41.086  53.474  1.00  0.00    +0.000 H 
ATOM    117  H17 UNL A   1      22.664  41.929  52.973  1.00  0.00    +0.000 H 
ATOM    153  H53 UNL A   1      23.653  38.249  51.209  1.00  0.00    +0.000 H 
BRANCH   11   10
ATOM     10  N1  UNL A   1      21.216  37.163  51.405  1.00  0.00    +0.000 N 
ATOM    114  H14 UNL A   1      20.422  37.201  50.825  1.00  0.00    +0.000 H 
BRANCH   10    8
ATOM      9  O2  UNL A   1      21.742  35.073  50.735  1.00  0.00    +0.000 O 
ATOM      8  C7  UNL A   1      21.732  35.913  51.622  1.00  0.00    +0.000 C 
BRANCH    8    7
ATOM      7  O1  UNL A   1      22.088  35.693  52.915  1.00  0.00    +0.000 O 
BRANCH    7    6
ATOM    113  H13 UNL A   1      23.664  34.595  52.232  1.00  0.00    +0.000 H 
ATOM      6  C6  UNL A   1      23.336  35.022  53.156  1.00  0.00    +0.000 C 
ATOM    112  H12 UNL A   1      23.183  34.266  53.900  1.00  0.00    +0.000 H 
BRANCH    6    5
ATOM      5  C5  UNL A   1      24.424  35.983  53.647  1.00  0.00    +0.000 C 
ATOM    110  H10 UNL A   1      23.940  36.821  54.104  1.00  0.00    +0.000 H 
ATOM    111  H11 UNL A   1      25.033  35.412  54.317  1.00  0.00    +0.000 H 
BRANCH    5    4
ATOM    108  H8  UNL A   1      25.065  37.510  52.315  1.00  0.00    +0.000 H 
ATOM      4  C4  UNL A   1      25.379  36.520  52.572  1.00  0.00    +0.000 C 
ATOM    109  H9  UNL A   1      26.360  36.480  52.998  1.00  0.00    +0.000 H 
BRANCH    4    3
ATOM    106  H6  UNL A   1      25.183  34.680  51.525  1.00  0.00    +0.000 H 
ATOM      3  C3  UNL A   1      25.440  35.691  51.283  1.00  0.00    +0.000 C 
ATOM    107  H7  UNL A   1      24.757  36.149  50.598  1.00  0.00    +0.000 H 
BRANCH    3    2
ATOM    105  H5  UNL A   1      27.473  35.115  51.199  1.00  0.00    +0.000 H 
ATOM      2  C2  UNL A   1      26.803  35.681  50.586  1.00  0.00    +0.000 C 
ATOM    104  H4  UNL A   1      27.132  36.692  50.465  1.00  0.00    +0.000 H 
BRANCH    2    1
ATOM      1  C1  UNL A   1      26.760  35.016  49.219  1.00  0.00    +0.000 C 
ATOM    101  H1  UNL A   1      27.662  34.459  49.065  1.00  0.00    +0.000 H 
ATOM    102  H2  UNL A   1      26.671  35.765  48.460  1.00  0.00    +0.000 H 
ATOM    103  H3  UNL A   1      25.920  34.356  49.169  1.00  0.00    +0.000 H 
ENDBRANCH    2    1
ENDBRANCH    3    2
ENDBRANCH    4    3
ENDBRANCH    5    4
ENDBRANCH    6    5
ENDBRANCH    7    6
ENDBRANCH    8    7
ENDBRANCH   10    8
ENDBRANCH   11   10
ENDBRANCH   16   15
ENDBRANCH   20   19
BRANCH   20   21
ATOM    121  H21 UNL A   1      30.009  41.247  51.459  1.00  0.00    +0.000 H 
ATOM    122  H22 UNL A   1      30.612  41.982  49.991  1.00  0.00    +0.000 H 
ATOM    123  H23 UNL A   1      29.592  40.565  49.904  1.00  0.00    +0.000 H 
ATOM     21  C18 UNL A   1      29.782  41.474  50.438  1.00  0.00    +0.000 C 
ENDBRANCH   20   21
ENDBRANCH   22   20
ENDBRANCH   24   22
ENDBRANCH   25   24
ENDBRANCH   26   25
ENDBRANCH   27   26
ENDBRANCH   28   27
ENDBRANCH   29   28
ENDBRANCH   30   29
ENDBRANCH   31   30
ENDBRANCH   32   31
ENDBRANCH   34   32
ENDBRANCH   38   37
BRANCH   42   43
ATOM     43  C35 UNL A   1      17.497  37.567  49.303  1.00  0.00    +0.000 C 
ATOM     44  C36 UNL A   1      16.456  37.305  48.401  1.00  0.00    +0.000 C 
ATOM     45  F1  UNL A   1      16.689  37.318  47.080  1.00  0.00    +0.000 F 
ATOM     46  C37 UNL A   1      15.162  37.064  48.854  1.00  0.00    +0.000 C 
ATOM     47  F2  UNL A   1      14.173  36.854  47.973  1.00  0.00    +0.000 F 
ATOM     48  C38 UNL A   1      14.891  37.051  50.214  1.00  0.00    +0.000 C 
ATOM     49  F3  UNL A   1      13.645  36.813  50.649  1.00  0.00    +0.000 F 
ATOM     50  C39 UNL A   1      15.908  37.292  51.124  1.00  0.00    +0.000 C 
ATOM     51  F4  UNL A   1      15.650  37.272  52.439  1.00  0.00    +0.000 F 
ATOM     52  C40 UNL A   1      17.199  37.557  50.674  1.00  0.00    +0.000 C 
ATOM     53  F5  UNL A   1      18.163  37.796  51.577  1.00  0.00    +0.000 F 
ENDBRANCH   42   43
BRANCH   59   60
ATOM     65  C49 UNL A   1      23.271  31.369  44.998  1.00  0.00    +0.000 C 
ATOM     66  F8  UNL A   1      23.476  30.153  44.474  1.00  0.00    +0.000 F 
ATOM     67  C50 UNL A   1      23.801  31.689  46.239  1.00  0.00    +0.000 C 
ATOM     68  F9  UNL A   1      24.531  30.786  46.908  1.00  0.00    +0.000 F 
ATOM     69  C51 UNL A   1      23.571  32.944  46.794  1.00  0.00    +0.000 C 
ATOM     70  F10 UNL A   1      24.083  33.223  48.001  1.00  0.00    +0.000 F 
ATOM     60  C46 UNL A   1      22.817  33.908  46.107  1.00  0.00    +0.000 C 
ATOM     61  C47 UNL A   1      22.305  33.570  44.846  1.00  0.00    +0.000 C 
ATOM     62  F6  UNL A   1      21.565  34.455  44.160  1.00  0.00    +0.000 F 
ATOM     63  C48 UNL A   1      22.520  32.307  44.304  1.00  0.00    +0.000 C 
ATOM     64  F7  UNL A   1      21.987  31.990  43.115  1.00  0.00    +0.000 F 
ENDBRANCH   59   60
BRANCH   74   75
ATOM     75  C55 UNL A   1      26.927  39.486  46.727  1.00  0.00    +0.000 C 
ATOM     76  C56 UNL A   1      27.966  39.013  47.541  1.00  0.00    +0.000 C 
ATOM     77  F11 UNL A   1      27.681  38.328  48.658  1.00  0.00    +0.000 F 
ATOM     78  C57 UNL A   1      29.297  39.280  47.232  1.00  0.00    +0.000 C 
ATOM     79  F12 UNL A   1      30.270  38.853  48.048  1.00  0.00    +0.000 F 
ATOM     80  C58 UNL A   1      29.615  40.002  46.091  1.00  0.00    +0.000 C 
ATOM     81  F13 UNL A   1      30.896  40.259  45.794  1.00  0.00    +0.000 F 
ATOM     82  C59 UNL A   1      28.603  40.464  45.263  1.00  0.00    +0.000 C 
ATOM     83  F14 UNL A   1      28.908  41.153  44.155  1.00  0.00    +0.000 F 
ATOM     84  C60 UNL A   1      27.270  40.216  45.582  1.00  0.00    +0.000 C 
ATOM     85  F15 UNL A   1      26.310  40.684  44.771  1.00  0.00    +0.000 F 
ENDBRANCH   74   75
TORSDOF 27
ENDMDL
MODEL 7
REMARK VINA RESULT:      -6.5     43.615     49.330
ROOT
ATOM    140  H40 UNL A   1      37.896  29.529  28.215  1.00  0.00    +0.000 H 
ATOM    141  H41 UNL A   1      36.555  31.667  28.870  1.00  0.00    +0.000 H 
ATOM    142  H42 UNL A   1      39.561  31.108  31.663  1.00  0.00    +0.000 H 
ATOM    143  H43 UNL A   1      42.629  33.006  36.926  1.00  0.00    +0.000 H 
ATOM    144  H44 UNL A   1      43.871  30.866  36.344  1.00  0.00    +0.000 H 
ATOM    145  H45 UNL A   1      40.889  31.419  33.501  1.00  0.00    +0.000 H 
ATOM    146  H46 UNL A   1      38.453  35.609  34.851  1.00  0.00    +0.000 H 
ATOM    147  H47 UNL A   1      36.822  35.127  32.938  1.00  0.00    +0.000 H 
ATOM    148  H48 UNL A   1      42.122  27.005  30.338  1.00  0.00    +0.000 H 
ATOM    149  H49 UNL A   1      43.444  27.174  32.525  1.00  0.00    +0.000 H 
ATOM     38  C31 UNL A   1      42.874  29.525  34.034  1.00  0.00    +0.000 C 
ATOM     39  C32 UNL A   1      42.203  29.057  32.771  1.00  0.00    +0.000 C 
ATOM     40  N4  UNL A   1      41.224  29.610  32.098  1.00  0.00    +0.000 N 
ATOM     41  C33 UNL A   1      41.023  28.800  30.988  1.00  0.00    +0.000 C 
ATOM     42  C34 UNL A   1      40.099  28.925  30.005  1.00  0.00    +0.000 C 
ATOM     54  C41 UNL A   1      39.096  29.955  29.956  1.00  0.00    +0.000 C 
ATOM     55  C42 UNL A   1      38.083  30.133  29.028  1.00  0.00    +0.000 C 
ATOM     56  C43 UNL A   1      37.357  31.276  29.386  1.00  0.00    +0.000 C 
ATOM     57  C44 UNL A   1      37.901  31.790  30.551  1.00  0.00    +0.000 C 
ATOM     58  N5  UNL A   1      38.973  30.977  30.883  1.00  0.00    +0.000 N 
ATOM     59  C45 UNL A   1      37.474  32.934  31.313  1.00  0.00    +0.000 C 
ATOM     71  C52 UNL A   1      38.094  33.405  32.421  1.00  0.00    +0.000 C 
ATOM     72  N6  UNL A   1      39.223  32.915  33.064  1.00  0.00    +0.000 N 
ATOM     73  C53 UNL A   1      39.438  33.720  34.075  1.00  0.00    +0.000 C 
ATOM     74  C54 UNL A   1      40.507  33.650  35.131  1.00  0.00    +0.000 C 
ATOM     86  C61 UNL A   1      41.366  32.614  35.138  1.00  0.00    +0.000 C 
ATOM     87  C62 UNL A   1      42.420  32.391  36.123  1.00  0.00    +0.000 C 
ATOM     88  C63 UNL A   1      43.075  31.258  35.819  1.00  0.00    +0.000 C 
ATOM     89  C64 UNL A   1      42.475  30.669  34.621  1.00  0.00    +0.000 C 
ATOM     90  N7  UNL A   1      41.474  31.545  34.283  1.00  0.00    +0.000 N 
ATOM     91  C65 UNL A   1      38.480  34.831  34.173  1.00  0.00    +0.000 C 
ATOM     92  C66 UNL A   1      37.662  34.570  33.165  1.00  0.00    +0.000 C 
ATOM     93  C67 UNL A   1      41.999  27.733  31.060  1.00  0.00    +0.000 C 
ATOM     94  C68 UNL A   1      42.716  27.814  32.172  1.00  0.00    +0.000 C 
ENDROOT
BRANCH   38   37
ATOM     34  C27 UNL A   1      46.127  27.342  35.796  1.00  0.00    +0.000 C 
ATOM     35  C28 UNL A   1      46.367  28.235  34.744  1.00  0.00    +0.000 C 
ATOM     36  C29 UNL A   1      45.309  28.940  34.165  1.00  0.00    +0.000 C 
ATOM     37  C30 UNL A   1      43.995  28.745  34.617  1.00  0.00    +0.000 C 
ATOM    138  H38 UNL A   1      47.329  28.372  34.395  1.00  0.00    +0.000 H 
ATOM    139  H39 UNL A   1      45.496  29.608  33.400  1.00  0.00    +0.000 H 
ATOM    150  H50 UNL A   1      42.794  27.664  35.980  1.00  0.00    +0.000 H 
ATOM    151  H51 UNL A   1      44.649  26.554  37.082  1.00  0.00    +0.000 H 
ATOM     95  C69 UNL A   1      43.760  27.839  35.661  1.00  0.00    +0.000 C 
ATOM     96  C70 UNL A   1      44.824  27.173  36.274  1.00  0.00    +0.000 C 
BRANCH   34   32
ATOM     33  O4  UNL A   1      48.164  27.385  36.955  1.00  0.00    +0.000 O 
ATOM     32  C26 UNL A   1      47.292  26.688  36.439  1.00  0.00    +0.000 C 
BRANCH   32   31
ATOM    137  H37 UNL A   1      47.888  24.973  37.271  1.00  0.00    +0.000 H 
ATOM     31  N3  UNL A   1      47.415  25.323  36.482  1.00  0.00    +0.000 N 
BRANCH   31   30
ATOM     30  C25 UNL A   1      46.956  24.312  35.547  1.00  0.00    +0.000 C 
ATOM    135  H35 UNL A   1      46.766  24.776  34.601  1.00  0.00    +0.000 H 
ATOM    136  H36 UNL A   1      47.720  23.566  35.465  1.00  0.00    +0.000 H 
BRANCH   30   29
ATOM    133  H33 UNL A   1      44.844  24.135  35.585  1.00  0.00    +0.000 H 
ATOM     29  C24 UNL A   1      45.677  23.626  36.026  1.00  0.00    +0.000 C 
ATOM    134  H34 UNL A   1      45.763  22.602  35.729  1.00  0.00    +0.000 H 
BRANCH   29   28
ATOM    131  H31 UNL A   1      45.857  24.528  37.937  1.00  0.00    +0.000 H 
ATOM     28  C23 UNL A   1      45.471  23.611  37.546  1.00  0.00    +0.000 C 
ATOM    132  H32 UNL A   1      44.418  23.481  37.693  1.00  0.00    +0.000 H 
BRANCH   28   27
ATOM    129  H29 UNL A   1      45.368  21.843  38.719  1.00  0.00    +0.000 H 
ATOM    130  H30 UNL A   1      46.754  21.951  37.588  1.00  0.00    +0.000 H 
ATOM     27  C22 UNL A   1      46.140  22.457  38.303  1.00  0.00    +0.000 C 
BRANCH   27   26
ATOM     26  C21 UNL A   1      47.077  22.873  39.444  1.00  0.00    +0.000 C 
ATOM    127  H27 UNL A   1      46.812  23.861  39.754  1.00  0.00    +0.000 H 
ATOM    128  H28 UNL A   1      46.954  22.148  40.222  1.00  0.00    +0.000 H 
BRANCH   26   25
ATOM     25  C20 UNL A   1      48.559  22.867  39.066  1.00  0.00    +0.000 C 
ATOM    125  H25 UNL A   1      48.921  23.874  39.075  1.00  0.00    +0.000 H 
ATOM    126  H26 UNL A   1      49.079  22.261  39.777  1.00  0.00    +0.000 H 
BRANCH   25   24
ATOM    124  H24 UNL A   1      48.350  22.797  37.015  1.00  0.00    +0.000 H 
ATOM     24  N2  UNL A   1      48.781  22.303  37.750  1.00  0.00    +0.000 N 
BRANCH   24   22
ATOM     22  C19 UNL A   1      49.482  21.204  37.361  1.00  0.00    +0.000 C 
ATOM     23  O3  UNL A   1      49.861  21.176  36.184  1.00  0.00    +0.000 O 
BRANCH   22   20
ATOM     20  C17 UNL A   1      49.802  20.031  38.299  1.00  0.00    +0.000 C 
ATOM    120  H20 UNL A   1      50.175  20.463  39.203  1.00  0.00    +0.000 H 
BRANCH   20   19
ATOM     97  C71 UNL A   1      47.434  19.277  37.931  1.00  0.00    +0.000 C 
ATOM     98  C72 UNL A   1      46.282  18.576  38.290  1.00  0.00    +0.000 C 
ATOM     99  F16 UNL A   1      45.227  18.667  37.464  1.00  0.00    +0.000 F 
ATOM     16  C13 UNL A   1      46.206  17.813  39.467  1.00  0.00    +0.000 C 
ATOM     17  C14 UNL A   1      47.338  17.834  40.299  1.00  0.00    +0.000 C 
ATOM     18  C15 UNL A   1      48.484  18.571  39.964  1.00  0.00    +0.000 C 
ATOM     19  C16 UNL A   1      48.563  19.282  38.761  1.00  0.00    +0.000 C 
ATOM    118  H18 UNL A   1      47.326  17.293  41.178  1.00  0.00    +0.000 H 
ATOM    119  H19 UNL A   1      49.284  18.591  40.617  1.00  0.00    +0.000 H 
ATOM    152  H52 UNL A   1      47.454  19.800  37.043  1.00  0.00    +0.000 H 
BRANCH   16   15
ATOM    100  C73 UNL A   1      44.564  16.933  41.159  1.00  0.00    +0.000 C 
ATOM     11  C8  UNL A   1      43.499  16.105  41.530  1.00  0.00    +0.000 C 
ATOM     12  C9  UNL A   1      42.807  15.399  40.546  1.00  0.00    +0.000 C 
ATOM     13  C10 UNL A   1      43.165  15.539  39.207  1.00  0.00    +0.000 C 
ATOM     14  C11 UNL A   1      44.255  16.338  38.851  1.00  0.00    +0.000 C 
ATOM     15  C12 UNL A   1      44.995  17.036  39.822  1.00  0.00    +0.000 C 
ATOM    115  H15 UNL A   1      42.031  14.774  40.810  1.00  0.00    +0.000 H 
ATOM    116  H16 UNL A   1      42.624  15.050  38.477  1.00  0.00    +0.000 H 
ATOM    117  H17 UNL A   1      44.521  16.419  37.858  1.00  0.00    +0.000 H 
ATOM    153  H53 UNL A   1      45.049  17.483  41.886  1.00  0.00    +0.000 H 
BRANCH   11   10
ATOM     10  N1  UNL A   1      43.170  15.854  42.871  1.00  0.00    +0.000 N 
ATOM    114  H14 UNL A   1      42.272  15.481  43.026  1.00  0.00    +0.000 H 
BRANCH   10    8
ATOM      9  O2  UNL A   1      44.155  17.182  44.406  1.00  0.00    +0.000 O 
ATOM      8  C7  UNL A   1      43.930  16.054  43.992  1.00  0.00    +0.000 C 
BRANCH    8    7
ATOM      7  O1  UNL A   1      44.484  14.914  44.481  1.00  0.00    +0.000 O 
BRANCH    7    6
ATOM    113  H13 UNL A   1      44.822  13.095  43.627  1.00  0.00    +0.000 H 
ATOM      6  C6  UNL A   1      43.987  13.664  43.978  1.00  0.00    +0.000 C 
ATOM    112  H12 UNL A   1      43.291  13.862  43.188  1.00  0.00    +0.000 H 
BRANCH    6    5
ATOM      5  C5  UNL A   1      43.279  12.844  45.063  1.00  0.00    +0.000 C 
ATOM    110  H10 UNL A   1      43.812  12.985  45.980  1.00  0.00    +0.000 H 
ATOM    111  H11 UNL A   1      42.271  13.203  45.085  1.00  0.00    +0.000 H 
BRANCH    5    4
ATOM    108  H8  UNL A   1      44.163  10.923  44.854  1.00  0.00    +0.000 H 
ATOM      4  C4  UNL A   1      43.177  11.335  44.804  1.00  0.00    +0.000 C 
ATOM    109  H9  UNL A   1      42.515  10.949  45.551  1.00  0.00    +0.000 H 
BRANCH    4    3
ATOM    106  H6  UNL A   1      43.219  11.301  42.679  1.00  0.00    +0.000 H 
ATOM      3  C3  UNL A   1      42.568  10.946  43.451  1.00  0.00    +0.000 C 
ATOM    107  H7  UNL A   1      42.467   9.881  43.463  1.00  0.00    +0.000 H 
BRANCH    3    2
ATOM    105  H5  UNL A   1      40.883  12.075  44.049  1.00  0.00    +0.000 H 
ATOM      2  C2  UNL A   1      41.169  11.506  43.188  1.00  0.00    +0.000 C 
ATOM    104  H4  UNL A   1      40.501  10.689  43.012  1.00  0.00    +0.000 H 
BRANCH    2    1
ATOM      1  C1  UNL A   1      41.124  12.438  41.988  1.00  0.00    +0.000 C 
ATOM    101  H1  UNL A   1      40.222  12.267  41.437  1.00  0.00    +0.000 H 
ATOM    102  H2  UNL A   1      41.968  12.250  41.358  1.00  0.00    +0.000 H 
ATOM    103  H3  UNL A   1      41.149  13.454  42.323  1.00  0.00    +0.000 H 
ENDBRANCH    2    1
ENDBRANCH    3    2
ENDBRANCH    4    3
ENDBRANCH    5    4
ENDBRANCH    6    5
ENDBRANCH    7    6
ENDBRANCH    8    7
ENDBRANCH   10    8
ENDBRANCH   11   10
ENDBRANCH   16   15
ENDBRANCH   20   19
BRANCH   20   21
ATOM    121  H21 UNL A   1      50.663  18.458  37.133  1.00  0.00    +0.000 H 
ATOM    122  H22 UNL A   1      51.407  18.674  38.700  1.00  0.00    +0.000 H 
ATOM    123  H23 UNL A   1      51.736  19.809  37.412  1.00  0.00    +0.000 H 
ATOM     21  C18 UNL A   1      50.990  19.179  37.853  1.00  0.00    +0.000 C 
ENDBRANCH   20   21
ENDBRANCH   22   20
ENDBRANCH   24   22
ENDBRANCH   25   24
ENDBRANCH   26   25
ENDBRANCH   27   26
ENDBRANCH   28   27
ENDBRANCH   29   28
ENDBRANCH   30   29
ENDBRANCH   31   30
ENDBRANCH   32   31
ENDBRANCH   34   32
ENDBRANCH   38   37
BRANCH   42   43
ATOM     43  C35 UNL A   1      40.124  27.912  28.900  1.00  0.00    +0.000 C 
ATOM     44  C36 UNL A   1      39.436  26.695  29.005  1.00  0.00    +0.000 C 
ATOM     45  F1  UNL A   1      38.776  26.388  30.132  1.00  0.00    +0.000 F 
ATOM     46  C37 UNL A   1      39.453  25.772  27.963  1.00  0.00    +0.000 C 
ATOM     47  F2  UNL A   1      38.821  24.598  28.099  1.00  0.00    +0.000 F 
ATOM     48  C38 UNL A   1      40.133  26.060  26.789  1.00  0.00    +0.000 C 
ATOM     49  F3  UNL A   1      40.144  25.173  25.784  1.00  0.00    +0.000 F 
ATOM     50  C39 UNL A   1      40.807  27.265  26.657  1.00  0.00    +0.000 C 
ATOM     51  F4  UNL A   1      41.458  27.548  25.520  1.00  0.00    +0.000 F 
ATOM     52  C40 UNL A   1      40.811  28.180  27.706  1.00  0.00    +0.000 C 
ATOM     53  F5  UNL A   1      41.481  29.334  27.556  1.00  0.00    +0.000 F 
ENDBRANCH   42   43
BRANCH   59   60
ATOM     65  C49 UNL A   1      33.909  34.975  30.026  1.00  0.00    +0.000 C 
ATOM     66  F8  UNL A   1      32.800  35.617  29.632  1.00  0.00    +0.000 F 
ATOM     67  C50 UNL A   1      33.948  34.352  31.264  1.00  0.00    +0.000 C 
ATOM     68  F9  UNL A   1      32.871  34.381  32.062  1.00  0.00    +0.000 F 
ATOM     69  C51 UNL A   1      35.106  33.704  31.683  1.00  0.00    +0.000 C 
ATOM     70  F10 UNL A   1      35.122  33.122  32.891  1.00  0.00    +0.000 F 
ATOM     60  C46 UNL A   1      36.242  33.656  30.860  1.00  0.00    +0.000 C 
ATOM     61  C47 UNL A   1      36.174  34.276  29.605  1.00  0.00    +0.000 C 
ATOM     62  F6  UNL A   1      37.242  34.268  28.791  1.00  0.00    +0.000 F 
ATOM     63  C48 UNL A   1      35.022  34.941  29.198  1.00  0.00    +0.000 C 
ATOM     64  F7  UNL A   1      34.993  35.563  28.011  1.00  0.00    +0.000 F 
ENDBRANCH   59   60
BRANCH   74   75
ATOM     75  C55 UNL A   1      40.594  34.688  36.188  1.00  0.00    +0.000 C 
ATOM     76  C56 UNL A   1      41.592  35.671  36.147  1.00  0.00    +0.000 C 
ATOM     77  F11 UNL A   1      42.491  35.671  35.153  1.00  0.00    +0.000 F 
ATOM     78  C57 UNL A   1      41.694  36.631  37.151  1.00  0.00    +0.000 C 
ATOM     79  F12 UNL A   1      42.682  37.535  37.111  1.00  0.00    +0.000 F 
ATOM     80  C58 UNL A   1      40.786  36.641  38.199  1.00  0.00    +0.000 C 
ATOM     81  F13 UNL A   1      40.884  37.565  39.165  1.00  0.00    +0.000 F 
ATOM     82  C59 UNL A   1      39.779  35.688  38.249  1.00  0.00    +0.000 C 
ATOM     83  F14 UNL A   1      38.894  35.701  39.255  1.00  0.00    +0.000 F 
ATOM     84  C60 UNL A   1      39.689  34.713  37.258  1.00  0.00    +0.000 C 
ATOM     85  F15 UNL A   1      38.715  33.796  37.336  1.00  0.00    +0.000 F 
ENDBRANCH   74   75
TORSDOF 27
ENDMDL
MODEL 8
REMARK VINA RESULT:      -6.4     38.759     44.463
ROOT
ATOM    140  H40 UNL A   1      37.850  28.527  28.166  1.00  0.00    +0.000 H 
ATOM    141  H41 UNL A   1      36.666  30.713  28.953  1.00  0.00    +0.000 H 
ATOM    142  H42 UNL A   1      40.467  30.626  30.594  1.00  0.00    +0.000 H 
ATOM    143  H43 UNL A   1      44.992  33.335  34.186  1.00  0.00    +0.000 H 
ATOM    144  H44 UNL A   1      46.108  31.156  33.501  1.00  0.00    +0.000 H 
ATOM    145  H45 UNL A   1      42.312  31.230  31.807  1.00  0.00    +0.000 H 
ATOM    146  H46 UNL A   1      40.195  35.526  33.345  1.00  0.00    +0.000 H 
ATOM    147  H47 UNL A   1      38.052  34.738  32.189  1.00  0.00    +0.000 H 
ATOM    148  H48 UNL A   1      42.705  26.422  29.025  1.00  0.00    +0.000 H 
ATOM    149  H49 UNL A   1      44.671  26.935  30.583  1.00  0.00    +0.000 H 
ATOM     38  C31 UNL A   1      44.484  29.471  31.872  1.00  0.00    +0.000 C 
ATOM     39  C32 UNL A   1      43.461  28.811  30.989  1.00  0.00    +0.000 C 
ATOM     40  N4  UNL A   1      42.277  29.240  30.625  1.00  0.00    +0.000 N 
ATOM     41  C33 UNL A   1      41.769  28.272  29.769  1.00  0.00    +0.000 C 
ATOM     42  C34 UNL A   1      40.562  28.234  29.155  1.00  0.00    +0.000 C 
ATOM     54  C41 UNL A   1      39.534  29.227  29.318  1.00  0.00    +0.000 C 
ATOM     55  C42 UNL A   1      38.258  29.248  28.779  1.00  0.00    +0.000 C 
ATOM     56  C43 UNL A   1      37.619  30.417  29.210  1.00  0.00    +0.000 C 
ATOM     57  C44 UNL A   1      38.488  31.107  30.039  1.00  0.00    +0.000 C 
ATOM     58  N5  UNL A   1      39.661  30.372  30.087  1.00  0.00    +0.000 N 
ATOM     59  C45 UNL A   1      38.265  32.342  30.743  1.00  0.00    +0.000 C 
ATOM     71  C52 UNL A   1      39.189  32.983  31.499  1.00  0.00    +0.000 C 
ATOM     72  N6  UNL A   1      40.499  32.614  31.775  1.00  0.00    +0.000 N 
ATOM     73  C53 UNL A   1      40.987  33.562  32.535  1.00  0.00    +0.000 C 
ATOM     74  C54 UNL A   1      42.350  33.669  33.159  1.00  0.00    +0.000 C 
ATOM     86  C61 UNL A   1      43.230  32.661  33.008  1.00  0.00    +0.000 C 
ATOM     87  C62 UNL A   1      44.567  32.605  33.592  1.00  0.00    +0.000 C 
ATOM     88  C63 UNL A   1      45.156  31.452  33.234  1.00  0.00    +0.000 C 
ATOM     89  C64 UNL A   1      44.230  30.682  32.403  1.00  0.00    +0.000 C 
ATOM     90  N7  UNL A   1      43.116  31.480  32.317  1.00  0.00    +0.000 N 
ATOM     91  C65 UNL A   1      40.045  34.658  32.808  1.00  0.00    +0.000 C 
ATOM     92  C66 UNL A   1      38.954  34.236  32.185  1.00  0.00    +0.000 C 
ATOM     93  C67 UNL A   1      42.783  27.246  29.642  1.00  0.00    +0.000 C 
ATOM     94  C68 UNL A   1      43.825  27.503  30.420  1.00  0.00    +0.000 C 
ENDROOT
BRANCH   38   37
ATOM     34  C27 UNL A   1      48.270  27.619  32.701  1.00  0.00    +0.000 C 
ATOM     35  C28 UNL A   1      48.165  28.582  31.691  1.00  0.00    +0.000 C 
ATOM     36  C29 UNL A   1      46.933  29.180  31.414  1.00  0.00    +0.000 C 
ATOM     37  C30 UNL A   1      45.786  28.807  32.132  1.00  0.00    +0.000 C 
ATOM    138  H38 UNL A   1      49.000  28.851  31.147  1.00  0.00    +0.000 H 
ATOM    139  H39 UNL A   1      46.866  29.901  30.678  1.00  0.00    +0.000 H 
ATOM    150  H50 UNL A   1      45.054  27.527  33.646  1.00  0.00    +0.000 H 
ATOM    151  H51 UNL A   1      47.219  26.600  34.224  1.00  0.00    +0.000 H 
ATOM     95  C69 UNL A   1      45.896  27.832  33.134  1.00  0.00    +0.000 C 
ATOM     96  C70 UNL A   1      47.137  27.272  33.444  1.00  0.00    +0.000 C 
BRANCH   34   32
ATOM     33  O4  UNL A   1      50.101  27.297  34.128  1.00  0.00    +0.000 O 
ATOM     32  C26 UNL A   1      49.615  27.082  33.020  1.00  0.00    +0.000 C 
BRANCH   32   31
ATOM    137  H37 UNL A   1      51.299  26.480  32.132  1.00  0.00    +0.000 H 
ATOM     31  N3  UNL A   1      50.325  26.341  32.112  1.00  0.00    +0.000 N 
BRANCH   31   30
ATOM     30  C25 UNL A   1      49.866  25.381  31.123  1.00  0.00    +0.000 C 
ATOM    135  H35 UNL A   1      50.448  24.487  31.212  1.00  0.00    +0.000 H 
ATOM    136  H36 UNL A   1      48.829  25.187  31.309  1.00  0.00    +0.000 H 
BRANCH   30   29
ATOM    133  H33 UNL A   1      50.092  26.982  29.754  1.00  0.00    +0.000 H 
ATOM     29  C24 UNL A   1      49.998  25.917  29.698  1.00  0.00    +0.000 C 
ATOM    134  H34 UNL A   1      50.853  25.431  29.278  1.00  0.00    +0.000 H 
BRANCH   29   28
ATOM    131  H31 UNL A   1      49.094  25.914  27.780  1.00  0.00    +0.000 H 
ATOM     28  C23 UNL A   1      48.825  25.594  28.764  1.00  0.00    +0.000 C 
ATOM    132  H32 UNL A   1      48.667  24.539  28.855  1.00  0.00    +0.000 H 
BRANCH   28   27
ATOM    129  H29 UNL A   1      47.499  26.489  30.163  1.00  0.00    +0.000 H 
ATOM    130  H30 UNL A   1      47.391  27.100  28.481  1.00  0.00    +0.000 H 
ATOM     27  C22 UNL A   1      47.483  26.246  29.120  1.00  0.00    +0.000 C 
BRANCH   27   26
ATOM     26  C21 UNL A   1      46.242  25.386  28.856  1.00  0.00    +0.000 C 
ATOM    127  H27 UNL A   1      46.046  24.799  29.727  1.00  0.00    +0.000 H 
ATOM    128  H28 UNL A   1      45.443  26.061  28.624  1.00  0.00    +0.000 H 
BRANCH   26   25
ATOM     25  C20 UNL A   1      46.381  24.442  27.660  1.00  0.00    +0.000 C 
ATOM    125  H25 UNL A   1      47.317  24.632  27.178  1.00  0.00    +0.000 H 
ATOM    126  H26 UNL A   1      46.330  23.438  28.025  1.00  0.00    +0.000 H 
BRANCH   25   24
ATOM    124  H24 UNL A   1      44.519  24.066  26.858  1.00  0.00    +0.000 H 
ATOM     24  N2  UNL A   1      45.314  24.624  26.698  1.00  0.00    +0.000 N 
BRANCH   24   22
ATOM     22  C19 UNL A   1      45.228  25.436  25.610  1.00  0.00    +0.000 C 
ATOM     23  O3  UNL A   1      44.228  25.301  24.895  1.00  0.00    +0.000 O 
BRANCH   22   20
ATOM     20  C17 UNL A   1      46.300  26.473  25.243  1.00  0.00    +0.000 C 
ATOM    120  H20 UNL A   1      46.117  26.745  24.225  1.00  0.00    +0.000 H 
BRANCH   20   19
ATOM     97  C71 UNL A   1      44.851  28.170  26.396  1.00  0.00    +0.000 C 
ATOM     98  C72 UNL A   1      44.648  29.351  27.112  1.00  0.00    +0.000 C 
ATOM     99  F16 UNL A   1      43.380  29.669  27.421  1.00  0.00    +0.000 F 
ATOM     16  C13 UNL A   1      45.709  30.190  27.491  1.00  0.00    +0.000 C 
ATOM     17  C14 UNL A   1      46.991  29.806  27.063  1.00  0.00    +0.000 C 
ATOM     18  C15 UNL A   1      47.197  28.642  26.306  1.00  0.00    +0.000 C 
ATOM     19  C16 UNL A   1      46.135  27.789  25.985  1.00  0.00    +0.000 C 
ATOM    118  H18 UNL A   1      47.801  30.395  27.312  1.00  0.00    +0.000 H 
ATOM    119  H19 UNL A   1      48.149  28.410  25.980  1.00  0.00    +0.000 H 
ATOM    152  H52 UNL A   1      44.045  27.570  26.165  1.00  0.00    +0.000 H 
BRANCH   16   15
ATOM    100  C73 UNL A   1      44.505  32.356  27.922  1.00  0.00    +0.000 C 
ATOM     11  C8  UNL A   1      44.367  33.580  28.585  1.00  0.00    +0.000 C 
ATOM     12  C9  UNL A   1      45.194  33.866  29.672  1.00  0.00    +0.000 C 
ATOM     13  C10 UNL A   1      46.130  32.928  30.100  1.00  0.00    +0.000 C 
ATOM     14  C11 UNL A   1      46.286  31.724  29.407  1.00  0.00    +0.000 C 
ATOM     15  C12 UNL A   1      45.492  31.420  28.287  1.00  0.00    +0.000 C 
ATOM    115  H15 UNL A   1      45.111  34.772  30.158  1.00  0.00    +0.000 H 
ATOM    116  H16 UNL A   1      46.711  33.123  30.931  1.00  0.00    +0.000 H 
ATOM    117  H17 UNL A   1      46.995  31.045  29.723  1.00  0.00    +0.000 H 
ATOM    153  H53 UNL A   1      43.866  32.133  27.143  1.00  0.00    +0.000 H 
BRANCH   11   10
ATOM     10  N1  UNL A   1      43.512  34.595  28.128  1.00  0.00    +0.000 N 
ATOM    114  H14 UNL A   1      43.635  34.864  27.189  1.00  0.00    +0.000 H 
BRANCH   10    8
ATOM      9  O2  UNL A   1      41.586  34.656  29.302  1.00  0.00    +0.000 O 
ATOM      8  C7  UNL A   1      42.529  35.259  28.811  1.00  0.00    +0.000 C 
BRANCH    8    7
ATOM      7  O1  UNL A   1      42.654  36.611  28.761  1.00  0.00    +0.000 O 
BRANCH    7    6
ATOM    113  H13 UNL A   1      41.198  37.802  27.976  1.00  0.00    +0.000 H 
ATOM      6  C6  UNL A   1      42.075  37.292  27.636  1.00  0.00    +0.000 C 
ATOM    112  H12 UNL A   1      41.837  36.571  26.881  1.00  0.00    +0.000 H 
BRANCH    6    5
ATOM      5  C5  UNL A   1      43.026  38.335  27.038  1.00  0.00    +0.000 C 
ATOM    110  H10 UNL A   1      44.013  38.118  27.391  1.00  0.00    +0.000 H 
ATOM    111  H11 UNL A   1      42.915  38.253  25.977  1.00  0.00    +0.000 H 
BRANCH    5    4
ATOM    108  H8  UNL A   1      43.636  40.344  27.362  1.00  0.00    +0.000 H 
ATOM      4  C4  UNL A   1      42.716  39.798  27.378  1.00  0.00    +0.000 C 
ATOM    109  H9  UNL A   1      42.010  40.130  26.645  1.00  0.00    +0.000 H 
BRANCH    4    3
ATOM    106  H6  UNL A   1      41.001  40.152  28.582  1.00  0.00    +0.000 H 
ATOM      3  C3  UNL A   1      42.052  40.024  28.742  1.00  0.00    +0.000 C 
ATOM    107  H7  UNL A   1      42.288  39.167  29.337  1.00  0.00    +0.000 H 
BRANCH    3    2
ATOM    105  H5  UNL A   1      42.260  42.114  28.982  1.00  0.00    +0.000 H 
ATOM      2  C2  UNL A   1      42.566  41.239  29.517  1.00  0.00    +0.000 C 
ATOM    104  H4  UNL A   1      43.631  41.171  29.591  1.00  0.00    +0.000 H 
BRANCH    2    1
ATOM      1  C1  UNL A   1      41.985  41.332  30.919  1.00  0.00    +0.000 C 
ATOM    101  H1  UNL A   1      41.319  42.168  30.975  1.00  0.00    +0.000 H 
ATOM    102  H2  UNL A   1      42.778  41.460  31.626  1.00  0.00    +0.000 H 
ATOM    103  H3  UNL A   1      41.449  40.434  31.144  1.00  0.00    +0.000 H 
ENDBRANCH    2    1
ENDBRANCH    3    2
ENDBRANCH    4    3
ENDBRANCH    5    4
ENDBRANCH    6    5
ENDBRANCH    7    6
ENDBRANCH    8    7
ENDBRANCH   10    8
ENDBRANCH   11   10
ENDBRANCH   16   15
ENDBRANCH   20   19
BRANCH   20   21
ATOM    121  H21 UNL A   1      48.154  25.891  26.136  1.00  0.00    +0.000 H 
ATOM    122  H22 UNL A   1      48.310  26.518  24.512  1.00  0.00    +0.000 H 
ATOM    123  H23 UNL A   1      47.680  24.909  24.771  1.00  0.00    +0.000 H 
ATOM     21  C18 UNL A   1      47.717  25.905  25.160  1.00  0.00    +0.000 C 
ENDBRANCH   20   21
ENDBRANCH   22   20
ENDBRANCH   24   22
ENDBRANCH   25   24
ENDBRANCH   26   25
ENDBRANCH   27   26
ENDBRANCH   28   27
ENDBRANCH   29   28
ENDBRANCH   30   29
ENDBRANCH   31   30
ENDBRANCH   32   31
ENDBRANCH   34   32
ENDBRANCH   38   37
BRANCH   42   43
ATOM     43  C35 UNL A   1      40.283  27.070  28.252  1.00  0.00    +0.000 C 
ATOM     44  C36 UNL A   1      39.423  26.032  28.639  1.00  0.00    +0.000 C 
ATOM     45  F1  UNL A   1      38.868  26.036  29.860  1.00  0.00    +0.000 F 
ATOM     46  C37 UNL A   1      39.158  24.967  27.782  1.00  0.00    +0.000 C 
ATOM     47  F2  UNL A   1      38.364  23.966  28.186  1.00  0.00    +0.000 F 
ATOM     48  C38 UNL A   1      39.723  24.935  26.516  1.00  0.00    +0.000 C 
ATOM     49  F3  UNL A   1      39.462  23.912  25.690  1.00  0.00    +0.000 F 
ATOM     50  C39 UNL A   1      40.564  25.959  26.107  1.00  0.00    +0.000 C 
ATOM     51  F4  UNL A   1      41.104  25.933  24.881  1.00  0.00    +0.000 F 
ATOM     52  C40 UNL A   1      40.849  27.014  26.970  1.00  0.00    +0.000 C 
ATOM     53  F5  UNL A   1      41.674  27.986  26.552  1.00  0.00    +0.000 F 
ENDBRANCH   42   43
BRANCH   59   60
ATOM     65  C49 UNL A   1      34.344  34.099  30.487  1.00  0.00    +0.000 C 
ATOM     66  F8  UNL A   1      33.125  34.652  30.416  1.00  0.00    +0.000 F 
ATOM     67  C50 UNL A   1      34.699  33.343  31.594  1.00  0.00    +0.000 C 
ATOM     68  F9  UNL A   1      33.818  33.153  32.586  1.00  0.00    +0.000 F 
ATOM     69  C51 UNL A   1      35.972  32.787  31.680  1.00  0.00    +0.000 C 
ATOM     70  F10 UNL A   1      36.294  32.072  32.768  1.00  0.00    +0.000 F 
ATOM     60  C46 UNL A   1      36.907  32.966  30.650  1.00  0.00    +0.000 C 
ATOM     61  C47 UNL A   1      36.521  33.719  29.531  1.00  0.00    +0.000 C 
ATOM     62  F6  UNL A   1      37.388  33.929  28.529  1.00  0.00    +0.000 F 
ATOM     63  C48 UNL A   1      35.255  34.290  29.459  1.00  0.00    +0.000 C 
ATOM     64  F7  UNL A   1      34.920  35.041  28.400  1.00  0.00    +0.000 F 
ENDBRANCH   59   60
BRANCH   74   75
ATOM     75  C55 UNL A   1      42.718  34.852  33.976  1.00  0.00    +0.000 C 
ATOM     76  C56 UNL A   1      42.549  34.843  35.368  1.00  0.00    +0.000 C 
ATOM     77  F11 UNL A   1      42.034  33.762  35.972  1.00  0.00    +0.000 F 
ATOM     78  C57 UNL A   1      42.867  35.960  36.136  1.00  0.00    +0.000 C 
ATOM     79  F12 UNL A   1      42.658  35.941  37.459  1.00  0.00    +0.000 F 
ATOM     80  C58 UNL A   1      43.385  37.096  35.531  1.00  0.00    +0.000 C 
ATOM     81  F13 UNL A   1      43.692  38.170  36.271  1.00  0.00    +0.000 F 
ATOM     82  C59 UNL A   1      43.577  37.118  34.158  1.00  0.00    +0.000 C 
ATOM     83  F14 UNL A   1      44.086  38.211  33.572  1.00  0.00    +0.000 F 
ATOM     84  C60 UNL A   1      43.238  36.010  33.385  1.00  0.00    +0.000 C 
ATOM     85  F15 UNL A   1      43.422  36.063  32.058  1.00  0.00    +0.000 F 
ENDBRANCH   74   75
TORSDOF 27
ENDMDL
MODEL 9
REMARK VINA RESULT:      -6.4      2.829      7.450
ROOT
ATOM    140  H40 UNL A   1      17.877  50.888  -2.409  1.00  0.00    +0.000 H 
ATOM    141  H41 UNL A   1      18.193  53.474  -2.295  1.00  0.00    +0.000 H 
ATOM    142  H42 UNL A   1      16.229  52.250   1.139  1.00  0.00    +0.000 H 
ATOM    143  H43 UNL A   1      13.552  53.642   6.761  1.00  0.00    +0.000 H 
ATOM    144  H44 UNL A   1      13.154  51.137   6.603  1.00  0.00    +0.000 H 
ATOM    145  H45 UNL A   1      15.161  52.326   3.162  1.00  0.00    +0.000 H 
ATOM    146  H46 UNL A   1      15.767  57.303   3.566  1.00  0.00    +0.000 H 
ATOM    147  H47 UNL A   1      16.743  57.251   1.200  1.00  0.00    +0.000 H 
ATOM    148  H48 UNL A   1      15.675  47.273   0.880  1.00  0.00    +0.000 H 
ATOM    149  H49 UNL A   1      14.243  47.363   3.001  1.00  0.00    +0.000 H 
ATOM     38  C31 UNL A   1      14.132  49.945   4.204  1.00  0.00    +0.000 C 
ATOM     39  C32 UNL A   1      14.781  49.564   2.902  1.00  0.00    +0.000 C 
ATOM     40  N4  UNL A   1      15.424  50.317   2.043  1.00  0.00    +0.000 N 
ATOM     41  C33 UNL A   1      15.863  49.461   1.043  1.00  0.00    +0.000 C 
ATOM     42  C34 UNL A   1      16.545  49.761  -0.090  1.00  0.00    +0.000 C 
ATOM     54  C41 UNL A   1      16.923  51.092  -0.485  1.00  0.00    +0.000 C 
ATOM     55  C42 UNL A   1      17.568  51.501  -1.640  1.00  0.00    +0.000 C 
ATOM     56  C43 UNL A   1      17.729  52.891  -1.583  1.00  0.00    +0.000 C 
ATOM     57  C44 UNL A   1      17.158  53.347  -0.407  1.00  0.00    +0.000 C 
ATOM     58  N5  UNL A   1      16.678  52.233   0.262  1.00  0.00    +0.000 N 
ATOM     59  C45 UNL A   1      17.050  54.700   0.073  1.00  0.00    +0.000 C 
ATOM     71  C52 UNL A   1      16.519  55.061   1.266  1.00  0.00    +0.000 C 
ATOM     72  N6  UNL A   1      15.966  54.258   2.253  1.00  0.00    +0.000 N 
ATOM     73  C53 UNL A   1      15.607  55.069   3.218  1.00  0.00    +0.000 C 
ATOM     74  C54 UNL A   1      14.926  54.751   4.519  1.00  0.00    +0.000 C 
ATOM     86  C61 UNL A   1      14.550  53.485   4.779  1.00  0.00    +0.000 C 
ATOM     87  C62 UNL A   1      13.842  53.038   5.976  1.00  0.00    +0.000 C 
ATOM     88  C63 UNL A   1      13.627  51.714   5.891  1.00  0.00    +0.000 C 
ATOM     89  C64 UNL A   1      14.174  51.223   4.626  1.00  0.00    +0.000 C 
ATOM     90  N7  UNL A   1      14.708  52.342   4.035  1.00  0.00    +0.000 N 
ATOM     91  C65 UNL A   1      15.917  56.483   2.959  1.00  0.00    +0.000 C 
ATOM     92  C66 UNL A   1      16.436  56.426   1.741  1.00  0.00    +0.000 C 
ATOM     93  C67 UNL A   1      15.443  48.126   1.412  1.00  0.00    +0.000 C 
ATOM     94  C68 UNL A   1      14.721  48.143   2.524  1.00  0.00    +0.000 C 
ENDROOT
BRANCH   38   37
ATOM     34  C27 UNL A   1      12.214  47.023   6.702  1.00  0.00    +0.000 C 
ATOM     35  C28 UNL A   1      13.611  47.121   6.679  1.00  0.00    +0.000 C 
ATOM     36  C29 UNL A   1      14.237  48.065   5.861  1.00  0.00    +0.000 C 
ATOM     37  C30 UNL A   1      13.474  48.911   5.041  1.00  0.00    +0.000 C 
ATOM    138  H38 UNL A   1      14.180  46.492   7.267  1.00  0.00    +0.000 H 
ATOM    139  H39 UNL A   1      15.266  48.142   5.861  1.00  0.00    +0.000 H 
ATOM    150  H50 UNL A   1      11.506  49.392   4.436  1.00  0.00    +0.000 H 
ATOM    151  H51 UNL A   1      10.418  47.855   5.965  1.00  0.00    +0.000 H 
ATOM     95  C69 UNL A   1      12.076  48.798   5.058  1.00  0.00    +0.000 C 
ATOM     96  C70 UNL A   1      11.449  47.889   5.914  1.00  0.00    +0.000 C 
BRANCH   34   32
ATOM     33  O4  UNL A   1      11.669  44.864   7.433  1.00  0.00    +0.000 O 
ATOM     32  C26 UNL A   1      11.594  46.071   7.654  1.00  0.00    +0.000 C 
BRANCH   32   31
ATOM    137  H37 UNL A   1      10.147  47.055   8.617  1.00  0.00    +0.000 H 
ATOM     31  N3  UNL A   1      10.946  46.504   8.782  1.00  0.00    +0.000 N 
BRANCH   31   30
ATOM     30  C25 UNL A   1      11.252  46.276  10.183  1.00  0.00    +0.000 C 
ATOM    135  H35 UNL A   1      10.560  45.561  10.576  1.00  0.00    +0.000 H 
ATOM    136  H36 UNL A   1      12.259  45.916  10.246  1.00  0.00    +0.000 H 
BRANCH   30   29
ATOM    133  H33 UNL A   1      10.302  48.106  10.670  1.00  0.00    +0.000 H 
ATOM     29  C24 UNL A   1      11.158  47.560  11.006  1.00  0.00    +0.000 C 
ATOM    134  H34 UNL A   1      11.098  47.251  12.029  1.00  0.00    +0.000 H 
BRANCH   29   28
ATOM    131  H31 UNL A   1      12.266  49.246  11.662  1.00  0.00    +0.000 H 
ATOM     28  C23 UNL A   1      12.376  48.489  10.915  1.00  0.00    +0.000 C 
ATOM    132  H32 UNL A   1      13.230  47.858  11.053  1.00  0.00    +0.000 H 
BRANCH   28   27
ATOM    129  H29 UNL A   1      12.246  48.529   8.795  1.00  0.00    +0.000 H 
ATOM    130  H30 UNL A   1      12.047  50.107   9.621  1.00  0.00    +0.000 H 
ATOM     27  C22 UNL A   1      12.590  49.186   9.566  1.00  0.00    +0.000 C 
BRANCH   27   26
ATOM     26  C21 UNL A   1      14.039  49.570   9.245  1.00  0.00    +0.000 C 
ATOM    127  H27 UNL A   1      14.345  49.033   8.373  1.00  0.00    +0.000 H 
ATOM    128  H28 UNL A   1      14.053  50.631   9.103  1.00  0.00    +0.000 H 
BRANCH   26   25
ATOM     25  C20 UNL A   1      15.029  49.264  10.371  1.00  0.00    +0.000 C 
ATOM    125  H25 UNL A   1      14.500  49.250  11.301  1.00  0.00    +0.000 H 
ATOM    126  H26 UNL A   1      15.479  48.316  10.166  1.00  0.00    +0.000 H 
BRANCH   25   24
ATOM    124  H24 UNL A   1      16.623  50.342   9.629  1.00  0.00    +0.000 H 
ATOM     24  N2  UNL A   1      16.084  50.253  10.449  1.00  0.00    +0.000 N 
BRANCH   24   22
ATOM     22  C19 UNL A   1      16.457  51.076  11.465  1.00  0.00    +0.000 C 
ATOM     23  O3  UNL A   1      17.669  51.160  11.696  1.00  0.00    +0.000 O 
BRANCH   22   20
ATOM     20  C17 UNL A   1      15.457  51.873  12.316  1.00  0.00    +0.000 C 
ATOM    120  H20 UNL A   1      15.987  52.730  12.676  1.00  0.00    +0.000 H 
BRANCH   20   19
ATOM     97  C71 UNL A   1      14.656  53.388  10.480  1.00  0.00    +0.000 C 
ATOM     98  C72 UNL A   1      13.664  53.950   9.675  1.00  0.00    +0.000 C 
ATOM     99  F16 UNL A   1      14.056  54.849   8.757  1.00  0.00    +0.000 F 
ATOM     16  C13 UNL A   1      12.307  53.612   9.813  1.00  0.00    +0.000 C 
ATOM     17  C14 UNL A   1      11.989  52.714  10.845  1.00  0.00    +0.000 C 
ATOM     18  C15 UNL A   1      12.978  52.178  11.685  1.00  0.00    +0.000 C 
ATOM     19  C16 UNL A   1      14.331  52.483  11.499  1.00  0.00    +0.000 C 
ATOM    118  H18 UNL A   1      11.004  52.441  10.988  1.00  0.00    +0.000 H 
ATOM    119  H19 UNL A   1      12.702  51.547  12.455  1.00  0.00    +0.000 H 
ATOM    152  H52 UNL A   1      15.643  53.644  10.324  1.00  0.00    +0.000 H 
BRANCH   16   15
ATOM    100  C73 UNL A   1      10.935  53.566   7.704  1.00  0.00    +0.000 C 
ATOM     11  C8  UNL A   1      10.045  54.152   6.798  1.00  0.00    +0.000 C 
ATOM     12  C9  UNL A   1       9.422  55.354   7.134  1.00  0.00    +0.000 C 
ATOM     13  C10 UNL A   1       9.672  55.947   8.369  1.00  0.00    +0.000 C 
ATOM     14  C11 UNL A   1      10.593  55.373   9.250  1.00  0.00    +0.000 C 
ATOM     15  C12 UNL A   1      11.264  54.180   8.928  1.00  0.00    +0.000 C 
ATOM    115  H15 UNL A   1       8.775  55.803   6.467  1.00  0.00    +0.000 H 
ATOM    116  H16 UNL A   1       9.177  56.814   8.633  1.00  0.00    +0.000 H 
ATOM    117  H17 UNL A   1      10.783  55.832  10.154  1.00  0.00    +0.000 H 
ATOM    153  H53 UNL A   1      11.365  52.657   7.468  1.00  0.00    +0.000 H 
BRANCH   11   10
ATOM     10  N1  UNL A   1       9.841  53.647   5.505  1.00  0.00    +0.000 N 
ATOM    114  H14 UNL A   1      10.523  53.892   4.840  1.00  0.00    +0.000 H 
BRANCH   10    8
ATOM      9  O2  UNL A   1       8.410  51.914   5.705  1.00  0.00    +0.000 O 
ATOM      8  C7  UNL A   1       8.822  52.856   5.045  1.00  0.00    +0.000 C 
BRANCH    8    7
ATOM      7  O1  UNL A   1       8.439  53.152   3.776  1.00  0.00    +0.000 O 
BRANCH    7    6
ATOM    113  H13 UNL A   1       9.974  54.488   3.667  1.00  0.00    +0.000 H 
ATOM      6  C6  UNL A   1       9.076  54.267   3.131  1.00  0.00    +0.000 C 
ATOM    112  H12 UNL A   1       8.403  55.100   3.139  1.00  0.00    +0.000 H 
BRANCH    6    5
ATOM      5  C5  UNL A   1       9.457  53.955   1.679  1.00  0.00    +0.000 C 
ATOM    110  H10 UNL A   1       8.726  53.280   1.286  1.00  0.00    +0.000 H 
ATOM    111  H11 UNL A   1       9.490  54.901   1.180  1.00  0.00    +0.000 H 
BRANCH    5    4
ATOM    108  H8  UNL A   1      10.789  52.303   1.782  1.00  0.00    +0.000 H 
ATOM      4  C4  UNL A   1      10.840  53.325   1.469  1.00  0.00    +0.000 C 
ATOM    109  H9  UNL A   1      11.066  53.443   0.430  1.00  0.00    +0.000 H 
BRANCH    4    3
ATOM    106  H6  UNL A   1      11.674  54.134   3.249  1.00  0.00    +0.000 H 
ATOM      3  C3  UNL A   1      11.986  54.000   2.234  1.00  0.00    +0.000 C 
ATOM    107  H7  UNL A   1      12.834  53.356   2.133  1.00  0.00    +0.000 H 
BRANCH    3    2
ATOM    105  H5  UNL A   1      13.191  55.735   2.320  1.00  0.00    +0.000 H 
ATOM      2  C2  UNL A   1      12.415  55.362   1.684  1.00  0.00    +0.000 C 
ATOM    104  H4  UNL A   1      11.564  56.010   1.676  1.00  0.00    +0.000 H 
BRANCH    2    1
ATOM      1  C1  UNL A   1      12.977  55.278   0.274  1.00  0.00    +0.000 C 
ATOM    101  H1  UNL A   1      13.424  54.317   0.125  1.00  0.00    +0.000 H 
ATOM    102  H2  UNL A   1      13.715  56.040   0.138  1.00  0.00    +0.000 H 
ATOM    103  H3  UNL A   1      12.187  55.416  -0.434  1.00  0.00    +0.000 H 
ENDBRANCH    2    1
ENDBRANCH    3    2
ENDBRANCH    4    3
ENDBRANCH    5    4
ENDBRANCH    6    5
ENDBRANCH    7    6
ENDBRANCH    8    7
ENDBRANCH   10    8
ENDBRANCH   11   10
ENDBRANCH   16   15
ENDBRANCH   20   19
BRANCH   20   21
ATOM    121  H21 UNL A   1      15.668  51.562  14.422  1.00  0.00    +0.000 H 
ATOM    122  H22 UNL A   1      15.207  50.130  13.531  1.00  0.00    +0.000 H 
ATOM    123  H23 UNL A   1      14.031  51.387  13.835  1.00  0.00    +0.000 H 
ATOM     21  C18 UNL A   1      15.062  51.187  13.624  1.00  0.00    +0.000 C 
ENDBRANCH   20   21
ENDBRANCH   22   20
ENDBRANCH   24   22
ENDBRANCH   25   24
ENDBRANCH   26   25
ENDBRANCH   27   26
ENDBRANCH   28   27
ENDBRANCH   29   28
ENDBRANCH   30   29
ENDBRANCH   31   30
ENDBRANCH   32   31
ENDBRANCH   34   32
ENDBRANCH   38   37
BRANCH   42   43
ATOM     43  C35 UNL A   1      16.921  48.624  -0.992  1.00  0.00    +0.000 C 
ATOM     44  C36 UNL A   1      16.172  48.319  -2.137  1.00  0.00    +0.000 C 
ATOM     45  F1  UNL A   1      15.062  49.015  -2.423  1.00  0.00    +0.000 F 
ATOM     46  C37 UNL A   1      16.544  47.272  -2.976  1.00  0.00    +0.000 C 
ATOM     47  F2  UNL A   1      15.793  46.972  -4.045  1.00  0.00    +0.000 F 
ATOM     48  C38 UNL A   1      17.684  46.531  -2.701  1.00  0.00    +0.000 C 
ATOM     49  F3  UNL A   1      18.044  45.527  -3.513  1.00  0.00    +0.000 F 
ATOM     50  C39 UNL A   1      18.448  46.826  -1.582  1.00  0.00    +0.000 C 
ATOM     51  F4  UNL A   1      19.554  46.116  -1.320  1.00  0.00    +0.000 F 
ATOM     52  C40 UNL A   1      18.066  47.857  -0.729  1.00  0.00    +0.000 C 
ATOM     53  F5  UNL A   1      18.818  48.114   0.352  1.00  0.00    +0.000 F 
ENDBRANCH   42   43
BRANCH   59   60
ATOM     65  C49 UNL A   1      18.499  57.877  -2.444  1.00  0.00    +0.000 C 
ATOM     66  F8  UNL A   1      18.956  58.860  -3.232  1.00  0.00    +0.000 F 
ATOM     67  C50 UNL A   1      19.347  57.268  -1.532  1.00  0.00    +0.000 C 
ATOM     68  F9  UNL A   1      20.621  57.673  -1.427  1.00  0.00    +0.000 F 
ATOM     69  C51 UNL A   1      18.879  56.233  -0.728  1.00  0.00    +0.000 C 
ATOM     70  F10 UNL A   1      19.724  55.651   0.136  1.00  0.00    +0.000 F 
ATOM     60  C46 UNL A   1      17.548  55.799  -0.815  1.00  0.00    +0.000 C 
ATOM     61  C47 UNL A   1      16.703  56.441  -1.732  1.00  0.00    +0.000 C 
ATOM     62  F6  UNL A   1      15.426  56.049  -1.859  1.00  0.00    +0.000 F 
ATOM     63  C48 UNL A   1      17.180  57.461  -2.547  1.00  0.00    +0.000 C 
ATOM     64  F7  UNL A   1      16.366  58.034  -3.447  1.00  0.00    +0.000 F 
ENDBRANCH   59   60
BRANCH   74   75
ATOM     75  C55 UNL A   1      14.626  55.825   5.498  1.00  0.00    +0.000 C 
ATOM     76  C56 UNL A   1      15.652  56.427   6.240  1.00  0.00    +0.000 C 
ATOM     77  F11 UNL A   1      16.920  56.020   6.080  1.00  0.00    +0.000 F 
ATOM     78  C57 UNL A   1      15.373  57.417   7.179  1.00  0.00    +0.000 C 
ATOM     79  F12 UNL A   1      16.366  57.947   7.905  1.00  0.00    +0.000 F 
ATOM     80  C58 UNL A   1      14.067  57.842   7.374  1.00  0.00    +0.000 C 
ATOM     81  F13 UNL A   1      13.798  58.795   8.277  1.00  0.00    +0.000 F 
ATOM     82  C59 UNL A   1      13.039  57.272   6.637  1.00  0.00    +0.000 C 
ATOM     83  F14 UNL A   1      11.777  57.688   6.816  1.00  0.00    +0.000 F 
ATOM     84  C60 UNL A   1      13.314  56.266   5.714  1.00  0.00    +0.000 C 
ATOM     85  F15 UNL A   1      12.301  55.724   5.023  1.00  0.00    +0.000 F 
ENDBRANCH   74   75
TORSDOF 27
ENDMDL
MODEL 10
REMARK VINA RESULT:      -6.4     43.524     46.951
ROOT
ATOM    140  H40 UNL A   1      27.694  33.550  44.029  1.00  0.00    +0.000 H 
ATOM    141  H41 UNL A   1      25.146  33.077  44.323  1.00  0.00    +0.000 H 
ATOM    142  H42 UNL A   1      26.202  36.160  46.879  1.00  0.00    +0.000 H 
ATOM    143  H43 UNL A   1      24.579  40.475  51.291  1.00  0.00    +0.000 H 
ATOM    144  H44 UNL A   1      27.081  40.866  51.077  1.00  0.00    +0.000 H 
ATOM    145  H45 UNL A   1      26.048  37.796  48.472  1.00  0.00    +0.000 H 
ATOM    146  H46 UNL A   1      21.110  37.059  49.095  1.00  0.00    +0.000 H 
ATOM    147  H47 UNL A   1      21.332  35.074  47.494  1.00  0.00    +0.000 H 
ATOM    148  H48 UNL A   1      31.098  37.045  46.251  1.00  0.00    +0.000 H 
ATOM    149  H49 UNL A   1      31.012  38.685  48.215  1.00  0.00    +0.000 H 
ATOM     38  C31 UNL A   1      28.382  39.138  49.220  1.00  0.00    +0.000 C 
ATOM     39  C32 UNL A   1      28.806  38.160  48.158  1.00  0.00    +0.000 C 
ATOM     40  N4  UNL A   1      28.078  37.311  47.474  1.00  0.00    +0.000 N 
ATOM     41  C33 UNL A   1      28.951  36.689  46.592  1.00  0.00    +0.000 C 
ATOM     42  C34 UNL A   1      28.691  35.706  45.696  1.00  0.00    +0.000 C 
ATOM     54  C41 UNL A   1      27.406  35.087  45.516  1.00  0.00    +0.000 C 
ATOM     55  C42 UNL A   1      27.057  34.047  44.670  1.00  0.00    +0.000 C 
ATOM     56  C43 UNL A   1      25.691  33.786  44.836  1.00  0.00    +0.000 C 
ATOM     57  C44 UNL A   1      25.199  34.645  45.805  1.00  0.00    +0.000 C 
ATOM     58  N5  UNL A   1      26.258  35.444  46.204  1.00  0.00    +0.000 N 
ATOM     59  C45 UNL A   1      23.863  34.729  46.334  1.00  0.00    +0.000 C 
ATOM     71  C52 UNL A   1      23.446  35.637  47.249  1.00  0.00    +0.000 C 
ATOM     72  N6  UNL A   1      24.173  36.640  47.876  1.00  0.00    +0.000 N 
ATOM     73  C53 UNL A   1      23.327  37.259  48.662  1.00  0.00    +0.000 C 
ATOM     74  C54 UNL A   1      23.572  38.405  49.603  1.00  0.00    +0.000 C 
ATOM     86  C61 UNL A   1      24.821  38.882  49.757  1.00  0.00    +0.000 C 
ATOM     87  C62 UNL A   1      25.215  39.956  50.664  1.00  0.00    +0.000 C 
ATOM     88  C63 UNL A   1      26.539  40.161  50.555  1.00  0.00    +0.000 C 
ATOM     89  C64 UNL A   1      27.087  39.222  49.576  1.00  0.00    +0.000 C 
ATOM     90  N7  UNL A   1      25.995  38.508  49.150  1.00  0.00    +0.000 N 
ATOM     91  C65 UNL A   1      21.956  36.730  48.604  1.00  0.00    +0.000 C 
ATOM     92  C66 UNL A   1      22.093  35.720  47.758  1.00  0.00    +0.000 C 
ATOM     93  C67 UNL A   1      30.257  37.276  46.804  1.00  0.00    +0.000 C 
ATOM     94  C68 UNL A   1      30.233  38.151  47.800  1.00  0.00    +0.000 C 
ENDROOT
BRANCH   38   37
ATOM     34  C27 UNL A   1      31.214  41.746  51.128  1.00  0.00    +0.000 C 
ATOM     35  C28 UNL A   1      30.346  42.245  50.148  1.00  0.00    +0.000 C 
ATOM     36  C29 UNL A   1      29.430  41.397  49.521  1.00  0.00    +0.000 C 
ATOM     37  C30 UNL A   1      29.384  40.034  49.852  1.00  0.00    +0.000 C 
ATOM    138  H38 UNL A   1      30.385  43.243  49.887  1.00  0.00    +0.000 H 
ATOM    139  H39 UNL A   1      28.784  41.775  48.810  1.00  0.00    +0.000 H 
ATOM    150  H50 UNL A   1      30.261  38.531  51.052  1.00  0.00    +0.000 H 
ATOM    151  H51 UNL A   1      31.746  40.034  52.244  1.00  0.00    +0.000 H 
ATOM     95  C69 UNL A   1      30.264  39.538  50.824  1.00  0.00    +0.000 C 
ATOM     96  C70 UNL A   1      31.144  40.396  51.487  1.00  0.00    +0.000 C 
BRANCH   34   32
ATOM     33  O4  UNL A   1      32.568  42.397  52.927  1.00  0.00    +0.000 O 
ATOM     32  C26 UNL A   1      32.102  42.702  51.831  1.00  0.00    +0.000 C 
BRANCH   32   31
ATOM    137  H37 UNL A   1      32.007  44.694  51.718  1.00  0.00    +0.000 H 
ATOM     31  N3  UNL A   1      32.425  43.916  51.283  1.00  0.00    +0.000 N 
BRANCH   31   30
ATOM     30  C25 UNL A   1      33.290  44.237  50.161  1.00  0.00    +0.000 C 
ATOM    135  H35 UNL A   1      32.691  44.337  49.280  1.00  0.00    +0.000 H 
ATOM    136  H36 UNL A   1      33.800  45.150  50.388  1.00  0.00    +0.000 H 
BRANCH   30   29
ATOM    133  H33 UNL A   1      35.275  43.640  49.720  1.00  0.00    +0.000 H 
ATOM     29  C24 UNL A   1      34.343  43.155  49.922  1.00  0.00    +0.000 C 
ATOM    134  H34 UNL A   1      34.353  42.553  50.807  1.00  0.00    +0.000 H 
BRANCH   29   28
ATOM    131  H31 UNL A   1      33.000  42.248  48.553  1.00  0.00    +0.000 H 
ATOM     28  C23 UNL A   1      34.048  42.196  48.762  1.00  0.00    +0.000 C 
ATOM    132  H32 UNL A   1      34.672  42.521  47.954  1.00  0.00    +0.000 H 
BRANCH   28   27
ATOM    129  H29 UNL A   1      35.344  40.531  48.513  1.00  0.00    +0.000 H 
ATOM    130  H30 UNL A   1      34.439  40.594  50.059  1.00  0.00    +0.000 H 
ATOM     27  C22 UNL A   1      34.409  40.724  48.997  1.00  0.00    +0.000 C 
BRANCH   27   26
ATOM     26  C21 UNL A   1      33.389  39.704  48.477  1.00  0.00    +0.000 C 
ATOM    127  H27 UNL A   1      32.758  39.415  49.290  1.00  0.00    +0.000 H 
ATOM    128  H28 UNL A   1      32.851  40.182  47.685  1.00  0.00    +0.000 H 
BRANCH   26   25
ATOM     25  C20 UNL A   1      34.017  38.442  47.883  1.00  0.00    +0.000 C 
ATOM    125  H25 UNL A   1      34.906  38.209  48.432  1.00  0.00    +0.000 H 
ATOM    126  H26 UNL A   1      33.300  37.653  47.952  1.00  0.00    +0.000 H 
BRANCH   25   24
ATOM    124  H24 UNL A   1      35.310  38.825  46.323  1.00  0.00    +0.000 H 
ATOM     24  N2  UNL A   1      34.362  38.614  46.487  1.00  0.00    +0.000 N 
BRANCH   24   22
ATOM     22  C19 UNL A   1      33.596  38.535  45.366  1.00  0.00    +0.000 C 
ATOM     23  O3  UNL A   1      33.257  37.402  45.004  1.00  0.00    +0.000 O 
BRANCH   22   20
ATOM     20  C17 UNL A   1      33.157  39.763  44.554  1.00  0.00    +0.000 C 
ATOM    120  H20 UNL A   1      32.971  39.414  43.561  1.00  0.00    +0.000 H 
BRANCH   20   19
ATOM     97  C71 UNL A   1      30.649  39.760  44.422  1.00  0.00    +0.000 C 
ATOM     98  C72 UNL A   1      29.383  40.202  44.808  1.00  0.00    +0.000 C 
ATOM     99  F16 UNL A   1      28.327  39.658  44.182  1.00  0.00    +0.000 F 
ATOM     16  C13 UNL A   1      29.201  41.182  45.799  1.00  0.00    +0.000 C 
ATOM     17  C14 UNL A   1      30.368  41.739  46.347  1.00  0.00    +0.000 C 
ATOM     18  C15 UNL A   1      31.645  41.329  45.933  1.00  0.00    +0.000 C 
ATOM     19  C16 UNL A   1      31.808  40.313  44.985  1.00  0.00    +0.000 C 
ATOM    118  H18 UNL A   1      30.284  42.467  47.074  1.00  0.00    +0.000 H 
ATOM    119  H19 UNL A   1      32.480  41.786  46.334  1.00  0.00    +0.000 H 
ATOM    152  H52 UNL A   1      30.734  39.017  43.712  1.00  0.00    +0.000 H 
BRANCH   16   15
ATOM    100  C73 UNL A   1      27.616  42.942  46.649  1.00  0.00    +0.000 C 
ATOM     11  C8  UNL A   1      26.385  43.340  47.181  1.00  0.00    +0.000 C 
ATOM     12  C9  UNL A   1      25.343  42.417  47.257  1.00  0.00    +0.000 C 
ATOM     13  C10 UNL A   1      25.527  41.119  46.787  1.00  0.00    +0.000 C 
ATOM     14  C11 UNL A   1      26.772  40.720  46.293  1.00  0.00    +0.000 C 
ATOM     15  C12 UNL A   1      27.854  41.617  46.234  1.00  0.00    +0.000 C 
ATOM    115  H15 UNL A   1      24.436  42.695  47.662  1.00  0.00    +0.000 H 
ATOM    116  H16 UNL A   1      24.741  40.449  46.804  1.00  0.00    +0.000 H 
ATOM    117  H17 UNL A   1      26.901  39.751  45.965  1.00  0.00    +0.000 H 
ATOM    153  H53 UNL A   1      28.373  43.638  46.559  1.00  0.00    +0.000 H 
BRANCH   11   10
ATOM     10  N1  UNL A   1      26.186  44.603  47.760  1.00  0.00    +0.000 N 
ATOM    114  H14 UNL A   1      26.999  45.063  48.068  1.00  0.00    +0.000 H 
BRANCH   10    8
ATOM      9  O2  UNL A   1      24.642  46.136  47.161  1.00  0.00    +0.000 O 
ATOM      8  C7  UNL A   1      25.012  45.281  47.952  1.00  0.00    +0.000 C 
BRANCH    8    7
ATOM      7  O1  UNL A   1      24.411  44.997  49.137  1.00  0.00    +0.000 O 
BRANCH    7    6
ATOM    113  H13 UNL A   1      22.680  46.027  48.824  1.00  0.00    +0.000 H 
ATOM      6  C6  UNL A   1      22.977  45.067  49.190  1.00  0.00    +0.000 C 
ATOM    112  H12 UNL A   1      22.661  44.923  50.203  1.00  0.00    +0.000 H 
BRANCH    6    5
ATOM      5  C5  UNL A   1      22.313  44.000  48.312  1.00  0.00    +0.000 C 
ATOM    110  H10 UNL A   1      23.078  43.533  47.727  1.00  0.00    +0.000 H 
ATOM    111  H11 UNL A   1      21.815  43.337  48.989  1.00  0.00    +0.000 H 
BRANCH    5    4
ATOM    108  H8  UNL A   1      21.694  44.729  46.414  1.00  0.00    +0.000 H 
ATOM      4  C4  UNL A   1      21.228  44.504  47.350  1.00  0.00    +0.000 C 
ATOM    109  H9  UNL A   1      20.499  43.723  47.288  1.00  0.00    +0.000 H 
BRANCH    4    3
ATOM    106  H6  UNL A   1      21.155  46.367  48.371  1.00  0.00    +0.000 H 
ATOM      3  C3  UNL A   1      20.473  45.755  47.817  1.00  0.00    +0.000 C 
ATOM    107  H7  UNL A   1      20.100  46.229  46.933  1.00  0.00    +0.000 H 
BRANCH    3    2
ATOM    105  H5  UNL A   1      19.512  45.770  49.700  1.00  0.00    +0.000 H 
ATOM      2  C2  UNL A   1      19.255  45.481  48.702  1.00  0.00    +0.000 C 
ATOM    104  H4  UNL A   1      19.015  44.440  48.640  1.00  0.00    +0.000 H 
BRANCH    2    1
ATOM      1  C1  UNL A   1      18.034  46.288  48.290  1.00  0.00    +0.000 C 
ATOM    101  H1  UNL A   1      18.348  47.175  47.781  1.00  0.00    +0.000 H 
ATOM    102  H2  UNL A   1      17.473  46.556  49.161  1.00  0.00    +0.000 H 
ATOM    103  H3  UNL A   1      17.422  45.701  47.638  1.00  0.00    +0.000 H 
ENDBRANCH    2    1
ENDBRANCH    3    2
ENDBRANCH    4    3
ENDBRANCH    5    4
ENDBRANCH    6    5
ENDBRANCH    7    6
ENDBRANCH    8    7
ENDBRANCH   10    8
ENDBRANCH   11   10
ENDBRANCH   16   15
ENDBRANCH   20   19
BRANCH   20   21
ATOM    121  H21 UNL A   1      33.838  41.750  44.148  1.00  0.00    +0.000 H 
ATOM    122  H22 UNL A   1      34.843  40.496  43.460  1.00  0.00    +0.000 H 
ATOM    123  H23 UNL A   1      34.907  40.825  45.175  1.00  0.00    +0.000 H 
ATOM     21  C18 UNL A   1      34.269  40.785  44.316  1.00  0.00    +0.000 C 
ENDBRANCH   20   21
ENDBRANCH   22   20
ENDBRANCH   24   22
ENDBRANCH   25   24
ENDBRANCH   26   25
ENDBRANCH   27   26
ENDBRANCH   28   27
ENDBRANCH   29   28
ENDBRANCH   30   29
ENDBRANCH   31   30
ENDBRANCH   32   31
ENDBRANCH   34   32
ENDBRANCH   38   37
BRANCH   42   43
ATOM     43  C35 UNL A   1      29.828  35.232  44.841  1.00  0.00    +0.000 C 
ATOM     44  C36 UNL A   1      30.159  35.875  43.639  1.00  0.00    +0.000 C 
ATOM     45  F1  UNL A   1      29.422  36.907  43.201  1.00  0.00    +0.000 F 
ATOM     46  C37 UNL A   1      31.229  35.435  42.865  1.00  0.00    +0.000 C 
ATOM     47  F2  UNL A   1      31.505  36.039  41.700  1.00  0.00    +0.000 F 
ATOM     48  C38 UNL A   1      32.004  34.366  43.291  1.00  0.00    +0.000 C 
ATOM     49  F3  UNL A   1      33.038  33.948  42.547  1.00  0.00    +0.000 F 
ATOM     50  C39 UNL A   1      31.705  33.727  44.484  1.00  0.00    +0.000 C 
ATOM     51  F4  UNL A   1      32.457  32.700  44.900  1.00  0.00    +0.000 F 
ATOM     52  C40 UNL A   1      30.621  34.149  45.249  1.00  0.00    +0.000 C 
ATOM     53  F5  UNL A   1      30.348  33.505  46.394  1.00  0.00    +0.000 F 
ENDBRANCH   42   43
BRANCH   59   60
ATOM     65  C49 UNL A   1      20.995  31.836  44.943  1.00  0.00    +0.000 C 
ATOM     66  F8  UNL A   1      20.099  30.935  44.519  1.00  0.00    +0.000 F 
ATOM     67  C50 UNL A   1      21.944  31.479  45.889  1.00  0.00    +0.000 C 
ATOM     68  F9  UNL A   1      21.974  30.228  46.369  1.00  0.00    +0.000 F 
ATOM     69  C51 UNL A   1      22.862  32.420  46.346  1.00  0.00    +0.000 C 
ATOM     70  F10 UNL A   1      23.760  32.052  47.272  1.00  0.00    +0.000 F 
ATOM     60  C46 UNL A   1      22.855  33.733  45.851  1.00  0.00    +0.000 C 
ATOM     61  C47 UNL A   1      21.898  34.067  44.882  1.00  0.00    +0.000 C 
ATOM     62  F6  UNL A   1      21.845  35.316  44.392  1.00  0.00    +0.000 F 
ATOM     63  C48 UNL A   1      20.970  33.130  44.443  1.00  0.00    +0.000 C 
ATOM     64  F7  UNL A   1      20.037  33.482  43.546  1.00  0.00    +0.000 F 
ENDBRANCH   59   60
BRANCH   74   75
ATOM     75  C55 UNL A   1      22.459  38.985  50.396  1.00  0.00    +0.000 C 
ATOM     76  C56 UNL A   1      22.058  38.398  51.604  1.00  0.00    +0.000 C 
ATOM     77  F11 UNL A   1      22.672  37.292  52.047  1.00  0.00    +0.000 F 
ATOM     78  C57 UNL A   1      20.998  38.923  52.338  1.00  0.00    +0.000 C 
ATOM     79  F12 UNL A   1      20.607  38.320  53.470  1.00  0.00    +0.000 F 
ATOM     80  C58 UNL A   1      20.335  40.057  51.892  1.00  0.00    +0.000 C 
ATOM     81  F13 UNL A   1      19.315  40.561  52.599  1.00  0.00    +0.000 F 
ATOM     82  C59 UNL A   1      20.728  40.663  50.708  1.00  0.00    +0.000 C 
ATOM     83  F14 UNL A   1      20.097  41.764  50.278  1.00  0.00    +0.000 F 
ATOM     84  C60 UNL A   1      21.774  40.126  49.960  1.00  0.00    +0.000 C 
ATOM     85  F15 UNL A   1      22.126  40.725  48.813  1.00  0.00    +0.000 F 
ENDBRANCH   74   75
TORSDOF 27
ENDMDL
