MODEL 1
REMARK VINA RESULT:      -9.2      0.000      0.000
ROOT
ATOM     32  C23 UNL A   1      13.747  53.625   5.317  1.00  0.00    +0.000 C 
ATOM     33  C24 UNL A   1      14.702  54.090   4.255  1.00  0.00    +0.000 C 
ATOM     34  N6  UNL A   1      15.190  53.432   3.234  1.00  0.00    +0.000 N 
ATOM     35  C25 UNL A   1      15.980  54.341   2.542  1.00  0.00    +0.000 C 
ATOM     36  C26 UNL A   1      16.746  54.131   1.446  1.00  0.00    +0.000 C 
ATOM     48  C33 UNL A   1      16.880  52.861   0.782  1.00  0.00    +0.000 C 
ATOM     49  C34 UNL A   1      17.682  52.531  -0.296  1.00  0.00    +0.000 C 
ATOM     50  C35 UNL A   1      17.449  51.189  -0.621  1.00  0.00    +0.000 C 
ATOM     51  C36 UNL A   1      16.533  50.672   0.283  1.00  0.00    +0.000 C 
ATOM     52  N7  UNL A   1      16.190  51.710   1.135  1.00  0.00    +0.000 N 
ATOM     53  C37 UNL A   1      16.011  49.333   0.364  1.00  0.00    +0.000 C 
ATOM     65  C44 UNL A   1      15.120  48.899   1.289  1.00  0.00    +0.000 C 
ATOM     66  N8  UNL A   1      14.531  49.604   2.330  1.00  0.00    +0.000 N 
ATOM     67  C45 UNL A   1      13.740  48.756   2.937  1.00  0.00    +0.000 C 
ATOM     68  C46 UNL A   1      12.872  48.967   4.148  1.00  0.00    +0.000 C 
ATOM     80  C53 UNL A   1      12.879  50.164   4.763  1.00  0.00    +0.000 C 
ATOM     81  C54 UNL A   1      12.102  50.513   5.948  1.00  0.00    +0.000 C 
ATOM     82  C55 UNL A   1      12.327  51.800   6.257  1.00  0.00    +0.000 C 
ATOM     83  C56 UNL A   1      13.292  52.357   5.309  1.00  0.00    +0.000 C 
ATOM     84  N9  UNL A   1      13.570  51.313   4.463  1.00  0.00    +0.000 N 
ATOM     85  C57 UNL A   1      13.715  47.417   2.331  1.00  0.00    +0.000 C 
ATOM     86  C58 UNL A   1      14.601  47.549   1.354  1.00  0.00    +0.000 C 
ATOM     87  C59 UNL A   1      15.867  55.609   3.231  1.00  0.00    +0.000 C 
ATOM     88  C60 UNL A   1      15.142  55.491   4.334  1.00  0.00    +0.000 C 
ATOM    117  H27 UNL A   1      18.340  53.163  -0.778  1.00  0.00    +0.000 H 
ATOM    118  H28 UNL A   1      17.883  50.672  -1.401  1.00  0.00    +0.000 H 
ATOM    119  H29 UNL A   1      15.552  51.641   1.881  1.00  0.00    +0.000 H 
ATOM    120  H30 UNL A   1      11.480  49.873   6.465  1.00  0.00    +0.000 H 
ATOM    121  H31 UNL A   1      11.889  52.314   7.037  1.00  0.00    +0.000 H 
ATOM    122  H32 UNL A   1      14.203  51.380   3.712  1.00  0.00    +0.000 H 
ATOM    123  H33 UNL A   1      13.155  46.592   2.597  1.00  0.00    +0.000 H 
ATOM    124  H34 UNL A   1      14.885  46.786   0.719  1.00  0.00    +0.000 H 
ATOM    125  H35 UNL A   1      16.295  56.490   2.905  1.00  0.00    +0.000 H 
ATOM    126  H36 UNL A   1      14.940  56.198   5.058  1.00  0.00    +0.000 H 
ENDROOT
BRANCH   32   31
ATOM    115  H25 UNL A   1      10.775  56.782   6.922  1.00  0.00    +0.000 H 
ATOM    116  H26 UNL A   1      11.501  55.144   5.284  1.00  0.00    +0.000 H 
ATOM     89  C61 UNL A   1      13.967  54.757   7.529  1.00  0.00    +0.000 C 
ATOM     90  C62 UNL A   1      13.507  55.641   8.502  1.00  0.00    +0.000 C 
ATOM    127  H37 UNL A   1      14.842  54.233   7.684  1.00  0.00    +0.000 H 
ATOM     28  C19 UNL A   1      12.375  56.422   8.254  1.00  0.00    +0.000 C 
ATOM     29  C20 UNL A   1      11.635  56.234   7.085  1.00  0.00    +0.000 C 
ATOM     30  C21 UNL A   1      12.060  55.302   6.137  1.00  0.00    +0.000 C 
ATOM     31  C22 UNL A   1      13.246  54.577   6.339  1.00  0.00    +0.000 C 
ATOM    128  H38 UNL A   1      14.002  55.718   9.405  1.00  0.00    +0.000 H 
BRANCH   28   26
ATOM     26  C18 UNL A   1      11.931  57.448   9.222  1.00  0.00    +0.000 C 
ATOM     27  O3  UNL A   1      12.205  58.629   9.026  1.00  0.00    +0.000 O 
BRANCH   26   25
ATOM     25  N5  UNL A   1      11.234  57.076  10.343  1.00  0.00    +0.000 N 
ATOM    114  H24 UNL A   1      11.407  57.618  11.147  1.00  0.00    +0.000 H 
BRANCH   25   24
ATOM    113  H23 UNL A   1      10.488  55.253   9.772  1.00  0.00    +0.000 H 
ATOM    112  H22 UNL A   1       9.289  56.392  10.396  1.00  0.00    +0.000 H 
ATOM     24  C17 UNL A   1      10.275  55.996  10.511  1.00  0.00    +0.000 C 
BRANCH   24   23
ATOM    111  H21 UNL A   1      11.041  54.502  11.763  1.00  0.00    +0.000 H 
ATOM    110  H20 UNL A   1       9.397  55.056  12.194  1.00  0.00    +0.000 H 
ATOM     23  C16 UNL A   1      10.382  55.336  11.882  1.00  0.00    +0.000 C 
BRANCH   23   22
ATOM    108  H18 UNL A   1      11.477  57.045  12.500  1.00  0.00    +0.000 H 
ATOM    109  H19 UNL A   1      10.187  56.499  13.615  1.00  0.00    +0.000 H 
ATOM     22  C15 UNL A   1      10.996  56.216  12.975  1.00  0.00    +0.000 C 
BRANCH   22   21
ATOM    106  H16 UNL A   1      12.642  56.275  14.314  1.00  0.00    +0.000 H 
ATOM    107  H17 UNL A   1      11.463  54.957  14.588  1.00  0.00    +0.000 H 
ATOM     21  C14 UNL A   1      12.025  55.521  13.873  1.00  0.00    +0.000 C 
BRANCH   21   20
ATOM    105  H15 UNL A   1      13.933  54.905  13.222  1.00  0.00    +0.000 H 
ATOM     20  C13 UNL A   1      12.938  54.516  13.161  1.00  0.00    +0.000 C 
ATOM    104  H14 UNL A   1      12.598  54.407  12.153  1.00  0.00    +0.000 H 
BRANCH   20   19
ATOM     19  C12 UNL A   1      12.966  53.134  13.808  1.00  0.00    +0.000 C 
ATOM    102  H12 UNL A   1      13.980  52.869  14.028  1.00  0.00    +0.000 H 
ATOM    103  H13 UNL A   1      12.387  53.164  14.708  1.00  0.00    +0.000 H 
BRANCH   19   18
ATOM     18  N4  UNL A   1      12.395  52.137  12.921  1.00  0.00    +0.000 N 
ATOM    101  H11 UNL A   1      11.413  52.160  12.858  1.00  0.00    +0.000 H 
BRANCH   18   16
ATOM     17  O2  UNL A   1      13.224  50.094  12.706  1.00  0.00    +0.000 O 
ATOM     16  C11 UNL A   1      12.991  51.178  12.160  1.00  0.00    +0.000 C 
BRANCH   16    2
ATOM      2  C2  UNL A   1      13.362  51.406  10.691  1.00  0.00    +0.000 C 
ATOM     94  H4  UNL A   1      13.055  50.577  10.089  1.00  0.00    +0.000 H 
BRANCH    2    1
ATOM      1  C1  UNL A   1      12.578  52.549  10.055  1.00  0.00    +0.000 C 
ATOM     91  H1  UNL A   1      12.970  53.484  10.398  1.00  0.00    +0.000 H 
ATOM     92  H2  UNL A   1      11.547  52.472  10.331  1.00  0.00    +0.000 H 
ATOM     93  H3  UNL A   1      12.668  52.493   8.990  1.00  0.00    +0.000 H 
ENDBRANCH    2    1
BRANCH    2    3
ATOM      3  S1  UNL A   1      15.184  51.500  10.568  1.00  0.00    +0.000 S 
BRANCH    3    4
ATOM     97  H7  UNL A   1      17.329  48.696   3.738  1.00  0.00    +0.000 H 
ATOM     98  H8  UNL A   1      16.598  47.433   5.683  1.00  0.00    +0.000 H 
ATOM      4  C3  UNL A   1      15.494  50.582   9.116  1.00  0.00    +0.000 C 
ATOM      5  N1  UNL A   1      15.834  51.254   8.065  1.00  0.00    +0.000 N 
ATOM      6  C4  UNL A   1      16.197  50.541   6.914  1.00  0.00    +0.000 C 
ATOM      7  C5  UNL A   1      16.614  51.254   5.787  1.00  0.00    +0.000 C 
ATOM      8  C6  UNL A   1      17.028  50.584   4.632  1.00  0.00    +0.000 C 
ATOM      9  C7  UNL A   1      17.024  49.190   4.592  1.00  0.00    +0.000 C 
ATOM     10  C8  UNL A   1      16.607  48.464   5.707  1.00  0.00    +0.000 C 
ATOM     11  C9  UNL A   1      16.199  49.146   6.860  1.00  0.00    +0.000 C 
ATOM     12  C10 UNL A   1      15.787  48.408   8.067  1.00  0.00    +0.000 C 
ATOM     13  O1  UNL A   1      15.781  47.178   8.084  1.00  0.00    +0.000 O 
ATOM     14  N2  UNL A   1      15.442  49.193   9.168  1.00  0.00    +0.000 N 
ATOM     95  H5  UNL A   1      16.617  52.286   5.808  1.00  0.00    +0.000 H 
ATOM     96  H6  UNL A   1      17.338  51.122   3.808  1.00  0.00    +0.000 H 
BRANCH   14   15
ATOM     99  H9  UNL A   1      14.918  48.988  11.198  1.00  0.00    +0.000 H 
ATOM    100  H10 UNL A   1      14.914  47.519  10.332  1.00  0.00    +0.000 H 
ATOM     15  N3  UNL A   1      15.051  48.493  10.356  1.00  0.00    +0.000 N 
ENDBRANCH   14   15
ENDBRANCH    3    4
ENDBRANCH    2    3
ENDBRANCH   16    2
ENDBRANCH   18   16
ENDBRANCH   19   18
ENDBRANCH   20   19
ENDBRANCH   21   20
ENDBRANCH   22   21
ENDBRANCH   23   22
ENDBRANCH   24   23
ENDBRANCH   25   24
ENDBRANCH   26   25
ENDBRANCH   28   26
ENDBRANCH   32   31
BRANCH   36   37
ATOM     37  C27 UNL A   1      17.503  55.306   0.896  1.00  0.00    +0.000 C 
ATOM     38  C28 UNL A   1      18.782  55.640   1.363  1.00  0.00    +0.000 C 
ATOM     39  F1  UNL A   1      19.348  54.928   2.350  1.00  0.00    +0.000 F 
ATOM     40  C29 UNL A   1      19.469  56.737   0.850  1.00  0.00    +0.000 C 
ATOM     41  F2  UNL A   1      20.668  57.069   1.349  1.00  0.00    +0.000 F 
ATOM     42  C30 UNL A   1      18.907  57.496  -0.165  1.00  0.00    +0.000 C 
ATOM     43  F3  UNL A   1      19.571  58.550  -0.661  1.00  0.00    +0.000 F 
ATOM     44  C31 UNL A   1      17.654  57.169  -0.661  1.00  0.00    +0.000 C 
ATOM     45  F4  UNL A   1      17.115  57.895  -1.650  1.00  0.00    +0.000 F 
ATOM     46  C32 UNL A   1      16.952  56.091  -0.128  1.00  0.00    +0.000 C 
ATOM     47  F5  UNL A   1      15.734  55.810  -0.616  1.00  0.00    +0.000 F 
ENDBRANCH   36   37
BRANCH   53   54
ATOM     54  C38 UNL A   1      16.504  48.330  -0.636  1.00  0.00    +0.000 C 
ATOM     55  C39 UNL A   1      15.727  47.950  -1.740  1.00  0.00    +0.000 C 
ATOM     56  F6  UNL A   1      14.489  48.443  -1.896  1.00  0.00    +0.000 F 
ATOM     57  C40 UNL A   1      16.208  47.033  -2.670  1.00  0.00    +0.000 C 
ATOM     58  F7  UNL A   1      15.433  46.652  -3.695  1.00  0.00    +0.000 F 
ATOM     59  C41 UNL A   1      17.482  46.503  -2.532  1.00  0.00    +0.000 C 
ATOM     60  F8  UNL A   1      17.946  45.625  -3.434  1.00  0.00    +0.000 F 
ATOM     61  C42 UNL A   1      18.274  46.877  -1.457  1.00  0.00    +0.000 C 
ATOM     62  F9  UNL A   1      19.509  46.375  -1.327  1.00  0.00    +0.000 F 
ATOM     63  C43 UNL A   1      17.785  47.773  -0.510  1.00  0.00    +0.000 C 
ATOM     64  F10 UNL A   1      18.569  48.108   0.525  1.00  0.00    +0.000 F 
ENDBRANCH   53   54
BRANCH   68   69
ATOM     69  C47 UNL A   1      12.037  47.866   4.691  1.00  0.00    +0.000 C 
ATOM     70  C48 UNL A   1      10.676  47.774   4.369  1.00  0.00    +0.000 C 
ATOM     71  F11 UNL A   1      10.109  48.704   3.588  1.00  0.00    +0.000 F 
ATOM     72  C49 UNL A   1       9.886  46.745   4.876  1.00  0.00    +0.000 C 
ATOM     73  F12 UNL A   1       8.578  46.700   4.582  1.00  0.00    +0.000 F 
ATOM     74  C50 UNL A   1      10.446  45.774   5.693  1.00  0.00    +0.000 C 
ATOM     75  F13 UNL A   1       9.687  44.781   6.175  1.00  0.00    +0.000 F 
ATOM     76  C51 UNL A   1      11.794  45.839   6.015  1.00  0.00    +0.000 C 
ATOM     77  F14 UNL A   1      12.341  44.897   6.794  1.00  0.00    +0.000 F 
ATOM     78  C52 UNL A   1      12.579  46.881   5.529  1.00  0.00    +0.000 C 
ATOM     79  F15 UNL A   1      13.878  46.923   5.862  1.00  0.00    +0.000 F 
ENDBRANCH   68   69
TORSDOF 19
ENDMDL
MODEL 2
REMARK VINA RESULT:      -9.1     46.339     51.257
ROOT
ATOM     32  C23 UNL A   1      53.572  19.702  11.712  1.00  0.00    +0.000 C 
ATOM     33  C24 UNL A   1      54.934  19.077  11.602  1.00  0.00    +0.000 C 
ATOM     34  N6  UNL A   1      55.907  19.050  12.477  1.00  0.00    +0.000 N 
ATOM     35  C25 UNL A   1      56.921  18.304  11.892  1.00  0.00    +0.000 C 
ATOM     36  C26 UNL A   1      58.157  18.035  12.373  1.00  0.00    +0.000 C 
ATOM     48  C33 UNL A   1      58.655  18.508  13.638  1.00  0.00    +0.000 C 
ATOM     49  C34 UNL A   1      59.916  18.346  14.185  1.00  0.00    +0.000 C 
ATOM     50  C35 UNL A   1      59.925  18.944  15.450  1.00  0.00    +0.000 C 
ATOM     51  C36 UNL A   1      58.682  19.517  15.672  1.00  0.00    +0.000 C 
ATOM     52  N7  UNL A   1      57.913  19.239  14.554  1.00  0.00    +0.000 N 
ATOM     53  C37 UNL A   1      58.230  20.263  16.818  1.00  0.00    +0.000 C 
ATOM     65  C44 UNL A   1      56.994  20.804  16.958  1.00  0.00    +0.000 C 
ATOM     66  N8  UNL A   1      55.925  20.774  16.073  1.00  0.00    +0.000 N 
ATOM     67  C45 UNL A   1      54.953  21.426  16.661  1.00  0.00    +0.000 C 
ATOM     68  C46 UNL A   1      53.570  21.728  16.154  1.00  0.00    +0.000 C 
ATOM     80  C53 UNL A   1      53.219  21.325  14.918  1.00  0.00    +0.000 C 
ATOM     81  C54 UNL A   1      51.922  21.553  14.288  1.00  0.00    +0.000 C 
ATOM     82  C55 UNL A   1      51.917  20.978  13.075  1.00  0.00    +0.000 C 
ATOM     83  C56 UNL A   1      53.223  20.369  12.830  1.00  0.00    +0.000 C 
ATOM     84  N9  UNL A   1      53.934  20.630  13.973  1.00  0.00    +0.000 N 
ATOM     85  C57 UNL A   1      55.288  21.921  18.004  1.00  0.00    +0.000 C 
ATOM     86  C58 UNL A   1      56.554  21.547  18.120  1.00  0.00    +0.000 C 
ATOM     87  C59 UNL A   1      56.427  17.855  10.608  1.00  0.00    +0.000 C 
ATOM     88  C60 UNL A   1      55.230  18.362  10.352  1.00  0.00    +0.000 C 
ATOM    117  H27 UNL A   1      60.713  17.867  13.737  1.00  0.00    +0.000 H 
ATOM    118  H28 UNL A   1      60.720  18.956  16.107  1.00  0.00    +0.000 H 
ATOM    119  H29 UNL A   1      56.977  19.518  14.428  1.00  0.00    +0.000 H 
ATOM    120  H30 UNL A   1      51.136  22.073  14.709  1.00  0.00    +0.000 H 
ATOM    121  H31 UNL A   1      51.118  20.967  12.422  1.00  0.00    +0.000 H 
ATOM    122  H32 UNL A   1      54.868  20.347  14.106  1.00  0.00    +0.000 H 
ATOM    123  H33 UNL A   1      54.694  22.428  18.679  1.00  0.00    +0.000 H 
ATOM    124  H34 UNL A   1      57.151  21.759  18.935  1.00  0.00    +0.000 H 
ATOM    125  H35 UNL A   1      56.940  17.222   9.974  1.00  0.00    +0.000 H 
ATOM    126  H36 UNL A   1      54.656  18.276   9.498  1.00  0.00    +0.000 H 
ENDROOT
BRANCH   32   31
ATOM    115  H25 UNL A   1      51.285  21.096   7.943  1.00  0.00    +0.000 H 
ATOM    116  H26 UNL A   1      53.000  21.357   9.641  1.00  0.00    +0.000 H 
ATOM     89  C61 UNL A   1      51.806  18.361  10.571  1.00  0.00    +0.000 C 
ATOM     90  C62 UNL A   1      50.876  18.178   9.551  1.00  0.00    +0.000 C 
ATOM    127  H37 UNL A   1      51.925  17.633  11.294  1.00  0.00    +0.000 H 
ATOM     28  C19 UNL A   1      50.646  19.202   8.627  1.00  0.00    +0.000 C 
ATOM     29  C20 UNL A   1      51.428  20.358   8.652  1.00  0.00    +0.000 C 
ATOM     30  C21 UNL A   1      52.405  20.514   9.637  1.00  0.00    +0.000 C 
ATOM     31  C22 UNL A   1      52.581  19.529  10.622  1.00  0.00    +0.000 C 
ATOM    128  H38 UNL A   1      50.359  17.287   9.477  1.00  0.00    +0.000 H 
BRANCH   28   26
ATOM     26  C18 UNL A   1      49.586  19.079   7.603  1.00  0.00    +0.000 C 
ATOM     27  O3  UNL A   1      49.072  20.091   7.135  1.00  0.00    +0.000 O 
BRANCH   26   25
ATOM     25  N5  UNL A   1      49.169  17.838   7.195  1.00  0.00    +0.000 N 
ATOM    114  H24 UNL A   1      48.346  17.507   7.624  1.00  0.00    +0.000 H 
BRANCH   25   24
ATOM    113  H23 UNL A   1      50.195  16.119   6.749  1.00  0.00    +0.000 H 
ATOM    112  H22 UNL A   1      50.509  17.483   5.668  1.00  0.00    +0.000 H 
ATOM     24  C17 UNL A   1      49.768  16.944   6.218  1.00  0.00    +0.000 C 
BRANCH   24   23
ATOM    111  H21 UNL A   1      48.839  15.320   5.274  1.00  0.00    +0.000 H 
ATOM    110  H20 UNL A   1      48.943  16.797   4.272  1.00  0.00    +0.000 H 
ATOM     23  C16 UNL A   1      48.740  16.385   5.239  1.00  0.00    +0.000 C 
BRANCH   23   22
ATOM    108  H18 UNL A   1      46.761  15.763   5.684  1.00  0.00    +0.000 H 
ATOM    109  H19 UNL A   1      47.309  17.262   6.495  1.00  0.00    +0.000 H 
ATOM     22  C15 UNL A   1      47.282  16.693   5.590  1.00  0.00    +0.000 C 
BRANCH   22   21
ATOM    106  H16 UNL A   1      46.742  17.171   3.593  1.00  0.00    +0.000 H 
ATOM    107  H17 UNL A   1      45.496  17.497   4.836  1.00  0.00    +0.000 H 
ATOM     21  C14 UNL A   1      46.531  17.554   4.569  1.00  0.00    +0.000 C 
BRANCH   21   20
ATOM    105  H15 UNL A   1      47.666  19.181   3.856  1.00  0.00    +0.000 H 
ATOM     20  C13 UNL A   1      46.892  19.044   4.582  1.00  0.00    +0.000 C 
ATOM    104  H14 UNL A   1      47.203  19.307   5.572  1.00  0.00    +0.000 H 
BRANCH   20   19
ATOM     19  C12 UNL A   1      45.744  19.967   4.181  1.00  0.00    +0.000 C 
ATOM    102  H12 UNL A   1      45.082  20.085   5.013  1.00  0.00    +0.000 H 
ATOM    103  H13 UNL A   1      46.151  20.914   3.892  1.00  0.00    +0.000 H 
BRANCH   19   18
ATOM     18  N4  UNL A   1      45.008  19.416   3.059  1.00  0.00    +0.000 N 
ATOM    101  H11 UNL A   1      45.564  18.954   2.391  1.00  0.00    +0.000 H 
BRANCH   18   16
ATOM     17  O2  UNL A   1      43.019  18.440   3.122  1.00  0.00    +0.000 O 
ATOM     16  C11 UNL A   1      43.675  19.429   2.777  1.00  0.00    +0.000 C 
BRANCH   16    2
ATOM      2  C2  UNL A   1      42.996  20.606   2.069  1.00  0.00    +0.000 C 
ATOM     94  H4  UNL A   1      42.217  21.016   2.677  1.00  0.00    +0.000 H 
BRANCH    2    1
ATOM      1  C1  UNL A   1      43.918  21.810   1.907  1.00  0.00    +0.000 C 
ATOM     91  H1  UNL A   1      44.774  21.527   1.329  1.00  0.00    +0.000 H 
ATOM     92  H2  UNL A   1      44.235  22.149   2.871  1.00  0.00    +0.000 H 
ATOM     93  H3  UNL A   1      43.393  22.596   1.406  1.00  0.00    +0.000 H 
ENDBRANCH    2    1
BRANCH    2    3
ATOM      3  S1  UNL A   1      42.200  19.978   0.547  1.00  0.00    +0.000 S 
BRANCH    3    4
ATOM     97  H7  UNL A   1      35.161  20.187   3.629  1.00  0.00    +0.000 H 
ATOM     98  H8  UNL A   1      35.943  21.392   1.668  1.00  0.00    +0.000 H 
ATOM      4  C3  UNL A   1      40.506  20.140   0.933  1.00  0.00    +0.000 C 
ATOM      5  N1  UNL A   1      40.073  19.462   1.945  1.00  0.00    +0.000 N 
ATOM      6  C4  UNL A   1      38.745  19.655   2.351  1.00  0.00    +0.000 C 
ATOM      7  C5  UNL A   1      38.281  18.965   3.473  1.00  0.00    +0.000 C 
ATOM      8  C6  UNL A   1      36.977  19.159   3.941  1.00  0.00    +0.000 C 
ATOM      9  C7  UNL A   1      36.124  20.045   3.285  1.00  0.00    +0.000 C 
ATOM     10  C8  UNL A   1      36.571  20.738   2.160  1.00  0.00    +0.000 C 
ATOM     11  C9  UNL A   1      37.880  20.538   1.704  1.00  0.00    +0.000 C 
ATOM     12  C10 UNL A   1      38.396  21.282   0.541  1.00  0.00    +0.000 C 
ATOM     13  O1  UNL A   1      37.683  22.085  -0.060  1.00  0.00    +0.000 O 
ATOM     14  N2  UNL A   1      39.727  21.033   0.205  1.00  0.00    +0.000 N 
ATOM     95  H5  UNL A   1      38.906  18.305   3.963  1.00  0.00    +0.000 H 
ATOM     96  H6  UNL A   1      36.647  18.647   4.773  1.00  0.00    +0.000 H 
BRANCH   14   15
ATOM     99  H9  UNL A   1      41.134  21.522  -1.284  1.00  0.00    +0.000 H 
ATOM    100  H10 UNL A   1      39.728  22.487  -1.318  1.00  0.00    +0.000 H 
ATOM     15  N3  UNL A   1      40.251  21.756  -0.916  1.00  0.00    +0.000 N 
ENDBRANCH   14   15
ENDBRANCH    3    4
ENDBRANCH    2    3
ENDBRANCH   16    2
ENDBRANCH   18   16
ENDBRANCH   19   18
ENDBRANCH   20   19
ENDBRANCH   21   20
ENDBRANCH   22   21
ENDBRANCH   23   22
ENDBRANCH   24   23
ENDBRANCH   25   24
ENDBRANCH   26   25
ENDBRANCH   28   26
ENDBRANCH   32   31
BRANCH   36   37
ATOM     37  C27 UNL A   1      59.061  17.188  11.524  1.00  0.00    +0.000 C 
ATOM     38  C28 UNL A   1      59.928  17.758  10.579  1.00  0.00    +0.000 C 
ATOM     39  F1  UNL A   1      59.941  19.087  10.389  1.00  0.00    +0.000 F 
ATOM     40  C29 UNL A   1      60.755  16.961   9.792  1.00  0.00    +0.000 C 
ATOM     41  F2  UNL A   1      61.536  17.523   8.860  1.00  0.00    +0.000 F 
ATOM     42  C30 UNL A   1      60.758  15.585   9.960  1.00  0.00    +0.000 C 
ATOM     43  F3  UNL A   1      61.557  14.818   9.205  1.00  0.00    +0.000 F 
ATOM     44  C31 UNL A   1      59.928  15.001  10.905  1.00  0.00    +0.000 C 
ATOM     45  F4  UNL A   1      59.939  13.672  11.077  1.00  0.00    +0.000 F 
ATOM     46  C32 UNL A   1      59.078  15.794  11.673  1.00  0.00    +0.000 C 
ATOM     47  F5  UNL A   1      58.274  15.199  12.566  1.00  0.00    +0.000 F 
ENDBRANCH   36   37
BRANCH   53   54
ATOM     54  C38 UNL A   1      59.204  20.481  17.938  1.00  0.00    +0.000 C 
ATOM     55  C39 UNL A   1      59.869  21.704  18.106  1.00  0.00    +0.000 C 
ATOM     56  F6  UNL A   1      59.684  22.699  17.224  1.00  0.00    +0.000 F 
ATOM     57  C40 UNL A   1      60.755  21.897  19.161  1.00  0.00    +0.000 C 
ATOM     58  F7  UNL A   1      61.412  23.059  19.279  1.00  0.00    +0.000 F 
ATOM     59  C41 UNL A   1      60.970  20.884  20.084  1.00  0.00    +0.000 C 
ATOM     60  F8  UNL A   1      61.819  21.074  21.105  1.00  0.00    +0.000 F 
ATOM     61  C42 UNL A   1      60.311  19.672  19.948  1.00  0.00    +0.000 C 
ATOM     62  F9  UNL A   1      60.508  18.696  20.844  1.00  0.00    +0.000 F 
ATOM     63  C43 UNL A   1      59.444  19.467  18.877  1.00  0.00    +0.000 C 
ATOM     64  F10 UNL A   1      58.829  18.280  18.764  1.00  0.00    +0.000 F 
ENDBRANCH   53   54
BRANCH   68   69
ATOM     69  C47 UNL A   1      52.602  22.490  16.982  1.00  0.00    +0.000 C 
ATOM     70  C48 UNL A   1      51.824  21.844  17.952  1.00  0.00    +0.000 C 
ATOM     71  F11 UNL A   1      51.929  20.518  18.120  1.00  0.00    +0.000 F 
ATOM     72  C49 UNL A   1      50.913  22.552  18.732  1.00  0.00    +0.000 C 
ATOM     73  F12 UNL A   1      50.155  21.905  19.628  1.00  0.00    +0.000 F 
ATOM     74  C50 UNL A   1      50.779  23.924  18.574  1.00  0.00    +0.000 C 
ATOM     75  F13 UNL A   1      49.906  24.606  19.328  1.00  0.00    +0.000 F 
ATOM     76  C51 UNL A   1      51.547  24.586  17.627  1.00  0.00    +0.000 C 
ATOM     77  F14 UNL A   1      51.429  25.912  17.480  1.00  0.00    +0.000 F 
ATOM     78  C52 UNL A   1      52.441  23.875  16.830  1.00  0.00    +0.000 C 
ATOM     79  F15 UNL A   1      53.165  24.539  15.918  1.00  0.00    +0.000 F 
ENDBRANCH   68   69
TORSDOF 19
ENDMDL
MODEL 3
REMARK VINA RESULT:      -9.1     44.110     50.222
ROOT
ATOM     32  C23 UNL A   1      10.658   3.058  21.259  1.00  0.00    +0.000 C 
ATOM     33  C24 UNL A   1      11.188   3.507  19.927  1.00  0.00    +0.000 C 
ATOM     34  N6  UNL A   1      10.990   4.637  19.295  1.00  0.00    +0.000 N 
ATOM     35  C25 UNL A   1      11.746   4.557  18.133  1.00  0.00    +0.000 C 
ATOM     36  C26 UNL A   1      11.833   5.449  17.119  1.00  0.00    +0.000 C 
ATOM     48  C33 UNL A   1      11.113   6.695  17.071  1.00  0.00    +0.000 C 
ATOM     49  C34 UNL A   1      11.083   7.636  16.057  1.00  0.00    +0.000 C 
ATOM     50  C35 UNL A   1      10.278   8.703  16.474  1.00  0.00    +0.000 C 
ATOM     51  C36 UNL A   1       9.771   8.404  17.730  1.00  0.00    +0.000 C 
ATOM     52  N7  UNL A   1      10.295   7.172  18.085  1.00  0.00    +0.000 N 
ATOM     53  C37 UNL A   1       8.876   9.185  18.545  1.00  0.00    +0.000 C 
ATOM     65  C44 UNL A   1       8.416   8.818  19.766  1.00  0.00    +0.000 C 
ATOM     66  N8  UNL A   1       8.678   7.660  20.485  1.00  0.00    +0.000 N 
ATOM     67  C45 UNL A   1       8.011   7.774  21.606  1.00  0.00    +0.000 C 
ATOM     68  C46 UNL A   1       7.907   6.804  22.751  1.00  0.00    +0.000 C 
ATOM     80  C53 UNL A   1       8.541   5.619  22.671  1.00  0.00    +0.000 C 
ATOM     81  C54 UNL A   1       8.524   4.577  23.692  1.00  0.00    +0.000 C 
ATOM     82  C55 UNL A   1       9.297   3.556  23.290  1.00  0.00    +0.000 C 
ATOM     83  C56 UNL A   1       9.838   3.859  21.966  1.00  0.00    +0.000 C 
ATOM     84  N9  UNL A   1       9.331   5.100  21.674  1.00  0.00    +0.000 N 
ATOM     85  C57 UNL A   1       7.268   9.035  21.738  1.00  0.00    +0.000 C 
ATOM     86  C58 UNL A   1       7.520   9.618  20.575  1.00  0.00    +0.000 C 
ATOM     87  C59 UNL A   1      12.445   3.290  18.171  1.00  0.00    +0.000 C 
ATOM     88  C60 UNL A   1      12.082   2.575  19.226  1.00  0.00    +0.000 C 
ATOM    117  H27 UNL A   1      11.569   7.565  15.150  1.00  0.00    +0.000 H 
ATOM    118  H28 UNL A   1      10.093   9.565  15.939  1.00  0.00    +0.000 H 
ATOM    119  H29 UNL A   1      10.114   6.703  18.932  1.00  0.00    +0.000 H 
ATOM    120  H30 UNL A   1       8.000   4.619  24.581  1.00  0.00    +0.000 H 
ATOM    121  H31 UNL A   1       9.481   2.696  23.830  1.00  0.00    +0.000 H 
ATOM    122  H32 UNL A   1       9.515   5.575  20.831  1.00  0.00    +0.000 H 
ATOM    123  H33 UNL A   1       6.700   9.378  22.530  1.00  0.00    +0.000 H 
ATOM    124  H34 UNL A   1       7.126  10.526  20.282  1.00  0.00    +0.000 H 
ATOM    125  H35 UNL A   1      13.136   2.984  17.468  1.00  0.00    +0.000 H 
ATOM    126  H36 UNL A   1      12.356   1.614  19.486  1.00  0.00    +0.000 H 
ENDROOT
BRANCH   32   31
ATOM    115  H25 UNL A   1      13.499   0.371  23.727  1.00  0.00    +0.000 H 
ATOM    116  H26 UNL A   1      12.750   2.528  22.901  1.00  0.00    +0.000 H 
ATOM     89  C61 UNL A   1      10.354   0.600  21.556  1.00  0.00    +0.000 C 
ATOM     90  C62 UNL A   1      10.741  -0.625  22.094  1.00  0.00    +0.000 C 
ATOM    127  H37 UNL A   1       9.520   0.653  20.949  1.00  0.00    +0.000 H 
ATOM     28  C19 UNL A   1      11.921  -0.717  22.837  1.00  0.00    +0.000 C 
ATOM     29  C20 UNL A   1      12.650   0.435  23.142  1.00  0.00    +0.000 C 
ATOM     30  C21 UNL A   1      12.226   1.673  22.656  1.00  0.00    +0.000 C 
ATOM     31  C22 UNL A   1      11.091   1.761  21.835  1.00  0.00    +0.000 C 
ATOM    128  H38 UNL A   1      10.156  -1.462  21.944  1.00  0.00    +0.000 H 
BRANCH   28   26
ATOM     26  C18 UNL A   1      12.414  -2.023  23.324  1.00  0.00    +0.000 C 
ATOM     27  O3  UNL A   1      12.168  -3.043  22.686  1.00  0.00    +0.000 O 
BRANCH   26   25
ATOM     25  N5  UNL A   1      13.126  -2.093  24.494  1.00  0.00    +0.000 N 
ATOM    114  H24 UNL A   1      14.106  -2.108  24.392  1.00  0.00    +0.000 H 
BRANCH   25   24
ATOM    113  H23 UNL A   1      12.844  -3.126  26.243  1.00  0.00    +0.000 H 
ATOM    112  H22 UNL A   1      11.590  -1.939  25.862  1.00  0.00    +0.000 H 
ATOM     24  C17 UNL A   1      12.638  -2.148  25.862  1.00  0.00    +0.000 C 
BRANCH   24   23
ATOM    111  H21 UNL A   1      13.806  -1.706  27.544  1.00  0.00    +0.000 H 
ATOM    110  H20 UNL A   1      12.604  -0.450  27.129  1.00  0.00    +0.000 H 
ATOM     23  C16 UNL A   1      13.339  -1.139  26.767  1.00  0.00    +0.000 C 
BRANCH   23   22
ATOM    108  H18 UNL A   1      15.256  -1.005  25.867  1.00  0.00    +0.000 H 
ATOM    109  H19 UNL A   1      14.013   0.113  25.226  1.00  0.00    +0.000 H 
ATOM     22  C15 UNL A   1      14.454  -0.334  26.092  1.00  0.00    +0.000 C 
BRANCH   22   21
ATOM    106  H16 UNL A   1      14.965   0.545  27.956  1.00  0.00    +0.000 H 
ATOM    107  H17 UNL A   1      16.022   0.973  26.576  1.00  0.00    +0.000 H 
ATOM     21  C14 UNL A   1      15.021   0.821  26.924  1.00  0.00    +0.000 C 
BRANCH   21   20
ATOM    105  H15 UNL A   1      13.440   2.137  27.386  1.00  0.00    +0.000 H 
ATOM     20  C13 UNL A   1      14.302   2.164  26.752  1.00  0.00    +0.000 C 
ATOM    104  H14 UNL A   1      14.051   2.281  25.718  1.00  0.00    +0.000 H 
BRANCH   20   19
ATOM     19  C12 UNL A   1      15.128   3.373  27.183  1.00  0.00    +0.000 C 
ATOM    102  H12 UNL A   1      16.154   3.207  26.926  1.00  0.00    +0.000 H 
ATOM    103  H13 UNL A   1      14.755   4.241  26.680  1.00  0.00    +0.000 H 
BRANCH   19   18
ATOM     18  N4  UNL A   1      15.024   3.584  28.615  1.00  0.00    +0.000 N 
ATOM    101  H11 UNL A   1      15.566   2.970  29.160  1.00  0.00    +0.000 H 
BRANCH   18   16
ATOM     17  O2  UNL A   1      14.715   5.659  29.329  1.00  0.00    +0.000 O 
ATOM     16  C11 UNL A   1      14.304   4.493  29.330  1.00  0.00    +0.000 C 
BRANCH   16    2
ATOM      2  C2  UNL A   1      13.038   4.114  30.104  1.00  0.00    +0.000 C 
ATOM     94  H4  UNL A   1      12.667   3.163  29.782  1.00  0.00    +0.000 H 
BRANCH    2    1
ATOM      1  C1  UNL A   1      13.305   3.850  31.582  1.00  0.00    +0.000 C 
ATOM     91  H1  UNL A   1      14.213   3.291  31.685  1.00  0.00    +0.000 H 
ATOM     92  H2  UNL A   1      12.493   3.291  31.998  1.00  0.00    +0.000 H 
ATOM     93  H3  UNL A   1      13.399   4.782  32.098  1.00  0.00    +0.000 H 
ENDBRANCH    2    1
BRANCH    2    3
ATOM      3  S1  UNL A   1      11.740   5.344  29.718  1.00  0.00    +0.000 S 
BRANCH    3    4
ATOM     97  H7  UNL A   1       8.003   0.196  25.401  1.00  0.00    +0.000 H 
ATOM     98  H8  UNL A   1       7.238   2.415  26.036  1.00  0.00    +0.000 H 
ATOM      4  C3  UNL A   1      10.712   4.450  28.626  1.00  0.00    +0.000 C 
ATOM      5  N1  UNL A   1      11.138   3.290  28.245  1.00  0.00    +0.000 N 
ATOM      6  C4  UNL A   1      10.288   2.500  27.459  1.00  0.00    +0.000 C 
ATOM      7  C5  UNL A   1      10.717   1.225  27.082  1.00  0.00    +0.000 C 
ATOM      8  C6  UNL A   1       9.885   0.385  26.335  1.00  0.00    +0.000 C 
ATOM      9  C7  UNL A   1       8.616   0.816  25.954  1.00  0.00    +0.000 C 
ATOM     10  C8  UNL A   1       8.175   2.088  26.318  1.00  0.00    +0.000 C 
ATOM     11  C9  UNL A   1       9.014   2.919  27.070  1.00  0.00    +0.000 C 
ATOM     12  C10 UNL A   1       8.565   4.254  27.503  1.00  0.00    +0.000 C 
ATOM     13  O1  UNL A   1       7.447   4.671  27.202  1.00  0.00    +0.000 O 
ATOM     14  N2  UNL A   1       9.470   4.974  28.283  1.00  0.00    +0.000 N 
ATOM     95  H5  UNL A   1      11.657   0.900  27.358  1.00  0.00    +0.000 H 
ATOM     96  H6  UNL A   1      10.212  -0.556  26.066  1.00  0.00    +0.000 H 
BRANCH   14   15
ATOM     99  H9  UNL A   1       9.653   7.042  28.640  1.00  0.00    +0.000 H 
ATOM    100  H10 UNL A   1       8.149   6.390  29.110  1.00  0.00    +0.000 H 
ATOM     15  N3  UNL A   1       9.046   6.270  28.724  1.00  0.00    +0.000 N 
ENDBRANCH   14   15
ENDBRANCH    3    4
ENDBRANCH    2    3
ENDBRANCH   16    2
ENDBRANCH   18   16
ENDBRANCH   19   18
ENDBRANCH   20   19
ENDBRANCH   21   20
ENDBRANCH   22   21
ENDBRANCH   23   22
ENDBRANCH   24   23
ENDBRANCH   25   24
ENDBRANCH   26   25
ENDBRANCH   28   26
ENDBRANCH   32   31
BRANCH   36   37
ATOM     37  C27 UNL A   1      12.742   5.107  15.973  1.00  0.00    +0.000 C 
ATOM     38  C28 UNL A   1      12.275   4.413  14.847  1.00  0.00    +0.000 C 
ATOM     39  F1  UNL A   1      10.998   4.005  14.786  1.00  0.00    +0.000 F 
ATOM     40  C29 UNL A   1      13.130   4.096  13.795  1.00  0.00    +0.000 C 
ATOM     41  F2  UNL A   1      12.674   3.386  12.754  1.00  0.00    +0.000 F 
ATOM     42  C30 UNL A   1      14.456   4.498  13.832  1.00  0.00    +0.000 C 
ATOM     43  F3  UNL A   1      15.278   4.194  12.817  1.00  0.00    +0.000 F 
ATOM     44  C31 UNL A   1      14.934   5.207  14.924  1.00  0.00    +0.000 C 
ATOM     45  F4  UNL A   1      16.213   5.606  14.955  1.00  0.00    +0.000 F 
ATOM     46  C32 UNL A   1      14.088   5.499  15.991  1.00  0.00    +0.000 C 
ATOM     47  F5  UNL A   1      14.584   6.171  17.041  1.00  0.00    +0.000 F 
ENDBRANCH   36   37
BRANCH   53   54
ATOM     54  C38 UNL A   1       8.396  10.496  17.995  1.00  0.00    +0.000 C 
ATOM     55  C39 UNL A   1       9.109  11.684  18.203  1.00  0.00    +0.000 C 
ATOM     56  F6  UNL A   1      10.221  11.683  18.954  1.00  0.00    +0.000 F 
ATOM     57  C40 UNL A   1       8.660  12.889  17.670  1.00  0.00    +0.000 C 
ATOM     58  F7  UNL A   1       9.334  14.021  17.916  1.00  0.00    +0.000 F 
ATOM     59  C41 UNL A   1       7.511  12.922  16.894  1.00  0.00    +0.000 C 
ATOM     60  F8  UNL A   1       7.085  14.083  16.375  1.00  0.00    +0.000 F 
ATOM     61  C42 UNL A   1       6.799  11.756  16.662  1.00  0.00    +0.000 C 
ATOM     62  F9  UNL A   1       5.695  11.784  15.904  1.00  0.00    +0.000 F 
ATOM     63  C43 UNL A   1       7.231  10.554  17.217  1.00  0.00    +0.000 C 
ATOM     64  F10 UNL A   1       6.516   9.443  16.984  1.00  0.00    +0.000 F 
ENDBRANCH   53   54
BRANCH   68   69
ATOM     69  C47 UNL A   1       7.089   7.121  23.949  1.00  0.00    +0.000 C 
ATOM     70  C48 UNL A   1       7.614   7.901  24.989  1.00  0.00    +0.000 C 
ATOM     71  F11 UNL A   1       8.878   8.344  24.920  1.00  0.00    +0.000 F 
ATOM     72  C49 UNL A   1       6.854   8.201  26.116  1.00  0.00    +0.000 C 
ATOM     73  F12 UNL A   1       7.392   8.919  27.113  1.00  0.00    +0.000 F 
ATOM     74  C50 UNL A   1       5.547   7.749  26.216  1.00  0.00    +0.000 C 
ATOM     75  F13 UNL A   1       4.814   8.043  27.299  1.00  0.00    +0.000 F 
ATOM     76  C51 UNL A   1       5.002   6.985  25.193  1.00  0.00    +0.000 C 
ATOM     77  F14 UNL A   1       3.736   6.556  25.281  1.00  0.00    +0.000 F 
ATOM     78  C52 UNL A   1       5.770   6.664  24.077  1.00  0.00    +0.000 C 
ATOM     79  F15 UNL A   1       5.221   5.917  23.107  1.00  0.00    +0.000 F 
ENDBRANCH   68   69
TORSDOF 19
ENDMDL
MODEL 4
REMARK VINA RESULT:      -9.1     45.294     50.245
ROOT
ATOM     32  C23 UNL A   1      52.673  20.696  11.411  1.00  0.00    +0.000 C 
ATOM     33  C24 UNL A   1      53.960  19.981  11.115  1.00  0.00    +0.000 C 
ATOM     34  N6  UNL A   1      54.995  19.782  11.892  1.00  0.00    +0.000 N 
ATOM     35  C25 UNL A   1      55.887  19.025  11.144  1.00  0.00    +0.000 C 
ATOM     36  C26 UNL A   1      57.131  18.608  11.481  1.00  0.00    +0.000 C 
ATOM     48  C33 UNL A   1      57.770  18.901  12.737  1.00  0.00    +0.000 C 
ATOM     49  C34 UNL A   1      59.052  18.580  13.148  1.00  0.00    +0.000 C 
ATOM     50  C35 UNL A   1      59.217  19.034  14.462  1.00  0.00    +0.000 C 
ATOM     51  C36 UNL A   1      58.052  19.677  14.853  1.00  0.00    +0.000 C 
ATOM     52  N7  UNL A   1      57.172  19.584  13.786  1.00  0.00    +0.000 N 
ATOM     53  C37 UNL A   1      57.763  20.328  16.105  1.00  0.00    +0.000 C 
ATOM     65  C44 UNL A   1      56.596  20.946  16.410  1.00  0.00    +0.000 C 
ATOM     66  N8  UNL A   1      55.459  21.098  15.627  1.00  0.00    +0.000 N 
ATOM     67  C45 UNL A   1      54.600  21.757  16.364  1.00  0.00    +0.000 C 
ATOM     68  C46 UNL A   1      53.212  22.221  16.017  1.00  0.00    +0.000 C 
ATOM     80  C53 UNL A   1      52.727  21.984  14.784  1.00  0.00    +0.000 C 
ATOM     81  C54 UNL A   1      51.408  22.382  14.300  1.00  0.00    +0.000 C 
ATOM     82  C55 UNL A   1      51.253  21.944  13.041  1.00  0.00    +0.000 C 
ATOM     83  C56 UNL A   1      52.476  21.263  12.617  1.00  0.00    +0.000 C 
ATOM     84  N9  UNL A   1      53.299  21.342  13.712  1.00  0.00    +0.000 N 
ATOM     85  C57 UNL A   1      55.086  22.076  17.714  1.00  0.00    +0.000 C 
ATOM     86  C58 UNL A   1      56.320  21.592  17.676  1.00  0.00    +0.000 C 
ATOM     87  C59 UNL A   1      55.253  18.759   9.871  1.00  0.00    +0.000 C 
ATOM     88  C60 UNL A   1      54.088  19.384   9.777  1.00  0.00    +0.000 C 
ATOM    117  H27 UNL A   1      59.764  18.091  12.585  1.00  0.00    +0.000 H 
ATOM    118  H28 UNL A   1      60.061  18.912  15.042  1.00  0.00    +0.000 H 
ATOM    119  H29 UNL A   1      56.258  19.948  13.775  1.00  0.00    +0.000 H 
ATOM    120  H30 UNL A   1      50.709  22.914  14.841  1.00  0.00    +0.000 H 
ATOM    121  H31 UNL A   1      50.406  22.067  12.465  1.00  0.00    +0.000 H 
ATOM    122  H32 UNL A   1      54.212  20.973  13.730  1.00  0.00    +0.000 H 
ATOM    123  H33 UNL A   1      54.596  22.552  18.488  1.00  0.00    +0.000 H 
ATOM    124  H34 UNL A   1      56.998  21.666  18.451  1.00  0.00    +0.000 H 
ATOM    125  H35 UNL A   1      55.654  18.160   9.132  1.00  0.00    +0.000 H 
ATOM    126  H36 UNL A   1      53.441  19.438   8.975  1.00  0.00    +0.000 H 
ENDROOT
BRANCH   32   31
ATOM    115  H25 UNL A   1      49.129  18.826   9.103  1.00  0.00    +0.000 H 
ATOM    116  H26 UNL A   1      50.821  18.798  10.844  1.00  0.00    +0.000 H 
ATOM     89  C61 UNL A   1      51.407  21.862   9.605  1.00  0.00    +0.000 C 
ATOM     90  C62 UNL A   1      50.385  21.907   8.659  1.00  0.00    +0.000 C 
ATOM    127  H37 UNL A   1      52.036  22.673   9.720  1.00  0.00    +0.000 H 
ATOM     28  C19 UNL A   1      49.593  20.777   8.437  1.00  0.00    +0.000 C 
ATOM     29  C20 UNL A   1      49.743  19.645   9.241  1.00  0.00    +0.000 C 
ATOM     30  C21 UNL A   1      50.726  19.624  10.233  1.00  0.00    +0.000 C 
ATOM     31  C22 UNL A   1      51.584  20.722  10.403  1.00  0.00    +0.000 C 
ATOM    128  H38 UNL A   1      50.214  22.773   8.125  1.00  0.00    +0.000 H 
BRANCH   28   26
ATOM     26  C18 UNL A   1      48.577  20.759   7.363  1.00  0.00    +0.000 C 
ATOM     27  O3  UNL A   1      48.079  21.814   6.979  1.00  0.00    +0.000 O 
BRANCH   26   25
ATOM     25  N5  UNL A   1      48.181  19.566   6.814  1.00  0.00    +0.000 N 
ATOM    114  H24 UNL A   1      48.415  18.763   7.335  1.00  0.00    +0.000 H 
BRANCH   25   24
ATOM    113  H23 UNL A   1      48.180  19.314   4.779  1.00  0.00    +0.000 H 
ATOM    112  H22 UNL A   1      46.735  20.090   5.440  1.00  0.00    +0.000 H 
ATOM     24  C17 UNL A   1      47.464  19.320   5.574  1.00  0.00    +0.000 C 
BRANCH   24   23
ATOM    111  H21 UNL A   1      45.715  18.175   5.708  1.00  0.00    +0.000 H 
ATOM    110  H20 UNL A   1      47.175  17.373   6.358  1.00  0.00    +0.000 H 
ATOM     23  C16 UNL A   1      46.756  17.969   5.574  1.00  0.00    +0.000 C 
BRANCH   23   22
ATOM    108  H18 UNL A   1      47.862  17.319   3.883  1.00  0.00    +0.000 H 
ATOM    109  H19 UNL A   1      46.646  16.165   4.511  1.00  0.00    +0.000 H 
ATOM     22  C15 UNL A   1      46.872  17.181   4.265  1.00  0.00    +0.000 C 
BRANCH   22   21
ATOM    106  H16 UNL A   1      46.345  18.329   2.559  1.00  0.00    +0.000 H 
ATOM    107  H17 UNL A   1      45.643  16.685   2.638  1.00  0.00    +0.000 H 
ATOM     21  C14 UNL A   1      45.880  17.584   3.169  1.00  0.00    +0.000 C 
BRANCH   21   20
ATOM    105  H15 UNL A   1      44.504  17.953   4.723  1.00  0.00    +0.000 H 
ATOM     20  C13 UNL A   1      44.546  18.147   3.671  1.00  0.00    +0.000 C 
ATOM    104  H14 UNL A   1      43.755  17.669   3.132  1.00  0.00    +0.000 H 
BRANCH   20   19
ATOM     19  C12 UNL A   1      44.400  19.656   3.496  1.00  0.00    +0.000 C 
ATOM    102  H12 UNL A   1      44.345  20.118   4.460  1.00  0.00    +0.000 H 
ATOM    103  H13 UNL A   1      45.250  20.022   2.957  1.00  0.00    +0.000 H 
BRANCH   19   18
ATOM     18  N4  UNL A   1      43.201  19.975   2.745  1.00  0.00    +0.000 N 
ATOM    101  H11 UNL A   1      42.383  20.044   3.289  1.00  0.00    +0.000 H 
BRANCH   18   16
ATOM     17  O2  UNL A   1      44.027  20.420   0.738  1.00  0.00    +0.000 O 
ATOM     16  C11 UNL A   1      43.017  20.197   1.414  1.00  0.00    +0.000 C 
BRANCH   16    2
ATOM      2  C2  UNL A   1      41.632  20.173   0.760  1.00  0.00    +0.000 C 
ATOM     94  H4  UNL A   1      41.261  21.166   0.620  1.00  0.00    +0.000 H 
BRANCH    2    1
ATOM      1  C1  UNL A   1      41.665  19.658  -0.675  1.00  0.00    +0.000 C 
ATOM     91  H1  UNL A   1      42.656  19.328  -0.912  1.00  0.00    +0.000 H 
ATOM     92  H2  UNL A   1      41.382  20.444  -1.344  1.00  0.00    +0.000 H 
ATOM     93  H3  UNL A   1      40.983  18.840  -0.776  1.00  0.00    +0.000 H 
ENDBRANCH    2    1
BRANCH    2    3
ATOM      3  S1  UNL A   1      40.474  19.333   1.900  1.00  0.00    +0.000 S 
BRANCH    3    4
ATOM     97  H7  UNL A   1      34.500  23.401  -0.719  1.00  0.00    +0.000 H 
ATOM     98  H8  UNL A   1      34.551  21.956   1.235  1.00  0.00    +0.000 H 
ATOM      4  C3  UNL A   1      38.995  20.220   1.628  1.00  0.00    +0.000 C 
ATOM      5  N1  UNL A   1      38.980  21.029   0.620  1.00  0.00    +0.000 N 
ATOM      6  C4  UNL A   1      37.775  21.672   0.307  1.00  0.00    +0.000 C 
ATOM      7  C5  UNL A   1      37.732  22.510  -0.810  1.00  0.00    +0.000 C 
ATOM      8  C6  UNL A   1      36.541  23.138  -1.185  1.00  0.00    +0.000 C 
ATOM      9  C7  UNL A   1      35.379  22.936  -0.442  1.00  0.00    +0.000 C 
ATOM     10  C8  UNL A   1      35.406  22.106   0.678  1.00  0.00    +0.000 C 
ATOM     11  C9  UNL A   1      36.604  21.479   1.043  1.00  0.00    +0.000 C 
ATOM     12  C10 UNL A   1      36.658  20.567   2.199  1.00  0.00    +0.000 C 
ATOM     13  O1  UNL A   1      35.654  20.347   2.876  1.00  0.00    +0.000 O 
ATOM     14  N2  UNL A   1      37.895  19.968   2.440  1.00  0.00    +0.000 N 
ATOM     95  H5  UNL A   1      38.589  22.667  -1.364  1.00  0.00    +0.000 H 
ATOM     96  H6  UNL A   1      36.521  23.752  -2.015  1.00  0.00    +0.000 H 
BRANCH   14   15
ATOM     99  H9  UNL A   1      37.587  18.161   3.476  1.00  0.00    +0.000 H 
ATOM    100  H10 UNL A   1      38.388  19.354   4.393  1.00  0.00    +0.000 H 
ATOM     15  N3  UNL A   1      37.964  19.067   3.553  1.00  0.00    +0.000 N 
ENDBRANCH   14   15
ENDBRANCH    3    4
ENDBRANCH    2    3
ENDBRANCH   16    2
ENDBRANCH   18   16
ENDBRANCH   19   18
ENDBRANCH   20   19
ENDBRANCH   21   20
ENDBRANCH   22   21
ENDBRANCH   23   22
ENDBRANCH   24   23
ENDBRANCH   25   24
ENDBRANCH   26   25
ENDBRANCH   28   26
ENDBRANCH   32   31
BRANCH   36   37
ATOM     37  C27 UNL A   1      57.883  17.790  10.472  1.00  0.00    +0.000 C 
ATOM     38  C28 UNL A   1      58.680  18.390   9.486  1.00  0.00    +0.000 C 
ATOM     39  F1  UNL A   1      58.759  19.728   9.403  1.00  0.00    +0.000 F 
ATOM     40  C29 UNL A   1      59.367  17.620   8.552  1.00  0.00    +0.000 C 
ATOM     41  F2  UNL A   1      60.079  18.217   7.587  1.00  0.00    +0.000 F 
ATOM     42  C30 UNL A   1      59.300  16.236   8.608  1.00  0.00    +0.000 C 
ATOM     43  F3  UNL A   1      59.963  15.495   7.709  1.00  0.00    +0.000 F 
ATOM     44  C31 UNL A   1      58.538  15.620   9.589  1.00  0.00    +0.000 C 
ATOM     45  F4  UNL A   1      58.482  14.282   9.651  1.00  0.00    +0.000 F 
ATOM     46  C32 UNL A   1      57.827  16.389  10.506  1.00  0.00    +0.000 C 
ATOM     47  F5  UNL A   1      57.084  15.764  11.433  1.00  0.00    +0.000 F 
ENDBRANCH   36   37
BRANCH   53   54
ATOM     54  C38 UNL A   1      58.841  20.344  17.148  1.00  0.00    +0.000 C 
ATOM     55  C39 UNL A   1      59.679  21.455  17.320  1.00  0.00    +0.000 C 
ATOM     56  F6  UNL A   1      59.567  22.518  16.508  1.00  0.00    +0.000 F 
ATOM     57  C40 UNL A   1      60.662  21.463  18.305  1.00  0.00    +0.000 C 
ATOM     58  F7  UNL A   1      61.480  22.517  18.425  1.00  0.00    +0.000 F 
ATOM     59  C41 UNL A   1      60.804  20.376  19.155  1.00  0.00    +0.000 C 
ATOM     60  F8  UNL A   1      61.747  20.389  20.109  1.00  0.00    +0.000 F 
ATOM     61  C42 UNL A   1      59.975  19.274  19.014  1.00  0.00    +0.000 C 
ATOM     62  F9  UNL A   1      60.104  18.228  19.841  1.00  0.00    +0.000 F 
ATOM     63  C43 UNL A   1      59.010  19.252  18.012  1.00  0.00    +0.000 C 
ATOM     64  F10 UNL A   1      58.229  18.168  17.891  1.00  0.00    +0.000 F 
ENDBRANCH   53   54
BRANCH   68   69
ATOM     69  C47 UNL A   1      52.386  22.964  17.002  1.00  0.00    +0.000 C 
ATOM     70  C48 UNL A   1      51.605  22.279  17.942  1.00  0.00    +0.000 C 
ATOM     71  F11 UNL A   1      51.574  20.938  17.938  1.00  0.00    +0.000 F 
ATOM     72  C49 UNL A   1      50.826  22.969  18.869  1.00  0.00    +0.000 C 
ATOM     73  F12 UNL A   1      50.059  22.290  19.734  1.00  0.00    +0.000 F 
ATOM     74  C50 UNL A   1      50.833  24.355  18.889  1.00  0.00    +0.000 C 
ATOM     75  F13 UNL A   1      50.088  25.018  19.785  1.00  0.00    +0.000 F 
ATOM     76  C51 UNL A   1      51.609  25.054  17.975  1.00  0.00    +0.000 C 
ATOM     77  F14 UNL A   1      51.627  26.393  18.000  1.00  0.00    +0.000 F 
ATOM     78  C52 UNL A   1      52.368  24.366  17.033  1.00  0.00    +0.000 C 
ATOM     79  F15 UNL A   1      53.103  25.066  16.156  1.00  0.00    +0.000 F 
ENDBRANCH   68   69
TORSDOF 19
ENDMDL
MODEL 5
REMARK VINA RESULT:      -9.1     46.358     51.358
ROOT
ATOM     32  C23 UNL A   1      53.548  19.811  11.806  1.00  0.00    +0.000 C 
ATOM     33  C24 UNL A   1      53.262  20.461  13.130  1.00  0.00    +0.000 C 
ATOM     34  N6  UNL A   1      54.066  20.666  14.143  1.00  0.00    +0.000 N 
ATOM     35  C25 UNL A   1      53.313  21.346  15.091  1.00  0.00    +0.000 C 
ATOM     36  C26 UNL A   1      53.674  21.736  16.336  1.00  0.00    +0.000 C 
ATOM     48  C33 UNL A   1      54.968  21.492  16.917  1.00  0.00    +0.000 C 
ATOM     49  C34 UNL A   1      55.410  21.789  18.195  1.00  0.00    +0.000 C 
ATOM     50  C35 UNL A   1      56.753  21.404  18.294  1.00  0.00    +0.000 C 
ATOM     51  C36 UNL A   1      57.133  20.827  17.092  1.00  0.00    +0.000 C 
ATOM     52  N7  UNL A   1      56.030  20.892  16.256  1.00  0.00    +0.000 N 
ATOM     53  C37 UNL A   1      58.407  20.259  16.732  1.00  0.00    +0.000 C 
ATOM     65  C44 UNL A   1      58.700  19.702  15.532  1.00  0.00    +0.000 C 
ATOM     66  N8  UNL A   1      57.884  19.548  14.420  1.00  0.00    +0.000 N 
ATOM     67  C45 UNL A   1      58.622  18.963  13.510  1.00  0.00    +0.000 C 
ATOM     68  C46 UNL A   1      58.248  18.531  12.119  1.00  0.00    +0.000 C 
ATOM     80  C53 UNL A   1      56.986  18.715  11.688  1.00  0.00    +0.000 C 
ATOM     81  C54 UNL A   1      56.474  18.339  10.374  1.00  0.00    +0.000 C 
ATOM     82  C55 UNL A   1      55.188  18.710  10.281  1.00  0.00    +0.000 C 
ATOM     83  C56 UNL A   1      54.775  19.321  11.544  1.00  0.00    +0.000 C 
ATOM     84  N9  UNL A   1      55.904  19.275  12.323  1.00  0.00    +0.000 N 
ATOM     85  C57 UNL A   1      60.005  18.704  13.934  1.00  0.00    +0.000 C 
ATOM     86  C58 UNL A   1      59.988  19.140  15.185  1.00  0.00    +0.000 C 
ATOM     87  C59 UNL A   1      52.003  21.563  14.514  1.00  0.00    +0.000 C 
ATOM     88  C60 UNL A   1      51.899  20.976  13.330  1.00  0.00    +0.000 C 
ATOM    117  H27 UNL A   1      54.848  22.219  18.945  1.00  0.00    +0.000 H 
ATOM    118  H28 UNL A   1      57.357  21.528  19.121  1.00  0.00    +0.000 H 
ATOM    119  H29 UNL A   1      56.003  20.561  15.329  1.00  0.00    +0.000 H 
ATOM    120  H30 UNL A   1      57.016  17.864   9.635  1.00  0.00    +0.000 H 
ATOM    121  H31 UNL A   1      54.587  18.585   9.452  1.00  0.00    +0.000 H 
ATOM    122  H32 UNL A   1      55.936  19.610  13.248  1.00  0.00    +0.000 H 
ATOM    123  H33 UNL A   1      60.785  18.290  13.398  1.00  0.00    +0.000 H 
ATOM    124  H34 UNL A   1      60.792  19.085  15.831  1.00  0.00    +0.000 H 
ATOM    125  H35 UNL A   1      51.249  22.104  14.965  1.00  0.00    +0.000 H 
ATOM    126  H36 UNL A   1      51.077  20.901  12.711  1.00  0.00    +0.000 H 
ENDROOT
BRANCH   32   31
ATOM    115  H25 UNL A   1      51.058  21.652   8.373  1.00  0.00    +0.000 H 
ATOM    116  H26 UNL A   1      52.858  21.712  10.000  1.00  0.00    +0.000 H 
ATOM     89  C61 UNL A   1      51.731  18.606  10.593  1.00  0.00    +0.000 C 
ATOM     90  C62 UNL A   1      50.750  18.546   9.606  1.00  0.00    +0.000 C 
ATOM    127  H37 UNL A   1      51.892  17.793  11.208  1.00  0.00    +0.000 H 
ATOM     28  C19 UNL A   1      50.466  19.678   8.837  1.00  0.00    +0.000 C 
ATOM     29  C20 UNL A   1      51.242  20.831   8.971  1.00  0.00    +0.000 C 
ATOM     30  C21 UNL A   1      52.268  20.870   9.917  1.00  0.00    +0.000 C 
ATOM     31  C22 UNL A   1      52.501  19.768  10.755  1.00  0.00    +0.000 C 
ATOM    128  H38 UNL A   1      50.235  17.666   9.444  1.00  0.00    +0.000 H 
BRANCH   28   26
ATOM     26  C18 UNL A   1      49.354  19.675   7.861  1.00  0.00    +0.000 C 
ATOM     27  O3  UNL A   1      48.579  20.627   7.820  1.00  0.00    +0.000 O 
BRANCH   26   25
ATOM     25  N5  UNL A   1      49.182  18.605   7.022  1.00  0.00    +0.000 N 
ATOM    114  H24 UNL A   1      49.707  17.802   7.248  1.00  0.00    +0.000 H 
BRANCH   25   24
ATOM    113  H23 UNL A   1      48.708  17.680   5.254  1.00  0.00    +0.000 H 
ATOM    112  H22 UNL A   1      48.353  19.412   5.315  1.00  0.00    +0.000 H 
ATOM     24  C17 UNL A   1      48.332  18.486   5.849  1.00  0.00    +0.000 C 
BRANCH   24   23
ATOM    111  H21 UNL A   1      46.277  18.847   5.661  1.00  0.00    +0.000 H 
ATOM    110  H20 UNL A   1      46.780  18.258   7.272  1.00  0.00    +0.000 H 
ATOM     23  C16 UNL A   1      46.887  18.162   6.212  1.00  0.00    +0.000 C 
BRANCH   23   22
ATOM    108  H18 UNL A   1      46.614  16.100   6.634  1.00  0.00    +0.000 H 
ATOM    109  H19 UNL A   1      45.384  16.848   5.571  1.00  0.00    +0.000 H 
ATOM     22  C15 UNL A   1      46.421  16.758   5.813  1.00  0.00    +0.000 C 
BRANCH   22   21
ATOM    106  H16 UNL A   1      48.113  16.513   4.553  1.00  0.00    +0.000 H 
ATOM    107  H17 UNL A   1      47.006  15.110   4.653  1.00  0.00    +0.000 H 
ATOM     21  C14 UNL A   1      47.099  16.173   4.569  1.00  0.00    +0.000 C 
BRANCH   21   20
ATOM    105  H15 UNL A   1      46.128  15.641   2.775  1.00  0.00    +0.000 H 
ATOM     20  C13 UNL A   1      46.450  16.553   3.233  1.00  0.00    +0.000 C 
ATOM    104  H14 UNL A   1      47.173  17.078   2.645  1.00  0.00    +0.000 H 
BRANCH   20   19
ATOM     19  C12 UNL A   1      45.213  17.437   3.370  1.00  0.00    +0.000 C 
ATOM    102  H12 UNL A   1      44.385  16.959   2.889  1.00  0.00    +0.000 H 
ATOM    103  H13 UNL A   1      45.006  17.578   4.411  1.00  0.00    +0.000 H 
BRANCH   19   18
ATOM     18  N4  UNL A   1      45.435  18.734   2.760  1.00  0.00    +0.000 N 
ATOM    101  H11 UNL A   1      45.938  18.707   1.914  1.00  0.00    +0.000 H 
BRANCH   18   16
ATOM     17  O2  UNL A   1      45.696  20.482   4.096  1.00  0.00    +0.000 O 
ATOM     16  C11 UNL A   1      45.063  19.981   3.160  1.00  0.00    +0.000 C 
BRANCH   16    2
ATOM      2  C2  UNL A   1      43.917  20.751   2.494  1.00  0.00    +0.000 C 
ATOM     94  H4  UNL A   1      43.122  20.922   3.187  1.00  0.00    +0.000 H 
BRANCH    2    1
ATOM      1  C1  UNL A   1      44.304  22.177   2.118  1.00  0.00    +0.000 C 
ATOM     91  H1  UNL A   1      44.652  22.197   1.106  1.00  0.00    +0.000 H 
ATOM     92  H2  UNL A   1      45.082  22.519   2.769  1.00  0.00    +0.000 H 
ATOM     93  H3  UNL A   1      43.451  22.815   2.215  1.00  0.00    +0.000 H 
ENDBRANCH    2    1
BRANCH    2    3
ATOM      3  S1  UNL A   1      43.233  19.712   1.153  1.00  0.00    +0.000 S 
BRANCH    3    4
ATOM     97  H7  UNL A   1      36.016  22.050  -0.090  1.00  0.00    +0.000 H 
ATOM     98  H8  UNL A   1      36.784  20.490   1.609  1.00  0.00    +0.000 H 
ATOM      4  C3  UNL A   1      41.541  20.138   1.197  1.00  0.00    +0.000 C 
ATOM      5  N1  UNL A   1      41.137  21.006   0.328  1.00  0.00    +0.000 N 
ATOM      6  C4  UNL A   1      39.765  21.287   0.263  1.00  0.00    +0.000 C 
ATOM      7  C5  UNL A   1      39.310  22.186  -0.705  1.00  0.00    +0.000 C 
ATOM      8  C6  UNL A   1      37.946  22.463  -0.835  1.00  0.00    +0.000 C 
ATOM      9  C7  UNL A   1      37.023  21.844   0.006  1.00  0.00    +0.000 C 
ATOM     10  C8  UNL A   1      37.462  20.948   0.980  1.00  0.00    +0.000 C 
ATOM     11  C9  UNL A   1      38.830  20.674   1.099  1.00  0.00    +0.000 C 
ATOM     12  C10 UNL A   1      39.322  19.705   2.093  1.00  0.00    +0.000 C 
ATOM     13  O1  UNL A   1      38.543  19.124   2.848  1.00  0.00    +0.000 O 
ATOM     14  N2  UNL A   1      40.700  19.483   2.091  1.00  0.00    +0.000 N 
ATOM     95  H5  UNL A   1      39.988  22.650  -1.330  1.00  0.00    +0.000 H 
ATOM     96  H6  UNL A   1      37.622  23.125  -1.557  1.00  0.00    +0.000 H 
BRANCH   14   15
ATOM     99  H9  UNL A   1      41.557  17.669   2.734  1.00  0.00    +0.000 H 
ATOM    100  H10 UNL A   1      41.180  18.743   4.003  1.00  0.00    +0.000 H 
ATOM     15  N3  UNL A   1      41.197  18.533   3.042  1.00  0.00    +0.000 N 
ENDBRANCH   14   15
ENDBRANCH    3    4
ENDBRANCH    2    3
ENDBRANCH   16    2
ENDBRANCH   18   16
ENDBRANCH   19   18
ENDBRANCH   20   19
ENDBRANCH   21   20
ENDBRANCH   22   21
ENDBRANCH   23   22
ENDBRANCH   24   23
ENDBRANCH   25   24
ENDBRANCH   26   25
ENDBRANCH   28   26
ENDBRANCH   32   31
BRANCH   36   37
ATOM     37  C27 UNL A   1      52.651  22.468  17.156  1.00  0.00    +0.000 C 
ATOM     38  C28 UNL A   1      51.843  21.801  18.089  1.00  0.00    +0.000 C 
ATOM     39  F1  UNL A   1      51.946  20.472  18.244  1.00  0.00    +0.000 F 
ATOM     40  C29 UNL A   1      50.893  22.490  18.837  1.00  0.00    +0.000 C 
ATOM     41  F2  UNL A   1      50.096  21.824  19.684  1.00  0.00    +0.000 F 
ATOM     42  C30 UNL A   1      50.758  23.863  18.694  1.00  0.00    +0.000 C 
ATOM     43  F3  UNL A   1      49.845  24.527  19.417  1.00  0.00    +0.000 F 
ATOM     44  C31 UNL A   1      51.563  24.548  17.796  1.00  0.00    +0.000 C 
ATOM     45  F4  UNL A   1      51.442  25.876  17.666  1.00  0.00    +0.000 F 
ATOM     46  C32 UNL A   1      52.494  23.855  17.025  1.00  0.00    +0.000 C 
ATOM     47  F5  UNL A   1      53.246  24.543  16.152  1.00  0.00    +0.000 F 
ENDBRANCH   36   37
BRANCH   53   54
ATOM     54  C38 UNL A   1      59.490  20.262  17.770  1.00  0.00    +0.000 C 
ATOM     55  C39 UNL A   1      60.242  21.413  18.043  1.00  0.00    +0.000 C 
ATOM     56  F6  UNL A   1      60.043  22.535  17.333  1.00  0.00    +0.000 F 
ATOM     57  C40 UNL A   1      61.230  21.405  19.023  1.00  0.00    +0.000 C 
ATOM     58  F7  UNL A   1      61.967  22.504  19.239  1.00  0.00    +0.000 F 
ATOM     59  C41 UNL A   1      61.463  20.259  19.769  1.00  0.00    +0.000 C 
ATOM     60  F8  UNL A   1      62.410  20.255  20.718  1.00  0.00    +0.000 F 
ATOM     61  C42 UNL A   1      60.719  19.114  19.527  1.00  0.00    +0.000 C 
ATOM     62  F9  UNL A   1      60.934  18.009  20.253  1.00  0.00    +0.000 F 
ATOM     63  C43 UNL A   1      59.749  19.111  18.529  1.00  0.00    +0.000 C 
ATOM     64  F10 UNL A   1      59.052  17.986  18.310  1.00  0.00    +0.000 F 
ENDBRANCH   53   54
BRANCH   68   69
ATOM     69  C47 UNL A   1      59.240  17.876  11.229  1.00  0.00    +0.000 C 
ATOM     70  C48 UNL A   1      60.041  18.636  10.367  1.00  0.00    +0.000 C 
ATOM     71  F11 UNL A   1      59.894  19.968  10.317  1.00  0.00    +0.000 F 
ATOM     72  C49 UNL A   1      60.973  18.029   9.528  1.00  0.00    +0.000 C 
ATOM     73  F12 UNL A   1      61.701  18.776   8.686  1.00  0.00    +0.000 F 
ATOM     74  C50 UNL A   1      61.140  16.652   9.554  1.00  0.00    +0.000 C 
ATOM     75  F13 UNL A   1      62.041  16.069   8.752  1.00  0.00    +0.000 F 
ATOM     76  C51 UNL A   1      60.366  15.881  10.409  1.00  0.00    +0.000 C 
ATOM     77  F14 UNL A   1      60.532  14.552  10.445  1.00  0.00    +0.000 F 
ATOM     78  C52 UNL A   1      59.417  16.484  11.229  1.00  0.00    +0.000 C 
ATOM     79  F15 UNL A   1      58.677  15.714  12.040  1.00  0.00    +0.000 F 
ENDBRANCH   68   69
TORSDOF 19
ENDMDL
MODEL 6
REMARK VINA RESULT:      -9.1     43.297     46.540
ROOT
ATOM     32  C23 UNL A   1      25.946  35.628  45.381  1.00  0.00    +0.000 C 
ATOM     33  C24 UNL A   1      27.271  35.591  44.675  1.00  0.00    +0.000 C 
ATOM     34  N6  UNL A   1      28.313  36.370  44.829  1.00  0.00    +0.000 N 
ATOM     35  C25 UNL A   1      29.285  35.872  43.971  1.00  0.00    +0.000 C 
ATOM     36  C26 UNL A   1      30.522  36.363  43.720  1.00  0.00    +0.000 C 
ATOM     48  C33 UNL A   1      31.062  37.549  44.330  1.00  0.00    +0.000 C 
ATOM     49  C34 UNL A   1      32.278  38.165  44.093  1.00  0.00    +0.000 C 
ATOM     50  C35 UNL A   1      32.385  39.267  44.950  1.00  0.00    +0.000 C 
ATOM     51  C36 UNL A   1      31.216  39.363  45.689  1.00  0.00    +0.000 C 
ATOM     52  N7  UNL A   1      30.415  38.300  45.301  1.00  0.00    +0.000 N 
ATOM     53  C37 UNL A   1      30.856  40.349  46.675  1.00  0.00    +0.000 C 
ATOM     65  C44 UNL A   1      29.683  40.380  47.352  1.00  0.00    +0.000 C 
ATOM     66  N8  UNL A   1      28.599  39.518  47.260  1.00  0.00    +0.000 N 
ATOM     67  C45 UNL A   1      27.714  39.958  48.118  1.00  0.00    +0.000 C 
ATOM     68  C46 UNL A   1      26.340  39.425  48.422  1.00  0.00    +0.000 C 
ATOM     80  C53 UNL A   1      25.878  38.364  47.736  1.00  0.00    +0.000 C 
ATOM     81  C54 UNL A   1      24.568  37.744  47.912  1.00  0.00    +0.000 C 
ATOM     82  C55 UNL A   1      24.469  36.688  47.090  1.00  0.00    +0.000 C 
ATOM     83  C56 UNL A   1      25.697  36.576  46.305  1.00  0.00    +0.000 C 
ATOM     84  N9  UNL A   1      26.474  37.616  46.750  1.00  0.00    +0.000 N 
ATOM     85  C57 UNL A   1      28.148  41.140  48.876  1.00  0.00    +0.000 C 
ATOM     86  C58 UNL A   1      29.339  41.377  48.345  1.00  0.00    +0.000 C 
ATOM     87  C59 UNL A   1      28.728  34.696  43.337  1.00  0.00    +0.000 C 
ATOM     88  C60 UNL A   1      27.462  34.519  43.688  1.00  0.00    +0.000 C 
ATOM    117  H27 UNL A   1      32.984  37.865  43.404  1.00  0.00    +0.000 H 
ATOM    118  H28 UNL A   1      33.197  39.901  45.020  1.00  0.00    +0.000 H 
ATOM    119  H29 UNL A   1      29.520  38.107  45.662  1.00  0.00    +0.000 H 
ATOM    120  H30 UNL A   1      23.837  38.068  48.565  1.00  0.00    +0.000 H 
ATOM    121  H31 UNL A   1      23.656  36.056  47.024  1.00  0.00    +0.000 H 
ATOM    122  H32 UNL A   1      27.373  37.809  46.396  1.00  0.00    +0.000 H 
ATOM    123  H33 UNL A   1      27.655  41.651  49.626  1.00  0.00    +0.000 H 
ATOM    124  H34 UNL A   1      29.944  42.172  48.605  1.00  0.00    +0.000 H 
ATOM    125  H35 UNL A   1      29.247  34.077  42.696  1.00  0.00    +0.000 H 
ATOM    126  H36 UNL A   1      26.787  33.812  43.354  1.00  0.00    +0.000 H 
ENDROOT
BRANCH   32   31
ATOM    115  H25 UNL A   1      22.210  33.935  43.246  1.00  0.00    +0.000 H 
ATOM    116  H26 UNL A   1      23.928  35.620  43.570  1.00  0.00    +0.000 H 
ATOM     89  C61 UNL A   1      24.964  33.382  45.847  1.00  0.00    +0.000 C 
ATOM     90  C62 UNL A   1      24.024  32.384  45.606  1.00  0.00    +0.000 C 
ATOM    127  H37 UNL A   1      25.689  33.241  46.568  1.00  0.00    +0.000 H 
ATOM     28  C19 UNL A   1      22.985  32.611  44.699  1.00  0.00    +0.000 C 
ATOM     29  C20 UNL A   1      22.954  33.787  43.946  1.00  0.00    +0.000 C 
ATOM     30  C21 UNL A   1      23.934  34.762  44.142  1.00  0.00    +0.000 C 
ATOM     31  C22 UNL A   1      24.930  34.579  45.115  1.00  0.00    +0.000 C 
ATOM    128  H38 UNL A   1      24.095  31.478  46.096  1.00  0.00    +0.000 H 
BRANCH   28   26
ATOM     26  C18 UNL A   1      21.910  31.613  44.507  1.00  0.00    +0.000 C 
ATOM     27  O3  UNL A   1      22.147  30.422  44.689  1.00  0.00    +0.000 O 
BRANCH   26   25
ATOM     25  N5  UNL A   1      20.663  32.018  44.108  1.00  0.00    +0.000 N 
ATOM    114  H24 UNL A   1      20.545  32.128  43.136  1.00  0.00    +0.000 H 
BRANCH   25   24
ATOM    113  H23 UNL A   1      19.227  33.332  44.757  1.00  0.00    +0.000 H 
ATOM    112  H22 UNL A   1      19.723  32.116  45.942  1.00  0.00    +0.000 H 
ATOM     24  C17 UNL A   1      19.489  32.307  44.916  1.00  0.00    +0.000 C 
BRANCH   24   23
ATOM    111  H21 UNL A   1      17.961  31.816  43.569  1.00  0.00    +0.000 H 
ATOM    110  H20 UNL A   1      17.548  31.543  45.287  1.00  0.00    +0.000 H 
ATOM     23  C16 UNL A   1      18.290  31.452  44.520  1.00  0.00    +0.000 C 
BRANCH   23   22
ATOM    108  H18 UNL A   1      19.513  29.882  43.786  1.00  0.00    +0.000 H 
ATOM    109  H19 UNL A   1      18.637  29.541  45.309  1.00  0.00    +0.000 H 
ATOM     22  C15 UNL A   1      18.595  29.964  44.327  1.00  0.00    +0.000 C 
BRANCH   22   21
ATOM    106  H16 UNL A   1      17.968  28.793  42.671  1.00  0.00    +0.000 H 
ATOM    107  H17 UNL A   1      17.195  28.403  44.237  1.00  0.00    +0.000 H 
ATOM     21  C14 UNL A   1      17.526  29.170  43.568  1.00  0.00    +0.000 C 
BRANCH   21   20
ATOM    105  H15 UNL A   1      16.529  30.545  42.319  1.00  0.00    +0.000 H 
ATOM     20  C13 UNL A   1      16.273  29.966  43.182  1.00  0.00    +0.000 C 
ATOM    104  H14 UNL A   1      15.990  30.572  44.017  1.00  0.00    +0.000 H 
BRANCH   20   19
ATOM     19  C12 UNL A   1      15.079  29.099  42.793  1.00  0.00    +0.000 C 
ATOM    102  H12 UNL A   1      14.360  29.116  43.585  1.00  0.00    +0.000 H 
ATOM    103  H13 UNL A   1      14.650  29.489  41.894  1.00  0.00    +0.000 H 
BRANCH   19   18
ATOM     18  N4  UNL A   1      15.493  27.729  42.555  1.00  0.00    +0.000 N 
ATOM    101  H11 UNL A   1      16.123  27.369  43.220  1.00  0.00    +0.000 H 
BRANCH   18   16
ATOM     17  O2  UNL A   1      15.124  27.299  40.413  1.00  0.00    +0.000 O 
ATOM     16  C11 UNL A   1      15.152  26.856  41.566  1.00  0.00    +0.000 C 
BRANCH   16    2
ATOM      2  C2  UNL A   1      14.821  25.386  41.844  1.00  0.00    +0.000 C 
ATOM     94  H4  UNL A   1      15.485  24.740  41.311  1.00  0.00    +0.000 H 
BRANCH    2    1
ATOM      1  C1  UNL A   1      15.098  24.981  43.288  1.00  0.00    +0.000 C 
ATOM     91  H1  UNL A   1      15.210  25.860  43.889  1.00  0.00    +0.000 H 
ATOM     92  H2  UNL A   1      15.998  24.403  43.330  1.00  0.00    +0.000 H 
ATOM     93  H3  UNL A   1      14.281  24.398  43.657  1.00  0.00    +0.000 H 
ENDBRANCH    2    1
BRANCH    2    3
ATOM      3  S1  UNL A   1      13.138  25.049  41.212  1.00  0.00    +0.000 S 
BRANCH    3    4
ATOM     97  H7  UNL A   1      12.732  17.629  39.243  1.00  0.00    +0.000 H 
ATOM     98  H8  UNL A   1      13.791  19.425  37.994  1.00  0.00    +0.000 H 
ATOM      4  C3  UNL A   1      13.315  23.440  40.559  1.00  0.00    +0.000 C 
ATOM      5  N1  UNL A   1      12.798  22.474  41.246  1.00  0.00    +0.000 N 
ATOM      6  C4  UNL A   1      12.825  21.185  40.697  1.00  0.00    +0.000 C 
ATOM      7  C5  UNL A   1      12.224  20.141  41.406  1.00  0.00    +0.000 C 
ATOM      8  C6  UNL A   1      12.188  18.847  40.878  1.00  0.00    +0.000 C 
ATOM      9  C7  UNL A   1      12.758  18.584  39.633  1.00  0.00    +0.000 C 
ATOM     10  C8  UNL A   1      13.364  19.614  38.914  1.00  0.00    +0.000 C 
ATOM     11  C9  UNL A   1      13.391  20.907  39.451  1.00  0.00    +0.000 C 
ATOM     12  C10 UNL A   1      13.991  22.024  38.702  1.00  0.00    +0.000 C 
ATOM     13  O1  UNL A   1      14.492  21.843  37.593  1.00  0.00    +0.000 O 
ATOM     14  N2  UNL A   1      13.921  23.274  39.319  1.00  0.00    +0.000 N 
ATOM     95  H5  UNL A   1      11.803  20.328  42.330  1.00  0.00    +0.000 H 
ATOM     96  H6  UNL A   1      11.739  18.086  41.409  1.00  0.00    +0.000 H 
BRANCH   14   15
ATOM     99  H9  UNL A   1      14.270  24.507  37.648  1.00  0.00    +0.000 H 
ATOM    100  H10 UNL A   1      15.095  25.003  39.055  1.00  0.00    +0.000 H 
ATOM     15  N3  UNL A   1      14.488  24.376  38.599  1.00  0.00    +0.000 N 
ENDBRANCH   14   15
ENDBRANCH    3    4
ENDBRANCH    2    3
ENDBRANCH   16    2
ENDBRANCH   18   16
ENDBRANCH   19   18
ENDBRANCH   20   19
ENDBRANCH   21   20
ENDBRANCH   22   21
ENDBRANCH   23   22
ENDBRANCH   24   23
ENDBRANCH   25   24
ENDBRANCH   26   25
ENDBRANCH   28   26
ENDBRANCH   32   31
BRANCH   36   37
ATOM     37  C27 UNL A   1      31.377  35.614  42.739  1.00  0.00    +0.000 C 
ATOM     38  C28 UNL A   1      32.133  34.497  43.126  1.00  0.00    +0.000 C 
ATOM     39  F1  UNL A   1      32.132  34.091  44.405  1.00  0.00    +0.000 F 
ATOM     40  C29 UNL A   1      32.928  33.816  42.208  1.00  0.00    +0.000 C 
ATOM     41  F2  UNL A   1      33.682  32.785  42.612  1.00  0.00    +0.000 F 
ATOM     42  C30 UNL A   1      32.955  34.216  40.881  1.00  0.00    +0.000 C 
ATOM     43  F3  UNL A   1      33.719  33.559  39.997  1.00  0.00    +0.000 F 
ATOM     44  C31 UNL A   1      32.197  35.302  40.470  1.00  0.00    +0.000 C 
ATOM     45  F4  UNL A   1      32.213  35.682  39.185  1.00  0.00    +0.000 F 
ATOM     46  C32 UNL A   1      31.424  36.003  41.392  1.00  0.00    +0.000 C 
ATOM     47  F5  UNL A   1      30.715  37.061  40.968  1.00  0.00    +0.000 F 
ENDBRANCH   36   37
BRANCH   53   54
ATOM     54  C38 UNL A   1      31.844  41.441  46.963  1.00  0.00    +0.000 C 
ATOM     55  C39 UNL A   1      31.632  42.756  46.527  1.00  0.00    +0.000 C 
ATOM     56  F6  UNL A   1      30.553  43.057  45.788  1.00  0.00    +0.000 F 
ATOM     57  C40 UNL A   1      32.548  43.762  46.819  1.00  0.00    +0.000 C 
ATOM     58  F7  UNL A   1      32.348  45.004  46.357  1.00  0.00    +0.000 F 
ATOM     59  C41 UNL A   1      33.675  43.479  47.576  1.00  0.00    +0.000 C 
ATOM     60  F8  UNL A   1      34.553  44.452  47.863  1.00  0.00    +0.000 F 
ATOM     61  C42 UNL A   1      33.897  42.189  48.032  1.00  0.00    +0.000 C 
ATOM     62  F9  UNL A   1      34.979  41.915  48.772  1.00  0.00    +0.000 F 
ATOM     63  C43 UNL A   1      32.996  41.175  47.718  1.00  0.00    +0.000 C 
ATOM     64  F10 UNL A   1      33.241  39.933  48.163  1.00  0.00    +0.000 F 
ENDBRANCH   53   54
BRANCH   68   69
ATOM     69  C47 UNL A   1      25.478  40.074  49.443  1.00  0.00    +0.000 C 
ATOM     70  C48 UNL A   1      25.501  39.645  50.777  1.00  0.00    +0.000 C 
ATOM     71  F11 UNL A   1      26.286  38.619  51.137  1.00  0.00    +0.000 F 
ATOM     72  C49 UNL A   1      24.694  40.247  51.739  1.00  0.00    +0.000 C 
ATOM     73  F12 UNL A   1      24.708  39.795  53.001  1.00  0.00    +0.000 F 
ATOM     74  C50 UNL A   1      23.867  41.305  51.392  1.00  0.00    +0.000 C 
ATOM     75  F13 UNL A   1      23.096  41.888  52.320  1.00  0.00    +0.000 F 
ATOM     76  C51 UNL A   1      23.837  41.754  50.079  1.00  0.00    +0.000 C 
ATOM     77  F14 UNL A   1      23.049  42.783  49.742  1.00  0.00    +0.000 F 
ATOM     78  C52 UNL A   1      24.625  41.136  49.111  1.00  0.00    +0.000 C 
ATOM     79  F15 UNL A   1      24.571  41.585  47.849  1.00  0.00    +0.000 F 
ENDBRANCH   68   69
TORSDOF 19
ENDMDL
MODEL 7
REMARK VINA RESULT:      -9.1     38.019     42.885
ROOT
ATOM     32  C23 UNL A   1      41.188  26.098  27.521  1.00  0.00    +0.000 C 
ATOM     33  C24 UNL A   1      40.474  27.200  28.249  1.00  0.00    +0.000 C 
ATOM     34  N6  UNL A   1      40.922  28.373  28.621  1.00  0.00    +0.000 N 
ATOM     35  C25 UNL A   1      39.843  29.019  29.210  1.00  0.00    +0.000 C 
ATOM     36  C26 UNL A   1      39.808  30.235  29.805  1.00  0.00    +0.000 C 
ATOM     48  C33 UNL A   1      40.947  31.105  29.936  1.00  0.00    +0.000 C 
ATOM     49  C34 UNL A   1      41.030  32.328  30.579  1.00  0.00    +0.000 C 
ATOM     50  C35 UNL A   1      42.328  32.825  30.410  1.00  0.00    +0.000 C 
ATOM     51  C36 UNL A   1      43.065  31.890  29.698  1.00  0.00    +0.000 C 
ATOM     52  N7  UNL A   1      42.205  30.843  29.411  1.00  0.00    +0.000 N 
ATOM     53  C37 UNL A   1      44.451  31.948  29.310  1.00  0.00    +0.000 C 
ATOM     65  C44 UNL A   1      45.107  30.984  28.619  1.00  0.00    +0.000 C 
ATOM     66  N8  UNL A   1      44.627  29.769  28.149  1.00  0.00    +0.000 N 
ATOM     67  C45 UNL A   1      45.635  29.196  27.539  1.00  0.00    +0.000 C 
ATOM     68  C46 UNL A   1      45.695  27.854  26.863  1.00  0.00    +0.000 C 
ATOM     80  C53 UNL A   1      44.606  27.063  26.869  1.00  0.00    +0.000 C 
ATOM     81  C54 UNL A   1      44.517  25.737  26.266  1.00  0.00    +0.000 C 
ATOM     82  C55 UNL A   1      43.271  25.264  26.429  1.00  0.00    +0.000 C 
ATOM     83  C56 UNL A   1      42.483  26.241  27.178  1.00  0.00    +0.000 C 
ATOM     84  N9  UNL A   1      43.358  27.274  27.403  1.00  0.00    +0.000 N 
ATOM     85  C57 UNL A   1      46.866  29.998  27.530  1.00  0.00    +0.000 C 
ATOM     86  C58 UNL A   1      46.500  31.060  28.232  1.00  0.00    +0.000 C 
ATOM     87  C59 UNL A   1      38.707  28.128  29.103  1.00  0.00    +0.000 C 
ATOM     88  C60 UNL A   1      39.060  26.964  28.578  1.00  0.00    +0.000 C 
ATOM    117  H27 UNL A   1      40.268  32.793  31.095  1.00  0.00    +0.000 H 
ATOM    118  H28 UNL A   1      42.677  33.732  30.755  1.00  0.00    +0.000 H 
ATOM    119  H29 UNL A   1      42.449  30.032  28.909  1.00  0.00    +0.000 H 
ATOM    120  H30 UNL A   1      45.289  25.243  25.791  1.00  0.00    +0.000 H 
ATOM    121  H31 UNL A   1      42.926  24.356  26.081  1.00  0.00    +0.000 H 
ATOM    122  H32 UNL A   1      43.115  28.089  27.899  1.00  0.00    +0.000 H 
ATOM    123  H33 UNL A   1      47.777  29.788  27.091  1.00  0.00    +0.000 H 
ATOM    124  H34 UNL A   1      47.129  31.843  28.474  1.00  0.00    +0.000 H 
ATOM    125  H35 UNL A   1      37.747  28.368  29.398  1.00  0.00    +0.000 H 
ATOM    126  H36 UNL A   1      38.491  26.115  28.436  1.00  0.00    +0.000 H 
ENDROOT
BRANCH   32   31
ATOM    115  H25 UNL A   1      40.512  21.525  27.401  1.00  0.00    +0.000 H 
ATOM    116  H26 UNL A   1      41.664  23.512  28.187  1.00  0.00    +0.000 H 
ATOM     89  C61 UNL A   1      39.327  24.990  26.283  1.00  0.00    +0.000 C 
ATOM     90  C62 UNL A   1      38.620  23.854  25.896  1.00  0.00    +0.000 C 
ATOM    127  H37 UNL A   1      39.021  25.920  25.958  1.00  0.00    +0.000 H 
ATOM     28  C19 UNL A   1      39.089  22.587  26.256  1.00  0.00    +0.000 C 
ATOM     29  C20 UNL A   1      40.193  22.460  27.102  1.00  0.00    +0.000 C 
ATOM     30  C21 UNL A   1      40.864  23.603  27.542  1.00  0.00    +0.000 C 
ATOM     31  C22 UNL A   1      40.453  24.875  27.112  1.00  0.00    +0.000 C 
ATOM    128  H38 UNL A   1      37.753  23.948  25.345  1.00  0.00    +0.000 H 
BRANCH   28   26
ATOM     26  C18 UNL A   1      38.422  21.361  25.766  1.00  0.00    +0.000 C 
ATOM     27  O3  UNL A   1      39.000  20.281  25.845  1.00  0.00    +0.000 O 
BRANCH   26   25
ATOM     25  N5  UNL A   1      37.173  21.438  25.206  1.00  0.00    +0.000 N 
ATOM    114  H24 UNL A   1      36.937  22.312  24.816  1.00  0.00    +0.000 H 
BRANCH   25   24
ATOM    113  H23 UNL A   1      36.359  19.666  25.843  1.00  0.00    +0.000 H 
ATOM    112  H22 UNL A   1      36.164  20.005  24.118  1.00  0.00    +0.000 H 
ATOM     24  C17 UNL A   1      36.147  20.413  25.106  1.00  0.00    +0.000 C 
BRANCH   24   23
ATOM    111  H21 UNL A   1      34.260  20.234  25.998  1.00  0.00    +0.000 H 
ATOM    110  H20 UNL A   1      34.263  21.124  24.447  1.00  0.00    +0.000 H 
ATOM     23  C16 UNL A   1      34.752  20.961  25.386  1.00  0.00    +0.000 C 
BRANCH   23   22
ATOM    108  H18 UNL A   1      35.714  22.481  26.511  1.00  0.00    +0.000 H 
ATOM    109  H19 UNL A   1      34.336  23.012  25.499  1.00  0.00    +0.000 H 
ATOM     22  C15 UNL A   1      34.721  22.275  26.172  1.00  0.00    +0.000 C 
BRANCH   22   21
ATOM    106  H16 UNL A   1      33.605  21.272  27.674  1.00  0.00    +0.000 H 
ATOM    107  H17 UNL A   1      34.299  22.853  28.145  1.00  0.00    +0.000 H 
ATOM     21  C14 UNL A   1      33.793  22.286  27.391  1.00  0.00    +0.000 C 
BRANCH   21   20
ATOM    105  H15 UNL A   1      32.070  23.239  28.145  1.00  0.00    +0.000 H 
ATOM     20  C13 UNL A   1      32.441  22.977  27.176  1.00  0.00    +0.000 C 
ATOM    104  H14 UNL A   1      31.796  22.299  26.656  1.00  0.00    +0.000 H 
BRANCH   20   19
ATOM     19  C12 UNL A   1      32.523  24.271  26.371  1.00  0.00    +0.000 C 
ATOM    102  H12 UNL A   1      32.336  25.101  27.020  1.00  0.00    +0.000 H 
ATOM    103  H13 UNL A   1      33.502  24.347  25.943  1.00  0.00    +0.000 H 
BRANCH   19   18
ATOM     18  N4  UNL A   1      31.546  24.274  25.298  1.00  0.00    +0.000 N 
ATOM    101  H11 UNL A   1      30.610  24.210  25.597  1.00  0.00    +0.000 H 
BRANCH   18   16
ATOM     17  O2  UNL A   1      30.681  24.356  23.260  1.00  0.00    +0.000 O 
ATOM     16  C11 UNL A   1      31.707  24.354  23.948  1.00  0.00    +0.000 C 
BRANCH   16    2
ATOM      2  C2  UNL A   1      33.088  24.442  23.288  1.00  0.00    +0.000 C 
ATOM     94  H4  UNL A   1      33.858  24.506  24.027  1.00  0.00    +0.000 H 
BRANCH    2    1
ATOM      1  C1  UNL A   1      33.476  23.161  22.557  1.00  0.00    +0.000 C 
ATOM     91  H1  UNL A   1      33.790  23.400  21.562  1.00  0.00    +0.000 H 
ATOM     92  H2  UNL A   1      32.632  22.504  22.516  1.00  0.00    +0.000 H 
ATOM     93  H3  UNL A   1      34.276  22.681  23.079  1.00  0.00    +0.000 H 
ENDBRANCH    2    1
BRANCH    2    3
ATOM      3  S1  UNL A   1      33.160  25.989  22.315  1.00  0.00    +0.000 S 
BRANCH    3    4
ATOM     97  H7  UNL A   1      33.045  31.244  27.925  1.00  0.00    +0.000 H 
ATOM     98  H8  UNL A   1      31.369  30.901  26.197  1.00  0.00    +0.000 H 
ATOM      4  C3  UNL A   1      32.793  27.192  23.526  1.00  0.00    +0.000 C 
ATOM      5  N1  UNL A   1      33.656  27.343  24.476  1.00  0.00    +0.000 N 
ATOM      6  C4  UNL A   1      33.447  28.375  25.401  1.00  0.00    +0.000 C 
ATOM      7  C5  UNL A   1      34.399  28.580  26.403  1.00  0.00    +0.000 C 
ATOM      8  C6  UNL A   1      34.255  29.625  27.321  1.00  0.00    +0.000 C 
ATOM      9  C7  UNL A   1      33.151  30.473  27.247  1.00  0.00    +0.000 C 
ATOM     10  C8  UNL A   1      32.190  30.279  26.255  1.00  0.00    +0.000 C 
ATOM     11  C9  UNL A   1      32.348  29.232  25.338  1.00  0.00    +0.000 C 
ATOM     12  C10 UNL A   1      31.369  29.022  24.257  1.00  0.00    +0.000 C 
ATOM     13  O1  UNL A   1      30.388  29.755  24.143  1.00  0.00    +0.000 O 
ATOM     14  N2  UNL A   1      31.653  27.975  23.379  1.00  0.00    +0.000 N 
ATOM     95  H5  UNL A   1      35.218  27.954  26.466  1.00  0.00    +0.000 H 
ATOM     96  H6  UNL A   1      34.967  29.769  28.054  1.00  0.00    +0.000 H 
BRANCH   14   15
ATOM     99  H9  UNL A   1      29.769  27.990  22.438  1.00  0.00    +0.000 H 
ATOM    100  H10 UNL A   1      31.028  27.392  21.454  1.00  0.00    +0.000 H 
ATOM     15  N3  UNL A   1      30.720  27.763  22.312  1.00  0.00    +0.000 N 
ENDBRANCH   14   15
ENDBRANCH    3    4
ENDBRANCH    2    3
ENDBRANCH   16    2
ENDBRANCH   18   16
ENDBRANCH   19   18
ENDBRANCH   20   19
ENDBRANCH   21   20
ENDBRANCH   22   21
ENDBRANCH   23   22
ENDBRANCH   24   23
ENDBRANCH   25   24
ENDBRANCH   26   25
ENDBRANCH   28   26
ENDBRANCH   32   31
BRANCH   36   37
ATOM     37  C27 UNL A   1      38.492  30.696  30.361  1.00  0.00    +0.000 C 
ATOM     38  C28 UNL A   1      37.479  31.198  29.531  1.00  0.00    +0.000 C 
ATOM     39  F1  UNL A   1      37.682  31.309  28.209  1.00  0.00    +0.000 F 
ATOM     40  C29 UNL A   1      36.266  31.629  30.061  1.00  0.00    +0.000 C 
ATOM     41  F2  UNL A   1      35.333  32.154  29.255  1.00  0.00    +0.000 F 
ATOM     42  C30 UNL A   1      36.029  31.533  31.424  1.00  0.00    +0.000 C 
ATOM     43  F3  UNL A   1      34.860  31.946  31.933  1.00  0.00    +0.000 F 
ATOM     44  C31 UNL A   1      37.007  31.017  32.261  1.00  0.00    +0.000 C 
ATOM     45  F4  UNL A   1      36.774  30.912  33.577  1.00  0.00    +0.000 F 
ATOM     46  C32 UNL A   1      38.232  30.612  31.737  1.00  0.00    +0.000 C 
ATOM     47  F5  UNL A   1      39.165  30.134  32.575  1.00  0.00    +0.000 F 
ENDBRANCH   36   37
BRANCH   53   54
ATOM     54  C38 UNL A   1      45.240  33.157  29.718  1.00  0.00    +0.000 C 
ATOM     55  C39 UNL A   1      45.958  33.193  30.922  1.00  0.00    +0.000 C 
ATOM     56  F6  UNL A   1      45.909  32.153  31.769  1.00  0.00    +0.000 F 
ATOM     57  C40 UNL A   1      46.702  34.315  31.277  1.00  0.00    +0.000 C 
ATOM     58  F7  UNL A   1      47.347  34.345  32.451  1.00  0.00    +0.000 F 
ATOM     59  C41 UNL A   1      46.766  35.407  30.423  1.00  0.00    +0.000 C 
ATOM     60  F8  UNL A   1      47.489  36.484  30.764  1.00  0.00    +0.000 F 
ATOM     61  C42 UNL A   1      46.077  35.386  29.220  1.00  0.00    +0.000 C 
ATOM     62  F9  UNL A   1      46.147  36.435  28.390  1.00  0.00    +0.000 F 
ATOM     63  C43 UNL A   1      45.311  34.276  28.875  1.00  0.00    +0.000 C 
ATOM     64  F10 UNL A   1      44.646  34.288  27.710  1.00  0.00    +0.000 F 
ENDBRANCH   53   54
BRANCH   68   69
ATOM     69  C47 UNL A   1      46.946  27.377  26.222  1.00  0.00    +0.000 C 
ATOM     70  C48 UNL A   1      47.175  27.586  24.855  1.00  0.00    +0.000 C 
ATOM     71  F11 UNL A   1      46.244  28.195  24.106  1.00  0.00    +0.000 F 
ATOM     72  C49 UNL A   1      48.346  27.141  24.246  1.00  0.00    +0.000 C 
ATOM     73  F12 UNL A   1      48.524  27.320  22.929  1.00  0.00    +0.000 F 
ATOM     74  C50 UNL A   1      49.321  26.500  24.995  1.00  0.00    +0.000 C 
ATOM     75  F13 UNL A   1      50.450  26.077  24.410  1.00  0.00    +0.000 F 
ATOM     76  C51 UNL A   1      49.121  26.293  26.353  1.00  0.00    +0.000 C 
ATOM     77  F14 UNL A   1      50.066  25.686  27.083  1.00  0.00    +0.000 F 
ATOM     78  C52 UNL A   1      47.940  26.716  26.958  1.00  0.00    +0.000 C 
ATOM     79  F15 UNL A   1      47.770  26.497  28.270  1.00  0.00    +0.000 F 
ENDBRANCH   68   69
TORSDOF 19
ENDMDL
MODEL 8
REMARK VINA RESULT:      -9.0     41.892     47.035
ROOT
ATOM     32  C23 UNL A   1      22.156  35.915  47.499  1.00  0.00    +0.000 C 
ATOM     33  C24 UNL A   1      20.796  36.276  48.024  1.00  0.00    +0.000 C 
ATOM     34  N6  UNL A   1      20.362  37.423  48.482  1.00  0.00    +0.000 N 
ATOM     35  C25 UNL A   1      19.022  37.225  48.787  1.00  0.00    +0.000 C 
ATOM     36  C26 UNL A   1      18.146  38.093  49.345  1.00  0.00    +0.000 C 
ATOM     48  C33 UNL A   1      18.477  39.437  49.740  1.00  0.00    +0.000 C 
ATOM     49  C34 UNL A   1      17.678  40.373  50.374  1.00  0.00    +0.000 C 
ATOM     50  C35 UNL A   1      18.416  41.553  50.519  1.00  0.00    +0.000 C 
ATOM     51  C36 UNL A   1      19.690  41.338  50.016  1.00  0.00    +0.000 C 
ATOM     52  N7  UNL A   1      19.711  40.037  49.538  1.00  0.00    +0.000 N 
ATOM     53  C37 UNL A   1      20.804  42.249  49.973  1.00  0.00    +0.000 C 
ATOM     65  C44 UNL A   1      22.029  41.960  49.470  1.00  0.00    +0.000 C 
ATOM     66  N8  UNL A   1      22.482  40.774  48.908  1.00  0.00    +0.000 N 
ATOM     67  C45 UNL A   1      23.727  40.991  48.565  1.00  0.00    +0.000 C 
ATOM     68  C46 UNL A   1      24.716  40.049  47.936  1.00  0.00    +0.000 C 
ATOM     80  C53 UNL A   1      24.348  38.778  47.684  1.00  0.00    +0.000 C 
ATOM     81  C54 UNL A   1      25.197  37.751  47.089  1.00  0.00    +0.000 C 
ATOM     82  C55 UNL A   1      24.486  36.621  46.951  1.00  0.00    +0.000 C 
ATOM     83  C56 UNL A   1      23.139  36.836  47.478  1.00  0.00    +0.000 C 
ATOM     84  N9  UNL A   1      23.150  38.142  47.899  1.00  0.00    +0.000 N 
ATOM     85  C57 UNL A   1      24.199  42.354  48.847  1.00  0.00    +0.000 C 
ATOM     86  C58 UNL A   1      23.137  42.890  49.431  1.00  0.00    +0.000 C 
ATOM     87  C59 UNL A   1      18.701  35.863  48.417  1.00  0.00    +0.000 C 
ATOM     88  C60 UNL A   1      19.779  35.214  48.002  1.00  0.00    +0.000 C 
ATOM    117  H27 UNL A   1      16.706  40.226  50.686  1.00  0.00    +0.000 H 
ATOM    118  H28 UNL A   1      18.072  42.434  50.931  1.00  0.00    +0.000 H 
ATOM    119  H29 UNL A   1      20.488  39.603  49.117  1.00  0.00    +0.000 H 
ATOM    120  H30 UNL A   1      26.185  37.875  46.819  1.00  0.00    +0.000 H 
ATOM    121  H31 UNL A   1      24.834  35.742  46.537  1.00  0.00    +0.000 H 
ATOM    122  H32 UNL A   1      22.373  38.582  48.315  1.00  0.00    +0.000 H 
ATOM    123  H33 UNL A   1      25.117  42.781  48.643  1.00  0.00    +0.000 H 
ATOM    124  H34 UNL A   1      23.105  43.850  49.810  1.00  0.00    +0.000 H 
ATOM    125  H35 UNL A   1      17.756  35.452  48.468  1.00  0.00    +0.000 H 
ATOM    126  H36 UNL A   1      19.879  34.222  47.735  1.00  0.00    +0.000 H 
ENDROOT
BRANCH   32   31
ATOM    115  H25 UNL A   1      23.103  31.402  47.840  1.00  0.00    +0.000 H 
ATOM    116  H26 UNL A   1      22.580  33.571  48.796  1.00  0.00    +0.000 H 
ATOM     89  C61 UNL A   1      22.415  34.388  45.544  1.00  0.00    +0.000 C 
ATOM     90  C62 UNL A   1      22.639  33.126  44.997  1.00  0.00    +0.000 C 
ATOM    127  H37 UNL A   1      22.256  35.196  44.921  1.00  0.00    +0.000 H 
ATOM     28  C19 UNL A   1      22.948  32.050  45.834  1.00  0.00    +0.000 C 
ATOM     29  C20 UNL A   1      22.916  32.208  47.222  1.00  0.00    +0.000 C 
ATOM     30  C21 UNL A   1      22.628  33.459  47.771  1.00  0.00    +0.000 C 
ATOM     31  C22 UNL A   1      22.404  34.565  46.935  1.00  0.00    +0.000 C 
ATOM    128  H38 UNL A   1      22.575  32.987  43.976  1.00  0.00    +0.000 H 
BRANCH   28   26
ATOM     26  C18 UNL A   1      23.300  30.727  45.275  1.00  0.00    +0.000 C 
ATOM     27  O3  UNL A   1      24.467  30.346  45.303  1.00  0.00    +0.000 O 
BRANCH   26   25
ATOM     25  N5  UNL A   1      22.328  29.942  44.710  1.00  0.00    +0.000 N 
ATOM    114  H24 UNL A   1      22.509  29.643  43.789  1.00  0.00    +0.000 H 
BRANCH   25   24
ATOM    113  H23 UNL A   1      21.138  29.584  46.341  1.00  0.00    +0.000 H 
ATOM    112  H22 UNL A   1      20.908  28.472  44.986  1.00  0.00    +0.000 H 
ATOM     24  C17 UNL A   1      21.070  29.487  45.278  1.00  0.00    +0.000 C 
BRANCH   24   23
ATOM    111  H21 UNL A   1      19.010  29.743  45.000  1.00  0.00    +0.000 H 
ATOM    110  H20 UNL A   1      20.027  30.551  43.772  1.00  0.00    +0.000 H 
ATOM     23  C16 UNL A   1      19.886  30.326  44.809  1.00  0.00    +0.000 C 
BRANCH   23   22
ATOM    108  H18 UNL A   1      19.736  31.441  46.608  1.00  0.00    +0.000 H 
ATOM    109  H19 UNL A   1      20.474  32.296  45.219  1.00  0.00    +0.000 H 
ATOM     22  C15 UNL A   1      19.695  31.648  45.559  1.00  0.00    +0.000 C 
BRANCH   22   21
ATOM    106  H16 UNL A   1      17.874  31.855  44.488  1.00  0.00    +0.000 H 
ATOM    107  H17 UNL A   1      17.838  32.390  46.195  1.00  0.00    +0.000 H 
ATOM     21  C14 UNL A   1      18.379  32.379  45.272  1.00  0.00    +0.000 C 
BRANCH   21   20
ATOM    105  H15 UNL A   1      18.871  33.839  43.834  1.00  0.00    +0.000 H 
ATOM     20  C13 UNL A   1      18.526  33.844  44.847  1.00  0.00    +0.000 C 
ATOM    104  H14 UNL A   1      19.212  34.321  45.514  1.00  0.00    +0.000 H 
BRANCH   20   19
ATOM     19  C12 UNL A   1      17.218  34.631  44.863  1.00  0.00    +0.000 C 
ATOM    102  H12 UNL A   1      16.655  34.360  45.731  1.00  0.00    +0.000 H 
ATOM    103  H13 UNL A   1      17.447  35.677  44.881  1.00  0.00    +0.000 H 
BRANCH   19   18
ATOM     18  N4  UNL A   1      16.431  34.349  43.677  1.00  0.00    +0.000 N 
ATOM    101  H11 UNL A   1      16.585  34.967  42.927  1.00  0.00    +0.000 H 
BRANCH   18   16
ATOM     17  O2  UNL A   1      14.650  33.181  44.287  1.00  0.00    +0.000 O 
ATOM     16  C11 UNL A   1      15.518  33.369  43.428  1.00  0.00    +0.000 C 
BRANCH   16    2
ATOM      2  C2  UNL A   1      15.542  32.529  42.146  1.00  0.00    +0.000 C 
ATOM     94  H4  UNL A   1      14.666  31.919  42.077  1.00  0.00    +0.000 H 
BRANCH    2    1
ATOM      1  C1  UNL A   1      15.423  33.375  40.883  1.00  0.00    +0.000 C 
ATOM     91  H1  UNL A   1      15.452  32.738  40.024  1.00  0.00    +0.000 H 
ATOM     92  H2  UNL A   1      16.237  34.069  40.841  1.00  0.00    +0.000 H 
ATOM     93  H3  UNL A   1      14.498  33.911  40.899  1.00  0.00    +0.000 H 
ENDBRANCH    2    1
BRANCH    2    3
ATOM      3  S1  UNL A   1      16.971  31.391  42.234  1.00  0.00    +0.000 S 
BRANCH    3    4
ATOM     97  H7  UNL A   1      14.145  24.411  40.689  1.00  0.00    +0.000 H 
ATOM     98  H8  UNL A   1      14.439  25.426  42.878  1.00  0.00    +0.000 H 
ATOM      4  C3  UNL A   1      16.190  29.831  42.200  1.00  0.00    +0.000 C 
ATOM      5  N1  UNL A   1      15.985  29.308  41.035  1.00  0.00    +0.000 N 
ATOM      6  C4  UNL A   1      15.462  28.009  40.976  1.00  0.00    +0.000 C 
ATOM      7  C5  UNL A   1      15.283  27.415  39.724  1.00  0.00    +0.000 C 
ATOM      8  C6  UNL A   1      14.806  26.105  39.619  1.00  0.00    +0.000 C 
ATOM      9  C7  UNL A   1      14.499  25.378  40.767  1.00  0.00    +0.000 C 
ATOM     10  C8  UNL A   1      14.668  25.958  42.024  1.00  0.00    +0.000 C 
ATOM     11  C9  UNL A   1      15.151  27.269  42.118  1.00  0.00    +0.000 C 
ATOM     12  C10 UNL A   1      15.376  27.899  43.431  1.00  0.00    +0.000 C 
ATOM     13  O1  UNL A   1      15.134  27.290  44.472  1.00  0.00    +0.000 O 
ATOM     14  N2  UNL A   1      15.900  29.192  43.401  1.00  0.00    +0.000 N 
ATOM     95  H5  UNL A   1      15.505  27.949  38.869  1.00  0.00    +0.000 H 
ATOM     96  H6  UNL A   1      14.681  25.676  38.689  1.00  0.00    +0.000 H 
BRANCH   14   15
ATOM     99  H9  UNL A   1      15.388  29.976  45.287  1.00  0.00    +0.000 H 
ATOM    100  H10 UNL A   1      17.050  30.085  44.922  1.00  0.00    +0.000 H 
ATOM     15  N3  UNL A   1      16.138  29.816  44.668  1.00  0.00    +0.000 N 
ENDBRANCH   14   15
ENDBRANCH    3    4
ENDBRANCH    2    3
ENDBRANCH   16    2
ENDBRANCH   18   16
ENDBRANCH   19   18
ENDBRANCH   20   19
ENDBRANCH   21   20
ENDBRANCH   22   21
ENDBRANCH   23   22
ENDBRANCH   24   23
ENDBRANCH   25   24
ENDBRANCH   26   25
ENDBRANCH   28   26
ENDBRANCH   32   31
BRANCH   36   37
ATOM     37  C27 UNL A   1      16.740  37.613  49.563  1.00  0.00    +0.000 C 
ATOM     38  C28 UNL A   1      16.225  37.408  50.852  1.00  0.00    +0.000 C 
ATOM     39  F1  UNL A   1      17.001  37.606  51.929  1.00  0.00    +0.000 F 
ATOM     40  C29 UNL A   1      14.922  36.955  51.040  1.00  0.00    +0.000 C 
ATOM     41  F2  UNL A   1      14.469  36.715  52.278  1.00  0.00    +0.000 F 
ATOM     42  C30 UNL A   1      14.099  36.734  49.946  1.00  0.00    +0.000 C 
ATOM     43  F3  UNL A   1      12.843  36.300  50.128  1.00  0.00    +0.000 F 
ATOM     44  C31 UNL A   1      14.578  36.953  48.663  1.00  0.00    +0.000 C 
ATOM     45  F4  UNL A   1      13.779  36.752  47.607  1.00  0.00    +0.000 F 
ATOM     46  C32 UNL A   1      15.890  37.378  48.472  1.00  0.00    +0.000 C 
ATOM     47  F5  UNL A   1      16.331  37.565  47.219  1.00  0.00    +0.000 F 
ENDBRANCH   36   37
BRANCH   53   54
ATOM     54  C38 UNL A   1      20.606  43.620  50.550  1.00  0.00    +0.000 C 
ATOM     55  C39 UNL A   1      20.141  44.686  49.767  1.00  0.00    +0.000 C 
ATOM     56  F6  UNL A   1      19.912  44.512  48.456  1.00  0.00    +0.000 F 
ATOM     57  C40 UNL A   1      19.943  45.947  50.321  1.00  0.00    +0.000 C 
ATOM     58  F7  UNL A   1      19.538  46.963  49.546  1.00  0.00    +0.000 F 
ATOM     59  C41 UNL A   1      20.176  46.158  51.672  1.00  0.00    +0.000 C 
ATOM     60  F8  UNL A   1      19.978  47.372  52.207  1.00  0.00    +0.000 F 
ATOM     61  C42 UNL A   1      20.621  45.114  52.469  1.00  0.00    +0.000 C 
ATOM     62  F9  UNL A   1      20.836  45.313  53.776  1.00  0.00    +0.000 F 
ATOM     63  C43 UNL A   1      20.845  43.859  51.911  1.00  0.00    +0.000 C 
ATOM     64  F10 UNL A   1      21.286  42.870  52.704  1.00  0.00    +0.000 F 
ENDBRANCH   53   54
BRANCH   68   69
ATOM     69  C47 UNL A   1      26.098  40.490  47.620  1.00  0.00    +0.000 C 
ATOM     70  C48 UNL A   1      27.065  40.593  48.629  1.00  0.00    +0.000 C 
ATOM     71  F11 UNL A   1      26.737  40.322  49.901  1.00  0.00    +0.000 F 
ATOM     72  C49 UNL A   1      28.363  41.007  48.341  1.00  0.00    +0.000 C 
ATOM     73  F12 UNL A   1      29.260  41.133  49.330  1.00  0.00    +0.000 F 
ATOM     74  C50 UNL A   1      28.727  41.302  47.035  1.00  0.00    +0.000 C 
ATOM     75  F13 UNL A   1      29.977  41.695  46.757  1.00  0.00    +0.000 F 
ATOM     76  C51 UNL A   1      27.789  41.195  46.018  1.00  0.00    +0.000 C 
ATOM     77  F14 UNL A   1      28.139  41.467  44.754  1.00  0.00    +0.000 F 
ATOM     78  C52 UNL A   1      26.484  40.804  46.309  1.00  0.00    +0.000 C 
ATOM     79  F15 UNL A   1      25.596  40.717  45.308  1.00  0.00    +0.000 F 
ENDBRANCH   68   69
TORSDOF 19
ENDMDL
MODEL 9
REMARK VINA RESULT:      -9.0     43.184     46.572
ROOT
ATOM     32  C23 UNL A   1      25.943  35.780  45.568  1.00  0.00    +0.000 C 
ATOM     33  C24 UNL A   1      27.248  35.721  44.827  1.00  0.00    +0.000 C 
ATOM     34  N6  UNL A   1      28.310  36.475  44.959  1.00  0.00    +0.000 N 
ATOM     35  C25 UNL A   1      29.249  35.964  44.073  1.00  0.00    +0.000 C 
ATOM     36  C26 UNL A   1      30.489  36.431  43.793  1.00  0.00    +0.000 C 
ATOM     48  C33 UNL A   1      31.070  37.600  44.399  1.00  0.00    +0.000 C 
ATOM     49  C34 UNL A   1      32.293  38.192  44.135  1.00  0.00    +0.000 C 
ATOM     50  C35 UNL A   1      32.446  39.284  44.997  1.00  0.00    +0.000 C 
ATOM     51  C36 UNL A   1      31.299  39.398  45.767  1.00  0.00    +0.000 C 
ATOM     52  N7  UNL A   1      30.466  38.357  45.392  1.00  0.00    +0.000 N 
ATOM     53  C37 UNL A   1      30.986  40.383  46.770  1.00  0.00    +0.000 C 
ATOM     65  C44 UNL A   1      29.831  40.434  47.478  1.00  0.00    +0.000 C 
ATOM     66  N8  UNL A   1      28.728  39.596  47.407  1.00  0.00    +0.000 N 
ATOM     67  C45 UNL A   1      27.874  40.048  48.292  1.00  0.00    +0.000 C 
ATOM     68  C46 UNL A   1      26.498  39.542  48.628  1.00  0.00    +0.000 C 
ATOM     80  C53 UNL A   1      25.996  38.496  47.945  1.00  0.00    +0.000 C 
ATOM     81  C54 UNL A   1      24.678  37.904  48.151  1.00  0.00    +0.000 C 
ATOM     82  C55 UNL A   1      24.534  36.857  47.324  1.00  0.00    +0.000 C 
ATOM     83  C56 UNL A   1      25.739  36.725  46.505  1.00  0.00    +0.000 C 
ATOM     84  N9  UNL A   1      26.549  37.744  46.938  1.00  0.00    +0.000 N 
ATOM     85  C57 UNL A   1      28.354  41.214  49.048  1.00  0.00    +0.000 C 
ATOM     86  C58 UNL A   1      29.535  41.430  48.487  1.00  0.00    +0.000 C 
ATOM     87  C59 UNL A   1      28.650  34.806  43.444  1.00  0.00    +0.000 C 
ATOM     88  C60 UNL A   1      27.390  34.653  43.827  1.00  0.00    +0.000 C 
ATOM    117  H27 UNL A   1      32.974  37.882  43.425  1.00  0.00    +0.000 H 
ATOM    118  H28 UNL A   1      33.272  39.899  45.051  1.00  0.00    +0.000 H 
ATOM    119  H29 UNL A   1      29.576  38.179  45.774  1.00  0.00    +0.000 H 
ATOM    120  H30 UNL A   1      23.971  38.237  48.825  1.00  0.00    +0.000 H 
ATOM    121  H31 UNL A   1      23.706  36.243  47.274  1.00  0.00    +0.000 H 
ATOM    122  H32 UNL A   1      27.442  37.921  46.562  1.00  0.00    +0.000 H 
ATOM    123  H33 UNL A   1      27.891  41.729  49.814  1.00  0.00    +0.000 H 
ATOM    124  H34 UNL A   1      30.164  42.210  48.738  1.00  0.00    +0.000 H 
ATOM    125  H35 UNL A   1      29.139  34.181  42.785  1.00  0.00    +0.000 H 
ATOM    126  H36 UNL A   1      26.692  33.964  43.505  1.00  0.00    +0.000 H 
ENDROOT
BRANCH   32   31
ATOM    115  H25 UNL A   1      23.936  31.671  46.254  1.00  0.00    +0.000 H 
ATOM    116  H26 UNL A   1      25.587  33.375  46.769  1.00  0.00    +0.000 H 
ATOM     89  C61 UNL A   1      23.904  34.999  44.361  1.00  0.00    +0.000 C 
ATOM     90  C62 UNL A   1      22.911  34.052  44.121  1.00  0.00    +0.000 C 
ATOM    127  H37 UNL A   1      23.908  35.884  43.829  1.00  0.00    +0.000 H 
ATOM     28  C19 UNL A   1      22.959  32.814  44.770  1.00  0.00    +0.000 C 
ATOM     29  C20 UNL A   1      23.928  32.570  45.745  1.00  0.00    +0.000 C 
ATOM     30  C21 UNL A   1      24.886  33.545  46.032  1.00  0.00    +0.000 C 
ATOM     31  C22 UNL A   1      24.898  34.755  45.320  1.00  0.00    +0.000 C 
ATOM    128  H38 UNL A   1      22.142  34.264  43.466  1.00  0.00    +0.000 H 
BRANCH   28   26
ATOM     26  C18 UNL A   1      21.983  31.750  44.451  1.00  0.00    +0.000 C 
ATOM     27  O3  UNL A   1      22.275  30.575  44.660  1.00  0.00    +0.000 O 
BRANCH   26   25
ATOM     25  N5  UNL A   1      20.768  32.075  43.906  1.00  0.00    +0.000 N 
ATOM    114  H24 UNL A   1      20.708  31.988  42.926  1.00  0.00    +0.000 H 
BRANCH   25   24
ATOM    113  H23 UNL A   1      19.201  33.391  44.045  1.00  0.00    +0.000 H 
ATOM    112  H22 UNL A   1      19.787  32.756  45.588  1.00  0.00    +0.000 H 
ATOM     24  C17 UNL A   1      19.557  32.529  44.569  1.00  0.00    +0.000 C 
BRANCH   24   23
ATOM    111  H21 UNL A   1      18.514  30.949  45.467  1.00  0.00    +0.000 H 
ATOM    110  H20 UNL A   1      18.611  30.852  43.685  1.00  0.00    +0.000 H 
ATOM     23  C16 UNL A   1      18.452  31.477  44.539  1.00  0.00    +0.000 C 
BRANCH   23   22
ATOM    108  H18 UNL A   1      16.703  32.254  45.454  1.00  0.00    +0.000 H 
ATOM    109  H19 UNL A   1      17.088  32.903  43.831  1.00  0.00    +0.000 H 
ATOM     22  C15 UNL A   1      17.030  32.039  44.458  1.00  0.00    +0.000 C 
BRANCH   22   21
ATOM    106  H16 UNL A   1      15.067  31.240  44.324  1.00  0.00    +0.000 H 
ATOM    107  H17 UNL A   1      15.955  31.389  42.777  1.00  0.00    +0.000 H 
ATOM     21  C14 UNL A   1      15.996  31.112  43.810  1.00  0.00    +0.000 C 
BRANCH   21   20
ATOM    105  H15 UNL A   1      16.267  29.300  44.853  1.00  0.00    +0.000 H 
ATOM     20  C13 UNL A   1      16.350  29.620  43.836  1.00  0.00    +0.000 C 
ATOM    104  H14 UNL A   1      17.340  29.503  43.446  1.00  0.00    +0.000 H 
BRANCH   20   19
ATOM     19  C12 UNL A   1      15.407  28.742  43.019  1.00  0.00    +0.000 C 
ATOM    102  H12 UNL A   1      14.486  28.626  43.550  1.00  0.00    +0.000 H 
ATOM    103  H13 UNL A   1      15.233  29.212  42.073  1.00  0.00    +0.000 H 
BRANCH   19   18
ATOM     18  N4  UNL A   1      15.991  27.434  42.787  1.00  0.00    +0.000 N 
ATOM    101  H11 UNL A   1      16.776  27.436  42.192  1.00  0.00    +0.000 H 
BRANCH   18   16
ATOM     17  O2  UNL A   1      16.346  25.719  44.143  1.00  0.00    +0.000 O 
ATOM     16  C11 UNL A   1      15.637  26.206  43.256  1.00  0.00    +0.000 C 
BRANCH   16    2
ATOM      2  C2  UNL A   1      14.417  25.444  42.727  1.00  0.00    +0.000 C 
ATOM     94  H4  UNL A   1      14.553  24.389  42.834  1.00  0.00    +0.000 H 
BRANCH    2    1
ATOM      1  C1  UNL A   1      13.166  25.675  43.568  1.00  0.00    +0.000 C 
ATOM     91  H1  UNL A   1      12.358  25.971  42.932  1.00  0.00    +0.000 H 
ATOM     92  H2  UNL A   1      13.356  26.447  44.285  1.00  0.00    +0.000 H 
ATOM     93  H3  UNL A   1      12.907  24.771  44.078  1.00  0.00    +0.000 H 
ENDBRANCH    2    1
BRANCH    2    3
ATOM      3  S1  UNL A   1      14.266  25.776  40.935  1.00  0.00    +0.000 S 
BRANCH    3    4
ATOM     97  H7  UNL A   1      12.936  18.394  39.254  1.00  0.00    +0.000 H 
ATOM     98  H8  UNL A   1      13.673  20.139  37.730  1.00  0.00    +0.000 H 
ATOM      4  C3  UNL A   1      14.165  24.163  40.277  1.00  0.00    +0.000 C 
ATOM      5  N1  UNL A   1      13.823  23.222  41.096  1.00  0.00    +0.000 N 
ATOM      6  C4  UNL A   1      13.625  21.935  40.577  1.00  0.00    +0.000 C 
ATOM      7  C5  UNL A   1      13.206  20.921  41.443  1.00  0.00    +0.000 C 
ATOM      8  C6  UNL A   1      12.953  19.633  40.962  1.00  0.00    +0.000 C 
ATOM      9  C7  UNL A   1      13.121  19.346  39.609  1.00  0.00    +0.000 C 
ATOM     10  C8  UNL A   1      13.543  20.346  38.733  1.00  0.00    +0.000 C 
ATOM     11  C9  UNL A   1      13.789  21.634  39.224  1.00  0.00    +0.000 C 
ATOM     12  C10 UNL A   1      14.199  22.722  38.320  1.00  0.00    +0.000 C 
ATOM     13  O1  UNL A   1      14.346  22.519  37.115  1.00  0.00    +0.000 O 
ATOM     14  N2  UNL A   1      14.374  23.971  38.916  1.00  0.00    +0.000 N 
ATOM     95  H5  UNL A   1      13.082  21.125  42.447  1.00  0.00    +0.000 H 
ATOM     96  H6  UNL A   1      12.641  18.893  41.611  1.00  0.00    +0.000 H 
BRANCH   14   15
ATOM     99  H9  UNL A   1      14.214  25.263  37.260  1.00  0.00    +0.000 H 
ATOM    100  H10 UNL A   1      15.573  25.567  38.244  1.00  0.00    +0.000 H 
ATOM     15  N3  UNL A   1      14.761  25.045  38.050  1.00  0.00    +0.000 N 
ENDBRANCH   14   15
ENDBRANCH    3    4
ENDBRANCH    2    3
ENDBRANCH   16    2
ENDBRANCH   18   16
ENDBRANCH   19   18
ENDBRANCH   20   19
ENDBRANCH   21   20
ENDBRANCH   22   21
ENDBRANCH   23   22
ENDBRANCH   24   23
ENDBRANCH   25   24
ENDBRANCH   26   25
ENDBRANCH   28   26
ENDBRANCH   32   31
BRANCH   36   37
ATOM     37  C27 UNL A   1      31.302  35.672  42.785  1.00  0.00    +0.000 C 
ATOM     38  C28 UNL A   1      31.377  36.080  41.444  1.00  0.00    +0.000 C 
ATOM     39  F1  UNL A   1      30.686  37.152  41.025  1.00  0.00    +0.000 F 
ATOM     40  C29 UNL A   1      32.129  35.364  40.517  1.00  0.00    +0.000 C 
ATOM     41  F2  UNL A   1      32.143  35.742  39.232  1.00  0.00    +0.000 F 
ATOM     42  C30 UNL A   1      32.848  34.248  40.919  1.00  0.00    +0.000 C 
ATOM     43  F3  UNL A   1      33.574  33.560  40.027  1.00  0.00    +0.000 F 
ATOM     44  C31 UNL A   1      32.809  33.840  42.244  1.00  0.00    +0.000 C 
ATOM     45  F4  UNL A   1      33.513  32.769  42.636  1.00  0.00    +0.000 F 
ATOM     46  C32 UNL A   1      32.034  34.538  43.167  1.00  0.00    +0.000 C 
ATOM     47  F5  UNL A   1      32.002  34.109  44.437  1.00  0.00    +0.000 F 
ENDBRANCH   36   37
BRANCH   53   54
ATOM     54  C38 UNL A   1      32.005  41.452  47.040  1.00  0.00    +0.000 C 
ATOM     55  C39 UNL A   1      33.173  41.185  47.768  1.00  0.00    +0.000 C 
ATOM     56  F6  UNL A   1      33.381  39.966  48.290  1.00  0.00    +0.000 F 
ATOM     57  C40 UNL A   1      34.118  42.182  47.992  1.00  0.00    +0.000 C 
ATOM     58  F7  UNL A   1      35.207  41.918  48.726  1.00  0.00    +0.000 F 
ATOM     59  C41 UNL A   1      33.927  43.453  47.469  1.00  0.00    +0.000 C 
ATOM     60  F8  UNL A   1      34.842  44.410  47.681  1.00  0.00    +0.000 F 
ATOM     61  C42 UNL A   1      32.787  43.734  46.733  1.00  0.00    +0.000 C 
ATOM     62  F9  UNL A   1      32.606  44.957  46.218  1.00  0.00    +0.000 F 
ATOM     63  C43 UNL A   1      31.828  42.746  46.530  1.00  0.00    +0.000 C 
ATOM     64  F10 UNL A   1      30.729  43.050  45.822  1.00  0.00    +0.000 F 
ENDBRANCH   53   54
BRANCH   68   69
ATOM     69  C47 UNL A   1      25.677  40.200  49.675  1.00  0.00    +0.000 C 
ATOM     70  C48 UNL A   1      24.852  41.288  49.361  1.00  0.00    +0.000 C 
ATOM     71  F11 UNL A   1      24.823  41.766  48.108  1.00  0.00    +0.000 F 
ATOM     72  C49 UNL A   1      24.080  41.911  50.338  1.00  0.00    +0.000 C 
ATOM     73  F12 UNL A   1      23.327  42.974  50.018  1.00  0.00    +0.000 F 
ATOM     74  C50 UNL A   1      24.097  41.443  51.643  1.00  0.00    +0.000 C 
ATOM     75  F13 UNL A   1      23.349  42.038  52.582  1.00  0.00    +0.000 F 
ATOM     76  C51 UNL A   1      24.897  40.358  51.975  1.00  0.00    +0.000 C 
ATOM     77  F14 UNL A   1      24.908  39.895  53.232  1.00  0.00    +0.000 F 
ATOM     78  C52 UNL A   1      25.688  39.750  51.004  1.00  0.00    +0.000 C 
ATOM     79  F15 UNL A   1      26.458  38.709  51.353  1.00  0.00    +0.000 F 
ENDBRANCH   68   69
TORSDOF 19
ENDMDL
MODEL 10
REMARK VINA RESULT:      -9.0     43.136     46.428
ROOT
ATOM     32  C23 UNL A   1      25.768  36.083  45.424  1.00  0.00    +0.000 C 
ATOM     33  C24 UNL A   1      25.642  37.247  46.365  1.00  0.00    +0.000 C 
ATOM     34  N6  UNL A   1      26.534  38.148  46.692  1.00  0.00    +0.000 N 
ATOM     35  C25 UNL A   1      25.887  39.022  47.557  1.00  0.00    +0.000 C 
ATOM     36  C26 UNL A   1      26.397  40.089  48.216  1.00  0.00    +0.000 C 
ATOM     48  C33 UNL A   1      27.769  40.515  48.129  1.00  0.00    +0.000 C 
ATOM     49  C34 UNL A   1      28.398  41.544  48.808  1.00  0.00    +0.000 C 
ATOM     50  C35 UNL A   1      29.726  41.610  48.370  1.00  0.00    +0.000 C 
ATOM     51  C36 UNL A   1      29.935  40.594  47.450  1.00  0.00    +0.000 C 
ATOM     52  N7  UNL A   1      28.726  39.933  47.309  1.00  0.00    +0.000 N 
ATOM     53  C37 UNL A   1      31.147  40.251  46.752  1.00  0.00    +0.000 C 
ATOM     65  C44 UNL A   1      31.275  39.230  45.869  1.00  0.00    +0.000 C 
ATOM     66  N8  UNL A   1      30.320  38.314  45.451  1.00  0.00    +0.000 N 
ATOM     67  C45 UNL A   1      30.922  37.534  44.589  1.00  0.00    +0.000 C 
ATOM     68  C46 UNL A   1      30.376  36.352  43.837  1.00  0.00    +0.000 C 
ATOM     80  C53 UNL A   1      29.104  35.965  44.049  1.00  0.00    +0.000 C 
ATOM     81  C54 UNL A   1      28.442  34.836  43.404  1.00  0.00    +0.000 C 
ATOM     82  C55 UNL A   1      27.168  34.776  43.825  1.00  0.00    +0.000 C 
ATOM     83  C56 UNL A   1      26.935  35.844  44.797  1.00  0.00    +0.000 C 
ATOM     84  N9  UNL A   1      28.141  36.495  44.873  1.00  0.00    +0.000 N 
ATOM     85  C57 UNL A   1      32.327  37.885  44.340  1.00  0.00    +0.000 C 
ATOM     86  C58 UNL A   1      32.501  38.902  45.173  1.00  0.00    +0.000 C 
ATOM     87  C59 UNL A   1      24.516  38.573  47.664  1.00  0.00    +0.000 C 
ATOM     88  C60 UNL A   1      24.330  37.441  47.001  1.00  0.00    +0.000 C 
ATOM    117  H27 UNL A   1      27.965  42.156  49.516  1.00  0.00    +0.000 H 
ATOM    118  H28 UNL A   1      30.431  42.298  48.679  1.00  0.00    +0.000 H 
ATOM    119  H29 UNL A   1      28.567  39.164  46.715  1.00  0.00    +0.000 H 
ATOM    120  H30 UNL A   1      28.882  34.188  42.732  1.00  0.00    +0.000 H 
ATOM    121  H31 UNL A   1      26.467  34.087  43.513  1.00  0.00    +0.000 H 
ATOM    122  H32 UNL A   1      28.301  37.269  45.461  1.00  0.00    +0.000 H 
ATOM    123  H33 UNL A   1      33.002  37.453  43.688  1.00  0.00    +0.000 H 
ATOM    124  H34 UNL A   1      33.398  39.397  45.307  1.00  0.00    +0.000 H 
ATOM    125  H35 UNL A   1      23.779  39.069  48.189  1.00  0.00    +0.000 H 
ATOM    126  H36 UNL A   1      23.485  36.850  46.945  1.00  0.00    +0.000 H 
ENDROOT
BRANCH   32   31
ATOM    115  H25 UNL A   1      21.775  35.158  43.283  1.00  0.00    +0.000 H 
ATOM    116  H26 UNL A   1      23.755  36.512  43.658  1.00  0.00    +0.000 H 
ATOM     89  C61 UNL A   1      24.429  34.011  45.792  1.00  0.00    +0.000 C 
ATOM     90  C62 UNL A   1      23.332  33.197  45.519  1.00  0.00    +0.000 C 
ATOM    127  H37 UNL A   1      25.129  33.711  46.489  1.00  0.00    +0.000 H 
ATOM     28  C19 UNL A   1      22.335  33.644  44.647  1.00  0.00    +0.000 C 
ATOM     29  C20 UNL A   1      22.493  34.849  43.958  1.00  0.00    +0.000 C 
ATOM     30  C21 UNL A   1      23.625  35.634  44.184  1.00  0.00    +0.000 C 
ATOM     31  C22 UNL A   1      24.588  35.235  45.125  1.00  0.00    +0.000 C 
ATOM    128  H38 UNL A   1      23.257  32.267  45.959  1.00  0.00    +0.000 H 
BRANCH   28   26
ATOM     26  C18 UNL A   1      21.106  32.852  44.426  1.00  0.00    +0.000 C 
ATOM     27  O3  UNL A   1      21.179  31.629  44.334  1.00  0.00    +0.000 O 
BRANCH   26   25
ATOM     25  N5  UNL A   1      19.896  33.484  44.304  1.00  0.00    +0.000 N 
ATOM    114  H24 UNL A   1      19.826  34.354  44.762  1.00  0.00    +0.000 H 
BRANCH   25   24
ATOM    113  H23 UNL A   1      18.743  31.989  43.504  1.00  0.00    +0.000 H 
ATOM    112  H22 UNL A   1      18.684  33.528  42.636  1.00  0.00    +0.000 H 
ATOM     24  C17 UNL A   1      18.703  33.054  43.594  1.00  0.00    +0.000 C 
BRANCH   24   23
ATOM    111  H21 UNL A   1      17.115  34.366  43.973  1.00  0.00    +0.000 H 
ATOM    110  H20 UNL A   1      17.640  33.411  45.391  1.00  0.00    +0.000 H 
ATOM     23  C16 UNL A   1      17.423  33.410  44.343  1.00  0.00    +0.000 C 
BRANCH   23   22
ATOM    108  H18 UNL A   1      15.966  32.036  45.042  1.00  0.00    +0.000 H 
ATOM    109  H19 UNL A   1      15.479  33.046  43.647  1.00  0.00    +0.000 H 
ATOM     22  C15 UNL A   1      16.248  32.458  44.101  1.00  0.00    +0.000 C 
BRANCH   22   21
ATOM    106  H16 UNL A   1      15.909  31.438  42.270  1.00  0.00    +0.000 H 
ATOM    107  H17 UNL A   1      17.577  31.350  42.913  1.00  0.00    +0.000 H 
ATOM     21  C14 UNL A   1      16.530  31.306  43.131  1.00  0.00    +0.000 C 
BRANCH   21   20
ATOM    105  H15 UNL A   1      15.757  30.031  44.621  1.00  0.00    +0.000 H 
ATOM     20  C13 UNL A   1      16.271  29.902  43.691  1.00  0.00    +0.000 C 
ATOM    104  H14 UNL A   1      17.212  29.407  43.805  1.00  0.00    +0.000 H 
BRANCH   20   19
ATOM     19  C12 UNL A   1      15.377  29.034  42.810  1.00  0.00    +0.000 C 
ATOM    102  H12 UNL A   1      14.425  28.916  43.284  1.00  0.00    +0.000 H 
ATOM    103  H13 UNL A   1      15.261  29.515  41.860  1.00  0.00    +0.000 H 
BRANCH   19   18
ATOM     18  N4  UNL A   1      15.971  27.728  42.601  1.00  0.00    +0.000 N 
ATOM    101  H11 UNL A   1      16.697  27.710  41.937  1.00  0.00    +0.000 H 
BRANCH   18   16
ATOM     17  O2  UNL A   1      16.400  26.178  44.125  1.00  0.00    +0.000 O 
ATOM     16  C11 UNL A   1      15.694  26.522  43.171  1.00  0.00    +0.000 C 
BRANCH   16    2
ATOM      2  C2  UNL A   1      14.561  25.618  42.674  1.00  0.00    +0.000 C 
ATOM     94  H4  UNL A   1      14.826  24.587  42.775  1.00  0.00    +0.000 H 
BRANCH    2    1
ATOM      1  C1  UNL A   1      13.315  25.697  43.549  1.00  0.00    +0.000 C 
ATOM     91  H1  UNL A   1      13.435  25.057  44.399  1.00  0.00    +0.000 H 
ATOM     92  H2  UNL A   1      12.461  25.384  42.985  1.00  0.00    +0.000 H 
ATOM     93  H3  UNL A   1      13.174  26.705  43.879  1.00  0.00    +0.000 H 
ENDBRANCH    2    1
BRANCH    2    3
ATOM      3  S1  UNL A   1      14.322  25.929  40.887  1.00  0.00    +0.000 S 
BRANCH    3    4
ATOM     97  H7  UNL A   1      12.912  18.534  39.333  1.00  0.00    +0.000 H 
ATOM     98  H8  UNL A   1      13.633  20.252  37.772  1.00  0.00    +0.000 H 
ATOM      4  C3  UNL A   1      14.198  24.307  40.254  1.00  0.00    +0.000 C 
ATOM      5  N1  UNL A   1      13.865  23.380  41.092  1.00  0.00    +0.000 N 
ATOM      6  C4  UNL A   1      13.648  22.088  40.595  1.00  0.00    +0.000 C 
ATOM      7  C5  UNL A   1      13.239  21.089  41.482  1.00  0.00    +0.000 C 
ATOM      8  C6  UNL A   1      12.968  19.795  41.023  1.00  0.00    +0.000 C 
ATOM      9  C7  UNL A   1      13.110  19.489  39.671  1.00  0.00    +0.000 C 
ATOM     10  C8  UNL A   1      13.522  20.474  38.774  1.00  0.00    +0.000 C 
ATOM     11  C9  UNL A   1      13.786  21.767  39.243  1.00  0.00    +0.000 C 
ATOM     12  C10 UNL A   1      14.187  22.839  38.316  1.00  0.00    +0.000 C 
ATOM     13  O1  UNL A   1      14.311  22.619  37.112  1.00  0.00    +0.000 O 
ATOM     14  N2  UNL A   1      14.382  24.095  38.892  1.00  0.00    +0.000 N 
ATOM     95  H5  UNL A   1      13.134  21.307  42.485  1.00  0.00    +0.000 H 
ATOM     96  H6  UNL A   1      12.663  19.067  41.687  1.00  0.00    +0.000 H 
BRANCH   14   15
ATOM     99  H9  UNL A   1      15.087  26.009  38.369  1.00  0.00    +0.000 H 
ATOM    100  H10 UNL A   1      14.695  25.029  37.030  1.00  0.00    +0.000 H 
ATOM     15  N3  UNL A   1      14.760  25.155  38.004  1.00  0.00    +0.000 N 
ENDBRANCH   14   15
ENDBRANCH    3    4
ENDBRANCH    2    3
ENDBRANCH   16    2
ENDBRANCH   18   16
ENDBRANCH   19   18
ENDBRANCH   20   19
ENDBRANCH   21   20
ENDBRANCH   22   21
ENDBRANCH   23   22
ENDBRANCH   24   23
ENDBRANCH   25   24
ENDBRANCH   26   25
ENDBRANCH   28   26
ENDBRANCH   32   31
BRANCH   36   37
ATOM     37  C27 UNL A   1      25.462  40.872  49.092  1.00  0.00    +0.000 C 
ATOM     38  C28 UNL A   1      25.279  40.548  50.445  1.00  0.00    +0.000 C 
ATOM     39  F1  UNL A   1      25.918  39.496  50.980  1.00  0.00    +0.000 F 
ATOM     40  C29 UNL A   1      24.403  41.277  51.245  1.00  0.00    +0.000 C 
ATOM     41  F2  UNL A   1      24.204  40.916  52.520  1.00  0.00    +0.000 F 
ATOM     42  C30 UNL A   1      23.723  42.365  50.718  1.00  0.00    +0.000 C 
ATOM     43  F3  UNL A   1      22.882  43.068  51.490  1.00  0.00    +0.000 F 
ATOM     44  C31 UNL A   1      23.907  42.719  49.390  1.00  0.00    +0.000 C 
ATOM     45  F4  UNL A   1      23.260  43.777  48.884  1.00  0.00    +0.000 F 
ATOM     46  C32 UNL A   1      24.760  41.973  48.581  1.00  0.00    +0.000 C 
ATOM     47  F5  UNL A   1      24.904  42.330  47.295  1.00  0.00    +0.000 F 
ENDBRANCH   36   37
BRANCH   53   54
ATOM     54  C38 UNL A   1      32.372  41.069  47.037  1.00  0.00    +0.000 C 
ATOM     55  C39 UNL A   1      33.412  40.579  47.839  1.00  0.00    +0.000 C 
ATOM     56  F6  UNL A   1      33.308  39.374  48.420  1.00  0.00    +0.000 F 
ATOM     57  C40 UNL A   1      34.551  41.343  48.078  1.00  0.00    +0.000 C 
ATOM     58  F7  UNL A   1      35.515  40.874  48.882  1.00  0.00    +0.000 F 
ATOM     59  C41 UNL A   1      34.685  42.595  47.496  1.00  0.00    +0.000 C 
ATOM     60  F8  UNL A   1      35.786  43.327  47.721  1.00  0.00    +0.000 F 
ATOM     61  C42 UNL A   1      33.676  43.093  46.686  1.00  0.00    +0.000 C 
ATOM     62  F9  UNL A   1      33.807  44.297  46.114  1.00  0.00    +0.000 F 
ATOM     63  C43 UNL A   1      32.524  42.342  46.467  1.00  0.00    +0.000 C 
ATOM     64  F10 UNL A   1      31.558  42.853  45.688  1.00  0.00    +0.000 F 
ENDBRANCH   53   54
BRANCH   68   69
ATOM     69  C47 UNL A   1      31.229  35.587  42.892  1.00  0.00    +0.000 C 
ATOM     70  C48 UNL A   1      31.920  34.443  43.315  1.00  0.00    +0.000 C 
ATOM     71  F11 UNL A   1      31.839  34.047  44.594  1.00  0.00    +0.000 F 
ATOM     72  C49 UNL A   1      32.722  33.721  42.435  1.00  0.00    +0.000 C 
ATOM     73  F12 UNL A   1      33.402  32.652  42.875  1.00  0.00    +0.000 F 
ATOM     74  C50 UNL A   1      32.830  34.113  41.109  1.00  0.00    +0.000 C 
ATOM     75  F13 UNL A   1      33.597  33.415  40.261  1.00  0.00    +0.000 F 
ATOM     76  C51 UNL A   1      32.145  35.235  40.665  1.00  0.00    +0.000 C 
ATOM     77  F14 UNL A   1      32.236  35.611  39.383  1.00  0.00    +0.000 F 
ATOM     78  C52 UNL A   1      31.362  35.972  41.550  1.00  0.00    +0.000 C 
ATOM     79  F15 UNL A   1      30.717  37.057  41.096  1.00  0.00    +0.000 F 
ENDBRANCH   68   69
TORSDOF 19
ENDMDL
