MODEL 1
REMARK VINA RESULT:     -10.2      0.000      0.000
ROOT
ATOM    138  H33 UNL A   1      20.055  31.235  -0.464  1.00  0.00    +0.000 H 
ATOM    139  H34 UNL A   1      17.501  31.714  -0.670  1.00  0.00    +0.000 H 
ATOM    140  H35 UNL A   1      18.153  27.727  -1.573  1.00  0.00    +0.000 H 
ATOM    141  H36 UNL A   1      15.919  22.103  -3.616  1.00  0.00    +0.000 H 
ATOM    142  H37 UNL A   1      18.386  21.609  -3.271  1.00  0.00    +0.000 H 
ATOM    143  H38 UNL A   1      17.745  25.602  -2.314  1.00  0.00    +0.000 H 
ATOM    144  H39 UNL A   1      12.812  26.381  -2.793  1.00  0.00    +0.000 H 
ATOM    145  H40 UNL A   1      13.281  28.833  -2.239  1.00  0.00    +0.000 H 
ATOM    146  H41 UNL A   1      22.998  26.752  -0.783  1.00  0.00    +0.000 H 
ATOM    147  H42 UNL A   1      22.652  24.443  -1.833  1.00  0.00    +0.000 H 
ATOM     39  C28 UNL A   1      19.927  23.856  -2.432  1.00  0.00    +0.000 C 
ATOM     40  C29 UNL A   1      20.501  25.155  -1.939  1.00  0.00    +0.000 C 
ATOM     41  N3  UNL A   1      19.893  26.285  -1.684  1.00  0.00    +0.000 N 
ATOM     42  C30 UNL A   1      20.877  27.146  -1.220  1.00  0.00    +0.000 C 
ATOM     43  C31 UNL A   1      20.767  28.456  -0.894  1.00  0.00    +0.000 C 
ATOM     55  C38 UNL A   1      19.539  29.202  -0.967  1.00  0.00    +0.000 C 
ATOM     56  C39 UNL A   1      19.329  30.545  -0.711  1.00  0.00    +0.000 C 
ATOM     57  C40 UNL A   1      17.962  30.807  -0.845  1.00  0.00    +0.000 C 
ATOM     58  C41 UNL A   1      17.329  29.643  -1.253  1.00  0.00    +0.000 C 
ATOM     59  N4  UNL A   1      18.308  28.665  -1.317  1.00  0.00    +0.000 N 
ATOM     60  C42 UNL A   1      15.935  29.441  -1.563  1.00  0.00    +0.000 C 
ATOM     72  C49 UNL A   1      15.390  28.267  -1.966  1.00  0.00    +0.000 C 
ATOM     73  N5  UNL A   1      16.007  27.041  -2.175  1.00  0.00    +0.000 N 
ATOM     74  C50 UNL A   1      15.059  26.216  -2.544  1.00  0.00    +0.000 C 
ATOM     75  C51 UNL A   1      15.157  24.765  -2.933  1.00  0.00    +0.000 C 
ATOM     87  C58 UNL A   1      16.363  24.169  -2.926  1.00  0.00    +0.000 C 
ATOM     88  C59 UNL A   1      16.626  22.779  -3.286  1.00  0.00    +0.000 C 
ATOM     89  C60 UNL A   1      17.932  22.522  -3.116  1.00  0.00    +0.000 C 
ATOM     90  C61 UNL A   1      18.607  23.744  -2.679  1.00  0.00    +0.000 C 
ATOM     91  N6  UNL A   1      17.598  24.669  -2.591  1.00  0.00    +0.000 N 
ATOM     92  C62 UNL A   1      13.720  26.820  -2.580  1.00  0.00    +0.000 C 
ATOM     93  C63 UNL A   1      13.985  28.080  -2.266  1.00  0.00    +0.000 C 
ATOM     94  C64 UNL A   1      22.110  26.393  -1.164  1.00  0.00    +0.000 C 
ATOM     95  C65 UNL A   1      21.947  25.179  -1.670  1.00  0.00    +0.000 C 
ENDROOT
BRANCH   39   38
ATOM     97  C67 UNL A   1      21.826  21.029  -4.057  1.00  0.00    +0.000 C 
ATOM     35  C24 UNL A   1      22.493  20.482  -2.957  1.00  0.00    +0.000 C 
ATOM     36  C25 UNL A   1      22.271  20.978  -1.672  1.00  0.00    +0.000 C 
ATOM     37  C26 UNL A   1      21.408  22.057  -1.494  1.00  0.00    +0.000 C 
ATOM     38  C27 UNL A   1      20.806  22.675  -2.604  1.00  0.00    +0.000 C 
ATOM    136  H31 UNL A   1      22.741  20.549  -0.861  1.00  0.00    +0.000 H 
ATOM    137  H32 UNL A   1      21.210  22.406  -0.543  1.00  0.00    +0.000 H 
ATOM    148  H43 UNL A   1      20.604  22.614  -4.709  1.00  0.00    +0.000 H 
ATOM    149  H44 UNL A   1      21.922  20.598  -4.989  1.00  0.00    +0.000 H 
ATOM     96  C66 UNL A   1      21.031  22.157  -3.888  1.00  0.00    +0.000 C 
BRANCH   35   33
ATOM     33  C23 UNL A   1      23.477  19.397  -3.134  1.00  0.00    +0.000 C 
ATOM     34  O9  UNL A   1      23.278  18.297  -2.632  1.00  0.00    +0.000 O 
BRANCH   33   32
ATOM    135  H30 UNL A   1      24.668  19.279  -4.743  1.00  0.00    +0.000 H 
ATOM     32  N2  UNL A   1      24.626  19.653  -3.833  1.00  0.00    +0.000 N 
BRANCH   32   31
ATOM    133  H28 UNL A   1      25.519  21.006  -2.564  1.00  0.00    +0.000 H 
ATOM    134  H29 UNL A   1      26.556  19.697  -3.157  1.00  0.00    +0.000 H 
ATOM     31  C22 UNL A   1      25.792  20.403  -3.405  1.00  0.00    +0.000 C 
BRANCH   31   30
ATOM    131  H26 UNL A   1      27.409  21.196  -4.516  1.00  0.00    +0.000 H 
ATOM    132  H27 UNL A   1      25.868  21.011  -5.405  1.00  0.00    +0.000 H 
ATOM     30  C21 UNL A   1      26.344  21.311  -4.495  1.00  0.00    +0.000 C 
BRANCH   30   29
ATOM    129  H24 UNL A   1      26.341  23.083  -3.334  1.00  0.00    +0.000 H 
ATOM    130  H25 UNL A   1      26.556  23.300  -5.104  1.00  0.00    +0.000 H 
ATOM     29  C20 UNL A   1      26.031  22.798  -4.318  1.00  0.00    +0.000 C 
BRANCH   29   28
ATOM     28  C19 UNL A   1      24.559  23.196  -4.482  1.00  0.00    +0.000 C 
ATOM    127  H22 UNL A   1      24.203  22.769  -5.396  1.00  0.00    +0.000 H 
ATOM    128  H23 UNL A   1      24.060  22.832  -3.608  1.00  0.00    +0.000 H 
BRANCH   28   27
ATOM     27  C18 UNL A   1      24.278  24.699  -4.525  1.00  0.00    +0.000 C 
ATOM    125  H20 UNL A   1      24.063  25.032  -3.530  1.00  0.00    +0.000 H 
ATOM    126  H21 UNL A   1      25.149  25.169  -4.932  1.00  0.00    +0.000 H 
BRANCH   27   26
ATOM     26  C17 UNL A   1      23.114  25.076  -5.417  1.00  0.00    +0.000 C 
ATOM    123  H18 UNL A   1      22.363  24.319  -5.342  1.00  0.00    +0.000 H 
ATOM    124  H19 UNL A   1      22.740  26.024  -5.090  1.00  0.00    +0.000 H 
BRANCH   26   25
ATOM     25  N1  UNL A   1      23.514  25.206  -6.799  1.00  0.00    +0.000 N 
ATOM    122  H17 UNL A   1      23.630  24.382  -7.324  1.00  0.00    +0.000 H 
BRANCH   25   23
ATOM     23  C16 UNL A   1      23.738  26.397  -7.425  1.00  0.00    +0.000 C 
ATOM     24  O8  UNL A   1      24.028  27.399  -6.791  1.00  0.00    +0.000 O 
BRANCH   23   22
ATOM      2  C2  UNL A   1      27.502  25.993 -12.251  1.00  0.00    +0.000 C 
ATOM      3  C3  UNL A   1      27.393  26.442 -13.662  1.00  0.00    +0.000 C 
ATOM      4  O1  UNL A   1      28.299  26.599 -14.447  1.00  0.00    +0.000 O 
ATOM      5  O2  UNL A   1      26.071  26.697 -13.875  1.00  0.00    +0.000 O 
ATOM      6  C4  UNL A   1      25.312  26.512 -12.650  1.00  0.00    +0.000 C 
ATOM      7  C5  UNL A   1      26.358  26.646 -11.551  1.00  0.00    +0.000 C 
ATOM      8  C6  UNL A   1      26.008  26.284 -10.100  1.00  0.00    +0.000 C 
ATOM     17  C12 UNL A   1      24.744  27.094  -9.600  1.00  0.00    +0.000 C 
ATOM     22  C15 UNL A   1      23.569  26.402  -8.922  1.00  0.00    +0.000 C 
ATOM    150  H45 UNL A   1      22.047  25.247  -8.419  1.00  0.00    +0.000 H 
ATOM    152  H47 UNL A   1      21.304  24.954 -12.670  1.00  0.00    +0.000 H 
ATOM    151  H46 UNL A   1      20.871  25.180  -9.686  1.00  0.00    +0.000 H 
ATOM    156  H51 UNL A   1      25.467  24.711 -12.508  1.00  0.00    +0.000 H 
ATOM     98  C68 UNL A   1      22.402  25.795  -9.218  1.00  0.00    +0.000 C 
ATOM     99  C69 UNL A   1      21.506  25.705 -10.369  1.00  0.00    +0.000 C 
ATOM    100  O10 UNL A   1      21.535  26.768 -11.311  1.00  0.00    +0.000 O 
ATOM    101  C70 UNL A   1      21.744  25.474 -11.844  1.00  0.00    +0.000 C 
ATOM    102  C71 UNL A   1      23.099  24.888 -12.246  1.00  0.00    +0.000 C 
ATOM    104  O11 UNL A   1      23.434  25.283 -13.594  1.00  0.00    +0.000 O 
ATOM    105  C73 UNL A   1      24.554  25.228 -12.715  1.00  0.00    +0.000 C 
ATOM    108  H3  UNL A   1      24.536  27.225 -12.467  1.00  0.00    +0.000 H 
ATOM    109  H4  UNL A   1      26.554  27.648 -11.228  1.00  0.00    +0.000 H 
ATOM    110  H5  UNL A   1      26.824  26.590  -9.478  1.00  0.00    +0.000 H 
ATOM    118  H13 UNL A   1      24.794  27.137  -8.532  1.00  0.00    +0.000 H 
BRANCH    2    1
ATOM      1  C1  UNL A   1      28.415  25.089 -11.888  1.00  0.00    +0.000 C 
ATOM    106  H1  UNL A   1      28.125  24.123 -11.667  1.00  0.00    +0.000 H 
ATOM    107  H2  UNL A   1      29.409  25.356 -11.827  1.00  0.00    +0.000 H 
ENDBRANCH    2    1
BRANCH    8    9
ATOM      9  O3  UNL A   1      25.910  24.859  -9.893  1.00  0.00    +0.000 O 
BRANCH    9   10
ATOM     10  C7  UNL A   1      26.573  24.147  -8.910  1.00  0.00    +0.000 C 
ATOM     11  O4  UNL A   1      26.562  22.921  -8.994  1.00  0.00    +0.000 O 
BRANCH   10   12
ATOM    114  H9  UNL A   1      29.841  24.628  -7.233  1.00  0.00    +0.000 H 
ATOM     12  C8  UNL A   1      27.626  24.817  -8.036  1.00  0.00    +0.000 C 
ATOM     14  O5  UNL A   1      28.465  25.677  -8.858  1.00  0.00    +0.000 O 
ATOM     15  C10 UNL A   1      29.176  24.745  -8.064  1.00  0.00    +0.000 C 
BRANCH   12   13
ATOM    113  H8  UNL A   1      26.064  25.962  -7.143  1.00  0.00    +0.000 H 
ATOM     13  C9  UNL A   1      27.061  25.660  -6.901  1.00  0.00    +0.000 C 
ATOM    111  H6  UNL A   1      27.673  26.528  -6.764  1.00  0.00    +0.000 H 
ATOM    112  H7  UNL A   1      27.052  25.085  -5.999  1.00  0.00    +0.000 H 
ENDBRANCH   12   13
BRANCH   15   16
ATOM    115  H10 UNL A   1      30.417  23.072  -8.295  1.00  0.00    +0.000 H 
ATOM    116  H11 UNL A   1      30.974  24.509  -9.117  1.00  0.00    +0.000 H 
ATOM    117  H12 UNL A   1      29.627  23.600  -9.760  1.00  0.00    +0.000 H 
ATOM     16  C11 UNL A   1      30.114  23.925  -8.865  1.00  0.00    +0.000 C 
ENDBRANCH   15   16
ENDBRANCH   10   12
ENDBRANCH    9   10
ENDBRANCH    8    9
BRANCH   17   18
ATOM     18  O6  UNL A   1      24.695  28.518 -10.009  1.00  0.00    +0.000 O 
BRANCH   18   19
ATOM     19  C13 UNL A   1      25.280  29.709  -9.865  1.00  0.00    +0.000 C 
ATOM     21  O7  UNL A   1      25.618  30.082  -8.742  1.00  0.00    +0.000 O 
BRANCH   19   20
ATOM    121  H16 UNL A   1      26.381  31.234 -10.783  1.00  0.00    +0.000 H 
ATOM     20  C14 UNL A   1      25.583  30.565 -11.029  1.00  0.00    +0.000 C 
ATOM    119  H14 UNL A   1      24.714  31.129 -11.294  1.00  0.00    +0.000 H 
ATOM    120  H15 UNL A   1      25.876  29.951 -11.856  1.00  0.00    +0.000 H 
ENDBRANCH   19   20
ENDBRANCH   18   19
ENDBRANCH   17   18
BRANCH  102  103
ATOM    153  H48 UNL A   1      22.060  23.060 -12.637  1.00  0.00    +0.000 H 
ATOM    154  H49 UNL A   1      22.890  23.095 -11.100  1.00  0.00    +0.000 H 
ATOM    155  H50 UNL A   1      23.799  22.894 -12.579  1.00  0.00    +0.000 H 
ATOM    103  C72 UNL A   1      22.950  23.370 -12.131  1.00  0.00    +0.000 C 
ENDBRANCH  102  103
ENDBRANCH   23   22
ENDBRANCH   25   23
ENDBRANCH   26   25
ENDBRANCH   27   26
ENDBRANCH   28   27
ENDBRANCH   29   28
ENDBRANCH   30   29
ENDBRANCH   31   30
ENDBRANCH   32   31
ENDBRANCH   33   32
ENDBRANCH   35   33
ENDBRANCH   39   38
BRANCH   43   44
ATOM     44  C32 UNL A   1      22.007  29.164  -0.425  1.00  0.00    +0.000 C 
ATOM     45  C33 UNL A   1      22.303  29.314   0.939  1.00  0.00    +0.000 C 
ATOM     46  F1  UNL A   1      21.450  28.858   1.869  1.00  0.00    +0.000 F 
ATOM     47  C34 UNL A   1      23.456  29.974   1.355  1.00  0.00    +0.000 C 
ATOM     48  F2  UNL A   1      23.688  30.153   2.663  1.00  0.00    +0.000 F 
ATOM     49  C35 UNL A   1      24.357  30.458   0.420  1.00  0.00    +0.000 C 
ATOM     50  F3  UNL A   1      25.472  31.085   0.822  1.00  0.00    +0.000 F 
ATOM     51  C36 UNL A   1      24.099  30.300  -0.933  1.00  0.00    +0.000 C 
ATOM     52  F4  UNL A   1      24.976  30.753  -1.839  1.00  0.00    +0.000 F 
ATOM     53  C37 UNL A   1      22.929  29.672  -1.353  1.00  0.00    +0.000 C 
ATOM     54  F5  UNL A   1      22.699  29.554  -2.670  1.00  0.00    +0.000 F 
ENDBRANCH   43   44
BRANCH   60   61
ATOM     65  F7  UNL A   1      13.009  32.826  -3.572  1.00  0.00    +0.000 F 
ATOM     66  C46 UNL A   1      13.264  32.809  -1.224  1.00  0.00    +0.000 C 
ATOM     67  F8  UNL A   1      12.434  33.856  -1.112  1.00  0.00    +0.000 F 
ATOM     68  C47 UNL A   1      13.847  32.262  -0.092  1.00  0.00    +0.000 C 
ATOM     69  F9  UNL A   1      13.560  32.762   1.118  1.00  0.00    +0.000 F 
ATOM     70  C48 UNL A   1      14.729  31.192  -0.209  1.00  0.00    +0.000 C 
ATOM     71  F10 UNL A   1      15.288  30.694   0.904  1.00  0.00    +0.000 F 
ATOM     61  C43 UNL A   1      15.020  30.628  -1.461  1.00  0.00    +0.000 C 
ATOM     62  C44 UNL A   1      14.401  31.183  -2.591  1.00  0.00    +0.000 C 
ATOM     63  F6  UNL A   1      14.655  30.691  -3.812  1.00  0.00    +0.000 F 
ATOM     64  C45 UNL A   1      13.547  32.277  -2.474  1.00  0.00    +0.000 C 
ENDBRANCH   60   61
BRANCH   75   76
ATOM     76  C52 UNL A   1      13.949  23.999  -3.340  1.00  0.00    +0.000 C 
ATOM     77  C53 UNL A   1      13.347  24.206  -4.589  1.00  0.00    +0.000 C 
ATOM     78  F11 UNL A   1      13.857  25.115  -5.434  1.00  0.00    +0.000 F 
ATOM     79  C54 UNL A   1      12.194  23.517  -4.958  1.00  0.00    +0.000 C 
ATOM     80  F12 UNL A   1      11.610  23.775  -6.136  1.00  0.00    +0.000 F 
ATOM     81  C55 UNL A   1      11.641  22.578  -4.101  1.00  0.00    +0.000 C 
ATOM     82  F13 UNL A   1      10.534  21.913  -4.457  1.00  0.00    +0.000 F 
ATOM     83  C56 UNL A   1      12.231  22.336  -2.870  1.00  0.00    +0.000 C 
ATOM     84  F14 UNL A   1      11.710  21.419  -2.045  1.00  0.00    +0.000 F 
ATOM     85  C57 UNL A   1      13.365  23.050  -2.487  1.00  0.00    +0.000 C 
ATOM     86  F15 UNL A   1      13.904  22.807  -1.283  1.00  0.00    +0.000 F 
ENDBRANCH   75   76
TORSDOF 25
ENDMDL
MODEL 2
REMARK VINA RESULT:     -10.0     22.512     30.213
ROOT
ATOM    138  H33 UNL A   1      18.520  50.681  -2.918  1.00  0.00    +0.000 H 
ATOM    139  H34 UNL A   1      19.161  53.202  -2.759  1.00  0.00    +0.000 H 
ATOM    140  H35 UNL A   1      16.614  52.307   0.380  1.00  0.00    +0.000 H 
ATOM    141  H36 UNL A   1      13.123  54.239   5.367  1.00  0.00    +0.000 H 
ATOM    142  H37 UNL A   1      12.621  51.751   5.290  1.00  0.00    +0.000 H 
ATOM    143  H38 UNL A   1      15.216  52.620   2.161  1.00  0.00    +0.000 H 
ATOM    144  H39 UNL A   1      16.323  57.496   2.575  1.00  0.00    +0.000 H 
ATOM    145  H40 UNL A   1      17.673  57.235   0.418  1.00  0.00    +0.000 H 
ATOM    146  H41 UNL A   1      15.726  47.383   0.271  1.00  0.00    +0.000 H 
ATOM    147  H42 UNL A   1      13.964  47.713   2.099  1.00  0.00    +0.000 H 
ATOM     39  C28 UNL A   1      13.876  50.366   3.136  1.00  0.00    +0.000 C 
ATOM     40  C29 UNL A   1      14.686  49.859   1.977  1.00  0.00    +0.000 C 
ATOM     41  N3  UNL A   1      15.512  50.509   1.197  1.00  0.00    +0.000 N 
ATOM     42  C30 UNL A   1      16.021  49.563   0.318  1.00  0.00    +0.000 C 
ATOM     43  C31 UNL A   1      16.858  49.751  -0.730  1.00  0.00    +0.000 C 
ATOM     55  C38 UNL A   1      17.394  51.031  -1.113  1.00  0.00    +0.000 C 
ATOM     56  C39 UNL A   1      18.208  51.338  -2.189  1.00  0.00    +0.000 C 
ATOM     57  C40 UNL A   1      18.531  52.697  -2.116  1.00  0.00    +0.000 C 
ATOM     58  C41 UNL A   1      17.864  53.252  -1.035  1.00  0.00    +0.000 C 
ATOM     59  N4  UNL A   1      17.176  52.216  -0.424  1.00  0.00    +0.000 N 
ATOM     60  C42 UNL A   1      17.855  54.624  -0.594  1.00  0.00    +0.000 C 
ATOM     72  C49 UNL A   1      17.166  55.094   0.475  1.00  0.00    +0.000 C 
ATOM     73  N5  UNL A   1      16.341  54.407   1.355  1.00  0.00    +0.000 N 
ATOM     74  C50 UNL A   1      15.921  55.293   2.224  1.00  0.00    +0.000 C 
ATOM     75  C51 UNL A   1      14.975  55.117   3.382  1.00  0.00    +0.000 C 
ATOM     87  C58 UNL A   1      14.446  53.901   3.612  1.00  0.00    +0.000 C 
ATOM     88  C59 UNL A   1      13.510  53.571   4.682  1.00  0.00    +0.000 C 
ATOM     89  C60 UNL A   1      13.234  52.259   4.633  1.00  0.00    +0.000 C 
ATOM     90  C61 UNL A   1      13.940  51.663   3.498  1.00  0.00    +0.000 C 
ATOM     91  N6  UNL A   1      14.635  52.712   2.951  1.00  0.00    +0.000 N 
ATOM     92  C62 UNL A   1      16.461  56.643   2.012  1.00  0.00    +0.000 C 
ATOM     93  C63 UNL A   1      17.175  56.476   0.908  1.00  0.00    +0.000 C 
ATOM     94  C64 UNL A   1      15.465  48.284   0.699  1.00  0.00    +0.000 C 
ATOM     95  C65 UNL A   1      14.575  48.424   1.670  1.00  0.00    +0.000 C 
ENDROOT
BRANCH   39   38
ATOM     97  C67 UNL A   1      10.890  48.380   4.309  1.00  0.00    +0.000 C 
ATOM     35  C24 UNL A   1      11.450  47.637   5.352  1.00  0.00    +0.000 C 
ATOM     36  C25 UNL A   1      12.779  47.832   5.730  1.00  0.00    +0.000 C 
ATOM     37  C26 UNL A   1      13.563  48.747   5.031  1.00  0.00    +0.000 C 
ATOM     38  C27 UNL A   1      13.037  49.430   3.921  1.00  0.00    +0.000 C 
ATOM    136  H31 UNL A   1      13.177  47.304   6.522  1.00  0.00    +0.000 H 
ATOM    137  H32 UNL A   1      14.535  48.924   5.328  1.00  0.00    +0.000 H 
ATOM    148  H43 UNL A   1      11.305  49.717   2.738  1.00  0.00    +0.000 H 
ATOM    149  H44 UNL A   1       9.883  48.298   4.097  1.00  0.00    +0.000 H 
ATOM     96  C66 UNL A   1      11.695  49.230   3.560  1.00  0.00    +0.000 C 
BRANCH   35   33
ATOM     33  C23 UNL A   1      10.664  46.601   6.049  1.00  0.00    +0.000 C 
ATOM     34  O9  UNL A   1      11.201  45.564   6.420  1.00  0.00    +0.000 O 
BRANCH   33   32
ATOM    135  H30 UNL A   1       9.044  47.741   6.361  1.00  0.00    +0.000 H 
ATOM     32  N2  UNL A   1       9.323  46.804   6.239  1.00  0.00    +0.000 N 
BRANCH   32   31
ATOM    133  H28 UNL A   1       7.370  46.258   5.884  1.00  0.00    +0.000 H 
ATOM    134  H29 UNL A   1       8.579  44.975   5.708  1.00  0.00    +0.000 H 
ATOM     31  C22 UNL A   1       8.260  45.818   6.283  1.00  0.00    +0.000 C 
BRANCH   31   30
ATOM    131  H26 UNL A   1       7.366  44.443   7.620  1.00  0.00    +0.000 H 
ATOM    132  H27 UNL A   1       8.918  45.152   8.153  1.00  0.00    +0.000 H 
ATOM     30  C21 UNL A   1       7.968  45.325   7.694  1.00  0.00    +0.000 C 
BRANCH   30   29
ATOM    129  H24 UNL A   1       6.835  47.095   7.962  1.00  0.00    +0.000 H 
ATOM    130  H25 UNL A   1       6.493  45.758   9.111  1.00  0.00    +0.000 H 
ATOM     29  C20 UNL A   1       7.235  46.326   8.589  1.00  0.00    +0.000 C 
BRANCH   29   28
ATOM     28  C19 UNL A   1       8.082  46.999   9.675  1.00  0.00    +0.000 C 
ATOM    127  H22 UNL A   1       7.982  48.058   9.561  1.00  0.00    +0.000 H 
ATOM    128  H23 UNL A   1       7.712  46.626  10.607  1.00  0.00    +0.000 H 
BRANCH   28   27
ATOM     27  C18 UNL A   1       9.575  46.664   9.658  1.00  0.00    +0.000 C 
ATOM    125  H20 UNL A   1       9.684  45.612   9.490  1.00  0.00    +0.000 H 
ATOM    126  H21 UNL A   1      10.018  47.247   8.877  1.00  0.00    +0.000 H 
BRANCH   27   26
ATOM     26  C17 UNL A   1      10.295  47.020  10.941  1.00  0.00    +0.000 C 
ATOM    123  H18 UNL A   1      10.071  48.035  11.192  1.00  0.00    +0.000 H 
ATOM    124  H19 UNL A   1       9.959  46.351  11.705  1.00  0.00    +0.000 H 
BRANCH   26   25
ATOM     25  N1  UNL A   1      11.727  46.873  10.815  1.00  0.00    +0.000 N 
ATOM    122  H17 UNL A   1      12.068  46.105  10.305  1.00  0.00    +0.000 H 
BRANCH   25   23
ATOM     23  C16 UNL A   1      12.637  47.733  11.358  1.00  0.00    +0.000 C 
ATOM     24  O8  UNL A   1      12.686  47.922  12.562  1.00  0.00    +0.000 O 
BRANCH   23   22
ATOM      2  C2  UNL A   1      13.793  53.593   9.967  1.00  0.00    +0.000 C 
ATOM      3  C3  UNL A   1      14.310  54.263   8.747  1.00  0.00    +0.000 C 
ATOM      4  O1  UNL A   1      14.205  55.433   8.461  1.00  0.00    +0.000 O 
ATOM      5  O2  UNL A   1      14.874  53.281   7.990  1.00  0.00    +0.000 O 
ATOM      6  C4  UNL A   1      14.687  51.983   8.615  1.00  0.00    +0.000 C 
ATOM      7  C5  UNL A   1      13.497  52.195   9.542  1.00  0.00    +0.000 C 
ATOM      8  C6  UNL A   1      13.114  51.119  10.570  1.00  0.00    +0.000 C 
ATOM     17  C12 UNL A   1      12.877  49.721   9.869  1.00  0.00    +0.000 C 
ATOM     22  C15 UNL A   1      13.536  48.448  10.384  1.00  0.00    +0.000 C 
ATOM    150  H45 UNL A   1      14.774  47.040  11.006  1.00  0.00    +0.000 H 
ATOM    152  H47 UNL A   1      17.662  48.888   8.370  1.00  0.00    +0.000 H 
ATOM    151  H46 UNL A   1      16.072  46.810   9.885  1.00  0.00    +0.000 H 
ATOM    156  H51 UNL A   1      15.778  52.214  10.045  1.00  0.00    +0.000 H 
ATOM     98  C68 UNL A   1      14.668  47.728  10.245  1.00  0.00    +0.000 C 
ATOM     99  C69 UNL A   1      15.785  47.663   9.305  1.00  0.00    +0.000 C 
ATOM    100  O10 UNL A   1      15.556  48.114   7.977  1.00  0.00    +0.000 O 
ATOM    101  C70 UNL A   1      16.643  48.722   8.650  1.00  0.00    +0.000 C 
ATOM    102  C71 UNL A   1      16.629  50.116   9.281  1.00  0.00    +0.000 C 
ATOM    104  O11 UNL A   1      16.939  51.117   8.287  1.00  0.00    +0.000 O 
ATOM    105  C73 UNL A   1      15.966  51.534   9.240  1.00  0.00    +0.000 C 
ATOM    108  H3  UNL A   1      14.460  51.172   7.954  1.00  0.00    +0.000 H 
ATOM    109  H4  UNL A   1      12.536  52.067   9.087  1.00  0.00    +0.000 H 
ATOM    110  H5  UNL A   1      12.177  51.398  11.005  1.00  0.00    +0.000 H 
ATOM    118  H13 UNL A   1      12.237  49.147  10.507  1.00  0.00    +0.000 H 
BRANCH    2    1
ATOM      1  C1  UNL A   1      13.786  54.224  11.145  1.00  0.00    +0.000 C 
ATOM    106  H1  UNL A   1      14.671  54.379  11.652  1.00  0.00    +0.000 H 
ATOM    107  H2  UNL A   1      12.896  54.554  11.548  1.00  0.00    +0.000 H 
ENDBRANCH    2    1
BRANCH    8    9
ATOM      9  O3  UNL A   1      14.030  51.068  11.684  1.00  0.00    +0.000 O 
BRANCH    9   10
ATOM     10  C7  UNL A   1      13.664  51.051  13.018  1.00  0.00    +0.000 C 
ATOM     11  O4  UNL A   1      14.537  50.782  13.841  1.00  0.00    +0.000 O 
BRANCH   10   12
ATOM    114  H9  UNL A   1      10.090  52.025  13.049  1.00  0.00    +0.000 H 
ATOM     12  C8  UNL A   1      12.396  51.753  13.490  1.00  0.00    +0.000 C 
ATOM     14  O5  UNL A   1      11.670  50.883  14.403  1.00  0.00    +0.000 O 
ATOM     15  C10 UNL A   1      10.898  51.380  13.324  1.00  0.00    +0.000 C 
BRANCH   12   13
ATOM    113  H8  UNL A   1      11.871  53.235  14.931  1.00  0.00    +0.000 H 
ATOM     13  C9  UNL A   1      12.634  53.079  14.197  1.00  0.00    +0.000 C 
ATOM    111  H6  UNL A   1      12.608  53.874  13.481  1.00  0.00    +0.000 H 
ATOM    112  H7  UNL A   1      13.591  53.062  14.676  1.00  0.00    +0.000 H 
ENDBRANCH   12   13
BRANCH   15   16
ATOM    115  H10 UNL A   1      10.961  49.712  12.057  1.00  0.00    +0.000 H 
ATOM    116  H11 UNL A   1       9.552  50.726  11.856  1.00  0.00    +0.000 H 
ATOM    117  H12 UNL A   1       9.682  49.675  13.246  1.00  0.00    +0.000 H 
ATOM     16  C11 UNL A   1      10.226  50.299  12.568  1.00  0.00    +0.000 C 
ENDBRANCH   15   16
ENDBRANCH   10   12
ENDBRANCH    9   10
ENDBRANCH    8    9
BRANCH   17   18
ATOM     18  O6  UNL A   1      12.143  49.767   8.582  1.00  0.00    +0.000 O 
BRANCH   18   19
ATOM     19  C13 UNL A   1      11.019  50.175   7.988  1.00  0.00    +0.000 C 
ATOM     21  O7  UNL A   1       9.970  49.571   8.206  1.00  0.00    +0.000 O 
BRANCH   19   20
ATOM    121  H16 UNL A   1      11.905  51.919   7.244  1.00  0.00    +0.000 H 
ATOM     20  C14 UNL A   1      10.996  51.369   7.119  1.00  0.00    +0.000 C 
ATOM    119  H14 UNL A   1      10.166  51.988   7.386  1.00  0.00    +0.000 H 
ATOM    120  H15 UNL A   1      10.901  51.064   6.098  1.00  0.00    +0.000 H 
ENDBRANCH   19   20
ENDBRANCH   18   19
ENDBRANCH   17   18
BRANCH  102  103
ATOM    153  H48 UNL A   1      18.655  49.998   9.953  1.00  0.00    +0.000 H 
ATOM    154  H49 UNL A   1      17.501  49.250  11.030  1.00  0.00    +0.000 H 
ATOM    155  H50 UNL A   1      17.627  50.991  10.957  1.00  0.00    +0.000 H 
ATOM    103  C72 UNL A   1      17.682  50.086  10.389  1.00  0.00    +0.000 C 
ENDBRANCH  102  103
ENDBRANCH   23   22
ENDBRANCH   25   23
ENDBRANCH   26   25
ENDBRANCH   27   26
ENDBRANCH   28   27
ENDBRANCH   29   28
ENDBRANCH   30   29
ENDBRANCH   31   30
ENDBRANCH   32   31
ENDBRANCH   33   32
ENDBRANCH   35   33
ENDBRANCH   39   38
BRANCH   43   44
ATOM     44  C32 UNL A   1      17.247  48.543  -1.537  1.00  0.00    +0.000 C 
ATOM     45  C33 UNL A   1      18.190  47.614  -1.069  1.00  0.00    +0.000 C 
ATOM     46  F1  UNL A   1      18.806  47.810   0.107  1.00  0.00    +0.000 F 
ATOM     47  C34 UNL A   1      18.539  46.501  -1.829  1.00  0.00    +0.000 C 
ATOM     48  F2  UNL A   1      19.483  45.658  -1.386  1.00  0.00    +0.000 F 
ATOM     49  C35 UNL A   1      17.923  46.271  -3.049  1.00  0.00    +0.000 C 
ATOM     50  F3  UNL A   1      18.253  45.194  -3.776  1.00  0.00    +0.000 F 
ATOM     51  C36 UNL A   1      16.970  47.160  -3.521  1.00  0.00    +0.000 C 
ATOM     52  F4  UNL A   1      16.362  46.932  -4.692  1.00  0.00    +0.000 F 
ATOM     53  C37 UNL A   1      16.645  48.294  -2.779  1.00  0.00    +0.000 C 
ATOM     54  F5  UNL A   1      15.735  49.146  -3.273  1.00  0.00    +0.000 F 
ENDBRANCH   43   44
BRANCH   60   61
ATOM     65  F7  UNL A   1      18.450  57.515  -4.511  1.00  0.00    +0.000 F 
ATOM     66  C46 UNL A   1      20.119  57.526  -2.841  1.00  0.00    +0.000 C 
ATOM     67  F8  UNL A   1      20.828  58.428  -3.535  1.00  0.00    +0.000 F 
ATOM     68  C47 UNL A   1      20.604  57.041  -1.636  1.00  0.00    +0.000 C 
ATOM     69  F9  UNL A   1      21.769  57.494  -1.151  1.00  0.00    +0.000 F 
ATOM     70  C48 UNL A   1      19.882  56.085  -0.928  1.00  0.00    +0.000 C 
ATOM     71  F10 UNL A   1      20.385  55.625   0.227  1.00  0.00    +0.000 F 
ATOM     61  C43 UNL A   1      18.644  55.619  -1.398  1.00  0.00    +0.000 C 
ATOM     62  C44 UNL A   1      18.162  56.141  -2.607  1.00  0.00    +0.000 C 
ATOM     63  F6  UNL A   1      16.991  55.719  -3.107  1.00  0.00    +0.000 F 
ATOM     64  C45 UNL A   1      18.904  57.070  -3.332  1.00  0.00    +0.000 C 
ENDBRANCH   60   61
BRANCH   75   76
ATOM     76  C52 UNL A   1      14.610  56.265   4.253  1.00  0.00    +0.000 C 
ATOM     77  C53 UNL A   1      15.415  56.634   5.340  1.00  0.00    +0.000 C 
ATOM     78  F11 UNL A   1      16.531  55.940   5.611  1.00  0.00    +0.000 F 
ATOM     79  C54 UNL A   1      15.057  57.686   6.180  1.00  0.00    +0.000 C 
ATOM     80  F12 UNL A   1      15.817  57.982   7.242  1.00  0.00    +0.000 F 
ATOM     81  C55 UNL A   1      13.905  58.416   5.928  1.00  0.00    +0.000 C 
ATOM     82  F13 UNL A   1      13.561  59.429   6.734  1.00  0.00    +0.000 F 
ATOM     83  C56 UNL A   1      13.104  58.087   4.845  1.00  0.00    +0.000 C 
ATOM     84  F14 UNL A   1      11.998  58.798   4.588  1.00  0.00    +0.000 F 
ATOM     85  C57 UNL A   1      13.444  57.013   4.025  1.00  0.00    +0.000 C 
ATOM     86  F15 UNL A   1      12.641  56.707   2.995  1.00  0.00    +0.000 F 
ENDBRANCH   75   76
TORSDOF 25
ENDMDL
MODEL 3
REMARK VINA RESULT:      -9.9     22.917     30.134
ROOT
ATOM    138  H33 UNL A   1      19.091  53.170  -1.399  1.00  0.00    +0.000 H 
ATOM    139  H34 UNL A   1      18.492  50.719  -2.051  1.00  0.00    +0.000 H 
ATOM    140  H35 UNL A   1      15.963  51.906   1.004  1.00  0.00    +0.000 H 
ATOM    141  H36 UNL A   1      11.403  50.491   5.247  1.00  0.00    +0.000 H 
ATOM    142  H37 UNL A   1      11.894  52.926   5.776  1.00  0.00    +0.000 H 
ATOM    143  H38 UNL A   1      14.410  51.768   2.676  1.00  0.00    +0.000 H 
ATOM    144  H39 UNL A   1      13.171  47.036   1.562  1.00  0.00    +0.000 H 
ATOM    145  H40 UNL A   1      15.092  47.072  -0.126  1.00  0.00    +0.000 H 
ATOM    146  H41 UNL A   1      16.875  56.735   1.954  1.00  0.00    +0.000 H 
ATOM    147  H42 UNL A   1      15.333  56.571   3.992  1.00  0.00    +0.000 H 
ATOM     39  C28 UNL A   1      13.978  54.072   4.203  1.00  0.00    +0.000 C 
ATOM     40  C29 UNL A   1      15.046  54.459   3.219  1.00  0.00    +0.000 C 
ATOM     41  N3  UNL A   1      15.586  53.748   2.261  1.00  0.00    +0.000 N 
ATOM     42  C30 UNL A   1      16.488  54.592   1.630  1.00  0.00    +0.000 C 
ATOM     43  C31 UNL A   1      17.350  54.305   0.625  1.00  0.00    +0.000 C 
ATOM     55  C38 UNL A   1      17.464  53.010   0.008  1.00  0.00    +0.000 C 
ATOM     56  C39 UNL A   1      18.341  52.600  -0.980  1.00  0.00    +0.000 C 
ATOM     57  C40 UNL A   1      18.035  51.276  -1.312  1.00  0.00    +0.000 C 
ATOM     58  C41 UNL A   1      17.013  50.839  -0.484  1.00  0.00    +0.000 C 
ATOM     59  N4  UNL A   1      16.668  51.916   0.317  1.00  0.00    +0.000 N 
ATOM     60  C42 UNL A   1      16.400  49.536  -0.426  1.00  0.00    +0.000 C 
ATOM     72  C49 UNL A   1      15.405  49.180   0.423  1.00  0.00    +0.000 C 
ATOM     73  N5  UNL A   1      14.773  49.940   1.398  1.00  0.00    +0.000 N 
ATOM     74  C50 UNL A   1      13.874  49.157   1.941  1.00  0.00    +0.000 C 
ATOM     75  C51 UNL A   1      12.921  49.442   3.071  1.00  0.00    +0.000 C 
ATOM     87  C58 UNL A   1      12.946  50.655   3.654  1.00  0.00    +0.000 C 
ATOM     88  C59 UNL A   1      12.099  51.081   4.763  1.00  0.00    +0.000 C 
ATOM     89  C60 UNL A   1      12.368  52.364   5.052  1.00  0.00    +0.000 C 
ATOM     90  C61 UNL A   1      13.441  52.836   4.176  1.00  0.00    +0.000 C 
ATOM     91  N6  UNL A   1      13.721  51.756   3.379  1.00  0.00    +0.000 N 
ATOM     92  C62 UNL A   1      13.812  47.814   1.348  1.00  0.00    +0.000 C 
ATOM     93  C63 UNL A   1      14.796  47.867   0.461  1.00  0.00    +0.000 C 
ATOM     94  C64 UNL A   1      16.378  55.886   2.266  1.00  0.00    +0.000 C 
ATOM     95  C65 UNL A   1      15.556  55.836   3.304  1.00  0.00    +0.000 C 
ENDROOT
BRANCH   39   38
ATOM     97  C67 UNL A   1      11.918  56.834   5.742  1.00  0.00    +0.000 C 
ATOM     35  C24 UNL A   1      12.480  56.912   7.020  1.00  0.00    +0.000 C 
ATOM     36  C25 UNL A   1      13.579  56.123   7.363  1.00  0.00    +0.000 C 
ATOM     37  C26 UNL A   1      14.091  55.220   6.434  1.00  0.00    +0.000 C 
ATOM     38  C27 UNL A   1      13.475  55.066   5.180  1.00  0.00    +0.000 C 
ATOM    136  H31 UNL A   1      14.009  56.210   8.296  1.00  0.00    +0.000 H 
ATOM    137  H32 UNL A   1      14.926  54.661   6.667  1.00  0.00    +0.000 H 
ATOM    148  H43 UNL A   1      11.911  55.758   3.933  1.00  0.00    +0.000 H 
ATOM    149  H44 UNL A   1      11.168  57.486   5.464  1.00  0.00    +0.000 H 
ATOM     96  C66 UNL A   1      12.378  55.875   4.846  1.00  0.00    +0.000 C 
BRANCH   35   33
ATOM     33  C23 UNL A   1      11.899  57.798   8.047  1.00  0.00    +0.000 C 
ATOM     34  O9  UNL A   1      11.635  58.964   7.778  1.00  0.00    +0.000 O 
BRANCH   33   32
ATOM    135  H30 UNL A   1      12.220  57.736  10.025  1.00  0.00    +0.000 H 
ATOM     32  N2  UNL A   1      11.699  57.305   9.309  1.00  0.00    +0.000 N 
BRANCH   32   31
ATOM    133  H28 UNL A   1       9.893  56.656  10.054  1.00  0.00    +0.000 H 
ATOM    134  H29 UNL A   1      10.683  55.581   8.888  1.00  0.00    +0.000 H 
ATOM     31  C22 UNL A   1      10.819  56.231   9.727  1.00  0.00    +0.000 C 
BRANCH   31   30
ATOM    131  H26 UNL A   1      11.145  54.373  10.685  1.00  0.00    +0.000 H 
ATOM    132  H27 UNL A   1      12.453  55.580  10.859  1.00  0.00    +0.000 H 
ATOM     30  C21 UNL A   1      11.398  55.398  10.862  1.00  0.00    +0.000 C 
BRANCH   30   29
ATOM    129  H24 UNL A   1      10.581  56.796  12.229  1.00  0.00    +0.000 H 
ATOM    130  H25 UNL A   1      10.123  55.078  12.487  1.00  0.00    +0.000 H 
ATOM     29  C20 UNL A   1      10.902  55.775  12.259  1.00  0.00    +0.000 C 
BRANCH   29   28
ATOM     28  C19 UNL A   1      11.926  55.638  13.393  1.00  0.00    +0.000 C 
ATOM    127  H22 UNL A   1      12.817  56.150  13.095  1.00  0.00    +0.000 H 
ATOM    128  H23 UNL A   1      11.456  56.051  14.261  1.00  0.00    +0.000 H 
BRANCH   28   27
ATOM     27  C18 UNL A   1      12.311  54.206  13.771  1.00  0.00    +0.000 C 
ATOM    125  H20 UNL A   1      12.290  54.120  14.838  1.00  0.00    +0.000 H 
ATOM    126  H21 UNL A   1      11.606  53.556  13.296  1.00  0.00    +0.000 H 
BRANCH   27   26
ATOM     26  C17 UNL A   1      13.686  53.798  13.287  1.00  0.00    +0.000 C 
ATOM    123  H18 UNL A   1      14.235  54.677  13.021  1.00  0.00    +0.000 H 
ATOM    124  H19 UNL A   1      14.171  53.266  14.078  1.00  0.00    +0.000 H 
BRANCH   26   25
ATOM     25  N1  UNL A   1      13.616  52.925  12.137  1.00  0.00    +0.000 N 
ATOM    122  H17 UNL A   1      13.207  53.277  11.315  1.00  0.00    +0.000 H 
BRANCH   25   23
ATOM     23  C16 UNL A   1      14.083  51.643  12.118  1.00  0.00    +0.000 C 
ATOM     24  O8  UNL A   1      15.253  51.400  11.875  1.00  0.00    +0.000 O 
BRANCH   23   22
ATOM      2  C2  UNL A   1      11.594  47.106   8.825  1.00  0.00    +0.000 C 
ATOM      3  C3  UNL A   1      10.311  46.365   8.926  1.00  0.00    +0.000 C 
ATOM      4  O1  UNL A   1       9.776  45.717   8.058  1.00  0.00    +0.000 O 
ATOM      5  O2  UNL A   1       9.832  46.613  10.178  1.00  0.00    +0.000 O 
ATOM      6  C4  UNL A   1      10.698  47.543  10.882  1.00  0.00    +0.000 C 
ATOM      7  C5  UNL A   1      11.449  48.256   9.764  1.00  0.00    +0.000 C 
ATOM      8  C6  UNL A   1      12.643  49.166  10.090  1.00  0.00    +0.000 C 
ATOM     17  C12 UNL A   1      12.234  50.289  11.127  1.00  0.00    +0.000 C 
ATOM     22  C15 UNL A   1      13.064  50.563  12.375  1.00  0.00    +0.000 C 
ATOM    150  H45 UNL A   1      14.079  50.472  14.067  1.00  0.00    +0.000 H 
ATOM    152  H47 UNL A   1      11.382  47.258  15.118  1.00  0.00    +0.000 H 
ATOM    151  H46 UNL A   1      13.153  49.701  15.310  1.00  0.00    +0.000 H 
ATOM    156  H51 UNL A   1      12.139  46.462  11.091  1.00  0.00    +0.000 H 
ATOM     98  C68 UNL A   1      13.183  50.165  13.658  1.00  0.00    +0.000 C 
ATOM     99  C69 UNL A   1      12.382  49.415  14.623  1.00  0.00    +0.000 C 
ATOM    100  O10 UNL A   1      10.974  49.393  14.435  1.00  0.00    +0.000 O 
ATOM    101  C70 UNL A   1      11.598  48.126  14.530  1.00  0.00    +0.000 C 
ATOM    102  C71 UNL A   1      11.916  47.202  13.351  1.00  0.00    +0.000 C 
ATOM    104  O11 UNL A   1      10.765  46.393  13.027  1.00  0.00    +0.000 O 
ATOM    105  C73 UNL A   1      11.517  46.807  11.890  1.00  0.00    +0.000 C 
ATOM    108  H3  UNL A   1      10.207  48.279  11.482  1.00  0.00    +0.000 H 
ATOM    109  H4  UNL A   1      10.947  49.105   9.348  1.00  0.00    +0.000 H 
ATOM    110  H5  UNL A   1      12.922  49.676   9.192  1.00  0.00    +0.000 H 
ATOM    118  H13 UNL A   1      12.919  51.102  11.004  1.00  0.00    +0.000 H 
BRANCH    2    1
ATOM      1  C1  UNL A   1      12.605  46.629   8.096  1.00  0.00    +0.000 C 
ATOM    106  H1  UNL A   1      12.413  46.101   7.230  1.00  0.00    +0.000 H 
ATOM    107  H2  UNL A   1      13.579  46.785   8.399  1.00  0.00    +0.000 H 
ENDBRANCH    2    1
BRANCH    8    9
ATOM      9  O3  UNL A   1      13.820  48.422  10.466  1.00  0.00    +0.000 O 
BRANCH    9   10
ATOM     10  C7  UNL A   1      15.096  48.649   9.984  1.00  0.00    +0.000 C 
ATOM     11  O4  UNL A   1      16.033  48.152  10.605  1.00  0.00    +0.000 O 
BRANCH   10   12
ATOM    114  H9  UNL A   1      14.611  50.627   6.890  1.00  0.00    +0.000 H 
ATOM     12  C8  UNL A   1      15.319  49.095   8.544  1.00  0.00    +0.000 C 
ATOM     14  O5  UNL A   1      16.282  50.185   8.516  1.00  0.00    +0.000 O 
ATOM     15  C10 UNL A   1      15.066  50.456   7.843  1.00  0.00    +0.000 C 
BRANCH   12   13
ATOM    113  H8  UNL A   1      16.591  48.396   6.981  1.00  0.00    +0.000 H 
ATOM     13  C9  UNL A   1      15.826  48.000   7.615  1.00  0.00    +0.000 C 
ATOM    111  H6  UNL A   1      15.015  47.640   7.015  1.00  0.00    +0.000 H 
ATOM    112  H7  UNL A   1      16.224  47.195   8.196  1.00  0.00    +0.000 H 
ENDBRANCH   12   13
BRANCH   15   16
ATOM    115  H10 UNL A   1      13.382  51.676   8.101  1.00  0.00    +0.000 H 
ATOM    116  H11 UNL A   1      14.871  52.544   7.813  1.00  0.00    +0.000 H 
ATOM    117  H12 UNL A   1      14.575  51.806   9.370  1.00  0.00    +0.000 H 
ATOM     16  C11 UNL A   1      14.430  51.708   8.314  1.00  0.00    +0.000 C 
ENDBRANCH   15   16
ENDBRANCH   10   12
ENDBRANCH    9   10
ENDBRANCH    8    9
BRANCH   17   18
ATOM     18  O6  UNL A   1      10.906  50.910  10.909  1.00  0.00    +0.000 O 
BRANCH   18   19
ATOM     19  C13 UNL A   1      10.246  51.850  10.228  1.00  0.00    +0.000 C 
ATOM     21  O7  UNL A   1       9.392  52.522  10.805  1.00  0.00    +0.000 O 
BRANCH   19   20
ATOM    121  H16 UNL A   1      11.578  51.882   8.614  1.00  0.00    +0.000 H 
ATOM     20  C14 UNL A   1      10.560  52.142   8.815  1.00  0.00    +0.000 C 
ATOM    119  H14 UNL A   1      10.414  53.184   8.625  1.00  0.00    +0.000 H 
ATOM    120  H15 UNL A   1       9.914  51.569   8.182  1.00  0.00    +0.000 H 
ENDBRANCH   19   20
ENDBRANCH   18   19
ENDBRANCH   17   18
BRANCH  102  103
ATOM    153  H48 UNL A   1      14.003  46.739  13.400  1.00  0.00    +0.000 H 
ATOM    154  H49 UNL A   1      12.959  45.339  13.449  1.00  0.00    +0.000 H 
ATOM    155  H50 UNL A   1      13.148  46.338  14.871  1.00  0.00    +0.000 H 
ATOM    103  C72 UNL A   1      13.096  46.339  13.801  1.00  0.00    +0.000 C 
ENDBRANCH  102  103
ENDBRANCH   23   22
ENDBRANCH   25   23
ENDBRANCH   26   25
ENDBRANCH   27   26
ENDBRANCH   28   27
ENDBRANCH   29   28
ENDBRANCH   30   29
ENDBRANCH   31   30
ENDBRANCH   32   31
ENDBRANCH   33   32
ENDBRANCH   35   33
ENDBRANCH   39   38
BRANCH   43   44
ATOM     44  C32 UNL A   1      18.236  55.414   0.129  1.00  0.00    +0.000 C 
ATOM     45  C33 UNL A   1      17.955  56.111  -1.058  1.00  0.00    +0.000 C 
ATOM     46  F1  UNL A   1      16.896  55.767  -1.808  1.00  0.00    +0.000 F 
ATOM     47  C34 UNL A   1      18.786  57.134  -1.503  1.00  0.00    +0.000 C 
ATOM     48  F2  UNL A   1      18.528  57.747  -2.667  1.00  0.00    +0.000 F 
ATOM     49  C35 UNL A   1      19.889  57.512  -0.752  1.00  0.00    +0.000 C 
ATOM     50  F3  UNL A   1      20.683  58.505  -1.177  1.00  0.00    +0.000 F 
ATOM     51  C36 UNL A   1      20.172  56.856   0.436  1.00  0.00    +0.000 C 
ATOM     52  F4  UNL A   1      21.228  57.230   1.171  1.00  0.00    +0.000 F 
ATOM     53  C37 UNL A   1      19.363  55.807   0.866  1.00  0.00    +0.000 C 
ATOM     54  F5  UNL A   1      19.677  55.179   2.009  1.00  0.00    +0.000 F 
ENDBRANCH   43   44
BRANCH   60   61
ATOM     65  F7  UNL A   1      19.590  45.997  -1.593  1.00  0.00    +0.000 F 
ATOM     66  C46 UNL A   1      17.832  46.468  -3.098  1.00  0.00    +0.000 C 
ATOM     67  F8  UNL A   1      18.273  45.516  -3.933  1.00  0.00    +0.000 F 
ATOM     68  C47 UNL A   1      16.719  47.224  -3.433  1.00  0.00    +0.000 C 
ATOM     69  F9  UNL A   1      16.067  46.984  -4.579  1.00  0.00    +0.000 F 
ATOM     70  C48 UNL A   1      16.277  48.230  -2.580  1.00  0.00    +0.000 C 
ATOM     71  F10 UNL A   1      15.206  48.953  -2.938  1.00  0.00    +0.000 F 
ATOM     61  C43 UNL A   1      16.923  48.479  -1.358  1.00  0.00    +0.000 C 
ATOM     62  C44 UNL A   1      18.033  47.686  -1.029  1.00  0.00    +0.000 C 
ATOM     63  F6  UNL A   1      18.694  47.892   0.119  1.00  0.00    +0.000 F 
ATOM     64  C45 UNL A   1      18.495  46.705  -1.902  1.00  0.00    +0.000 C 
ENDBRANCH   60   61
BRANCH   75   76
ATOM     76  C52 UNL A   1      11.976  48.401   3.556  1.00  0.00    +0.000 C 
ATOM     77  C53 UNL A   1      10.612  48.459   3.241  1.00  0.00    +0.000 C 
ATOM     78  F11 UNL A   1      10.140  49.471   2.496  1.00  0.00    +0.000 F 
ATOM     79  C54 UNL A   1       9.717  47.506   3.724  1.00  0.00    +0.000 C 
ATOM     80  F12 UNL A   1       8.411  47.618   3.450  1.00  0.00    +0.000 F 
ATOM     81  C55 UNL A   1      10.176  46.454   4.502  1.00  0.00    +0.000 C 
ATOM     82  F13 UNL A   1       9.317  45.537   4.965  1.00  0.00    +0.000 F 
ATOM     83  C56 UNL A   1      11.525  46.360   4.808  1.00  0.00    +0.000 C 
ATOM     84  F14 UNL A   1      11.975  45.337   5.546  1.00  0.00    +0.000 F 
ATOM     85  C57 UNL A   1      12.414  47.332   4.353  1.00  0.00    +0.000 C 
ATOM     86  F15 UNL A   1      13.710  47.224   4.680  1.00  0.00    +0.000 F 
ENDBRANCH   75   76
TORSDOF 25
ENDMDL
MODEL 4
REMARK VINA RESULT:      -9.9     22.842     30.799
ROOT
ATOM    138  H33 UNL A   1      18.670  53.160  -1.066  1.00  0.00    +0.000 H 
ATOM    139  H34 UNL A   1      18.133  50.679  -1.657  1.00  0.00    +0.000 H 
ATOM    140  H35 UNL A   1      15.792  51.781   1.574  1.00  0.00    +0.000 H 
ATOM    141  H36 UNL A   1      11.634  50.205   6.159  1.00  0.00    +0.000 H 
ATOM    142  H37 UNL A   1      12.054  52.663   6.635  1.00  0.00    +0.000 H 
ATOM    143  H38 UNL A   1      14.377  51.590   3.360  1.00  0.00    +0.000 H 
ATOM    144  H39 UNL A   1      13.270  46.798   2.370  1.00  0.00    +0.000 H 
ATOM    145  H40 UNL A   1      15.054  46.903   0.541  1.00  0.00    +0.000 H 
ATOM    146  H41 UNL A   1      16.556  56.654   2.425  1.00  0.00    +0.000 H 
ATOM    147  H42 UNL A   1      15.182  56.441   4.575  1.00  0.00    +0.000 H 
ATOM     39  C28 UNL A   1      13.960  53.886   4.902  1.00  0.00    +0.000 C 
ATOM     40  C29 UNL A   1      14.932  54.311   3.838  1.00  0.00    +0.000 C 
ATOM     41  N3  UNL A   1      15.430  53.616   2.846  1.00  0.00    +0.000 N 
ATOM     42  C30 UNL A   1      16.243  54.493   2.143  1.00  0.00    +0.000 C 
ATOM     43  C31 UNL A   1      17.038  54.236   1.077  1.00  0.00    +0.000 C 
ATOM     55  C38 UNL A   1      17.163  52.941   0.461  1.00  0.00    +0.000 C 
ATOM     56  C39 UNL A   1      17.980  52.561  -0.589  1.00  0.00    +0.000 C 
ATOM     57  C40 UNL A   1      17.709  51.223  -0.889  1.00  0.00    +0.000 C 
ATOM     58  C41 UNL A   1      16.773  50.748   0.017  1.00  0.00    +0.000 C 
ATOM     59  N4  UNL A   1      16.442  51.816   0.835  1.00  0.00    +0.000 N 
ATOM     60  C42 UNL A   1      16.225  49.420   0.128  1.00  0.00    +0.000 C 
ATOM     72  C49 UNL A   1      15.314  49.028   1.053  1.00  0.00    +0.000 C 
ATOM     73  N5  UNL A   1      14.724  49.768   2.068  1.00  0.00    +0.000 N 
ATOM     74  C50 UNL A   1      13.905  48.951   2.683  1.00  0.00    +0.000 C 
ATOM     75  C51 UNL A   1      13.028  49.204   3.880  1.00  0.00    +0.000 C 
ATOM     87  C58 UNL A   1      13.043  50.422   4.453  1.00  0.00    +0.000 C 
ATOM     88  C59 UNL A   1      12.264  50.821   5.621  1.00  0.00    +0.000 C 
ATOM     89  C60 UNL A   1      12.496  52.116   5.880  1.00  0.00    +0.000 C 
ATOM     90  C61 UNL A   1      13.478  52.628   4.923  1.00  0.00    +0.000 C 
ATOM     91  N6  UNL A   1      13.745  51.553   4.113  1.00  0.00    +0.000 N 
ATOM     92  C62 UNL A   1      13.858  47.602   2.103  1.00  0.00    +0.000 C 
ATOM     93  C63 UNL A   1      14.769  47.689   1.144  1.00  0.00    +0.000 C 
ATOM     94  C64 UNL A   1      16.123  55.786   2.778  1.00  0.00    +0.000 C 
ATOM     95  C65 UNL A   1      15.385  55.710   3.876  1.00  0.00    +0.000 C 
ENDROOT
BRANCH   39   38
ATOM     97  C67 UNL A   1      13.740  55.912   8.078  1.00  0.00    +0.000 C 
ATOM     35  C24 UNL A   1      12.648  56.738   7.798  1.00  0.00    +0.000 C 
ATOM     36  C25 UNL A   1      11.929  56.589   6.611  1.00  0.00    +0.000 C 
ATOM     37  C26 UNL A   1      12.335  55.636   5.680  1.00  0.00    +0.000 C 
ATOM     38  C27 UNL A   1      13.488  54.866   5.909  1.00  0.00    +0.000 C 
ATOM    136  H31 UNL A   1      11.104  57.180   6.426  1.00  0.00    +0.000 H 
ATOM    137  H32 UNL A   1      11.787  55.495   4.816  1.00  0.00    +0.000 H 
ATOM    148  H43 UNL A   1      15.049  54.469   7.282  1.00  0.00    +0.000 H 
ATOM    149  H44 UNL A   1      14.207  55.964   8.997  1.00  0.00    +0.000 H 
ATOM     96  C66 UNL A   1      14.193  55.020   7.113  1.00  0.00    +0.000 C 
BRANCH   35   33
ATOM     33  C23 UNL A   1      12.254  57.812   8.731  1.00  0.00    +0.000 C 
ATOM     34  O9  UNL A   1      12.789  58.912   8.667  1.00  0.00    +0.000 O 
BRANCH   33   32
ATOM    135  H30 UNL A   1      10.995  58.319  10.207  1.00  0.00    +0.000 H 
ATOM     32  N2  UNL A   1      11.311  57.544   9.688  1.00  0.00    +0.000 N 
BRANCH   32   31
ATOM    133  H28 UNL A   1       9.667  56.404  10.174  1.00  0.00    +0.000 H 
ATOM    134  H29 UNL A   1      10.929  55.586   9.238  1.00  0.00    +0.000 H 
ATOM     31  C22 UNL A   1      10.719  56.266  10.036  1.00  0.00    +0.000 C 
BRANCH   31   30
ATOM    131  H26 UNL A   1      10.966  54.657  11.388  1.00  0.00    +0.000 H 
ATOM    132  H27 UNL A   1      12.365  55.759  11.223  1.00  0.00    +0.000 H 
ATOM     30  C21 UNL A   1      11.302  55.671  11.310  1.00  0.00    +0.000 C 
BRANCH   30   29
ATOM    129  H24 UNL A   1      11.439  57.333  12.617  1.00  0.00    +0.000 H 
ATOM    130  H25 UNL A   1       9.851  56.494  12.570  1.00  0.00    +0.000 H 
ATOM     29  C20 UNL A   1      10.916  56.399  12.599  1.00  0.00    +0.000 C 
BRANCH   29   28
ATOM     28  C19 UNL A   1      11.230  55.660  13.906  1.00  0.00    +0.000 C 
ATOM    127  H22 UNL A   1      11.658  54.712  13.652  1.00  0.00    +0.000 H 
ATOM    128  H23 UNL A   1      11.889  56.301  14.452  1.00  0.00    +0.000 H 
BRANCH   28   27
ATOM     27  C18 UNL A   1      10.037  55.405  14.828  1.00  0.00    +0.000 C 
ATOM    125  H20 UNL A   1      10.367  55.498  15.842  1.00  0.00    +0.000 H 
ATOM    126  H21 UNL A   1       9.287  56.125  14.577  1.00  0.00    +0.000 H 
BRANCH   27   26
ATOM     26  C17 UNL A   1       9.413  54.036  14.653  1.00  0.00    +0.000 C 
ATOM    123  H18 UNL A   1       9.326  53.571  15.612  1.00  0.00    +0.000 H 
ATOM    124  H19 UNL A   1       8.454  54.166  14.198  1.00  0.00    +0.000 H 
BRANCH   26   25
ATOM     25  N1  UNL A   1      10.205  53.188  13.792  1.00  0.00    +0.000 N 
ATOM    122  H17 UNL A   1      10.398  53.508  12.882  1.00  0.00    +0.000 H 
BRANCH   25   23
ATOM     23  C16 UNL A   1      10.705  51.973  14.159  1.00  0.00    +0.000 C 
ATOM     24  O8  UNL A   1      10.105  51.255  14.942  1.00  0.00    +0.000 O 
BRANCH   23   22
ATOM      2  C2  UNL A   1      12.631  48.291   9.648  1.00  0.00    +0.000 C 
ATOM      3  C3  UNL A   1      13.917  47.599   9.383  1.00  0.00    +0.000 C 
ATOM      4  O1  UNL A   1      14.098  46.656   8.649  1.00  0.00    +0.000 O 
ATOM      5  O2  UNL A   1      14.841  48.205  10.181  1.00  0.00    +0.000 O 
ATOM      6  C4  UNL A   1      14.212  49.213  11.016  1.00  0.00    +0.000 C 
ATOM      7  C5  UNL A   1      12.747  48.797  11.046  1.00  0.00    +0.000 C 
ATOM      8  C6  UNL A   1      11.685  49.737  11.638  1.00  0.00    +0.000 C 
ATOM     17  C12 UNL A   1      12.053  50.147  13.121  1.00  0.00    +0.000 C 
ATOM     22  C15 UNL A   1      12.042  51.601  13.574  1.00  0.00    +0.000 C 
ATOM    150  H45 UNL A   1      12.309  53.545  13.806  1.00  0.00    +0.000 H 
ATOM    152  H47 UNL A   1      16.212  52.872  12.068  1.00  0.00    +0.000 H 
ATOM    151  H46 UNL A   1      13.993  53.946  13.817  1.00  0.00    +0.000 H 
ATOM    156  H51 UNL A   1      13.792  50.411   9.721  1.00  0.00    +0.000 H 
ATOM     98  C68 UNL A   1      12.848  52.681  13.639  1.00  0.00    +0.000 C 
ATOM     99  C69 UNL A   1      14.279  52.953  13.537  1.00  0.00    +0.000 C 
ATOM    100  O10 UNL A   1      15.176  51.895  13.846  1.00  0.00    +0.000 O 
ATOM    101  C70 UNL A   1      15.350  52.491  12.574  1.00  0.00    +0.000 C 
ATOM    102  C71 UNL A   1      14.879  51.897  11.244  1.00  0.00    +0.000 C 
ATOM    104  O11 UNL A   1      15.867  50.977  10.731  1.00  0.00    +0.000 O 
ATOM    105  C73 UNL A   1      14.522  50.574  10.486  1.00  0.00    +0.000 C 
ATOM    108  H3  UNL A   1      14.566  49.276  12.024  1.00  0.00    +0.000 H 
ATOM    109  H4  UNL A   1      12.493  48.078  11.797  1.00  0.00    +0.000 H 
ATOM    110  H5  UNL A   1      10.763  49.197  11.697  1.00  0.00    +0.000 H 
ATOM    118  H13 UNL A   1      11.143  50.426  13.611  1.00  0.00    +0.000 H 
BRANCH    2    1
ATOM      1  C1  UNL A   1      11.725  48.448   8.679  1.00  0.00    +0.000 C 
ATOM    106  H1  UNL A   1      10.860  48.980   8.863  1.00  0.00    +0.000 H 
ATOM    107  H2  UNL A   1      11.888  48.035   7.748  1.00  0.00    +0.000 H 
ENDBRANCH    2    1
BRANCH    8    9
ATOM      9  O3  UNL A   1      11.395  50.857  10.776  1.00  0.00    +0.000 O 
BRANCH    9   10
ATOM     10  C7  UNL A   1      10.130  51.336  10.487  1.00  0.00    +0.000 C 
ATOM     11  O4  UNL A   1       9.991  52.555  10.410  1.00  0.00    +0.000 O 
BRANCH   10   12
ATOM    114  H9  UNL A   1       8.168  48.250   9.901  1.00  0.00    +0.000 H 
ATOM     12  C8  UNL A   1       9.076  50.431   9.861  1.00  0.00    +0.000 C 
ATOM     14  O5  UNL A   1       7.860  50.477  10.659  1.00  0.00    +0.000 O 
ATOM     15  C10 UNL A   1       8.351  49.173  10.410  1.00  0.00    +0.000 C 
BRANCH   12   13
ATOM    113  H8  UNL A   1       8.791  49.916   7.811  1.00  0.00    +0.000 H 
ATOM     13  C9  UNL A   1       8.708  50.787   8.428  1.00  0.00    +0.000 C 
ATOM    111  H6  UNL A   1       9.375  51.544   8.067  1.00  0.00    +0.000 H 
ATOM    112  H7  UNL A   1       7.704  51.153   8.397  1.00  0.00    +0.000 H 
ENDBRANCH   12   13
BRANCH   15   16
ATOM    115  H10 UNL A   1       9.491  47.920  11.644  1.00  0.00    +0.000 H 
ATOM    116  H11 UNL A   1       7.768  47.646  11.723  1.00  0.00    +0.000 H 
ATOM    117  H12 UNL A   1       8.467  49.047  12.499  1.00  0.00    +0.000 H 
ATOM     16  C11 UNL A   1       8.531  48.392  11.655  1.00  0.00    +0.000 C 
ENDBRANCH   15   16
ENDBRANCH   10   12
ENDBRANCH    9   10
ENDBRANCH    8    9
BRANCH   17   18
ATOM     18  O6  UNL A   1      12.591  49.058  13.971  1.00  0.00    +0.000 O 
BRANCH   18   19
ATOM     19  C13 UNL A   1      12.273  47.955  14.652  1.00  0.00    +0.000 C 
ATOM     21  O7  UNL A   1      12.806  46.888  14.352  1.00  0.00    +0.000 O 
BRANCH   19   20
ATOM    121  H16 UNL A   1      11.200  47.008  16.178  1.00  0.00    +0.000 H 
ATOM     20  C14 UNL A   1      11.339  47.997  15.795  1.00  0.00    +0.000 C 
ATOM    119  H14 UNL A   1      10.398  48.390  15.473  1.00  0.00    +0.000 H 
ATOM    120  H15 UNL A   1      11.744  48.623  16.563  1.00  0.00    +0.000 H 
ENDBRANCH   19   20
ENDBRANCH   18   19
ENDBRANCH   17   18
BRANCH  102  103
ATOM    153  H48 UNL A   1      14.265  53.906  10.846  1.00  0.00    +0.000 H 
ATOM    154  H49 UNL A   1      14.016  52.806   9.511  1.00  0.00    +0.000 H 
ATOM    155  H50 UNL A   1      15.626  53.373   9.889  1.00  0.00    +0.000 H 
ATOM    103  C72 UNL A   1      14.681  53.085  10.301  1.00  0.00    +0.000 C 
ENDBRANCH  102  103
ENDBRANCH   23   22
ENDBRANCH   25   23
ENDBRANCH   26   25
ENDBRANCH   27   26
ENDBRANCH   28   27
ENDBRANCH   29   28
ENDBRANCH   30   29
ENDBRANCH   31   30
ENDBRANCH   32   31
ENDBRANCH   33   32
ENDBRANCH   35   33
ENDBRANCH   39   38
BRANCH   43   44
ATOM     44  C32 UNL A   1      17.833  55.378   0.509  1.00  0.00    +0.000 C 
ATOM     45  C33 UNL A   1      17.367  56.137  -0.576  1.00  0.00    +0.000 C 
ATOM     46  F1  UNL A   1      16.202  55.826  -1.166  1.00  0.00    +0.000 F 
ATOM     47  C34 UNL A   1      18.117  57.191  -1.090  1.00  0.00    +0.000 C 
ATOM     48  F2  UNL A   1      17.676  57.865  -2.162  1.00  0.00    +0.000 F 
ATOM     49  C35 UNL A   1      19.325  57.536  -0.505  1.00  0.00    +0.000 C 
ATOM     50  F3  UNL A   1      20.042  58.557  -0.995  1.00  0.00    +0.000 F 
ATOM     51  C36 UNL A   1      19.795  56.818   0.584  1.00  0.00    +0.000 C 
ATOM     52  F4  UNL A   1      20.954  57.159   1.161  1.00  0.00    +0.000 F 
ATOM     53  C37 UNL A   1      19.064  55.739   1.078  1.00  0.00    +0.000 C 
ATOM     54  F5  UNL A   1      19.556  55.052   2.119  1.00  0.00    +0.000 F 
ENDBRANCH   43   44
BRANCH   60   61
ATOM     65  F7  UNL A   1      15.720  46.659  -3.895  1.00  0.00    +0.000 F 
ATOM     66  C46 UNL A   1      17.715  46.473  -2.646  1.00  0.00    +0.000 C 
ATOM     67  F8  UNL A   1      18.184  45.557  -3.505  1.00  0.00    +0.000 F 
ATOM     68  C47 UNL A   1      18.474  46.847  -1.548  1.00  0.00    +0.000 C 
ATOM     69  F9  UNL A   1      19.688  46.311  -1.358  1.00  0.00    +0.000 F 
ATOM     70  C48 UNL A   1      17.977  47.778  -0.641  1.00  0.00    +0.000 C 
ATOM     71  F10 UNL A   1      18.728  48.107   0.420  1.00  0.00    +0.000 F 
ATOM     61  C43 UNL A   1      16.723  48.378  -0.834  1.00  0.00    +0.000 C 
ATOM     62  C44 UNL A   1      15.983  48.002  -1.966  1.00  0.00    +0.000 C 
ATOM     63  F6  UNL A   1      14.773  48.536  -2.190  1.00  0.00    +0.000 F 
ATOM     64  C45 UNL A   1      16.467  47.043  -2.851  1.00  0.00    +0.000 C 
ENDBRANCH   60   61
BRANCH   75   76
ATOM     76  C52 UNL A   1      12.170  48.127   4.441  1.00  0.00    +0.000 C 
ATOM     77  C53 UNL A   1      10.807  48.050   4.125  1.00  0.00    +0.000 C 
ATOM     78  F11 UNL A   1      10.256  48.963   3.310  1.00  0.00    +0.000 F 
ATOM     79  C54 UNL A   1       9.992  47.064   4.677  1.00  0.00    +0.000 C 
ATOM     80  F12 UNL A   1       8.681  47.047   4.399  1.00  0.00    +0.000 F 
ATOM     81  C55 UNL A   1      10.532  46.112   5.529  1.00  0.00    +0.000 C 
ATOM     82  F13 UNL A   1       9.749  45.163   6.059  1.00  0.00    +0.000 F 
ATOM     83  C56 UNL A   1      11.883  46.152   5.839  1.00  0.00    +0.000 C 
ATOM     84  F14 UNL A   1      12.413  45.226   6.648  1.00  0.00    +0.000 F 
ATOM     85  C57 UNL A   1      12.691  47.158   5.313  1.00  0.00    +0.000 C 
ATOM     86  F15 UNL A   1      13.990  47.182   5.644  1.00  0.00    +0.000 F 
ENDBRANCH   75   76
TORSDOF 25
ENDMDL
MODEL 5
REMARK VINA RESULT:      -9.9     46.807     52.690
ROOT
ATOM    138  H33 UNL A   1      23.834  -9.472  30.164  1.00  0.00    +0.000 H 
ATOM    139  H34 UNL A   1      22.516  -9.385  32.412  1.00  0.00    +0.000 H 
ATOM    140  H35 UNL A   1      25.814 -11.831  32.933  1.00  0.00    +0.000 H 
ATOM    141  H36 UNL A   1      29.149 -15.882  36.575  1.00  0.00    +0.000 H 
ATOM    142  H37 UNL A   1      30.506 -15.845  34.429  1.00  0.00    +0.000 H 
ATOM    143  H38 UNL A   1      27.227 -13.347  33.900  1.00  0.00    +0.000 H 
ATOM    144  H39 UNL A   1      24.776 -13.311  38.278  1.00  0.00    +0.000 H 
ATOM    145  H40 UNL A   1      23.027 -11.836  37.133  1.00  0.00    +0.000 H 
ATOM    146  H41 UNL A   1      28.527 -11.658  28.731  1.00  0.00    +0.000 H 
ATOM    147  H42 UNL A   1      29.998 -13.534  29.665  1.00  0.00    +0.000 H 
ATOM     39  C28 UNL A   1      29.392 -14.227  32.363  1.00  0.00    +0.000 C 
ATOM     40  C29 UNL A   1      28.649 -13.274  31.469  1.00  0.00    +0.000 C 
ATOM     41  N3  UNL A   1      27.576 -12.567  31.722  1.00  0.00    +0.000 N 
ATOM     42  C30 UNL A   1      27.332 -11.830  30.572  1.00  0.00    +0.000 C 
ATOM     43  C31 UNL A   1      26.294 -11.003  30.305  1.00  0.00    +0.000 C 
ATOM     55  C38 UNL A   1      25.224 -10.730  31.229  1.00  0.00    +0.000 C 
ATOM     56  C39 UNL A   1      24.098  -9.950  31.039  1.00  0.00    +0.000 C 
ATOM     57  C40 UNL A   1      23.379  -9.924  32.238  1.00  0.00    +0.000 C 
ATOM     58  C41 UNL A   1      24.019 -10.742  33.154  1.00  0.00    +0.000 C 
ATOM     59  N4  UNL A   1      25.154 -11.226  32.524  1.00  0.00    +0.000 N 
ATOM     60  C42 UNL A   1      23.624 -11.061  34.504  1.00  0.00    +0.000 C 
ATOM     72  C49 UNL A   1      24.303 -11.883  35.341  1.00  0.00    +0.000 C 
ATOM     73  N5  UNL A   1      25.478 -12.586  35.114  1.00  0.00    +0.000 N 
ATOM     74  C50 UNL A   1      25.740 -13.223  36.228  1.00  0.00    +0.000 C 
ATOM     75  C51 UNL A   1      26.872 -14.164  36.544  1.00  0.00    +0.000 C 
ATOM     87  C58 UNL A   1      27.779 -14.436  35.587  1.00  0.00    +0.000 C 
ATOM     88  C59 UNL A   1      28.923 -15.331  35.732  1.00  0.00    +0.000 C 
ATOM     89  C60 UNL A   1      29.632 -15.322  34.593  1.00  0.00    +0.000 C 
ATOM     90  C61 UNL A   1      28.966 -14.454  33.621  1.00  0.00    +0.000 C 
ATOM     91  N6  UNL A   1      27.876 -13.970  34.299  1.00  0.00    +0.000 N 
ATOM     92  C62 UNL A   1      24.773 -12.969  37.305  1.00  0.00    +0.000 C 
ATOM     93  C63 UNL A   1      23.894 -12.185  36.697  1.00  0.00    +0.000 C 
ATOM     94  C64 UNL A   1      28.402 -12.122  29.644  1.00  0.00    +0.000 C 
ATOM     95  C65 UNL A   1      29.200 -13.066  30.121  1.00  0.00    +0.000 C 
ENDROOT
BRANCH   39   38
ATOM     97  C67 UNL A   1      33.036 -14.876  31.630  1.00  0.00    +0.000 C 
ATOM     35  C24 UNL A   1      32.971 -16.132  31.020  1.00  0.00    +0.000 C 
ATOM     36  C25 UNL A   1      31.739 -16.740  30.774  1.00  0.00    +0.000 C 
ATOM     37  C26 UNL A   1      30.568 -16.104  31.180  1.00  0.00    +0.000 C 
ATOM     38  C27 UNL A   1      30.627 -14.886  31.879  1.00  0.00    +0.000 C 
ATOM    136  H31 UNL A   1      31.697 -17.652  30.294  1.00  0.00    +0.000 H 
ATOM    137  H32 UNL A   1      29.652 -16.531  30.969  1.00  0.00    +0.000 H 
ATOM    148  H43 UNL A   1      31.926 -13.396  32.633  1.00  0.00    +0.000 H 
ATOM    149  H44 UNL A   1      33.942 -14.391  31.723  1.00  0.00    +0.000 H 
ATOM     96  C66 UNL A   1      31.873 -14.283  32.109  1.00  0.00    +0.000 C 
BRANCH   35   33
ATOM     33  C23 UNL A   1      34.202 -16.862  30.660  1.00  0.00    +0.000 C 
ATOM     34  O9  UNL A   1      34.913 -17.341  31.535  1.00  0.00    +0.000 O 
BRANCH   33   32
ATOM    135  H30 UNL A   1      35.049 -16.195  28.969  1.00  0.00    +0.000 H 
ATOM     32  N2  UNL A   1      34.551 -16.960  29.339  1.00  0.00    +0.000 N 
BRANCH   32   31
ATOM    133  H28 UNL A   1      35.205 -18.529  28.179  1.00  0.00    +0.000 H 
ATOM    134  H29 UNL A   1      33.593 -18.710  28.892  1.00  0.00    +0.000 H 
ATOM     31  C22 UNL A   1      34.281 -18.044  28.415  1.00  0.00    +0.000 C 
BRANCH   31   30
ATOM    131  H26 UNL A   1      34.399 -17.139  26.506  1.00  0.00    +0.000 H 
ATOM    132  H27 UNL A   1      33.178 -18.433  26.681  1.00  0.00    +0.000 H 
ATOM     30  C21 UNL A   1      33.636 -17.571  27.119  1.00  0.00    +0.000 C 
BRANCH   30   29
ATOM    129  H24 UNL A   1      31.732 -16.788  26.616  1.00  0.00    +0.000 H 
ATOM    130  H25 UNL A   1      32.245 -16.580  28.325  1.00  0.00    +0.000 H 
ATOM     29  C20 UNL A   1      32.523 -16.536  27.292  1.00  0.00    +0.000 C 
BRANCH   29   28
ATOM     28  C19 UNL A   1      32.918 -15.078  27.031  1.00  0.00    +0.000 C 
ATOM    127  H22 UNL A   1      33.984 -15.035  26.957  1.00  0.00    +0.000 H 
ATOM    128  H23 UNL A   1      32.409 -14.794  26.134  1.00  0.00    +0.000 H 
BRANCH   28   27
ATOM     27  C18 UNL A   1      32.480 -14.069  28.094  1.00  0.00    +0.000 C 
ATOM    125  H20 UNL A   1      31.517 -13.687  27.823  1.00  0.00    +0.000 H 
ATOM    126  H21 UNL A   1      32.463 -14.588  29.030  1.00  0.00    +0.000 H 
BRANCH   27   26
ATOM     26  C17 UNL A   1      33.430 -12.901  28.253  1.00  0.00    +0.000 C 
ATOM    123  H18 UNL A   1      33.565 -12.705  29.296  1.00  0.00    +0.000 H 
ATOM    124  H19 UNL A   1      34.356 -13.162  27.786  1.00  0.00    +0.000 H 
BRANCH   26   25
ATOM     25  N1  UNL A   1      32.928 -11.706  27.613  1.00  0.00    +0.000 N 
ATOM    122  H17 UNL A   1      32.700 -10.939  28.185  1.00  0.00    +0.000 H 
BRANCH   25   23
ATOM     23  C16 UNL A   1      32.750 -11.573  26.267  1.00  0.00    +0.000 C 
ATOM     24  O8  UNL A   1      33.677 -11.733  25.489  1.00  0.00    +0.000 O 
BRANCH   23   22
ATOM      2  C2  UNL A   1      30.383  -7.156  22.731  1.00  0.00    +0.000 C 
ATOM      3  C3  UNL A   1      29.043  -6.521  22.663  1.00  0.00    +0.000 C 
ATOM      4  O1  UNL A   1      28.767  -5.458  22.158  1.00  0.00    +0.000 O 
ATOM      5  O2  UNL A   1      28.198  -7.353  23.335  1.00  0.00    +0.000 O 
ATOM      6  C4  UNL A   1      28.930  -8.469  23.909  1.00  0.00    +0.000 C 
ATOM      7  C5  UNL A   1      30.364  -7.960  23.988  1.00  0.00    +0.000 C 
ATOM      8  C6  UNL A   1      31.511  -8.924  24.327  1.00  0.00    +0.000 C 
ATOM     17  C12 UNL A   1      31.238  -9.672  25.695  1.00  0.00    +0.000 C 
ATOM     22  C15 UNL A   1      31.367 -11.185  25.816  1.00  0.00    +0.000 C 
ATOM    150  H45 UNL A   1      31.240 -13.146  25.624  1.00  0.00    +0.000 H 
ATOM    152  H47 UNL A   1      27.227 -12.408  24.190  1.00  0.00    +0.000 H 
ATOM    151  H46 UNL A   1      29.590 -13.666  25.596  1.00  0.00    +0.000 H 
ATOM    156  H51 UNL A   1      29.370  -9.322  22.371  1.00  0.00    +0.000 H 
ATOM     98  C68 UNL A   1      30.638 -12.310  25.667  1.00  0.00    +0.000 C 
ATOM     99  C69 UNL A   1      29.225 -12.660  25.548  1.00  0.00    +0.000 C 
ATOM    100  O10 UNL A   1      28.275 -11.765  26.108  1.00  0.00    +0.000 O 
ATOM    101  C70 UNL A   1      28.084 -12.082  24.741  1.00  0.00    +0.000 C 
ATOM    102  C71 UNL A   1      28.454 -11.180  23.561  1.00  0.00    +0.000 C 
ATOM    104  O11 UNL A   1      27.385 -10.247  23.291  1.00  0.00    +0.000 O 
ATOM    105  C73 UNL A   1      28.688  -9.701  23.102  1.00  0.00    +0.000 C 
ATOM    108  H3  UNL A   1      28.626  -8.775  24.889  1.00  0.00    +0.000 H 
ATOM    109  H4  UNL A   1      30.602  -7.404  24.870  1.00  0.00    +0.000 H 
ATOM    110  H5  UNL A   1      32.396  -8.342  24.477  1.00  0.00    +0.000 H 
ATOM    118  H13 UNL A   1      32.186  -9.981  26.084  1.00  0.00    +0.000 H 
BRANCH    2    1
ATOM      1  C1  UNL A   1      31.253  -7.030  21.726  1.00  0.00    +0.000 C 
ATOM    106  H1  UNL A   1      31.034  -6.414  20.928  1.00  0.00    +0.000 H 
ATOM    107  H2  UNL A   1      32.144  -7.549  21.747  1.00  0.00    +0.000 H 
ENDBRANCH    2    1
BRANCH    8    9
ATOM      9  O3  UNL A   1      31.836  -9.805  23.232  1.00  0.00    +0.000 O 
BRANCH    9   10
ATOM     10  C7  UNL A   1      33.117 -10.124  22.817  1.00  0.00    +0.000 C 
ATOM     11  O4  UNL A   1      33.252 -11.125  22.117  1.00  0.00    +0.000 O 
BRANCH   10   12
ATOM    114  H9  UNL A   1      35.284  -7.440  24.169  1.00  0.00    +0.000 H 
ATOM     12  C8  UNL A   1      34.226  -9.079  22.834  1.00  0.00    +0.000 C 
ATOM     14  O5  UNL A   1      35.443  -9.670  23.371  1.00  0.00    +0.000 O 
ATOM     15  C10 UNL A   1      35.041  -8.469  24.006  1.00  0.00    +0.000 C 
BRANCH   12   13
ATOM    113  H8  UNL A   1      33.819  -7.755  21.212  1.00  0.00    +0.000 H 
ATOM     13  C9  UNL A   1      34.556  -8.486  21.471  1.00  0.00    +0.000 C 
ATOM    111  H6  UNL A   1      34.559  -9.265  20.736  1.00  0.00    +0.000 H 
ATOM    112  H7  UNL A   1      35.520  -8.024  21.506  1.00  0.00    +0.000 H 
ENDBRANCH   12   13
BRANCH   15   16
ATOM    115  H10 UNL A   1      34.461  -9.559  25.700  1.00  0.00    +0.000 H 
ATOM    116  H11 UNL A   1      34.332  -7.825  25.871  1.00  0.00    +0.000 H 
ATOM    117  H12 UNL A   1      35.901  -8.594  25.913  1.00  0.00    +0.000 H 
ATOM     16  C11 UNL A   1      34.926  -8.622  25.474  1.00  0.00    +0.000 C 
ENDBRANCH   15   16
ENDBRANCH   10   12
ENDBRANCH    9   10
ENDBRANCH    8    9
BRANCH   17   18
ATOM     18  O6  UNL A   1      30.666  -8.837  26.778  1.00  0.00    +0.000 O 
BRANCH   18   19
ATOM     19  C13 UNL A   1      30.854  -8.401  28.026  1.00  0.00    +0.000 C 
ATOM     21  O7  UNL A   1      30.860  -7.191  28.246  1.00  0.00    +0.000 O 
BRANCH   19   20
ATOM    121  H16 UNL A   1      30.028  -9.594  29.533  1.00  0.00    +0.000 H 
ATOM     20  C14 UNL A   1      30.996  -9.339  29.157  1.00  0.00    +0.000 C 
ATOM    119  H14 UNL A   1      31.570  -8.879  29.933  1.00  0.00    +0.000 H 
ATOM    120  H15 UNL A   1      31.494 -10.226  28.824  1.00  0.00    +0.000 H 
ENDBRANCH   19   20
ENDBRANCH   18   19
ENDBRANCH   17   18
BRANCH  102  103
ATOM    153  H48 UNL A   1      28.103 -11.790  21.543  1.00  0.00    +0.000 H 
ATOM    154  H49 UNL A   1      28.404 -13.111  22.646  1.00  0.00    +0.000 H 
ATOM    155  H50 UNL A   1      29.726 -12.102  22.110  1.00  0.00    +0.000 H 
ATOM    103  C72 UNL A   1      28.689 -12.117  22.376  1.00  0.00    +0.000 C 
ENDBRANCH  102  103
ENDBRANCH   23   22
ENDBRANCH   25   23
ENDBRANCH   26   25
ENDBRANCH   27   26
ENDBRANCH   28   27
ENDBRANCH   29   28
ENDBRANCH   30   29
ENDBRANCH   31   30
ENDBRANCH   32   31
ENDBRANCH   33   32
ENDBRANCH   35   33
ENDBRANCH   39   38
BRANCH   43   44
ATOM     44  C32 UNL A   1      26.265 -10.331  28.961  1.00  0.00    +0.000 C 
ATOM     45  C33 UNL A   1      25.432 -10.783  27.925  1.00  0.00    +0.000 C 
ATOM     46  F1  UNL A   1      24.662 -11.868  28.103  1.00  0.00    +0.000 F 
ATOM     47  C34 UNL A   1      25.419 -10.150  26.686  1.00  0.00    +0.000 C 
ATOM     48  F2  UNL A   1      24.655 -10.634  25.695  1.00  0.00    +0.000 F 
ATOM     49  C35 UNL A   1      26.203  -9.027  26.469  1.00  0.00    +0.000 C 
ATOM     50  F3  UNL A   1      26.182  -8.412  25.278  1.00  0.00    +0.000 F 
ATOM     51  C36 UNL A   1      27.015  -8.547  27.484  1.00  0.00    +0.000 C 
ATOM     52  F4  UNL A   1      27.763  -7.453  27.283  1.00  0.00    +0.000 F 
ATOM     53  C37 UNL A   1      27.058  -9.200  28.714  1.00  0.00    +0.000 C 
ATOM     54  F5  UNL A   1      27.871  -8.722  29.669  1.00  0.00    +0.000 F 
ENDBRANCH   43   44
BRANCH   60   61
ATOM     65  F7  UNL A   1      18.799 -11.264  35.365  1.00  0.00    +0.000 F 
ATOM     66  C46 UNL A   1      19.981  -9.333  36.035  1.00  0.00    +0.000 C 
ATOM     67  F8  UNL A   1      18.852  -8.790  36.513  1.00  0.00    +0.000 F 
ATOM     68  C47 UNL A   1      21.173  -8.629  36.105  1.00  0.00    +0.000 C 
ATOM     69  F9  UNL A   1      21.203  -7.416  36.675  1.00  0.00    +0.000 F 
ATOM     70  C48 UNL A   1      22.341  -9.180  35.586  1.00  0.00    +0.000 C 
ATOM     71  F10 UNL A   1      23.475  -8.468  35.655  1.00  0.00    +0.000 F 
ATOM     61  C43 UNL A   1      22.343 -10.462  35.013  1.00  0.00    +0.000 C 
ATOM     62  C44 UNL A   1      21.130 -11.166  34.974  1.00  0.00    +0.000 C 
ATOM     63  F6  UNL A   1      21.076 -12.388  34.426  1.00  0.00    +0.000 F 
ATOM     64  C45 UNL A   1      19.957 -10.596  35.462  1.00  0.00    +0.000 C 
ENDBRANCH   60   61
BRANCH   75   76
ATOM     76  C52 UNL A   1      26.985 -14.804  37.882  1.00  0.00    +0.000 C 
ATOM     77  C53 UNL A   1      27.662 -14.169  38.932  1.00  0.00    +0.000 C 
ATOM     78  F11 UNL A   1      28.228 -12.968  38.734  1.00  0.00    +0.000 F 
ATOM     79  C54 UNL A   1      27.801 -14.781  40.176  1.00  0.00    +0.000 C 
ATOM     80  F12 UNL A   1      28.500 -14.174  41.144  1.00  0.00    +0.000 F 
ATOM     81  C55 UNL A   1      27.234 -16.025  40.406  1.00  0.00    +0.000 C 
ATOM     82  F13 UNL A   1      27.366 -16.613  41.602  1.00  0.00    +0.000 F 
ATOM     83  C56 UNL A   1      26.538 -16.663  39.391  1.00  0.00    +0.000 C 
ATOM     84  F14 UNL A   1      25.975 -17.858  39.612  1.00  0.00    +0.000 F 
ATOM     85  C57 UNL A   1      26.427 -16.066  38.137  1.00  0.00    +0.000 C 
ATOM     86  F15 UNL A   1      25.764 -16.715  37.169  1.00  0.00    +0.000 F 
ENDBRANCH   75   76
TORSDOF 25
ENDMDL
MODEL 6
REMARK VINA RESULT:      -9.9     23.406     31.508
ROOT
ATOM    138  H33 UNL A   1      15.017  47.383   2.664  1.00  0.00    +0.000 H 
ATOM    139  H34 UNL A   1      16.141  47.301   0.314  1.00  0.00    +0.000 H 
ATOM    140  H35 UNL A   1      15.984  51.251   1.542  1.00  0.00    +0.000 H 
ATOM    141  H36 UNL A   1      16.875  57.451   0.291  1.00  0.00    +0.000 H 
ATOM    142  H37 UNL A   1      15.914  57.509   2.640  1.00  0.00    +0.000 H 
ATOM    143  H38 UNL A   1      16.107  53.532   1.445  1.00  0.00    +0.000 H 
ATOM    144  H39 UNL A   1      18.246  53.538  -3.093  1.00  0.00    +0.000 H 
ATOM    145  H40 UNL A   1      17.864  51.009  -3.128  1.00  0.00    +0.000 H 
ATOM    146  H41 UNL A   1      14.189  51.330   6.213  1.00  0.00    +0.000 H 
ATOM    147  H42 UNL A   1      14.071  53.884   6.070  1.00  0.00    +0.000 H 
ATOM     39  C28 UNL A   1      15.221  54.949   3.689  1.00  0.00    +0.000 C 
ATOM     40  C29 UNL A   1      15.000  53.504   4.036  1.00  0.00    +0.000 C 
ATOM     41  N3  UNL A   1      15.276  52.432   3.336  1.00  0.00    +0.000 N 
ATOM     42  C30 UNL A   1      14.909  51.358   4.134  1.00  0.00    +0.000 C 
ATOM     43  C31 UNL A   1      14.928  50.038   3.830  1.00  0.00    +0.000 C 
ATOM     55  C38 UNL A   1      15.368  49.509   2.567  1.00  0.00    +0.000 C 
ATOM     56  C39 UNL A   1      15.377  48.194   2.138  1.00  0.00    +0.000 C 
ATOM     57  C40 UNL A   1      15.958  48.153   0.866  1.00  0.00    +0.000 C 
ATOM     58  C41 UNL A   1      16.248  49.450   0.473  1.00  0.00    +0.000 C 
ATOM     59  N4  UNL A   1      15.887  50.271   1.529  1.00  0.00    +0.000 N 
ATOM     60  C42 UNL A   1      16.810  49.906  -0.774  1.00  0.00    +0.000 C 
ATOM     72  C49 UNL A   1      17.058  51.201  -1.089  1.00  0.00    +0.000 C 
ATOM     73  N5  UNL A   1      16.837  52.343  -0.333  1.00  0.00    +0.000 N 
ATOM     74  C50 UNL A   1      17.252  53.348  -1.065  1.00  0.00    +0.000 C 
ATOM     75  C51 UNL A   1      17.223  54.822  -0.762  1.00  0.00    +0.000 C 
ATOM     87  C58 UNL A   1      16.706  55.237   0.409  1.00  0.00    +0.000 C 
ATOM     88  C59 UNL A   1      16.596  56.626   0.844  1.00  0.00    +0.000 C 
ATOM     89  C60 UNL A   1      16.075  56.657   2.081  1.00  0.00    +0.000 C 
ATOM     90  C61 UNL A   1      15.772  55.290   2.507  1.00  0.00    +0.000 C 
ATOM     91  N6  UNL A   1      16.181  54.514   1.453  1.00  0.00    +0.000 N 
ATOM     92  C62 UNL A   1      17.817  52.951  -2.362  1.00  0.00    +0.000 C 
ATOM     93  C63 UNL A   1      17.631  51.639  -2.345  1.00  0.00    +0.000 C 
ATOM     94  C64 UNL A   1      14.453  51.899   5.394  1.00  0.00    +0.000 C 
ATOM     95  C65 UNL A   1      14.418  53.223   5.357  1.00  0.00    +0.000 C 
ENDROOT
BRANCH   39   38
ATOM     97  C67 UNL A   1      13.266  57.587   5.548  1.00  0.00    +0.000 C 
ATOM     35  C24 UNL A   1      14.187  57.967   6.528  1.00  0.00    +0.000 C 
ATOM     36  C25 UNL A   1      15.474  57.427   6.543  1.00  0.00    +0.000 C 
ATOM     37  C26 UNL A   1      15.824  56.466   5.597  1.00  0.00    +0.000 C 
ATOM     38  C27 UNL A   1      14.876  56.008   4.667  1.00  0.00    +0.000 C 
ATOM    136  H31 UNL A   1      16.159  57.736   7.249  1.00  0.00    +0.000 H 
ATOM    137  H32 UNL A   1      16.785  56.089   5.579  1.00  0.00    +0.000 H 
ATOM    148  H43 UNL A   1      12.883  56.228   3.987  1.00  0.00    +0.000 H 
ATOM    149  H44 UNL A   1      12.351  58.059   5.486  1.00  0.00    +0.000 H 
ATOM     96  C66 UNL A   1      13.590  56.570   4.657  1.00  0.00    +0.000 C 
BRANCH   35   33
ATOM     33  C23 UNL A   1      13.809  58.918   7.592  1.00  0.00    +0.000 C 
ATOM     34  O9  UNL A   1      14.674  59.528   8.210  1.00  0.00    +0.000 O 
BRANCH   33   32
ATOM    135  H30 UNL A   1      11.853  58.944   7.155  1.00  0.00    +0.000 H 
ATOM     32  N2  UNL A   1      12.484  59.074   7.900  1.00  0.00    +0.000 N 
BRANCH   32   31
ATOM    133  H28 UNL A   1      12.646  59.336   9.935  1.00  0.00    +0.000 H 
ATOM    134  H29 UNL A   1      11.495  60.398   9.105  1.00  0.00    +0.000 H 
ATOM     31  C22 UNL A   1      11.890  59.406   9.181  1.00  0.00    +0.000 C 
BRANCH   31   30
ATOM    131  H26 UNL A   1       9.834  58.909   9.177  1.00  0.00    +0.000 H 
ATOM    132  H27 UNL A   1      10.970  57.529   9.133  1.00  0.00    +0.000 H 
ATOM     30  C21 UNL A   1      10.740  58.484   9.557  1.00  0.00    +0.000 C 
BRANCH   30   29
ATOM    129  H24 UNL A   1      11.271  58.869  11.572  1.00  0.00    +0.000 H 
ATOM    130  H25 UNL A   1       9.540  58.494  11.270  1.00  0.00    +0.000 H 
ATOM     29  C20 UNL A   1      10.562  58.253  11.059  1.00  0.00    +0.000 C 
BRANCH   29   28
ATOM     28  C19 UNL A   1      10.755  56.811  11.544  1.00  0.00    +0.000 C 
ATOM    127  H22 UNL A   1      10.924  56.196  10.684  1.00  0.00    +0.000 H 
ATOM    128  H23 UNL A   1      11.580  56.841  12.225  1.00  0.00    +0.000 H 
BRANCH   28   27
ATOM     27  C18 UNL A   1       9.588  56.211  12.329  1.00  0.00    +0.000 C 
ATOM    125  H20 UNL A   1       8.924  57.003  12.607  1.00  0.00    +0.000 H 
ATOM    126  H21 UNL A   1       9.118  55.491  11.691  1.00  0.00    +0.000 H 
BRANCH   27   26
ATOM     26  C17 UNL A   1      10.011  55.480  13.586  1.00  0.00    +0.000 C 
ATOM    123  H18 UNL A   1      10.821  56.012  14.039  1.00  0.00    +0.000 H 
ATOM    124  H19 UNL A   1       9.167  55.432  14.241  1.00  0.00    +0.000 H 
BRANCH   26   25
ATOM     25  N1  UNL A   1      10.437  54.128  13.306  1.00  0.00    +0.000 N 
ATOM    122  H17 UNL A   1       9.748  53.426  13.271  1.00  0.00    +0.000 H 
BRANCH   25   23
ATOM     23  C16 UNL A   1      11.733  53.761  13.086  1.00  0.00    +0.000 C 
ATOM     24  O8  UNL A   1      12.592  53.937  13.934  1.00  0.00    +0.000 O 
BRANCH   23   22
ATOM      2  C2  UNL A   1      16.493  50.839  10.550  1.00  0.00    +0.000 C 
ATOM      3  C3  UNL A   1      16.951  50.673   9.148  1.00  0.00    +0.000 C 
ATOM      4  O1  UNL A   1      18.056  50.355   8.777  1.00  0.00    +0.000 O 
ATOM      5  O2  UNL A   1      15.888  51.010   8.363  1.00  0.00    +0.000 O 
ATOM      6  C4  UNL A   1      14.775  51.463   9.179  1.00  0.00    +0.000 C 
ATOM      7  C5  UNL A   1      15.431  51.886  10.487  1.00  0.00    +0.000 C 
ATOM      8  C6  UNL A   1      14.570  52.214  11.716  1.00  0.00    +0.000 C 
ATOM     17  C12 UNL A   1      13.505  53.335  11.381  1.00  0.00    +0.000 C 
ATOM     22  C15 UNL A   1      12.033  53.169  11.733  1.00  0.00    +0.000 C 
ATOM    150  H45 UNL A   1      10.165  52.566  11.952  1.00  0.00    +0.000 H 
ATOM    152  H47 UNL A   1      10.689  50.649   8.111  1.00  0.00    +0.000 H 
ATOM    151  H46 UNL A   1       9.459  52.153  10.427  1.00  0.00    +0.000 H 
ATOM    156  H51 UNL A   1      14.352  49.882   9.960  1.00  0.00    +0.000 H 
ATOM     98  C68 UNL A   1      10.887  52.674  11.223  1.00  0.00    +0.000 C 
ATOM     99  C69 UNL A   1      10.395  52.248   9.915  1.00  0.00    +0.000 C 
ATOM    100  O10 UNL A   1      11.013  52.807   8.765  1.00  0.00    +0.000 O 
ATOM    101  C70 UNL A   1      10.990  51.393   8.819  1.00  0.00    +0.000 C 
ATOM    102  C71 UNL A   1      12.173  50.500   9.199  1.00  0.00    +0.000 C 
ATOM    104  O11 UNL A   1      12.998  50.246   8.042  1.00  0.00    +0.000 O 
ATOM    105  C73 UNL A   1      13.734  50.395   9.253  1.00  0.00    +0.000 C 
ATOM    108  H3  UNL A   1      14.220  52.295   8.796  1.00  0.00    +0.000 H 
ATOM    109  H4  UNL A   1      15.801  52.890  10.508  1.00  0.00    +0.000 H 
ATOM    110  H5  UNL A   1      15.212  52.626  12.467  1.00  0.00    +0.000 H 
ATOM    118  H13 UNL A   1      13.239  53.810  12.303  1.00  0.00    +0.000 H 
BRANCH    2    1
ATOM      1  C1  UNL A   1      16.951  50.043  11.520  1.00  0.00    +0.000 C 
ATOM    106  H1  UNL A   1      17.662  49.327  11.306  1.00  0.00    +0.000 H 
ATOM    107  H2  UNL A   1      16.593  50.144  12.482  1.00  0.00    +0.000 H 
ENDBRANCH    2    1
BRANCH    8    9
ATOM      9  O3  UNL A   1      14.006  51.035  12.328  1.00  0.00    +0.000 O 
BRANCH    9   10
ATOM     10  C7  UNL A   1      14.022  50.753  13.682  1.00  0.00    +0.000 C 
ATOM     11  O4  UNL A   1      14.749  51.439  14.395  1.00  0.00    +0.000 O 
BRANCH   10   12
ATOM    114  H9  UNL A   1      11.538  49.792  16.257  1.00  0.00    +0.000 H 
ATOM     12  C8  UNL A   1      12.891  49.959  14.327  1.00  0.00    +0.000 C 
ATOM     14  O5  UNL A   1      11.617  50.595  14.025  1.00  0.00    +0.000 O 
ATOM     15  C10 UNL A   1      11.846  50.357  15.402  1.00  0.00    +0.000 C 
BRANCH   12   13
ATOM    113  H8  UNL A   1      13.484  48.341  13.070  1.00  0.00    +0.000 H 
ATOM     13  C9  UNL A   1      12.806  48.506  13.882  1.00  0.00    +0.000 C 
ATOM    111  H6  UNL A   1      11.807  48.290  13.562  1.00  0.00    +0.000 H 
ATOM    112  H7  UNL A   1      13.065  47.866  14.699  1.00  0.00    +0.000 H 
ENDBRANCH   12   13
BRANCH   15   16
ATOM    115  H10 UNL A   1      12.570  52.178  16.146  1.00  0.00    +0.000 H 
ATOM    116  H11 UNL A   1      11.519  51.312  17.240  1.00  0.00    +0.000 H 
ATOM    117  H12 UNL A   1      10.848  52.144  15.857  1.00  0.00    +0.000 H 
ATOM     16  C11 UNL A   1      11.684  51.583  16.218  1.00  0.00    +0.000 C 
ENDBRANCH   15   16
ENDBRANCH   10   12
ENDBRANCH    9   10
ENDBRANCH    8    9
BRANCH   17   18
ATOM     18  O6  UNL A   1      13.996  54.451  10.538  1.00  0.00    +0.000 O 
BRANCH   18   19
ATOM     19  C13 UNL A   1      14.004  54.954   9.301  1.00  0.00    +0.000 C 
ATOM     21  O7  UNL A   1      15.037  54.896   8.635  1.00  0.00    +0.000 O 
BRANCH   19   20
ATOM    121  H16 UNL A   1      12.805  55.363   7.635  1.00  0.00    +0.000 H 
ATOM     20  C14 UNL A   1      12.787  55.526   8.693  1.00  0.00    +0.000 C 
ATOM    119  H14 UNL A   1      12.748  56.576   8.891  1.00  0.00    +0.000 H 
ATOM    120  H15 UNL A   1      11.923  55.052   9.111  1.00  0.00    +0.000 H 
ENDBRANCH   19   20
ENDBRANCH   18   19
ENDBRANCH   17   18
BRANCH  102  103
ATOM    153  H48 UNL A   1      10.693  48.957   9.176  1.00  0.00    +0.000 H 
ATOM    154  H49 UNL A   1      11.295  49.344  10.769  1.00  0.00    +0.000 H 
ATOM    155  H50 UNL A   1      12.281  48.415   9.664  1.00  0.00    +0.000 H 
ATOM    103  C72 UNL A   1      11.564  49.207   9.744  1.00  0.00    +0.000 C 
ENDBRANCH  102  103
ENDBRANCH   23   22
ENDBRANCH   25   23
ENDBRANCH   26   25
ENDBRANCH   27   26
ENDBRANCH   28   27
ENDBRANCH   29   28
ENDBRANCH   30   29
ENDBRANCH   31   30
ENDBRANCH   32   31
ENDBRANCH   33   32
ENDBRANCH   35   33
ENDBRANCH   39   38
BRANCH   43   44
ATOM     44  C32 UNL A   1      14.459  49.074   4.884  1.00  0.00    +0.000 C 
ATOM     45  C33 UNL A   1      13.142  48.588   4.909  1.00  0.00    +0.000 C 
ATOM     46  F1  UNL A   1      12.248  49.013   4.003  1.00  0.00    +0.000 F 
ATOM     47  C34 UNL A   1      12.725  47.696   5.893  1.00  0.00    +0.000 C 
ATOM     48  F2  UNL A   1      11.447  47.290   5.929  1.00  0.00    +0.000 F 
ATOM     49  C35 UNL A   1      13.623  47.239   6.845  1.00  0.00    +0.000 C 
ATOM     50  F3  UNL A   1      13.223  46.372   7.786  1.00  0.00    +0.000 F 
ATOM     51  C36 UNL A   1      14.936  47.684   6.825  1.00  0.00    +0.000 C 
ATOM     52  F4  UNL A   1      15.810  47.232   7.734  1.00  0.00    +0.000 F 
ATOM     53  C37 UNL A   1      15.347  48.605   5.864  1.00  0.00    +0.000 C 
ATOM     54  F5  UNL A   1      16.619  49.032   5.885  1.00  0.00    +0.000 F 
ENDBRANCH   43   44
BRANCH   60   61
ATOM     65  F7  UNL A   1      15.558  47.169  -4.647  1.00  0.00    +0.000 F 
ATOM     66  C46 UNL A   1      17.752  46.975  -3.794  1.00  0.00    +0.000 C 
ATOM     67  F8  UNL A   1      18.051  46.064  -4.731  1.00  0.00    +0.000 F 
ATOM     68  C47 UNL A   1      18.703  47.342  -2.855  1.00  0.00    +0.000 C 
ATOM     69  F9  UNL A   1      19.930  46.805  -2.899  1.00  0.00    +0.000 F 
ATOM     70  C48 UNL A   1      18.386  48.268  -1.866  1.00  0.00    +0.000 C 
ATOM     71  F10 UNL A   1      19.323  48.591  -0.963  1.00  0.00    +0.000 F 
ATOM     61  C43 UNL A   1      17.118  48.870  -1.818  1.00  0.00    +0.000 C 
ATOM     62  C44 UNL A   1      16.179  48.501  -2.793  1.00  0.00    +0.000 C 
ATOM     63  F6  UNL A   1      14.949  49.035  -2.784  1.00  0.00    +0.000 F 
ATOM     64  C45 UNL A   1      16.488  47.546  -3.758  1.00  0.00    +0.000 C 
ENDBRANCH   60   61
BRANCH   75   76
ATOM     76  C52 UNL A   1      17.736  55.815  -1.743  1.00  0.00    +0.000 C 
ATOM     77  C53 UNL A   1      16.912  56.323  -2.757  1.00  0.00    +0.000 C 
ATOM     78  F11 UNL A   1      15.641  55.907  -2.857  1.00  0.00    +0.000 F 
ATOM     79  C54 UNL A   1      17.400  57.225  -3.700  1.00  0.00    +0.000 C 
ATOM     80  F12 UNL A   1      16.605  57.652  -4.690  1.00  0.00    +0.000 F 
ATOM     81  C55 UNL A   1      18.713  57.667  -3.626  1.00  0.00    +0.000 C 
ATOM     82  F13 UNL A   1      19.182  58.535  -4.531  1.00  0.00    +0.000 F 
ATOM     83  C56 UNL A   1      19.541  57.198  -2.618  1.00  0.00    +0.000 C 
ATOM     84  F14 UNL A   1      20.805  57.632  -2.532  1.00  0.00    +0.000 F 
ATOM     85  C57 UNL A   1      19.063  56.270  -1.695  1.00  0.00    +0.000 C 
ATOM     86  F15 UNL A   1      19.893  55.821  -0.742  1.00  0.00    +0.000 F 
ENDBRANCH   75   76
TORSDOF 25
ENDMDL
MODEL 7
REMARK VINA RESULT:      -9.8     23.029     30.304
ROOT
ATOM    138  H33 UNL A   1      18.681  53.234  -1.163  1.00  0.00    +0.000 H 
ATOM    139  H34 UNL A   1      18.158  50.747  -1.744  1.00  0.00    +0.000 H 
ATOM    140  H35 UNL A   1      15.828  51.843   1.498  1.00  0.00    +0.000 H 
ATOM    141  H36 UNL A   1      11.708  50.253   6.112  1.00  0.00    +0.000 H 
ATOM    142  H37 UNL A   1      12.115  52.715   6.579  1.00  0.00    +0.000 H 
ATOM    143  H38 UNL A   1      14.426  51.648   3.293  1.00  0.00    +0.000 H 
ATOM    144  H39 UNL A   1      13.344  46.846   2.323  1.00  0.00    +0.000 H 
ATOM    145  H40 UNL A   1      15.116  46.958   0.483  1.00  0.00    +0.000 H 
ATOM    146  H41 UNL A   1      16.567  56.723   2.332  1.00  0.00    +0.000 H 
ATOM    147  H42 UNL A   1      15.206  56.507   4.490  1.00  0.00    +0.000 H 
ATOM     39  C28 UNL A   1      14.003  53.945   4.832  1.00  0.00    +0.000 C 
ATOM     40  C29 UNL A   1      14.966  54.373   3.761  1.00  0.00    +0.000 C 
ATOM     41  N3  UNL A   1      15.462  53.679   2.767  1.00  0.00    +0.000 N 
ATOM     42  C30 UNL A   1      16.265  54.560   2.057  1.00  0.00    +0.000 C 
ATOM     43  C31 UNL A   1      17.056  54.304   0.987  1.00  0.00    +0.000 C 
ATOM     55  C38 UNL A   1      17.185  53.009   0.374  1.00  0.00    +0.000 C 
ATOM     56  C39 UNL A   1      17.998  52.632  -0.680  1.00  0.00    +0.000 C 
ATOM     57  C40 UNL A   1      17.734  51.290  -0.975  1.00  0.00    +0.000 C 
ATOM     58  C41 UNL A   1      16.807  50.812  -0.062  1.00  0.00    +0.000 C 
ATOM     59  N4  UNL A   1      16.474  51.880   0.756  1.00  0.00    +0.000 N 
ATOM     60  C42 UNL A   1      16.268  49.481   0.056  1.00  0.00    +0.000 C 
ATOM     72  C49 UNL A   1      15.366  49.086   0.987  1.00  0.00    +0.000 C 
ATOM     73  N5  UNL A   1      14.777  49.825   2.004  1.00  0.00    +0.000 N 
ATOM     74  C50 UNL A   1      13.966  49.004   2.626  1.00  0.00    +0.000 C 
ATOM     75  C51 UNL A   1      13.095  49.255   3.828  1.00  0.00    +0.000 C 
ATOM     87  C58 UNL A   1      13.106  50.474   4.397  1.00  0.00    +0.000 C 
ATOM     88  C59 UNL A   1      12.331  50.871   5.569  1.00  0.00    +0.000 C 
ATOM     89  C60 UNL A   1      12.557  52.169   5.823  1.00  0.00    +0.000 C 
ATOM     90  C61 UNL A   1      13.529  52.684   4.859  1.00  0.00    +0.000 C 
ATOM     91  N6  UNL A   1      13.798  51.609   4.050  1.00  0.00    +0.000 N 
ATOM     92  C62 UNL A   1      13.924  47.653   2.050  1.00  0.00    +0.000 C 
ATOM     93  C63 UNL A   1      14.829  47.744   1.086  1.00  0.00    +0.000 C 
ATOM     94  C64 UNL A   1      16.141  55.854   2.690  1.00  0.00    +0.000 C 
ATOM     95  C65 UNL A   1      15.410  55.775   3.792  1.00  0.00    +0.000 C 
ENDROOT
BRANCH   39   38
ATOM     97  C67 UNL A   1      13.839  56.043   7.964  1.00  0.00    +0.000 C 
ATOM     35  C24 UNL A   1      12.688  56.799   7.725  1.00  0.00    +0.000 C 
ATOM     36  C25 UNL A   1      11.916  56.578   6.583  1.00  0.00    +0.000 C 
ATOM     37  C26 UNL A   1      12.325  55.623   5.655  1.00  0.00    +0.000 C 
ATOM     38  C27 UNL A   1      13.531  54.925   5.839  1.00  0.00    +0.000 C 
ATOM    136  H31 UNL A   1      11.050  57.116   6.429  1.00  0.00    +0.000 H 
ATOM    137  H32 UNL A   1      11.741  55.429   4.826  1.00  0.00    +0.000 H 
ATOM    148  H43 UNL A   1      15.183  54.653   7.133  1.00  0.00    +0.000 H 
ATOM    149  H44 UNL A   1      14.351  56.146   8.854  1.00  0.00    +0.000 H 
ATOM     96  C66 UNL A   1      14.289  55.151   6.998  1.00  0.00    +0.000 C 
BRANCH   35   33
ATOM     33  C23 UNL A   1      12.284  57.874   8.651  1.00  0.00    +0.000 C 
ATOM     34  O9  UNL A   1      12.851  58.960   8.621  1.00  0.00    +0.000 O 
BRANCH   33   32
ATOM    135  H30 UNL A   1      10.856  58.416   9.951  1.00  0.00    +0.000 H 
ATOM     32  N2  UNL A   1      11.295  57.624   9.566  1.00  0.00    +0.000 N 
BRANCH   32   31
ATOM    133  H28 UNL A   1       9.742  56.368  10.067  1.00  0.00    +0.000 H 
ATOM    134  H29 UNL A   1      11.173  55.592   9.367  1.00  0.00    +0.000 H 
ATOM     31  C22 UNL A   1      10.812  56.341  10.040  1.00  0.00    +0.000 C 
BRANCH   31   30
ATOM    131  H26 UNL A   1      12.246  56.513  11.585  1.00  0.00    +0.000 H 
ATOM    132  H27 UNL A   1      10.554  56.282  12.114  1.00  0.00    +0.000 H 
ATOM     30  C21 UNL A   1      11.324  55.992  11.430  1.00  0.00    +0.000 C 
BRANCH   30   29
ATOM    129  H24 UNL A   1      11.010  54.211  12.534  1.00  0.00    +0.000 H 
ATOM    130  H25 UNL A   1      11.279  54.009  10.770  1.00  0.00    +0.000 H 
ATOM     29  C20 UNL A   1      11.574  54.503  11.672  1.00  0.00    +0.000 C 
BRANCH   29   28
ATOM     28  C19 UNL A   1      13.035  54.098  11.907  1.00  0.00    +0.000 C 
ATOM    127  H22 UNL A   1      13.434  54.737  12.667  1.00  0.00    +0.000 H 
ATOM    128  H23 UNL A   1      13.011  53.063  12.178  1.00  0.00    +0.000 H 
BRANCH   28   27
ATOM     27  C18 UNL A   1      13.954  54.187  10.687  1.00  0.00    +0.000 C 
ATOM    125  H20 UNL A   1      13.443  54.727   9.917  1.00  0.00    +0.000 H 
ATOM    126  H21 UNL A   1      14.849  54.680  11.005  1.00  0.00    +0.000 H 
BRANCH   27   26
ATOM     26  C17 UNL A   1      14.363  52.839  10.134  1.00  0.00    +0.000 C 
ATOM    123  H18 UNL A   1      15.305  52.940   9.637  1.00  0.00    +0.000 H 
ATOM    124  H19 UNL A   1      14.430  52.152  10.952  1.00  0.00    +0.000 H 
BRANCH   26   25
ATOM     25  N1  UNL A   1      13.392  52.323   9.196  1.00  0.00    +0.000 N 
ATOM    122  H17 UNL A   1      13.485  52.578   8.250  1.00  0.00    +0.000 H 
BRANCH   25   23
ATOM     23  C16 UNL A   1      12.355  51.505   9.537  1.00  0.00    +0.000 C 
ATOM     24  O8  UNL A   1      11.199  51.891   9.476  1.00  0.00    +0.000 O 
BRANCH   23   22
ATOM      2  C2  UNL A   1      10.511  47.820  14.080  1.00  0.00    +0.000 C 
ATOM      3  C3  UNL A   1      11.166  46.706  14.812  1.00  0.00    +0.000 C 
ATOM      4  O1  UNL A   1      10.847  46.256  15.887  1.00  0.00    +0.000 O 
ATOM      5  O2  UNL A   1      12.234  46.334  14.052  1.00  0.00    +0.000 O 
ATOM      6  C4  UNL A   1      12.361  47.199  12.891  1.00  0.00    +0.000 C 
ATOM      7  C5  UNL A   1      11.605  48.459  13.293  1.00  0.00    +0.000 C 
ATOM      8  C6  UNL A   1      11.299  49.545  12.250  1.00  0.00    +0.000 C 
ATOM     17  C12 UNL A   1      12.623  50.039  11.539  1.00  0.00    +0.000 C 
ATOM     22  C15 UNL A   1      12.729  50.129  10.022  1.00  0.00    +0.000 C 
ATOM    150  H45 UNL A   1      12.737  49.807   8.073  1.00  0.00    +0.000 H 
ATOM    152  H47 UNL A   1      13.736  45.724   9.093  1.00  0.00    +0.000 H 
ATOM    151  H46 UNL A   1      13.656  48.395   7.678  1.00  0.00    +0.000 H 
ATOM    156  H51 UNL A   1      10.882  46.659  11.991  1.00  0.00    +0.000 H 
ATOM     98  C68 UNL A   1      13.065  49.379   8.953  1.00  0.00    +0.000 C 
ATOM     99  C69 UNL A   1      13.768  48.122   8.707  1.00  0.00    +0.000 C 
ATOM    100  O10 UNL A   1      14.716  47.696   9.676  1.00  0.00    +0.000 O 
ATOM    101  C70 UNL A   1      13.703  46.760   9.360  1.00  0.00    +0.000 C 
ATOM    102  C71 UNL A   1      12.472  46.460  10.219  1.00  0.00    +0.000 C 
ATOM    104  O11 UNL A   1      12.794  45.475  11.226  1.00  0.00    +0.000 O 
ATOM    105  C73 UNL A   1      11.887  46.480  11.671  1.00  0.00    +0.000 C 
ATOM    108  H3  UNL A   1      13.358  47.475  12.619  1.00  0.00    +0.000 H 
ATOM    109  H4  UNL A   1      12.178  49.179  13.839  1.00  0.00    +0.000 H 
ATOM    110  H5  UNL A   1      10.902  50.394  12.767  1.00  0.00    +0.000 H 
ATOM    118  H13 UNL A   1      12.437  51.024  11.164  1.00  0.00    +0.000 H 
BRANCH    2    1
ATOM      1  C1  UNL A   1       9.187  47.988  14.130  1.00  0.00    +0.000 C 
ATOM    106  H1  UNL A   1       8.790  48.810  14.612  1.00  0.00    +0.000 H 
ATOM    107  H2  UNL A   1       8.562  47.296  13.689  1.00  0.00    +0.000 H 
ENDBRANCH    2    1
BRANCH    8    9
ATOM      9  O3  UNL A   1      10.253  49.155  11.336  1.00  0.00    +0.000 O 
BRANCH    9   10
ATOM     10  C7  UNL A   1       9.070  49.843  11.136  1.00  0.00    +0.000 C 
ATOM     11  O4  UNL A   1       8.960  50.948  11.664  1.00  0.00    +0.000 O 
BRANCH   10   12
ATOM    114  H9  UNL A   1       7.926  49.498   7.630  1.00  0.00    +0.000 H 
ATOM     12  C8  UNL A   1       8.141  49.481   9.983  1.00  0.00    +0.000 C 
ATOM     14  O5  UNL A   1       8.459  48.144   9.505  1.00  0.00    +0.000 O 
ATOM     15  C10 UNL A   1       8.438  49.140   8.499  1.00  0.00    +0.000 C 
BRANCH   12   13
ATOM    113  H8  UNL A   1       6.543  49.514  11.395  1.00  0.00    +0.000 H 
ATOM     13  C9  UNL A   1       6.660  49.514  10.331  1.00  0.00    +0.000 C 
ATOM    111  H6  UNL A   1       6.179  48.650   9.920  1.00  0.00    +0.000 H 
ATOM    112  H7  UNL A   1       6.216  50.398   9.923  1.00  0.00    +0.000 H 
ENDBRANCH   12   13
BRANCH   15   16
ATOM    115  H10 UNL A   1       9.780  50.112   7.215  1.00  0.00    +0.000 H 
ATOM    116  H11 UNL A   1       9.672  48.384   6.980  1.00  0.00    +0.000 H 
ATOM    117  H12 UNL A   1      10.527  49.027   8.362  1.00  0.00    +0.000 H 
ATOM     16  C11 UNL A   1       9.691  49.167   7.709  1.00  0.00    +0.000 C 
ENDBRANCH   15   16
ENDBRANCH   10   12
ENDBRANCH    9   10
ENDBRANCH    8    9
BRANCH   17   18
ATOM     18  O6  UNL A   1      13.798  50.215  12.425  1.00  0.00    +0.000 O 
BRANCH   18   19
ATOM     19  C13 UNL A   1      14.996  50.794  12.537  1.00  0.00    +0.000 C 
ATOM     21  O7  UNL A   1      15.179  51.634  13.417  1.00  0.00    +0.000 O 
BRANCH   19   20
ATOM    121  H16 UNL A   1      17.035  50.443  12.223  1.00  0.00    +0.000 H 
ATOM     20  C14 UNL A   1      16.123  50.407  11.665  1.00  0.00    +0.000 C 
ATOM    119  H14 UNL A   1      16.184  51.084  10.839  1.00  0.00    +0.000 H 
ATOM    120  H15 UNL A   1      15.968  49.413  11.301  1.00  0.00    +0.000 H 
ENDBRANCH   19   20
ENDBRANCH   18   19
ENDBRANCH   17   18
BRANCH  102  103
ATOM    153  H48 UNL A   1      11.646  46.245   8.258  1.00  0.00    +0.000 H 
ATOM    154  H49 UNL A   1      10.452  46.342   9.529  1.00  0.00    +0.000 H 
ATOM    155  H50 UNL A   1      11.369  44.872   9.304  1.00  0.00    +0.000 H 
ATOM    103  C72 UNL A   1      11.404  45.941   9.255  1.00  0.00    +0.000 C 
ENDBRANCH  102  103
ENDBRANCH   23   22
ENDBRANCH   25   23
ENDBRANCH   26   25
ENDBRANCH   27   26
ENDBRANCH   28   27
ENDBRANCH   29   28
ENDBRANCH   30   29
ENDBRANCH   31   30
ENDBRANCH   32   31
ENDBRANCH   33   32
ENDBRANCH   35   33
ENDBRANCH   39   38
BRANCH   43   44
ATOM     44  C32 UNL A   1      17.840  55.450   0.412  1.00  0.00    +0.000 C 
ATOM     45  C33 UNL A   1      17.373  56.188  -0.688  1.00  0.00    +0.000 C 
ATOM     46  F1  UNL A   1      16.218  55.854  -1.284  1.00  0.00    +0.000 F 
ATOM     47  C34 UNL A   1      18.113  57.246  -1.209  1.00  0.00    +0.000 C 
ATOM     48  F2  UNL A   1      17.673  57.900  -2.294  1.00  0.00    +0.000 F 
ATOM     49  C35 UNL A   1      19.311  57.615  -0.617  1.00  0.00    +0.000 C 
ATOM     50  F3  UNL A   1      20.018  58.640  -1.114  1.00  0.00    +0.000 F 
ATOM     51  C36 UNL A   1      19.780  56.918   0.485  1.00  0.00    +0.000 C 
ATOM     52  F4  UNL A   1      20.930  57.283   1.068  1.00  0.00    +0.000 F 
ATOM     53  C37 UNL A   1      19.060  55.836   0.986  1.00  0.00    +0.000 C 
ATOM     54  F5  UNL A   1      19.553  55.169   2.041  1.00  0.00    +0.000 F 
ENDBRANCH   43   44
BRANCH   60   61
ATOM     65  F7  UNL A   1      15.782  46.746  -3.987  1.00  0.00    +0.000 F 
ATOM     66  C46 UNL A   1      17.762  46.535  -2.717  1.00  0.00    +0.000 C 
ATOM     67  F8  UNL A   1      18.232  45.619  -3.576  1.00  0.00    +0.000 F 
ATOM     68  C47 UNL A   1      18.512  46.896  -1.609  1.00  0.00    +0.000 C 
ATOM     69  F9  UNL A   1      19.719  46.349  -1.409  1.00  0.00    +0.000 F 
ATOM     70  C48 UNL A   1      18.014  47.827  -0.703  1.00  0.00    +0.000 C 
ATOM     71  F10 UNL A   1      18.757  48.145   0.368  1.00  0.00    +0.000 F 
ATOM     61  C43 UNL A   1      16.767  48.440  -0.906  1.00  0.00    +0.000 C 
ATOM     62  C44 UNL A   1      16.036  48.076  -2.047  1.00  0.00    +0.000 C 
ATOM     63  F6  UNL A   1      14.833  48.621  -2.281  1.00  0.00    +0.000 F 
ATOM     64  C45 UNL A   1      16.521  47.117  -2.932  1.00  0.00    +0.000 C 
ENDBRANCH   60   61
BRANCH   75   76
ATOM     76  C52 UNL A   1      12.247  48.174   4.397  1.00  0.00    +0.000 C 
ATOM     77  C53 UNL A   1      12.796  47.186   5.227  1.00  0.00    +0.000 C 
ATOM     78  F11 UNL A   1      14.107  47.202   5.510  1.00  0.00    +0.000 F 
ATOM     79  C54 UNL A   1      12.012  46.150   5.732  1.00  0.00    +0.000 C 
ATOM     80  F12 UNL A   1      12.574  45.190   6.477  1.00  0.00    +0.000 F 
ATOM     81  C55 UNL A   1      10.655  46.103   5.448  1.00  0.00    +0.000 C 
ATOM     82  F13 UNL A   1       9.901  45.109   5.935  1.00  0.00    +0.000 F 
ATOM     83  C56 UNL A   1      10.084  47.083   4.650  1.00  0.00    +0.000 C 
ATOM     84  F14 UNL A   1       8.771  47.051   4.386  1.00  0.00    +0.000 F 
ATOM     85  C57 UNL A   1      10.874  48.099   4.117  1.00  0.00    +0.000 C 
ATOM     86  F15 UNL A   1      10.297  49.022   3.334  1.00  0.00    +0.000 F 
ENDBRANCH   75   76
TORSDOF 25
ENDMDL
MODEL 8
REMARK VINA RESULT:      -9.8     38.216     45.619
ROOT
ATOM    138  H33 UNL A   1      52.820  51.012  22.438  1.00  0.00    +0.000 H 
ATOM    139  H34 UNL A   1      53.698  53.357  21.712  1.00  0.00    +0.000 H 
ATOM    140  H35 UNL A   1      50.173  52.601  19.677  1.00  0.00    +0.000 H 
ATOM    141  H36 UNL A   1      45.900  54.292  15.241  1.00  0.00    +0.000 H 
ATOM    142  H37 UNL A   1      44.976  52.074  16.062  1.00  0.00    +0.000 H 
ATOM    143  H38 UNL A   1      48.487  52.836  18.151  1.00  0.00    +0.000 H 
ATOM    144  H39 UNL A   1      50.072  57.345  16.625  1.00  0.00    +0.000 H 
ATOM    145  H40 UNL A   1      52.117  56.983  18.118  1.00  0.00    +0.000 H 
ATOM    146  H41 UNL A   1      48.316  48.279  21.387  1.00  0.00    +0.000 H 
ATOM    147  H42 UNL A   1      46.550  48.366  19.536  1.00  0.00    +0.000 H 
ATOM     39  C28 UNL A   1      46.584  50.789  18.035  1.00  0.00    +0.000 C 
ATOM     40  C29 UNL A   1      47.555  50.350  19.094  1.00  0.00    +0.000 C 
ATOM     41  N3  UNL A   1      48.615  50.967  19.553  1.00  0.00    +0.000 N 
ATOM     42  C30 UNL A   1      49.128  50.144  20.546  1.00  0.00    +0.000 C 
ATOM     43  C31 UNL A   1      50.262  50.303  21.270  1.00  0.00    +0.000 C 
ATOM     55  C38 UNL A   1      51.158  51.420  21.126  1.00  0.00    +0.000 C 
ATOM     56  C39 UNL A   1      52.359  51.650  21.772  1.00  0.00    +0.000 C 
ATOM     57  C40 UNL A   1      52.842  52.897  21.363  1.00  0.00    +0.000 C 
ATOM     58  C41 UNL A   1      51.977  53.414  20.412  1.00  0.00    +0.000 C 
ATOM     59  N4  UNL A   1      50.945  52.500  20.281  1.00  0.00    +0.000 N 
ATOM     60  C42 UNL A   1      52.087  54.649  19.675  1.00  0.00    +0.000 C 
ATOM     72  C49 UNL A   1      51.199  55.084  18.748  1.00  0.00    +0.000 C 
ATOM     73  N5  UNL A   1      50.034  54.477  18.300  1.00  0.00    +0.000 N 
ATOM     74  C50 UNL A   1      49.518  55.293  17.414  1.00  0.00    +0.000 C 
ATOM     75  C51 UNL A   1      48.275  55.132  16.581  1.00  0.00    +0.000 C 
ATOM     87  C58 UNL A   1      47.543  54.010  16.712  1.00  0.00    +0.000 C 
ATOM     88  C59 UNL A   1      46.324  53.699  15.972  1.00  0.00    +0.000 C 
ATOM     89  C60 UNL A   1      45.843  52.520  16.396  1.00  0.00    +0.000 C 
ATOM     90  C61 UNL A   1      46.747  51.970  17.407  1.00  0.00    +0.000 C 
ATOM     91  N6  UNL A   1      47.726  52.923  17.532  1.00  0.00    +0.000 N 
ATOM     92  C62 UNL A   1      50.284  56.532  17.223  1.00  0.00    +0.000 C 
ATOM     93  C63 UNL A   1      51.322  56.332  18.023  1.00  0.00    +0.000 C 
ATOM     94  C64 UNL A   1      48.231  49.018  20.672  1.00  0.00    +0.000 C 
ATOM     95  C65 UNL A   1      47.284  49.059  19.746  1.00  0.00    +0.000 C 
ENDROOT
BRANCH   39   38
ATOM     97  C67 UNL A   1      44.459  48.078  16.494  1.00  0.00    +0.000 C 
ATOM     35  C24 UNL A   1      43.229  48.311  17.116  1.00  0.00    +0.000 C 
ATOM     36  C25 UNL A   1      43.062  49.395  17.979  1.00  0.00    +0.000 C 
ATOM     37  C26 UNL A   1      44.146  50.225  18.253  1.00  0.00    +0.000 C 
ATOM     38  C27 UNL A   1      45.411  49.944  17.708  1.00  0.00    +0.000 C 
ATOM    136  H31 UNL A   1      42.142  49.580  18.408  1.00  0.00    +0.000 H 
ATOM    137  H32 UNL A   1      44.021  51.049  18.862  1.00  0.00    +0.000 H 
ATOM    148  H43 UNL A   1      46.488  48.635  16.441  1.00  0.00    +0.000 H 
ATOM    149  H44 UNL A   1      44.550  47.333  15.786  1.00  0.00    +0.000 H 
ATOM     96  C66 UNL A   1      45.559  48.857  16.834  1.00  0.00    +0.000 C 
BRANCH   35   33
ATOM     33  C23 UNL A   1      42.092  47.394  16.907  1.00  0.00    +0.000 C 
ATOM     34  O9  UNL A   1      40.948  47.765  17.146  1.00  0.00    +0.000 O 
BRANCH   33   32
ATOM    135  H30 UNL A   1      42.909  46.035  15.679  1.00  0.00    +0.000 H 
ATOM     32  N2  UNL A   1      42.341  46.116  16.480  1.00  0.00    +0.000 N 
BRANCH   32   31
ATOM    133  H28 UNL A   1      40.807  44.851  17.012  1.00  0.00    +0.000 H 
ATOM    134  H29 UNL A   1      42.309  44.072  16.487  1.00  0.00    +0.000 H 
ATOM     31  C22 UNL A   1      41.876  44.868  17.054  1.00  0.00    +0.000 C 
BRANCH   31   30
ATOM    131  H26 UNL A   1      43.379  44.657  18.529  1.00  0.00    +0.000 H 
ATOM    132  H27 UNL A   1      41.894  45.508  19.045  1.00  0.00    +0.000 H 
ATOM     30  C21 UNL A   1      42.309  44.685  18.502  1.00  0.00    +0.000 C 
BRANCH   30   29
ATOM    129  H24 UNL A   1      40.760  43.586  19.442  1.00  0.00    +0.000 H 
ATOM    130  H25 UNL A   1      41.927  42.630  18.468  1.00  0.00    +0.000 H 
ATOM     29  C20 UNL A   1      41.783  43.418  19.178  1.00  0.00    +0.000 C 
BRANCH   29   28
ATOM     28  C19 UNL A   1      42.527  42.976  20.444  1.00  0.00    +0.000 C 
ATOM    127  H22 UNL A   1      42.913  41.993  20.272  1.00  0.00    +0.000 H 
ATOM    128  H23 UNL A   1      43.282  43.715  20.612  1.00  0.00    +0.000 H 
BRANCH   28   27
ATOM     27  C18 UNL A   1      41.693  42.935  21.726  1.00  0.00    +0.000 C 
ATOM    125  H20 UNL A   1      40.751  43.404  21.532  1.00  0.00    +0.000 H 
ATOM    126  H21 UNL A   1      41.588  41.905  21.998  1.00  0.00    +0.000 H 
BRANCH   27   26
ATOM     26  C17 UNL A   1      42.344  43.639  22.898  1.00  0.00    +0.000 C 
ATOM    123  H18 UNL A   1      42.233  44.695  22.772  1.00  0.00    +0.000 H 
ATOM    124  H19 UNL A   1      41.862  43.304  23.793  1.00  0.00    +0.000 H 
BRANCH   26   25
ATOM     25  N1  UNL A   1      43.750  43.325  23.003  1.00  0.00    +0.000 N 
ATOM    122  H17 UNL A   1      44.028  42.394  22.843  1.00  0.00    +0.000 H 
BRANCH   25   23
ATOM     23  C16 UNL A   1      44.719  44.236  23.309  1.00  0.00    +0.000 C 
ATOM     24  O8  UNL A   1      44.861  45.252  22.650  1.00  0.00    +0.000 O 
BRANCH   23   22
ATOM      2  C2  UNL A   1      50.492  42.264  23.951  1.00  0.00    +0.000 C 
ATOM      3  C3  UNL A   1      51.193  41.512  25.022  1.00  0.00    +0.000 C 
ATOM      4  O1  UNL A   1      52.232  40.902  24.921  1.00  0.00    +0.000 O 
ATOM      5  O2  UNL A   1      50.399  41.601  26.126  1.00  0.00    +0.000 O 
ATOM      6  C4  UNL A   1      49.170  42.311  25.815  1.00  0.00    +0.000 C 
ATOM      7  C5  UNL A   1      49.045  42.174  24.303  1.00  0.00    +0.000 C 
ATOM      8  C6  UNL A   1      47.992  42.988  23.535  1.00  0.00    +0.000 C 
ATOM     17  C12 UNL A   1      46.543  42.735  24.117  1.00  0.00    +0.000 C 
ATOM     22  C15 UNL A   1      45.612  43.888  24.471  1.00  0.00    +0.000 C 
ATOM    150  H45 UNL A   1      44.759  45.521  25.184  1.00  0.00    +0.000 H 
ATOM    152  H47 UNL A   1      47.247  44.893  28.666  1.00  0.00    +0.000 H 
ATOM    151  H46 UNL A   1      44.888  45.590  26.908  1.00  0.00    +0.000 H 
ATOM    156  H51 UNL A   1      49.872  43.963  25.557  1.00  0.00    +0.000 H 
ATOM     98  C68 UNL A   1      45.307  44.705  25.500  1.00  0.00    +0.000 C 
ATOM     99  C69 UNL A   1      45.544  44.745  26.941  1.00  0.00    +0.000 C 
ATOM    100  O10 UNL A   1      45.780  43.510  27.603  1.00  0.00    +0.000 O 
ATOM    101  C70 UNL A   1      46.772  44.504  27.790  1.00  0.00    +0.000 C 
ATOM    102  C71 UNL A   1      48.127  44.549  27.080  1.00  0.00    +0.000 C 
ATOM    104  O11 UNL A   1      49.088  43.736  27.788  1.00  0.00    +0.000 O 
ATOM    105  C73 UNL A   1      49.231  43.695  26.371  1.00  0.00    +0.000 C 
ATOM    108  H3  UNL A   1      48.279  41.924  26.264  1.00  0.00    +0.000 H 
ATOM    109  H4  UNL A   1      48.564  41.279  23.965  1.00  0.00    +0.000 H 
ATOM    110  H5  UNL A   1      47.975  42.634  22.525  1.00  0.00    +0.000 H 
ATOM    118  H13 UNL A   1      45.842  42.961  23.340  1.00  0.00    +0.000 H 
BRANCH    2    1
ATOM      1  C1  UNL A   1      51.178  42.929  23.019  1.00  0.00    +0.000 C 
ATOM    106  H1  UNL A   1      50.677  43.421  22.262  1.00  0.00    +0.000 H 
ATOM    107  H2  UNL A   1      52.208  42.951  23.054  1.00  0.00    +0.000 H 
ENDBRANCH    2    1
BRANCH    8    9
ATOM      9  O3  UNL A   1      48.344  44.383  23.425  1.00  0.00    +0.000 O 
BRANCH    9   10
ATOM     10  C7  UNL A   1      48.156  45.167  22.301  1.00  0.00    +0.000 C 
ATOM     11  O4  UNL A   1      48.105  46.385  22.462  1.00  0.00    +0.000 O 
BRANCH   10   12
ATOM    114  H9  UNL A   1      47.940  42.862  19.409  1.00  0.00    +0.000 H 
ATOM     12  C8  UNL A   1      48.443  44.619  20.908  1.00  0.00    +0.000 C 
ATOM     14  O5  UNL A   1      47.441  45.112  19.975  1.00  0.00    +0.000 O 
ATOM     15  C10 UNL A   1      47.603  43.705  19.975  1.00  0.00    +0.000 C 
BRANCH   12   13
ATOM    113  H8  UNL A   1      50.407  45.417  21.134  1.00  0.00    +0.000 H 
ATOM     13  C9  UNL A   1      49.815  44.981  20.357  1.00  0.00    +0.000 C 
ATOM    111  H6  UNL A   1      49.702  45.685  19.558  1.00  0.00    +0.000 H 
ATOM    112  H7  UNL A   1      50.297  44.100  19.991  1.00  0.00    +0.000 H 
ENDBRANCH   12   13
BRANCH   15   16
ATOM    115  H10 UNL A   1      46.164  42.305  19.376  1.00  0.00    +0.000 H 
ATOM    116  H11 UNL A   1      45.520  43.699  20.210  1.00  0.00    +0.000 H 
ATOM    117  H12 UNL A   1      46.359  42.454  21.106  1.00  0.00    +0.000 H 
ATOM     16  C11 UNL A   1      46.322  42.992  20.181  1.00  0.00    +0.000 C 
ENDBRANCH   15   16
ENDBRANCH   10   12
ENDBRANCH    9   10
ENDBRANCH    8    9
BRANCH   17   18
ATOM     18  O6  UNL A   1      46.233  41.331  24.475  1.00  0.00    +0.000 O 
BRANCH   18   19
ATOM     19  C13 UNL A   1      45.739  40.537  25.429  1.00  0.00    +0.000 C 
ATOM     21  O7  UNL A   1      46.472  39.701  25.955  1.00  0.00    +0.000 O 
BRANCH   19   20
ATOM    121  H16 UNL A   1      44.152  41.708  26.129  1.00  0.00    +0.000 H 
ATOM     20  C14 UNL A   1      44.350  40.680  25.907  1.00  0.00    +0.000 C 
ATOM    119  H14 UNL A   1      44.214  40.093  26.791  1.00  0.00    +0.000 H 
ATOM    120  H15 UNL A   1      43.675  40.343  25.148  1.00  0.00    +0.000 H 
ENDBRANCH   19   20
ENDBRANCH   18   19
ENDBRANCH   17   18
BRANCH  102  103
ATOM    153  H48 UNL A   1      49.602  46.089  26.923  1.00  0.00    +0.000 H 
ATOM    154  H49 UNL A   1      48.280  46.474  27.998  1.00  0.00    +0.000 H 
ATOM    155  H50 UNL A   1      48.042  46.525  26.268  1.00  0.00    +0.000 H 
ATOM    103  C72 UNL A   1      48.544  46.020  27.067  1.00  0.00    +0.000 C 
ENDBRANCH  102  103
ENDBRANCH   23   22
ENDBRANCH   25   23
ENDBRANCH   26   25
ENDBRANCH   27   26
ENDBRANCH   28   27
ENDBRANCH   29   28
ENDBRANCH   30   29
ENDBRANCH   31   30
ENDBRANCH   32   31
ENDBRANCH   33   32
ENDBRANCH   35   33
ENDBRANCH   39   38
BRANCH   43   44
ATOM     44  C32 UNL A   1      50.595  49.245  22.284  1.00  0.00    +0.000 C 
ATOM     45  C33 UNL A   1      51.315  48.090  21.938  1.00  0.00    +0.000 C 
ATOM     46  F1  UNL A   1      51.689  47.883  20.666  1.00  0.00    +0.000 F 
ATOM     47  C34 UNL A   1      51.614  47.119  22.890  1.00  0.00    +0.000 C 
ATOM     48  F2  UNL A   1      52.253  45.999  22.525  1.00  0.00    +0.000 F 
ATOM     49  C35 UNL A   1      51.240  47.302  24.212  1.00  0.00    +0.000 C 
ATOM     50  F3  UNL A   1      51.538  46.371  25.130  1.00  0.00    +0.000 F 
ATOM     51  C36 UNL A   1      50.551  48.446  24.583  1.00  0.00    +0.000 C 
ATOM     52  F4  UNL A   1      50.202  48.633  25.863  1.00  0.00    +0.000 F 
ATOM     53  C37 UNL A   1      50.218  49.403  23.626  1.00  0.00    +0.000 C 
ATOM     54  F5  UNL A   1      49.532  50.489  24.013  1.00  0.00    +0.000 F 
ENDBRANCH   43   44
BRANCH   60   61
ATOM     65  F7  UNL A   1      54.392  58.267  22.053  1.00  0.00    +0.000 F 
ATOM     66  C46 UNL A   1      55.591  57.049  20.424  1.00  0.00    +0.000 C 
ATOM     67  F8  UNL A   1      56.684  57.792  20.652  1.00  0.00    +0.000 F 
ATOM     68  C47 UNL A   1      55.618  56.052  19.461  1.00  0.00    +0.000 C 
ATOM     69  F9  UNL A   1      56.745  55.812  18.776  1.00  0.00    +0.000 F 
ATOM     70  C48 UNL A   1      54.477  55.298  19.205  1.00  0.00    +0.000 C 
ATOM     71  F10 UNL A   1      54.531  54.351  18.257  1.00  0.00    +0.000 F 
ATOM     61  C43 UNL A   1      53.294  55.507  19.931  1.00  0.00    +0.000 C 
ATOM     62  C44 UNL A   1      53.296  56.506  20.916  1.00  0.00    +0.000 C 
ATOM     63  F6  UNL A   1      52.188  56.755  21.629  1.00  0.00    +0.000 F 
ATOM     64  C45 UNL A   1      54.429  57.283  21.144  1.00  0.00    +0.000 C 
ENDBRANCH   60   61
BRANCH   75   76
ATOM     76  C52 UNL A   1      47.862  56.181  15.610  1.00  0.00    +0.000 C 
ATOM     77  C53 UNL A   1      48.139  56.049  14.242  1.00  0.00    +0.000 C 
ATOM     78  F11 UNL A   1      48.793  54.967  13.793  1.00  0.00    +0.000 F 
ATOM     79  C54 UNL A   1      47.787  57.046  13.335  1.00  0.00    +0.000 C 
ATOM     80  F12 UNL A   1      48.112  56.918  12.042  1.00  0.00    +0.000 F 
ATOM     81  C55 UNL A   1      47.118  58.179  13.772  1.00  0.00    +0.000 C 
ATOM     82  F13 UNL A   1      46.778  59.137  12.900  1.00  0.00    +0.000 F 
ATOM     83  C56 UNL A   1      46.811  58.322  15.117  1.00  0.00    +0.000 C 
ATOM     84  F14 UNL A   1      46.151  59.407  15.542  1.00  0.00    +0.000 F 
ATOM     85  C57 UNL A   1      47.192  57.341  16.029  1.00  0.00    +0.000 C 
ATOM     86  F15 UNL A   1      46.898  57.514  17.326  1.00  0.00    +0.000 F 
ENDBRANCH   75   76
TORSDOF 25
ENDMDL
MODEL 9
REMARK VINA RESULT:      -9.7     22.686     30.368
ROOT
ATOM    138  H33 UNL A   1      19.050  53.123  -1.386  1.00  0.00    +0.000 H 
ATOM    139  H34 UNL A   1      18.427  50.636  -1.855  1.00  0.00    +0.000 H 
ATOM    140  H35 UNL A   1      16.045  52.012   1.238  1.00  0.00    +0.000 H 
ATOM    141  H36 UNL A   1      11.698  50.864   5.775  1.00  0.00    +0.000 H 
ATOM    142  H37 UNL A   1      12.207  53.327   6.128  1.00  0.00    +0.000 H 
ATOM    143  H38 UNL A   1      14.574  51.978   2.988  1.00  0.00    +0.000 H 
ATOM    144  H39 UNL A   1      13.296  47.186   2.232  1.00  0.00    +0.000 H 
ATOM    145  H40 UNL A   1      15.133  47.117   0.454  1.00  0.00    +0.000 H 
ATOM    146  H41 UNL A   1      16.988  56.890   1.842  1.00  0.00    +0.000 H 
ATOM    147  H42 UNL A   1      15.546  56.853   3.958  1.00  0.00    +0.000 H 
ATOM     39  C28 UNL A   1      14.210  54.372   4.389  1.00  0.00    +0.000 C 
ATOM     40  C29 UNL A   1      15.228  54.697   3.332  1.00  0.00    +0.000 C 
ATOM     41  N3  UNL A   1      15.724  53.928   2.395  1.00  0.00    +0.000 N 
ATOM     42  C30 UNL A   1      16.592  54.731   1.670  1.00  0.00    +0.000 C 
ATOM     43  C31 UNL A   1      17.405  54.382   0.645  1.00  0.00    +0.000 C 
ATOM     55  C38 UNL A   1      17.493  53.051   0.105  1.00  0.00    +0.000 C 
ATOM     56  C39 UNL A   1      18.323  52.580  -0.897  1.00  0.00    +0.000 C 
ATOM     57  C40 UNL A   1      18.005  51.239  -1.131  1.00  0.00    +0.000 C 
ATOM     58  C41 UNL A   1      17.025  50.854  -0.229  1.00  0.00    +0.000 C 
ATOM     59  N4  UNL A   1      16.717  51.978   0.519  1.00  0.00    +0.000 N 
ATOM     60  C42 UNL A   1      16.419  49.557  -0.061  1.00  0.00    +0.000 C 
ATOM     72  C49 UNL A   1      15.467  49.255   0.855  1.00  0.00    +0.000 C 
ATOM     73  N5  UNL A   1      14.881  50.074   1.810  1.00  0.00    +0.000 N 
ATOM     74  C50 UNL A   1      14.011  49.326   2.444  1.00  0.00    +0.000 C 
ATOM     75  C51 UNL A   1      13.113  49.682   3.598  1.00  0.00    +0.000 C 
ATOM     87  C58 UNL A   1      13.162  50.928   4.103  1.00  0.00    +0.000 C 
ATOM     88  C59 UNL A   1      12.368  51.423   5.223  1.00  0.00    +0.000 C 
ATOM     89  C60 UNL A   1      12.647  52.721   5.418  1.00  0.00    +0.000 C 
ATOM     90  C61 UNL A   1      13.676  53.138   4.464  1.00  0.00    +0.000 C 
ATOM     91  N6  UNL A   1      13.920  52.009   3.723  1.00  0.00    +0.000 N 
ATOM     92  C62 UNL A   1      13.924  47.950   1.938  1.00  0.00    +0.000 C 
ATOM     93  C63 UNL A   1      14.864  47.946   1.004  1.00  0.00    +0.000 C 
ATOM     94  C64 UNL A   1      16.509  56.062   2.230  1.00  0.00    +0.000 C 
ATOM     95  C65 UNL A   1      15.738  56.077   3.307  1.00  0.00    +0.000 C 
ENDROOT
BRANCH   39   38
ATOM     97  C67 UNL A   1      12.241  57.248   5.835  1.00  0.00    +0.000 C 
ATOM     35  C24 UNL A   1      12.840  57.383   7.091  1.00  0.00    +0.000 C 
ATOM     36  C25 UNL A   1      13.936  56.594   7.445  1.00  0.00    +0.000 C 
ATOM     37  C26 UNL A   1      14.406  55.634   6.551  1.00  0.00    +0.000 C 
ATOM     38  C27 UNL A   1      13.751  55.426   5.325  1.00  0.00    +0.000 C 
ATOM    136  H31 UNL A   1      14.393  56.721   8.360  1.00  0.00    +0.000 H 
ATOM    137  H32 UNL A   1      15.238  55.073   6.791  1.00  0.00    +0.000 H 
ATOM    148  H43 UNL A   1      12.164  56.079   4.087  1.00  0.00    +0.000 H 
ATOM    149  H44 UNL A   1      11.494  57.898   5.545  1.00  0.00    +0.000 H 
ATOM     96  C66 UNL A   1      12.659  56.235   4.979  1.00  0.00    +0.000 C 
BRANCH   35   33
ATOM     33  C23 UNL A   1      12.304  58.332   8.086  1.00  0.00    +0.000 C 
ATOM     34  O9  UNL A   1      13.050  59.128   8.643  1.00  0.00    +0.000 O 
BRANCH   33   32
ATOM    135  H30 UNL A   1      10.374  58.808   7.822  1.00  0.00    +0.000 H 
ATOM     32  N2  UNL A   1      10.972  58.280   8.399  1.00  0.00    +0.000 N 
BRANCH   32   31
ATOM    133  H28 UNL A   1       9.841  58.248  10.119  1.00  0.00    +0.000 H 
ATOM    134  H29 UNL A   1       9.631  56.869   9.027  1.00  0.00    +0.000 H 
ATOM     31  C22 UNL A   1      10.327  57.548   9.473  1.00  0.00    +0.000 C 
BRANCH   31   30
ATOM    131  H26 UNL A   1      12.299  57.001  10.011  1.00  0.00    +0.000 H 
ATOM    132  H27 UNL A   1      11.086  56.936  11.323  1.00  0.00    +0.000 H 
ATOM     30  C21 UNL A   1      11.306  56.723  10.298  1.00  0.00    +0.000 C 
BRANCH   30   29
ATOM    129  H24 UNL A   1      12.063  54.756  10.517  1.00  0.00    +0.000 H 
ATOM    130  H25 UNL A   1      10.282  54.938  10.667  1.00  0.00    +0.000 H 
ATOM     29  C20 UNL A   1      11.171  55.208  10.136  1.00  0.00    +0.000 C 
BRANCH   29   28
ATOM     28  C19 UNL A   1      10.965  54.703   8.702  1.00  0.00    +0.000 C 
ATOM    127  H22 UNL A   1      10.454  55.468   8.155  1.00  0.00    +0.000 H 
ATOM    128  H23 UNL A   1      11.943  54.481   8.328  1.00  0.00    +0.000 H 
BRANCH   28   27
ATOM     27  C18 UNL A   1      10.162  53.409   8.561  1.00  0.00    +0.000 C 
ATOM    125  H20 UNL A   1       9.868  53.303   7.538  1.00  0.00    +0.000 H 
ATOM    126  H21 UNL A   1      10.796  52.610   8.887  1.00  0.00    +0.000 H 
BRANCH   27   26
ATOM     26  C17 UNL A   1       8.918  53.368   9.423  1.00  0.00    +0.000 C 
ATOM    123  H18 UNL A   1       8.949  54.183  10.115  1.00  0.00    +0.000 H 
ATOM    124  H19 UNL A   1       8.067  53.441   8.778  1.00  0.00    +0.000 H 
BRANCH   26   25
ATOM     25  N1  UNL A   1       8.814  52.130  10.162  1.00  0.00    +0.000 N 
ATOM    122  H17 UNL A   1       8.059  51.534   9.957  1.00  0.00    +0.000 H 
BRANCH   25   23
ATOM     23  C16 UNL A   1       9.697  51.734  11.124  1.00  0.00    +0.000 C 
ATOM     24  O8  UNL A   1      10.110  52.518  11.963  1.00  0.00    +0.000 O 
BRANCH   23   22
ATOM      2  C2  UNL A   1      14.708  48.811   9.134  1.00  0.00    +0.000 C 
ATOM      3  C3  UNL A   1      14.954  47.425   8.664  1.00  0.00    +0.000 C 
ATOM      4  O1  UNL A   1      15.888  47.036   8.002  1.00  0.00    +0.000 O 
ATOM      5  O2  UNL A   1      13.883  46.691   9.081  1.00  0.00    +0.000 O 
ATOM      6  C4  UNL A   1      12.906  47.542   9.737  1.00  0.00    +0.000 C 
ATOM      7  C5  UNL A   1      13.223  48.935   9.207  1.00  0.00    +0.000 C 
ATOM      8  C6  UNL A   1      12.563  50.172   9.834  1.00  0.00    +0.000 C 
ATOM     17  C12 UNL A   1      10.986  50.047   9.813  1.00  0.00    +0.000 C 
ATOM     22  C15 UNL A   1      10.148  50.299  11.059  1.00  0.00    +0.000 C 
ATOM    150  H45 UNL A   1       9.337  50.311  12.861  1.00  0.00    +0.000 H 
ATOM    152  H47 UNL A   1      10.564  46.169  13.072  1.00  0.00    +0.000 H 
ATOM    151  H46 UNL A   1       8.950  48.707  13.382  1.00  0.00    +0.000 H 
ATOM    156  H51 UNL A   1      13.858  47.947  11.226  1.00  0.00    +0.000 H 
ATOM     98  C68 UNL A   1       9.655  49.650  12.135  1.00  0.00    +0.000 C 
ATOM     99  C69 UNL A   1       9.452  48.264  12.547  1.00  0.00    +0.000 C 
ATOM    100  O10 UNL A   1       9.319  47.285  11.525  1.00  0.00    +0.000 O 
ATOM    101  C70 UNL A   1      10.327  47.032  12.485  1.00  0.00    +0.000 C 
ATOM    102  C71 UNL A   1      11.827  47.255  12.277  1.00  0.00    +0.000 C 
ATOM    104  O11 UNL A   1      12.419  46.102  11.640  1.00  0.00    +0.000 O 
ATOM    105  C73 UNL A   1      12.974  47.344  11.215  1.00  0.00    +0.000 C 
ATOM    108  H3  UNL A   1      11.879  47.327   9.526  1.00  0.00    +0.000 H 
ATOM    109  H4  UNL A   1      12.756  49.186   8.278  1.00  0.00    +0.000 H 
ATOM    110  H5  UNL A   1      12.804  51.018   9.225  1.00  0.00    +0.000 H 
ATOM    118  H13 UNL A   1      10.585  51.038   9.855  1.00  0.00    +0.000 H 
BRANCH    2    1
ATOM      1  C1  UNL A   1      15.721  49.603   9.494  1.00  0.00    +0.000 C 
ATOM    106  H1  UNL A   1      15.846  49.863  10.485  1.00  0.00    +0.000 H 
ATOM    107  H2  UNL A   1      16.379  49.955   8.782  1.00  0.00    +0.000 H 
ENDBRANCH    2    1
BRANCH    8    9
ATOM      9  O3  UNL A   1      13.107  50.493  11.131  1.00  0.00    +0.000 O 
BRANCH    9   10
ATOM     10  C7  UNL A   1      13.623  51.723  11.499  1.00  0.00    +0.000 C 
ATOM     11  O4  UNL A   1      13.385  52.679  10.765  1.00  0.00    +0.000 O 
BRANCH   10   12
ATOM    114  H9  UNL A   1      13.297  52.402  15.126  1.00  0.00    +0.000 H 
ATOM     12  C8  UNL A   1      14.071  51.985  12.932  1.00  0.00    +0.000 C 
ATOM     14  O5  UNL A   1      14.124  50.727  13.662  1.00  0.00    +0.000 O 
ATOM     15  C10 UNL A   1      13.357  51.739  14.288  1.00  0.00    +0.000 C 
BRANCH   12   13
ATOM    113  H8  UNL A   1      15.310  53.719  13.007  1.00  0.00    +0.000 H 
ATOM     13  C9  UNL A   1      15.431  52.657  13.056  1.00  0.00    +0.000 C 
ATOM    111  H6  UNL A   1      16.062  52.332  12.255  1.00  0.00    +0.000 H 
ATOM    112  H7  UNL A   1      15.877  52.391  13.992  1.00  0.00    +0.000 H 
ENDBRANCH   12   13
BRANCH   15   16
ATOM    115  H10 UNL A   1      11.384  51.300  13.731  1.00  0.00    +0.000 H 
ATOM    116  H11 UNL A   1      11.559  51.933  15.350  1.00  0.00    +0.000 H 
ATOM    117  H12 UNL A   1      12.025  50.285  15.000  1.00  0.00    +0.000 H 
ATOM     16  C11 UNL A   1      11.986  51.283  14.615  1.00  0.00    +0.000 C 
ENDBRANCH   15   16
ENDBRANCH   10   12
ENDBRANCH    9   10
ENDBRANCH    8    9
BRANCH   17   18
ATOM     18  O6  UNL A   1      10.405  49.484   8.570  1.00  0.00    +0.000 O 
BRANCH   18   19
ATOM     19  C13 UNL A   1       9.309  49.434   7.810  1.00  0.00    +0.000 C 
ATOM     21  O7  UNL A   1       8.351  48.756   8.180  1.00  0.00    +0.000 O 
BRANCH   19   20
ATOM    121  H16 UNL A   1       8.166  50.334   6.307  1.00  0.00    +0.000 H 
ATOM     20  C14 UNL A   1       9.197  50.219   6.565  1.00  0.00    +0.000 C 
ATOM    119  H14 UNL A   1       9.708  49.710   5.775  1.00  0.00    +0.000 H 
ATOM    120  H15 UNL A   1       9.638  51.183   6.712  1.00  0.00    +0.000 H 
ENDBRANCH   19   20
ENDBRANCH   18   19
ENDBRANCH   17   18
BRANCH  102  103
ATOM    153  H48 UNL A   1      13.467  47.652  13.590  1.00  0.00    +0.000 H 
ATOM    154  H49 UNL A   1      12.235  46.623  14.278  1.00  0.00    +0.000 H 
ATOM    155  H50 UNL A   1      11.949  48.339  14.117  1.00  0.00    +0.000 H 
ATOM    103  C72 UNL A   1      12.414  47.484  13.671  1.00  0.00    +0.000 C 
ENDBRANCH  102  103
ENDBRANCH   23   22
ENDBRANCH   25   23
ENDBRANCH   26   25
ENDBRANCH   27   26
ENDBRANCH   28   27
ENDBRANCH   29   28
ENDBRANCH   30   29
ENDBRANCH   31   30
ENDBRANCH   32   31
ENDBRANCH   33   32
ENDBRANCH   35   33
ENDBRANCH   39   38
BRANCH   43   44
ATOM     44  C32 UNL A   1      18.263  55.458   0.039  1.00  0.00    +0.000 C 
ATOM     45  C33 UNL A   1      17.903  56.108  -1.153  1.00  0.00    +0.000 C 
ATOM     46  F1  UNL A   1      16.790  55.747  -1.809  1.00  0.00    +0.000 F 
ATOM     47  C34 UNL A   1      18.710  57.101  -1.700  1.00  0.00    +0.000 C 
ATOM     48  F2  UNL A   1      18.373  57.668  -2.868  1.00  0.00    +0.000 F 
ATOM     49  C35 UNL A   1      19.868  57.495  -1.048  1.00  0.00    +0.000 C 
ATOM     50  F3  UNL A   1      20.639  58.459  -1.571  1.00  0.00    +0.000 F 
ATOM     51  C36 UNL A   1      20.231  56.887   0.143  1.00  0.00    +0.000 C 
ATOM     52  F4  UNL A   1      21.341  57.277   0.783  1.00  0.00    +0.000 F 
ATOM     53  C37 UNL A   1      19.445  55.867   0.675  1.00  0.00    +0.000 C 
ATOM     54  F5  UNL A   1      19.836  55.283   1.818  1.00  0.00    +0.000 F 
ENDBRANCH   43   44
BRANCH   60   61
ATOM     65  F7  UNL A   1      15.964  46.665  -3.997  1.00  0.00    +0.000 F 
ATOM     66  C46 UNL A   1      17.863  46.400  -2.620  1.00  0.00    +0.000 C 
ATOM     67  F8  UNL A   1      18.318  45.418  -3.412  1.00  0.00    +0.000 F 
ATOM     68  C47 UNL A   1      18.580  46.769  -1.492  1.00  0.00    +0.000 C 
ATOM     69  F9  UNL A   1      19.740  46.162  -1.206  1.00  0.00    +0.000 F 
ATOM     70  C48 UNL A   1      18.096  47.770  -0.655  1.00  0.00    +0.000 C 
ATOM     71  F10 UNL A   1      18.804  48.094   0.437  1.00  0.00    +0.000 F 
ATOM     61  C43 UNL A   1      16.899  48.444  -0.950  1.00  0.00    +0.000 C 
ATOM     62  C44 UNL A   1      16.204  48.069  -2.109  1.00  0.00    +0.000 C 
ATOM     63  F6  UNL A   1      15.049  48.672  -2.428  1.00  0.00    +0.000 F 
ATOM     64  C45 UNL A   1      16.672  47.042  -2.924  1.00  0.00    +0.000 C 
ENDBRANCH   60   61
BRANCH   75   76
ATOM     76  C52 UNL A   1      12.195  48.673   4.192  1.00  0.00    +0.000 C 
ATOM     77  C53 UNL A   1      12.600  47.870   5.267  1.00  0.00    +0.000 C 
ATOM     78  F11 UNL A   1      13.838  48.000   5.769  1.00  0.00    +0.000 F 
ATOM     79  C54 UNL A   1      11.757  46.899   5.801  1.00  0.00    +0.000 C 
ATOM     80  F12 UNL A   1      12.191  46.109   6.793  1.00  0.00    +0.000 F 
ATOM     81  C55 UNL A   1      10.475  46.736   5.296  1.00  0.00    +0.000 C 
ATOM     82  F13 UNL A   1       9.663  45.804   5.811  1.00  0.00    +0.000 F 
ATOM     83  C56 UNL A   1      10.041  47.535   4.249  1.00  0.00    +0.000 C 
ATOM     84  F14 UNL A   1       8.799  47.393   3.768  1.00  0.00    +0.000 F 
ATOM     85  C57 UNL A   1      10.897  48.483   3.692  1.00  0.00    +0.000 C 
ATOM     86  F15 UNL A   1      10.456  49.229   2.669  1.00  0.00    +0.000 F 
ENDBRANCH   75   76
TORSDOF 25
ENDMDL
MODEL 10
REMARK VINA RESULT:      -9.7     23.451     31.233
ROOT
ATOM    138  H33 UNL A   1      13.740  47.192   2.688  1.00  0.00    +0.000 H 
ATOM    139  H34 UNL A   1      15.434  47.260   0.708  1.00  0.00    +0.000 H 
ATOM    140  H35 UNL A   1      15.258  51.034   2.398  1.00  0.00    +0.000 H 
ATOM    141  H36 UNL A   1      16.914  57.202   2.292  1.00  0.00    +0.000 H 
ATOM    142  H37 UNL A   1      15.375  57.093   4.309  1.00  0.00    +0.000 H 
ATOM    143  H38 UNL A   1      15.575  53.284   2.656  1.00  0.00    +0.000 H 
ATOM    144  H39 UNL A   1      18.829  53.581  -1.151  1.00  0.00    +0.000 H 
ATOM    145  H40 UNL A   1      18.280  51.130  -1.635  1.00  0.00    +0.000 H 
ATOM    146  H41 UNL A   1      12.305  50.769   6.431  1.00  0.00    +0.000 H 
ATOM    147  H42 UNL A   1      12.424  53.319   6.621  1.00  0.00    +0.000 H 
ATOM     39  C28 UNL A   1      14.238  54.521   4.779  1.00  0.00    +0.000 C 
ATOM     40  C29 UNL A   1      13.825  53.078   4.854  1.00  0.00    +0.000 C 
ATOM     41  N3  UNL A   1      14.194  52.071   4.104  1.00  0.00    +0.000 N 
ATOM     42  C30 UNL A   1      13.549  50.958   4.624  1.00  0.00    +0.000 C 
ATOM     43  C31 UNL A   1      13.547  49.688   4.154  1.00  0.00    +0.000 C 
ATOM     55  C38 UNL A   1      14.264  49.263   2.980  1.00  0.00    +0.000 C 
ATOM     56  C39 UNL A   1      14.286  48.013   2.388  1.00  0.00    +0.000 C 
ATOM     57  C40 UNL A   1      15.177  48.057   1.311  1.00  0.00    +0.000 C 
ATOM     58  C41 UNL A   1      15.658  49.351   1.189  1.00  0.00    +0.000 C 
ATOM     59  N4  UNL A   1      15.094  50.079   2.224  1.00  0.00    +0.000 N 
ATOM     60  C42 UNL A   1      16.562  49.884   0.200  1.00  0.00    +0.000 C 
ATOM     72  C49 UNL A   1      16.982  51.171   0.142  1.00  0.00    +0.000 C 
ATOM     73  N5  UNL A   1      16.655  52.236   0.970  1.00  0.00    +0.000 N 
ATOM     74  C50 UNL A   1      17.324  53.267   0.514  1.00  0.00    +0.000 C 
ATOM     75  C51 UNL A   1      17.327  54.691   1.003  1.00  0.00    +0.000 C 
ATOM     87  C58 UNL A   1      16.553  55.022   2.053  1.00  0.00    +0.000 C 
ATOM     88  C59 UNL A   1      16.437  56.354   2.637  1.00  0.00    +0.000 C 
ATOM     89  C60 UNL A   1      15.613  56.299   3.694  1.00  0.00    +0.000 C 
ATOM     90  C61 UNL A   1      15.106  54.933   3.835  1.00  0.00    +0.000 C 
ATOM     91  N6  UNL A   1      15.718  54.244   2.819  1.00  0.00    +0.000 N 
ATOM     92  C62 UNL A   1      18.179  52.964  -0.641  1.00  0.00    +0.000 C 
ATOM     93  C63 UNL A   1      17.897  51.686  -0.856  1.00  0.00    +0.000 C 
ATOM     94  C64 UNL A   1      12.819  51.396   5.792  1.00  0.00    +0.000 C 
ATOM     95  C65 UNL A   1      12.895  52.711   5.934  1.00  0.00    +0.000 C 
ENDROOT
BRANCH   39   38
ATOM     97  C67 UNL A   1      13.951  56.581   7.928  1.00  0.00    +0.000 C 
ATOM     35  C24 UNL A   1      12.814  57.346   7.649  1.00  0.00    +0.000 C 
ATOM     36  C25 UNL A   1      12.091  57.143   6.473  1.00  0.00    +0.000 C 
ATOM     37  C26 UNL A   1      12.535  56.197   5.551  1.00  0.00    +0.000 C 
ATOM     38  C27 UNL A   1      13.728  55.491   5.777  1.00  0.00    +0.000 C 
ATOM    136  H31 UNL A   1      11.235  57.688   6.289  1.00  0.00    +0.000 H 
ATOM    137  H32 UNL A   1      11.985  56.016   4.696  1.00  0.00    +0.000 H 
ATOM    148  H43 UNL A   1      15.322  55.194   7.138  1.00  0.00    +0.000 H 
ATOM    149  H44 UNL A   1      14.425  56.670   8.840  1.00  0.00    +0.000 H 
ATOM     96  C66 UNL A   1      14.437  55.698   6.970  1.00  0.00    +0.000 C 
BRANCH   35   33
ATOM     33  C23 UNL A   1      12.377  58.412   8.571  1.00  0.00    +0.000 C 
ATOM     34  O9  UNL A   1      13.091  59.387   8.770  1.00  0.00    +0.000 O 
BRANCH   33   32
ATOM    135  H30 UNL A   1      10.392  58.134   8.651  1.00  0.00    +0.000 H 
ATOM     32  N2  UNL A   1      11.181  58.272   9.225  1.00  0.00    +0.000 N 
BRANCH   32   31
ATOM    133  H28 UNL A   1      11.780  57.901  11.159  1.00  0.00    +0.000 H 
ATOM    134  H29 UNL A   1      10.745  59.320  10.926  1.00  0.00    +0.000 H 
ATOM     31  C22 UNL A   1      10.926  58.302  10.652  1.00  0.00    +0.000 C 
BRANCH   31   30
ATOM    131  H26 UNL A   1       9.198  58.019  11.839  1.00  0.00    +0.000 H 
ATOM    132  H27 UNL A   1       9.107  57.392  10.168  1.00  0.00    +0.000 H 
ATOM     30  C21 UNL A   1       9.700  57.494  11.052  1.00  0.00    +0.000 C 
BRANCH   30   29
ATOM    129  H24 UNL A   1       9.284  55.838  12.306  1.00  0.00    +0.000 H 
ATOM    130  H25 UNL A   1       9.922  55.450  10.673  1.00  0.00    +0.000 H 
ATOM     29  C20 UNL A   1       9.992  56.074  11.539  1.00  0.00    +0.000 C 
BRANCH   29   28
ATOM     28  C19 UNL A   1      11.396  55.836  12.108  1.00  0.00    +0.000 C 
ATOM    127  H22 UNL A   1      12.040  55.576  11.294  1.00  0.00    +0.000 H 
ATOM    128  H23 UNL A   1      11.668  56.745  12.603  1.00  0.00    +0.000 H 
BRANCH   28   27
ATOM     27  C18 UNL A   1      11.509  54.737  13.165  1.00  0.00    +0.000 C 
ATOM    125  H20 UNL A   1      11.398  55.184  14.132  1.00  0.00    +0.000 H 
ATOM    126  H21 UNL A   1      10.739  54.022  12.957  1.00  0.00    +0.000 H 
BRANCH   27   26
ATOM     26  C17 UNL A   1      12.826  53.991  13.132  1.00  0.00    +0.000 C 
ATOM    123  H18 UNL A   1      13.481  54.479  12.441  1.00  0.00    +0.000 H 
ATOM    124  H19 UNL A   1      13.234  53.997  14.121  1.00  0.00    +0.000 H 
BRANCH   26   25
ATOM     25  N1  UNL A   1      12.657  52.615  12.725  1.00  0.00    +0.000 N 
ATOM    122  H17 UNL A   1      11.959  52.085  13.172  1.00  0.00    +0.000 H 
BRANCH   25   23
ATOM     23  C16 UNL A   1      13.402  52.002  11.761  1.00  0.00    +0.000 C 
ATOM     24  O8  UNL A   1      14.538  52.371  11.511  1.00  0.00    +0.000 O 
BRANCH   23   22
ATOM      2  C2  UNL A   1      12.527  46.005  12.703  1.00  0.00    +0.000 C 
ATOM      3  C3  UNL A   1      12.276  44.861  11.791  1.00  0.00    +0.000 C 
ATOM      4  O1  UNL A   1      12.431  43.688  12.037  1.00  0.00    +0.000 O 
ATOM      5  O2  UNL A   1      11.893  45.406  10.601  1.00  0.00    +0.000 O 
ATOM      6  C4  UNL A   1      11.952  46.856  10.662  1.00  0.00    +0.000 C 
ATOM      7  C5  UNL A   1      12.916  47.133  11.808  1.00  0.00    +0.000 C 
ATOM      8  C6  UNL A   1      13.079  48.558  12.357  1.00  0.00    +0.000 C 
ATOM     17  C12 UNL A   1      13.470  49.570  11.204  1.00  0.00    +0.000 C 
ATOM     22  C15 UNL A   1      12.726  50.885  11.010  1.00  0.00    +0.000 C 
ATOM    150  H45 UNL A   1      11.394  52.319  10.743  1.00  0.00    +0.000 H 
ATOM    152  H47 UNL A   1       9.118  49.338   8.587  1.00  0.00    +0.000 H 
ATOM    151  H46 UNL A   1      10.365  51.972   9.395  1.00  0.00    +0.000 H 
ATOM    156  H51 UNL A   1      10.580  47.133  11.815  1.00  0.00    +0.000 H 
ATOM     98  C68 UNL A   1      11.654  51.393  10.368  1.00  0.00    +0.000 C 
ATOM     99  C69 UNL A   1      10.763  50.984   9.286  1.00  0.00    +0.000 C 
ATOM    100  O10 UNL A   1      11.266  50.056   8.334  1.00  0.00    +0.000 O 
ATOM    101  C70 UNL A   1      10.056  49.685   8.969  1.00  0.00    +0.000 C 
ATOM    102  C71 UNL A   1       9.926  48.669  10.106  1.00  0.00    +0.000 C 
ATOM    104  O11 UNL A   1       9.827  47.331   9.571  1.00  0.00    +0.000 O 
ATOM    105  C73 UNL A   1      10.572  47.414  10.783  1.00  0.00    +0.000 C 
ATOM    108  H3  UNL A   1      12.319  47.348   9.785  1.00  0.00    +0.000 H 
ATOM    109  H4  UNL A   1      13.952  47.144  11.539  1.00  0.00    +0.000 H 
ATOM    110  H5  UNL A   1      13.901  48.555  13.043  1.00  0.00    +0.000 H 
ATOM    118  H13 UNL A   1      13.963  50.402  11.663  1.00  0.00    +0.000 H 
BRANCH    2    1
ATOM      1  C1  UNL A   1      12.279  45.905  14.011  1.00  0.00    +0.000 C 
ATOM    106  H1  UNL A   1      11.561  46.505  14.448  1.00  0.00    +0.000 H 
ATOM    107  H2  UNL A   1      12.806  45.230  14.586  1.00  0.00    +0.000 H 
ENDBRANCH    2    1
BRANCH    8    9
ATOM      9  O3  UNL A   1      11.949  48.980  13.148  1.00  0.00    +0.000 O 
BRANCH    9   10
ATOM     10  C7  UNL A   1      12.020  49.525  14.417  1.00  0.00    +0.000 C 
ATOM     11  O4  UNL A   1      13.117  49.926  14.800  1.00  0.00    +0.000 O 
BRANCH   10   12
ATOM    114  H9  UNL A   1       9.146  49.453  16.753  1.00  0.00    +0.000 H 
ATOM     12  C8  UNL A   1      10.765  50.019  15.127  1.00  0.00    +0.000 C 
ATOM     14  O5  UNL A   1      11.137  50.685  16.366  1.00  0.00    +0.000 O 
ATOM     15  C10 UNL A   1      10.167  49.663  16.514  1.00  0.00    +0.000 C 
BRANCH   12   13
ATOM    113  H8  UNL A   1      10.536  51.774  13.937  1.00  0.00    +0.000 H 
ATOM     13  C9  UNL A   1       9.917  50.986  14.312  1.00  0.00    +0.000 C 
ATOM    111  H6  UNL A   1       9.151  51.399  14.935  1.00  0.00    +0.000 H 
ATOM    112  H7  UNL A   1       9.468  50.464  13.492  1.00  0.00    +0.000 H 
ENDBRANCH   12   13
BRANCH   15   16
ATOM    115  H10 UNL A   1      11.600  48.438  17.430  1.00  0.00    +0.000 H 
ATOM    116  H11 UNL A   1       9.987  47.768  17.392  1.00  0.00    +0.000 H 
ATOM    117  H12 UNL A   1      10.373  49.055  18.509  1.00  0.00    +0.000 H 
ATOM     16  C11 UNL A   1      10.559  48.661  17.532  1.00  0.00    +0.000 C 
ENDBRANCH   15   16
ENDBRANCH   10   12
ENDBRANCH    9   10
ENDBRANCH    8    9
BRANCH   17   18
ATOM     18  O6  UNL A   1      14.460  49.069  10.222  1.00  0.00    +0.000 O 
BRANCH   18   19
ATOM     19  C13 UNL A   1      15.751  48.787  10.029  1.00  0.00    +0.000 C 
ATOM     21  O7  UNL A   1      16.598  49.340  10.729  1.00  0.00    +0.000 O 
BRANCH   19   20
ATOM    121  H16 UNL A   1      16.741  48.266   8.261  1.00  0.00    +0.000 H 
ATOM     20  C14 UNL A   1      16.181  47.785   9.035  1.00  0.00    +0.000 C 
ATOM    119  H14 UNL A   1      15.321  47.311   8.610  1.00  0.00    +0.000 H 
ATOM    120  H15 UNL A   1      16.794  47.049   9.513  1.00  0.00    +0.000 H 
ENDBRANCH   19   20
ENDBRANCH   18   19
ENDBRANCH   17   18
BRANCH  102  103
ATOM    153  H48 UNL A   1       8.651  50.116  11.028  1.00  0.00    +0.000 H 
ATOM    154  H49 UNL A   1       8.650  48.558  11.818  1.00  0.00    +0.000 H 
ATOM    155  H50 UNL A   1       7.799  48.772  10.306  1.00  0.00    +0.000 H 
ATOM    103  C72 UNL A   1       8.661  49.058  10.873  1.00  0.00    +0.000 C 
ENDBRANCH  102  103
ENDBRANCH   23   22
ENDBRANCH   25   23
ENDBRANCH   26   25
ENDBRANCH   27   26
ENDBRANCH   28   27
ENDBRANCH   29   28
ENDBRANCH   30   29
ENDBRANCH   31   30
ENDBRANCH   32   31
ENDBRANCH   33   32
ENDBRANCH   35   33
ENDBRANCH   39   38
BRANCH   43   44
ATOM     44  C32 UNL A   1      12.745  48.666   4.910  1.00  0.00    +0.000 C 
ATOM     45  C33 UNL A   1      13.304  47.914   5.956  1.00  0.00    +0.000 C 
ATOM     46  F1  UNL A   1      14.598  48.063   6.279  1.00  0.00    +0.000 F 
ATOM     47  C34 UNL A   1      12.547  46.970   6.646  1.00  0.00    +0.000 C 
ATOM     48  F2  UNL A   1      13.118  46.225   7.603  1.00  0.00    +0.000 F 
ATOM     49  C35 UNL A   1      11.208  46.790   6.335  1.00  0.00    +0.000 C 
ATOM     50  F3  UNL A   1      10.478  45.889   7.007  1.00  0.00    +0.000 F 
ATOM     51  C36 UNL A   1      10.627  47.539   5.324  1.00  0.00    +0.000 C 
ATOM     52  F4  UNL A   1       9.330  47.378   5.032  1.00  0.00    +0.000 F 
ATOM     53  C37 UNL A   1      11.391  48.458   4.607  1.00  0.00    +0.000 C 
ATOM     54  F5  UNL A   1      10.804  49.151   3.620  1.00  0.00    +0.000 F 
ENDBRANCH   43   44
BRANCH   60   61
ATOM     65  F7  UNL A   1      19.650  46.446  -1.446  1.00  0.00    +0.000 F 
ATOM     66  C46 UNL A   1      17.907  47.167  -2.867  1.00  0.00    +0.000 C 
ATOM     67  F8  UNL A   1      18.320  46.324  -3.825  1.00  0.00    +0.000 F 
ATOM     68  C47 UNL A   1      16.816  47.992  -3.092  1.00  0.00    +0.000 C 
ATOM     69  F9  UNL A   1      16.157  47.928  -4.258  1.00  0.00    +0.000 F 
ATOM     70  C48 UNL A   1      16.402  48.885  -2.109  1.00  0.00    +0.000 C 
ATOM     71  F10 UNL A   1      15.353  49.681  -2.363  1.00  0.00    +0.000 F 
ATOM     61  C43 UNL A   1      17.055  48.948  -0.867  1.00  0.00    +0.000 C 
ATOM     62  C44 UNL A   1      18.142  48.088  -0.653  1.00  0.00    +0.000 C 
ATOM     63  F6  UNL A   1      18.808  48.117   0.510  1.00  0.00    +0.000 F 
ATOM     64  C45 UNL A   1      18.576  47.221  -1.653  1.00  0.00    +0.000 C 
ENDBRANCH   60   61
BRANCH   75   76
ATOM     76  C52 UNL A   1      18.155  55.728   0.332  1.00  0.00    +0.000 C 
ATOM     77  C53 UNL A   1      19.405  56.100   0.846  1.00  0.00    +0.000 C 
ATOM     78  F11 UNL A   1      19.867  55.522   1.965  1.00  0.00    +0.000 F 
ATOM     79  C54 UNL A   1      20.167  57.097   0.241  1.00  0.00    +0.000 C 
ATOM     80  F12 UNL A   1      21.334  57.469   0.785  1.00  0.00    +0.000 F 
ATOM     81  C55 UNL A   1      19.711  57.717  -0.913  1.00  0.00    +0.000 C 
ATOM     82  F13 UNL A   1      20.444  58.674  -1.496  1.00  0.00    +0.000 F 
ATOM     83  C56 UNL A   1      18.489  57.351  -1.454  1.00  0.00    +0.000 C 
ATOM     84  F14 UNL A   1      18.051  57.935  -2.577  1.00  0.00    +0.000 F 
ATOM     85  C57 UNL A   1      17.711  56.377  -0.831  1.00  0.00    +0.000 C 
ATOM     86  F15 UNL A   1      16.526  56.056  -1.368  1.00  0.00    +0.000 F 
ENDBRANCH   75   76
TORSDOF 25
ENDMDL
