MODEL 1
REMARK VINA RESULT:     -12.2      0.000      0.000
ROOT
ATOM     19  C15 UNL A   1      25.640  35.670  45.664  1.00  0.00    +0.000 C 
ATOM     20  C16 UNL A   1      25.451  36.860  46.562  1.00  0.00    +0.000 C 
ATOM     21  N3  UNL A   1      26.298  37.816  46.855  1.00  0.00    +0.000 N 
ATOM     22  C17 UNL A   1      25.618  38.674  47.709  1.00  0.00    +0.000 C 
ATOM     23  C18 UNL A   1      26.083  39.777  48.343  1.00  0.00    +0.000 C 
ATOM     35  C25 UNL A   1      27.425  40.284  48.219  1.00  0.00    +0.000 C 
ATOM     36  C26 UNL A   1      27.998  41.377  48.846  1.00  0.00    +0.000 C 
ATOM     37  C27 UNL A   1      29.319  41.496  48.397  1.00  0.00    +0.000 C 
ATOM     38  C28 UNL A   1      29.579  40.455  47.521  1.00  0.00    +0.000 C 
ATOM     39  N4  UNL A   1      28.405  39.725  47.413  1.00  0.00    +0.000 N 
ATOM     40  C29 UNL A   1      30.805  40.145  46.835  1.00  0.00    +0.000 C 
ATOM     52  C36 UNL A   1      30.978  39.106  45.981  1.00  0.00    +0.000 C 
ATOM     53  N5  UNL A   1      30.061  38.146  45.578  1.00  0.00    +0.000 N 
ATOM     54  C37 UNL A   1      30.695  37.379  44.725  1.00  0.00    +0.000 C 
ATOM     55  C38 UNL A   1      30.198  36.166  43.990  1.00  0.00    +0.000 C 
ATOM     67  C45 UNL A   1      28.946  35.726  44.214  1.00  0.00    +0.000 C 
ATOM     68  C46 UNL A   1      28.341  34.544  43.609  1.00  0.00    +0.000 C 
ATOM     69  C47 UNL A   1      27.083  34.416  44.060  1.00  0.00    +0.000 C 
ATOM     70  C48 UNL A   1      26.801  35.498  45.004  1.00  0.00    +0.000 C 
ATOM     71  N6  UNL A   1      27.960  36.233  45.025  1.00  0.00    +0.000 N 
ATOM     72  C49 UNL A   1      32.087  37.778  44.479  1.00  0.00    +0.000 C 
ATOM     73  C50 UNL A   1      32.221  38.809  45.300  1.00  0.00    +0.000 C 
ATOM     74  C51 UNL A   1      24.273  38.157  47.845  1.00  0.00    +0.000 C 
ATOM     75  C52 UNL A   1      24.135  37.008  47.200  1.00  0.00    +0.000 C 
ATOM    119  H21 UNL A   1      27.533  41.996  49.526  1.00  0.00    +0.000 H 
ATOM    120  H22 UNL A   1      29.985  42.234  48.672  1.00  0.00    +0.000 H 
ATOM    121  H23 UNL A   1      28.286  38.928  46.848  1.00  0.00    +0.000 H 
ATOM    122  H24 UNL A   1      28.806  33.910  42.941  1.00  0.00    +0.000 H 
ATOM    123  H25 UNL A   1      26.421  33.674  43.784  1.00  0.00    +0.000 H 
ATOM    124  H26 UNL A   1      28.073  37.045  45.570  1.00  0.00    +0.000 H 
ATOM    125  H27 UNL A   1      32.780  37.365  43.835  1.00  0.00    +0.000 H 
ATOM    126  H28 UNL A   1      33.099  39.334  45.437  1.00  0.00    +0.000 H 
ATOM    127  H29 UNL A   1      23.520  38.624  48.374  1.00  0.00    +0.000 H 
ATOM    128  H30 UNL A   1      23.316  36.380  47.158  1.00  0.00    +0.000 H 
ENDROOT
BRANCH   19   18
ATOM    129  H31 UNL A   1      24.996  33.542  47.184  1.00  0.00    +0.000 H 
ATOM    130  H32 UNL A   1      23.248  31.901  46.817  1.00  0.00    +0.000 H 
ATOM     76  C53 UNL A   1      24.363  33.636  46.374  1.00  0.00    +0.000 C 
ATOM     77  C54 UNL A   1      23.335  32.712  46.186  1.00  0.00    +0.000 C 
ATOM     15  C11 UNL A   1      22.422  32.888  45.140  1.00  0.00    +0.000 C 
ATOM     16  C12 UNL A   1      22.601  33.926  44.221  1.00  0.00    +0.000 C 
ATOM     17  C13 UNL A   1      23.666  34.813  44.376  1.00  0.00    +0.000 C 
ATOM     18  C14 UNL A   1      24.542  34.691  45.468  1.00  0.00    +0.000 C 
ATOM    117  H19 UNL A   1      21.948  34.036  43.431  1.00  0.00    +0.000 H 
ATOM    118  H20 UNL A   1      23.812  35.565  43.684  1.00  0.00    +0.000 H 
BRANCH   15   13
ATOM     13  C10 UNL A   1      21.277  31.967  44.950  1.00  0.00    +0.000 C 
ATOM     14  O2  UNL A   1      20.802  31.383  45.920  1.00  0.00    +0.000 O 
BRANCH   13   12
ATOM    116  H18 UNL A   1      21.337  31.262  43.083  1.00  0.00    +0.000 H 
ATOM     12  N2  UNL A   1      20.755  31.756  43.705  1.00  0.00    +0.000 N 
BRANCH   12   11
ATOM    114  H16 UNL A   1      19.565  32.305  42.107  1.00  0.00    +0.000 H 
ATOM     11  C9  UNL A   1      19.464  32.154  43.162  1.00  0.00    +0.000 C 
ATOM    115  H17 UNL A   1      18.761  31.376  43.376  1.00  0.00    +0.000 H 
BRANCH   11   10
ATOM    113  H15 UNL A   1      18.699  34.095  42.985  1.00  0.00    +0.000 H 
ATOM     10  C8  UNL A   1      18.946  33.442  43.796  1.00  0.00    +0.000 C 
ATOM    112  H14 UNL A   1      19.714  33.831  44.432  1.00  0.00    +0.000 H 
BRANCH   10    9
ATOM      9  C7  UNL A   1      17.671  33.287  44.627  1.00  0.00    +0.000 C 
ATOM    110  H12 UNL A   1      17.912  33.502  45.648  1.00  0.00    +0.000 H 
ATOM    111  H13 UNL A   1      16.956  33.964  44.208  1.00  0.00    +0.000 H 
BRANCH    9    8
ATOM    108  H10 UNL A   1      17.725  31.230  44.110  1.00  0.00    +0.000 H 
ATOM    109  H11 UNL A   1      16.796  31.638  45.584  1.00  0.00    +0.000 H 
ATOM      8  C6  UNL A   1      17.030  31.899  44.572  1.00  0.00    +0.000 C 
BRANCH    8    7
ATOM    106  H8  UNL A   1      14.904  31.895  44.497  1.00  0.00    +0.000 H 
ATOM    107  H9  UNL A   1      15.723  32.632  43.094  1.00  0.00    +0.000 H 
ATOM      7  C5  UNL A   1      15.710  31.825  43.796  1.00  0.00    +0.000 C 
BRANCH    7    6
ATOM    105  H7  UNL A   1      15.484  30.794  41.942  1.00  0.00    +0.000 H 
ATOM      6  C4  UNL A   1      15.525  30.539  42.980  1.00  0.00    +0.000 C 
ATOM    104  H6  UNL A   1      14.618  30.059  43.282  1.00  0.00    +0.000 H 
BRANCH    6    5
ATOM      5  N1  UNL A   1      16.636  29.633  43.193  1.00  0.00    +0.000 N 
ATOM    103  H5  UNL A   1      17.535  30.035  43.209  1.00  0.00    +0.000 H 
BRANCH    5    3
ATOM      3  C3  UNL A   1      16.567  28.278  43.374  1.00  0.00    +0.000 C 
ATOM      4  O1  UNL A   1      17.611  27.701  43.681  1.00  0.00    +0.000 O 
BRANCH    3    2
ATOM      2  C2  UNL A   1      15.221  27.562  43.159  1.00  0.00    +0.000 C 
ATOM    102  H4  UNL A   1      14.443  28.295  43.186  1.00  0.00    +0.000 H 
BRANCH    2    1
ATOM      1  C1  UNL A   1      15.027  26.547  44.298  1.00  0.00    +0.000 C 
ATOM     99  H1  UNL A   1      15.722  25.741  44.179  1.00  0.00    +0.000 H 
ATOM    100  H2  UNL A   1      14.028  26.164  44.268  1.00  0.00    +0.000 H 
ATOM    101  H3  UNL A   1      15.196  27.029  45.238  1.00  0.00    +0.000 H 
ENDBRANCH    2    1
BRANCH    2   78
ATOM    131  H33 UNL A   1      15.206  28.708  40.667  1.00  0.00    +0.000 H 
ATOM    132  H34 UNL A   1      15.197  27.660  38.481  1.00  0.00    +0.000 H 
ATOM    133  H35 UNL A   1      15.429  25.891  36.374  1.00  0.00    +0.000 H 
ATOM    134  H36 UNL A   1      14.700  21.810  35.723  1.00  0.00    +0.000 H 
ATOM    135  H37 UNL A   1      14.272  21.476  38.097  1.00  0.00    +0.000 H 
ATOM    138  H40 UNL A   1      14.657  24.973  42.496  1.00  0.00    +0.000 H 
ATOM     78  C55 UNL A   1      15.067  26.921  41.769  1.00  0.00    +0.000 C 
ATOM     79  C56 UNL A   1      15.134  27.681  40.597  1.00  0.00    +0.000 C 
ATOM     80  C57 UNL A   1      15.106  27.081  39.331  1.00  0.00    +0.000 C 
ATOM     81  C58 UNL A   1      14.956  25.684  39.222  1.00  0.00    +0.000 C 
ATOM     82  C59 UNL A   1      14.978  24.776  38.129  1.00  0.00    +0.000 C 
ATOM     83  C60 UNL A   1      15.202  24.955  36.747  1.00  0.00    +0.000 C 
ATOM     84  C61 UNL A   1      15.115  23.863  35.891  1.00  0.00    +0.000 C 
ATOM     85 Cl1  UNL A   1      15.405  24.079  34.207  1.00  0.00    +0.000 Cl
ATOM     86  C62 UNL A   1      14.780  22.606  36.376  1.00  0.00    +0.000 C 
ATOM     87  C63 UNL A   1      14.547  22.405  37.743  1.00  0.00    +0.000 C 
ATOM     88  C64 UNL A   1      14.698  23.495  38.628  1.00  0.00    +0.000 C 
ATOM     89  N7  UNL A   1      14.548  23.605  40.013  1.00  0.00    +0.000 N 
ATOM     97  C69 UNL A   1      14.747  24.943  40.377  1.00  0.00    +0.000 C 
ATOM     98  C70 UNL A   1      14.806  25.545  41.650  1.00  0.00    +0.000 C 
BRANCH   89   90
ATOM     90  C65 UNL A   1      14.231  22.581  40.944  1.00  0.00    +0.000 C 
ATOM     91  O3  UNL A   1      15.004  22.474  41.906  1.00  0.00    +0.000 O 
BRANCH   90   92
ATOM    136  H38 UNL A   1      12.251  22.031  38.879  1.00  0.00    +0.000 H 
ATOM    137  H39 UNL A   1      11.460  19.150  41.705  1.00  0.00    +0.000 H 
ATOM     92  C66 UNL A   1      13.124  21.644  40.811  1.00  0.00    +0.000 C 
ATOM     93  C67 UNL A   1      12.271  21.462  39.739  1.00  0.00    +0.000 C 
ATOM     94  O4  UNL A   1      11.460  20.398  40.012  1.00  0.00    +0.000 O 
ATOM     95  C68 UNL A   1      11.878  19.967  41.231  1.00  0.00    +0.000 C 
ATOM     96  N8  UNL A   1      12.853  20.665  41.756  1.00  0.00    +0.000 N 
ENDBRANCH   90   92
ENDBRANCH   89   90
ENDBRANCH    2   78
ENDBRANCH    3    2
ENDBRANCH    5    3
ENDBRANCH    6    5
ENDBRANCH    7    6
ENDBRANCH    8    7
ENDBRANCH    9    8
ENDBRANCH   10    9
ENDBRANCH   11   10
ENDBRANCH   12   11
ENDBRANCH   13   12
ENDBRANCH   15   13
ENDBRANCH   19   18
BRANCH   23   24
ATOM     33  C24 UNL A   1      24.995  40.132  50.594  1.00  0.00    +0.000 C 
ATOM     34  F5  UNL A   1      25.743  39.142  51.102  1.00  0.00    +0.000 F 
ATOM     24  C19 UNL A   1      25.133  40.506  49.249  1.00  0.00    +0.000 C 
ATOM     25  C20 UNL A   1      24.322  41.545  48.769  1.00  0.00    +0.000 C 
ATOM     26  F1  UNL A   1      24.425  41.947  47.492  1.00  0.00    +0.000 F 
ATOM     27  C21 UNL A   1      23.422  42.197  49.606  1.00  0.00    +0.000 C 
ATOM     28  F2  UNL A   1      22.684  43.212  49.134  1.00  0.00    +0.000 F 
ATOM     29  C22 UNL A   1      23.293  41.805  50.929  1.00  0.00    +0.000 C 
ATOM     30  F3  UNL A   1      22.418  42.427  51.733  1.00  0.00    +0.000 F 
ATOM     31  C23 UNL A   1      24.075  40.770  51.422  1.00  0.00    +0.000 C 
ATOM     32  F4  UNL A   1      23.943  40.383  52.699  1.00  0.00    +0.000 F 
ENDBRANCH   23   24
BRANCH   40   41
ATOM     41  C30 UNL A   1      31.995  41.023  47.088  1.00  0.00    +0.000 C 
ATOM     42  C31 UNL A   1      32.109  42.289  46.495  1.00  0.00    +0.000 C 
ATOM     43  F6  UNL A   1      31.161  42.728  45.654  1.00  0.00    +0.000 F 
ATOM     44  C32 UNL A   1      33.224  43.088  46.727  1.00  0.00    +0.000 C 
ATOM     45  F7  UNL A   1      33.338  44.272  46.109  1.00  0.00    +0.000 F 
ATOM     46  C33 UNL A   1      34.227  42.653  47.580  1.00  0.00    +0.000 C 
ATOM     47  F8  UNL A   1      35.301  43.424  47.802  1.00  0.00    +0.000 F 
ATOM     48  C34 UNL A   1      34.123  41.415  48.197  1.00  0.00    +0.000 C 
ATOM     49  F9  UNL A   1      35.087  40.999  49.029  1.00  0.00    +0.000 F 
ATOM     50  C35 UNL A   1      33.021  40.601  47.946  1.00  0.00    +0.000 C 
ATOM     51  F10 UNL A   1      32.956  39.402  48.542  1.00  0.00    +0.000 F 
ENDBRANCH   40   41
BRANCH   55   56
ATOM     65  C44 UNL A   1      31.255  35.877  41.725  1.00  0.00    +0.000 C 
ATOM     66  F15 UNL A   1      30.608  36.968  41.291  1.00  0.00    +0.000 F 
ATOM     56  C39 UNL A   1      31.080  35.435  43.044  1.00  0.00    +0.000 C 
ATOM     57  C40 UNL A   1      31.773  34.285  43.445  1.00  0.00    +0.000 C 
ATOM     58  F11 UNL A   1      31.653  33.835  44.704  1.00  0.00    +0.000 F 
ATOM     59  C41 UNL A   1      32.627  33.617  42.570  1.00  0.00    +0.000 C 
ATOM     60  F12 UNL A   1      33.315  32.548  42.993  1.00  0.00    +0.000 F 
ATOM     61  C42 UNL A   1      32.781  34.069  41.268  1.00  0.00    +0.000 C 
ATOM     62  F13 UNL A   1      33.601  33.428  40.426  1.00  0.00    +0.000 F 
ATOM     63  C43 UNL A   1      32.088  35.193  40.842  1.00  0.00    +0.000 C 
ATOM     64  F14 UNL A   1      32.223  35.626  39.581  1.00  0.00    +0.000 F 
ENDBRANCH   55   56
TORSDOF 19
ENDMDL
MODEL 2
REMARK VINA RESULT:     -12.2     20.019     25.709
ROOT
ATOM     19  C15 UNL A   1      41.511  26.508  27.649  1.00  0.00    +0.000 C 
ATOM     20  C16 UNL A   1      42.935  26.772  27.248  1.00  0.00    +0.000 C 
ATOM     21  N3  UNL A   1      43.689  27.810  27.512  1.00  0.00    +0.000 N 
ATOM     22  C17 UNL A   1      44.920  27.543  26.928  1.00  0.00    +0.000 C 
ATOM     23  C18 UNL A   1      46.015  28.338  26.862  1.00  0.00    +0.000 C 
ATOM     35  C25 UNL A   1      46.098  29.657  27.432  1.00  0.00    +0.000 C 
ATOM     36  C26 UNL A   1      47.154  30.552  27.391  1.00  0.00    +0.000 C 
ATOM     37  C27 UNL A   1      46.784  31.698  28.104  1.00  0.00    +0.000 C 
ATOM     38  C28 UNL A   1      45.486  31.533  28.556  1.00  0.00    +0.000 C 
ATOM     39  N4  UNL A   1      45.080  30.272  28.145  1.00  0.00    +0.000 N 
ATOM     40  C29 UNL A   1      44.671  32.454  29.303  1.00  0.00    +0.000 C 
ATOM     52  C36 UNL A   1      43.404  32.213  29.718  1.00  0.00    +0.000 C 
ATOM     53  N5  UNL A   1      42.627  31.077  29.538  1.00  0.00    +0.000 N 
ATOM     54  C37 UNL A   1      41.492  31.316  30.147  1.00  0.00    +0.000 C 
ATOM     55  C38 UNL A   1      40.272  30.445  30.256  1.00  0.00    +0.000 C 
ATOM     67  C45 UNL A   1      40.259  29.249  29.638  1.00  0.00    +0.000 C 
ATOM     68  C46 UNL A   1      39.137  28.316  29.620  1.00  0.00    +0.000 C 
ATOM     69  C47 UNL A   1      39.484  27.228  28.913  1.00  0.00    +0.000 C 
ATOM     70  C48 UNL A   1      40.848  27.398  28.411  1.00  0.00    +0.000 C 
ATOM     71  N6  UNL A   1      41.233  28.622  28.900  1.00  0.00    +0.000 N 
ATOM     72  C49 UNL A   1      41.426  32.632  30.797  1.00  0.00    +0.000 C 
ATOM     73  C50 UNL A   1      42.599  33.154  30.469  1.00  0.00    +0.000 C 
ATOM     74  C51 UNL A   1      44.832  26.221  26.342  1.00  0.00    +0.000 C 
ATOM     75  C52 UNL A   1      43.609  25.725  26.464  1.00  0.00    +0.000 C 
ATOM    119  H21 UNL A   1      48.057  30.400  26.917  1.00  0.00    +0.000 H 
ATOM    120  H22 UNL A   1      47.379  32.526  28.266  1.00  0.00    +0.000 H 
ATOM    121  H23 UNL A   1      44.200  29.873  28.332  1.00  0.00    +0.000 H 
ATOM    122  H24 UNL A   1      38.225  28.468  30.077  1.00  0.00    +0.000 H 
ATOM    123  H25 UNL A   1      38.884  26.404  28.751  1.00  0.00    +0.000 H 
ATOM    124  H26 UNL A   1      42.122  29.012  28.735  1.00  0.00    +0.000 H 
ATOM    125  H27 UNL A   1      40.665  33.043  31.361  1.00  0.00    +0.000 H 
ATOM    126  H28 UNL A   1      42.900  34.109  30.717  1.00  0.00    +0.000 H 
ATOM    127  H29 UNL A   1      45.619  25.731  25.890  1.00  0.00    +0.000 H 
ATOM    128  H30 UNL A   1      43.229  24.836  26.103  1.00  0.00    +0.000 H 
ENDROOT
BRANCH   19   18
ATOM    129  H31 UNL A   1      41.899  24.008  28.572  1.00  0.00    +0.000 H 
ATOM    130  H32 UNL A   1      40.839  21.951  27.844  1.00  0.00    +0.000 H 
ATOM     76  C53 UNL A   1      41.174  24.034  27.839  1.00  0.00    +0.000 C 
ATOM     77  C54 UNL A   1      40.538  22.855  27.448  1.00  0.00    +0.000 C 
ATOM     15  C11 UNL A   1      39.493  22.900  26.519  1.00  0.00    +0.000 C 
ATOM     16  C12 UNL A   1      39.156  24.108  25.902  1.00  0.00    +0.000 C 
ATOM     17  C13 UNL A   1      39.834  25.277  26.250  1.00  0.00    +0.000 C 
ATOM     18  C14 UNL A   1      40.831  25.254  27.239  1.00  0.00    +0.000 C 
ATOM    117  H19 UNL A   1      38.408  24.136  25.192  1.00  0.00    +0.000 H 
ATOM    118  H20 UNL A   1      39.601  26.164  25.777  1.00  0.00    +0.000 H 
BRANCH   15   13
ATOM     13  C10 UNL A   1      38.749  21.678  26.131  1.00  0.00    +0.000 C 
ATOM     14  O2  UNL A   1      39.332  20.598  26.106  1.00  0.00    +0.000 O 
BRANCH   13   12
ATOM    116  H18 UNL A   1      36.967  22.574  26.066  1.00  0.00    +0.000 H 
ATOM     12  N2  UNL A   1      37.427  21.748  25.793  1.00  0.00    +0.000 N 
BRANCH   12   11
ATOM    114  H16 UNL A   1      36.699  20.944  24.034  1.00  0.00    +0.000 H 
ATOM     11  C9  UNL A   1      36.599  20.781  25.088  1.00  0.00    +0.000 C 
ATOM    115  H17 UNL A   1      36.931  19.801  25.361  1.00  0.00    +0.000 H 
BRANCH   11   10
ATOM    113  H15 UNL A   1      34.836  19.941  25.843  1.00  0.00    +0.000 H 
ATOM     10  C8  UNL A   1      35.126  20.900  25.467  1.00  0.00    +0.000 C 
ATOM    112  H14 UNL A   1      34.581  21.195  24.593  1.00  0.00    +0.000 H 
BRANCH   10    9
ATOM      9  C7  UNL A   1      34.823  21.906  26.579  1.00  0.00    +0.000 C 
ATOM    110  H12 UNL A   1      35.225  21.523  27.493  1.00  0.00    +0.000 H 
ATOM    111  H13 UNL A   1      35.268  22.831  26.274  1.00  0.00    +0.000 H 
BRANCH    9    8
ATOM    108  H10 UNL A   1      33.047  21.760  27.731  1.00  0.00    +0.000 H 
ATOM    109  H11 UNL A   1      33.237  23.264  26.781  1.00  0.00    +0.000 H 
ATOM      8  C6  UNL A   1      33.337  22.198  26.799  1.00  0.00    +0.000 C 
BRANCH    8    7
ATOM    106  H8  UNL A   1      32.962  21.571  24.801  1.00  0.00    +0.000 H 
ATOM    107  H9  UNL A   1      32.027  20.725  26.063  1.00  0.00    +0.000 H 
ATOM      7  C5  UNL A   1      32.402  21.662  25.709  1.00  0.00    +0.000 C 
BRANCH    7    6
ATOM    105  H7  UNL A   1      31.238  23.417  26.048  1.00  0.00    +0.000 H 
ATOM      6  C4  UNL A   1      31.179  22.545  25.431  1.00  0.00    +0.000 C 
ATOM    104  H6  UNL A   1      30.290  21.992  25.651  1.00  0.00    +0.000 H 
BRANCH    6    5
ATOM      5  N1  UNL A   1      31.150  22.959  24.042  1.00  0.00    +0.000 N 
ATOM    103  H5  UNL A   1      30.378  23.502  23.761  1.00  0.00    +0.000 H 
BRANCH    5    3
ATOM      3  C3  UNL A   1      32.083  22.675  23.081  1.00  0.00    +0.000 C 
ATOM      4  O1  UNL A   1      31.992  21.583  22.519  1.00  0.00    +0.000 O 
BRANCH    3    2
ATOM      2  C2  UNL A   1      33.189  23.705  22.784  1.00  0.00    +0.000 C 
ATOM    102  H4  UNL A   1      33.014  24.113  21.811  1.00  0.00    +0.000 H 
BRANCH    2    1
ATOM      1  C1  UNL A   1      34.544  22.980  22.814  1.00  0.00    +0.000 C 
ATOM     99  H1  UNL A   1      34.974  22.987  21.834  1.00  0.00    +0.000 H 
ATOM    100  H2  UNL A   1      34.400  21.968  23.132  1.00  0.00    +0.000 H 
ATOM    101  H3  UNL A   1      35.201  23.477  23.496  1.00  0.00    +0.000 H 
ENDBRANCH    2    1
BRANCH    2   78
ATOM    131  H33 UNL A   1      34.867  24.428  24.829  1.00  0.00    +0.000 H 
ATOM    132  H34 UNL A   1      34.947  26.483  26.113  1.00  0.00    +0.000 H 
ATOM    133  H35 UNL A   1      34.661  29.081  27.003  1.00  0.00    +0.000 H 
ATOM    134  H36 UNL A   1      31.661  32.014  26.939  1.00  0.00    +0.000 H 
ATOM    135  H37 UNL A   1      30.295  30.630  25.473  1.00  0.00    +0.000 H 
ATOM    138  H40 UNL A   1      31.312  25.679  22.987  1.00  0.00    +0.000 H 
ATOM     78  C55 UNL A   1      33.162  24.937  23.705  1.00  0.00    +0.000 C 
ATOM     79  C56 UNL A   1      34.149  25.153  24.672  1.00  0.00    +0.000 C 
ATOM     80  C57 UNL A   1      34.186  26.329  25.433  1.00  0.00    +0.000 C 
ATOM     81  C58 UNL A   1      33.181  27.302  25.265  1.00  0.00    +0.000 C 
ATOM     82  C59 UNL A   1      32.975  28.605  25.794  1.00  0.00    +0.000 C 
ATOM     83  C60 UNL A   1      33.744  29.412  26.660  1.00  0.00    +0.000 C 
ATOM     84  C61 UNL A   1      33.259  30.655  27.051  1.00  0.00    +0.000 C 
ATOM     85 Cl1  UNL A   1      34.205  31.646  28.095  1.00  0.00    +0.000 Cl
ATOM     86  C62 UNL A   1      32.015  31.097  26.623  1.00  0.00    +0.000 C 
ATOM     87  C63 UNL A   1      31.231  30.311  25.767  1.00  0.00    +0.000 C 
ATOM     88  C64 UNL A   1      31.745  29.077  25.314  1.00  0.00    +0.000 C 
ATOM     89  N7  UNL A   1      31.219  28.097  24.467  1.00  0.00    +0.000 N 
ATOM     97  C69 UNL A   1      32.122  27.028  24.409  1.00  0.00    +0.000 C 
ATOM     98  C70 UNL A   1      32.104  25.858  23.624  1.00  0.00    +0.000 C 
BRANCH   89   90
ATOM     90  C65 UNL A   1      29.982  28.114  23.771  1.00  0.00    +0.000 C 
ATOM     91  O3  UNL A   1      29.301  27.083  23.865  1.00  0.00    +0.000 O 
BRANCH   90   92
ATOM    136  H38 UNL A   1      31.080  29.596  21.516  1.00  0.00    +0.000 H 
ATOM    137  H39 UNL A   1      27.298  31.165  21.897  1.00  0.00    +0.000 H 
ATOM     92  C66 UNL A   1      29.507  29.210  22.938  1.00  0.00    +0.000 C 
ATOM     93  C67 UNL A   1      30.128  29.803  21.855  1.00  0.00    +0.000 C 
ATOM     94  O4  UNL A   1      29.266  30.712  21.311  1.00  0.00    +0.000 O 
ATOM     95  C68 UNL A   1      28.148  30.607  22.075  1.00  0.00    +0.000 C 
ATOM     96  N8  UNL A   1      28.231  29.742  23.055  1.00  0.00    +0.000 N 
ENDBRANCH   90   92
ENDBRANCH   89   90
ENDBRANCH    2   78
ENDBRANCH    3    2
ENDBRANCH    5    3
ENDBRANCH    6    5
ENDBRANCH    7    6
ENDBRANCH    8    7
ENDBRANCH    9    8
ENDBRANCH   10    9
ENDBRANCH   11   10
ENDBRANCH   12   11
ENDBRANCH   13   12
ENDBRANCH   15   13
ENDBRANCH   19   18
BRANCH   23   24
ATOM     33  C24 UNL A   1      48.311  27.288  26.830  1.00  0.00    +0.000 C 
ATOM     34  F5  UNL A   1      48.288  27.219  28.169  1.00  0.00    +0.000 F 
ATOM     24  C19 UNL A   1      47.212  27.807  26.129  1.00  0.00    +0.000 C 
ATOM     25  C20 UNL A   1      47.291  27.860  24.730  1.00  0.00    +0.000 C 
ATOM     26  F1  UNL A   1      46.262  28.338  24.013  1.00  0.00    +0.000 F 
ATOM     27  C21 UNL A   1      48.417  27.394  24.057  1.00  0.00    +0.000 C 
ATOM     28  F2  UNL A   1      48.455  27.420  22.717  1.00  0.00    +0.000 F 
ATOM     29  C22 UNL A   1      49.496  26.894  24.770  1.00  0.00    +0.000 C 
ATOM     30  F3  UNL A   1      50.585  26.455  24.121  1.00  0.00    +0.000 F 
ATOM     31  C23 UNL A   1      49.446  26.846  26.156  1.00  0.00    +0.000 C 
ATOM     32  F4  UNL A   1      50.493  26.373  26.846  1.00  0.00    +0.000 F 
ENDBRANCH   23   24
BRANCH   40   41
ATOM     41  C30 UNL A   1      45.254  33.795  29.642  1.00  0.00    +0.000 C 
ATOM     42  C31 UNL A   1      45.971  34.001  30.830  1.00  0.00    +0.000 C 
ATOM     43  F6  UNL A   1      46.121  33.000  31.710  1.00  0.00    +0.000 F 
ATOM     44  C32 UNL A   1      46.496  35.252  31.139  1.00  0.00    +0.000 C 
ATOM     45  F7  UNL A   1      47.133  35.441  32.303  1.00  0.00    +0.000 F 
ATOM     46  C33 UNL A   1      46.344  36.309  30.254  1.00  0.00    +0.000 C 
ATOM     47  F8  UNL A   1      46.849  37.514  30.553  1.00  0.00    +0.000 F 
ATOM     48  C34 UNL A   1      45.659  36.120  29.062  1.00  0.00    +0.000 C 
ATOM     49  F9  UNL A   1      45.520  37.138  28.202  1.00  0.00    +0.000 F 
ATOM     50  C35 UNL A   1      45.110  34.876  28.762  1.00  0.00    +0.000 C 
ATOM     51  F10 UNL A   1      44.438  34.728  27.611  1.00  0.00    +0.000 F 
ENDBRANCH   40   41
BRANCH   55   56
ATOM     65  C44 UNL A   1      38.055  31.626  30.384  1.00  0.00    +0.000 C 
ATOM     66  F15 UNL A   1      38.152  31.936  29.083  1.00  0.00    +0.000 F 
ATOM     56  C39 UNL A   1      39.077  30.900  31.011  1.00  0.00    +0.000 C 
ATOM     57  C40 UNL A   1      38.930  30.607  32.374  1.00  0.00    +0.000 C 
ATOM     58  F11 UNL A   1      39.873  29.897  33.012  1.00  0.00    +0.000 F 
ATOM     59  C41 UNL A   1      37.794  31.003  33.077  1.00  0.00    +0.000 C 
ATOM     60  F12 UNL A   1      37.656  30.670  34.366  1.00  0.00    +0.000 F 
ATOM     61  C42 UNL A   1      36.797  31.726  32.437  1.00  0.00    +0.000 C 
ATOM     62  F13 UNL A   1      35.706  32.107  33.112  1.00  0.00    +0.000 F 
ATOM     63  C43 UNL A   1      36.932  32.045  31.094  1.00  0.00    +0.000 C 
ATOM     64  F14 UNL A   1      35.977  32.755  30.475  1.00  0.00    +0.000 F 
ENDBRANCH   55   56
TORSDOF 19
ENDMDL
MODEL 3
REMARK VINA RESULT:     -12.1     19.740     25.651
ROOT
ATOM     19  C15 UNL A   1      41.462  26.465  27.670  1.00  0.00    +0.000 C 
ATOM     20  C16 UNL A   1      42.897  26.711  27.298  1.00  0.00    +0.000 C 
ATOM     21  N3  UNL A   1      43.658  27.741  27.576  1.00  0.00    +0.000 N 
ATOM     22  C17 UNL A   1      44.897  27.457  27.018  1.00  0.00    +0.000 C 
ATOM     23  C18 UNL A   1      46.003  28.239  26.974  1.00  0.00    +0.000 C 
ATOM     35  C25 UNL A   1      46.090  29.559  27.543  1.00  0.00    +0.000 C 
ATOM     36  C26 UNL A   1      47.156  30.441  27.523  1.00  0.00    +0.000 C 
ATOM     37  C27 UNL A   1      46.785  31.593  28.225  1.00  0.00    +0.000 C 
ATOM     38  C28 UNL A   1      45.475  31.444  28.650  1.00  0.00    +0.000 C 
ATOM     39  N4  UNL A   1      45.064  30.187  28.234  1.00  0.00    +0.000 N 
ATOM     40  C29 UNL A   1      44.656  32.377  29.379  1.00  0.00    +0.000 C 
ATOM     52  C36 UNL A   1      43.378  32.151  29.767  1.00  0.00    +0.000 C 
ATOM     53  N5  UNL A   1      42.592  31.024  29.573  1.00  0.00    +0.000 N 
ATOM     54  C37 UNL A   1      41.447  31.278  30.157  1.00  0.00    +0.000 C 
ATOM     55  C38 UNL A   1      40.215  30.421  30.242  1.00  0.00    +0.000 C 
ATOM     67  C45 UNL A   1      40.201  29.224  29.626  1.00  0.00    +0.000 C 
ATOM     68  C46 UNL A   1      39.069  28.305  29.586  1.00  0.00    +0.000 C 
ATOM     69  C47 UNL A   1      39.417  27.211  28.890  1.00  0.00    +0.000 C 
ATOM     70  C48 UNL A   1      40.794  27.364  28.416  1.00  0.00    +0.000 C 
ATOM     71  N6  UNL A   1      41.182  28.584  28.910  1.00  0.00    +0.000 N 
ATOM     72  C49 UNL A   1      41.382  32.596  30.803  1.00  0.00    +0.000 C 
ATOM     73  C50 UNL A   1      42.568  33.104  30.499  1.00  0.00    +0.000 C 
ATOM     74  C51 UNL A   1      44.806  26.136  26.434  1.00  0.00    +0.000 C 
ATOM     75  C52 UNL A   1      43.575  25.655  26.531  1.00  0.00    +0.000 C 
ATOM    119  H21 UNL A   1      48.067  30.277  27.068  1.00  0.00    +0.000 H 
ATOM    120  H22 UNL A   1      47.386  32.414  28.398  1.00  0.00    +0.000 H 
ATOM    121  H23 UNL A   1      44.175  29.799  28.403  1.00  0.00    +0.000 H 
ATOM    122  H24 UNL A   1      38.149  28.469  30.024  1.00  0.00    +0.000 H 
ATOM    123  H25 UNL A   1      38.811  26.393  28.716  1.00  0.00    +0.000 H 
ATOM    124  H26 UNL A   1      42.079  28.963  28.764  1.00  0.00    +0.000 H 
ATOM    125  H27 UNL A   1      40.615  33.017  31.350  1.00  0.00    +0.000 H 
ATOM    126  H28 UNL A   1      42.876  34.056  30.752  1.00  0.00    +0.000 H 
ATOM    127  H29 UNL A   1      45.596  25.635  25.999  1.00  0.00    +0.000 H 
ATOM    128  H30 UNL A   1      43.192  24.769  26.164  1.00  0.00    +0.000 H 
ENDROOT
BRANCH   19   18
ATOM    129  H31 UNL A   1      41.863  23.949  28.545  1.00  0.00    +0.000 H 
ATOM    130  H32 UNL A   1      40.792  21.905  27.796  1.00  0.00    +0.000 H 
ATOM     76  C53 UNL A   1      41.127  23.988  27.822  1.00  0.00    +0.000 C 
ATOM     77  C54 UNL A   1      40.486  22.816  27.420  1.00  0.00    +0.000 C 
ATOM     15  C11 UNL A   1      39.428  22.876  26.507  1.00  0.00    +0.000 C 
ATOM     16  C12 UNL A   1      39.082  24.095  25.916  1.00  0.00    +0.000 C 
ATOM     17  C13 UNL A   1      39.765  25.257  26.273  1.00  0.00    +0.000 C 
ATOM     18  C14 UNL A   1      40.776  25.218  27.248  1.00  0.00    +0.000 C 
ATOM    117  H19 UNL A   1      38.324  24.135  25.217  1.00  0.00    +0.000 H 
ATOM    118  H20 UNL A   1      39.526  26.153  25.819  1.00  0.00    +0.000 H 
BRANCH   15   13
ATOM     13  C10 UNL A   1      38.678  21.661  26.109  1.00  0.00    +0.000 C 
ATOM     14  O2  UNL A   1      39.277  20.598  25.977  1.00  0.00    +0.000 O 
BRANCH   13   12
ATOM    116  H18 UNL A   1      36.881  22.523  26.225  1.00  0.00    +0.000 H 
ATOM     12  N2  UNL A   1      37.333  21.720  25.877  1.00  0.00    +0.000 N 
BRANCH   12   11
ATOM    114  H16 UNL A   1      36.707  20.774  24.150  1.00  0.00    +0.000 H 
ATOM     11  C9  UNL A   1      36.468  20.769  25.194  1.00  0.00    +0.000 C 
ATOM    115  H17 UNL A   1      36.633  19.804  25.625  1.00  0.00    +0.000 H 
BRANCH   11   10
ATOM    113  H15 UNL A   1      34.467  20.178  25.371  1.00  0.00    +0.000 H 
ATOM     10  C8  UNL A   1      34.990  21.112  25.361  1.00  0.00    +0.000 C 
ATOM    112  H14 UNL A   1      34.704  21.749  24.550  1.00  0.00    +0.000 H 
BRANCH   10    9
ATOM      9  C7  UNL A   1      34.634  21.818  26.671  1.00  0.00    +0.000 C 
ATOM    110  H12 UNL A   1      34.835  21.144  27.477  1.00  0.00    +0.000 H 
ATOM    111  H13 UNL A   1      35.229  22.708  26.702  1.00  0.00    +0.000 H 
BRANCH    9    8
ATOM    108  H10 UNL A   1      32.793  21.925  27.719  1.00  0.00    +0.000 H 
ATOM    109  H11 UNL A   1      33.191  23.341  26.701  1.00  0.00    +0.000 H 
ATOM      8  C6  UNL A   1      33.178  22.274  26.784  1.00  0.00    +0.000 C 
BRANCH    8    7
ATOM    106  H8  UNL A   1      32.856  21.507  24.826  1.00  0.00    +0.000 H 
ATOM    107  H9  UNL A   1      31.715  20.938  26.074  1.00  0.00    +0.000 H 
ATOM      7  C5  UNL A   1      32.252  21.769  25.670  1.00  0.00    +0.000 C 
BRANCH    7    6
ATOM    105  H7  UNL A   1      31.380  23.716  25.711  1.00  0.00    +0.000 H 
ATOM      6  C4  UNL A   1      31.201  22.788  25.210  1.00  0.00    +0.000 C 
ATOM    104  H6  UNL A   1      30.226  22.417  25.449  1.00  0.00    +0.000 H 
BRANCH    6    5
ATOM      5  N1  UNL A   1      31.290  23.006  23.780  1.00  0.00    +0.000 N 
ATOM    103  H5  UNL A   1      30.497  23.396  23.345  1.00  0.00    +0.000 H 
BRANCH    5    3
ATOM      3  C3  UNL A   1      32.359  22.726  22.972  1.00  0.00    +0.000 C 
ATOM      4  O1  UNL A   1      32.432  21.584  22.516  1.00  0.00    +0.000 O 
BRANCH    3    2
ATOM      2  C2  UNL A   1      33.404  23.825  22.707  1.00  0.00    +0.000 C 
ATOM    102  H4  UNL A   1      33.213  24.244  21.742  1.00  0.00    +0.000 H 
BRANCH    2    1
ATOM      1  C1  UNL A   1      34.800  23.179  22.732  1.00  0.00    +0.000 C 
ATOM     99  H1  UNL A   1      35.237  23.314  23.699  1.00  0.00    +0.000 H 
ATOM    100  H2  UNL A   1      35.420  23.641  21.992  1.00  0.00    +0.000 H 
ATOM    101  H3  UNL A   1      34.713  22.134  22.521  1.00  0.00    +0.000 H 
ENDBRANCH    2    1
BRANCH    2   78
ATOM    131  H33 UNL A   1      34.647  24.312  25.103  1.00  0.00    +0.000 H 
ATOM    132  H34 UNL A   1      34.648  26.317  26.467  1.00  0.00    +0.000 H 
ATOM    133  H35 UNL A   1      34.441  28.910  27.390  1.00  0.00    +0.000 H 
ATOM    134  H36 UNL A   1      31.854  32.161  26.799  1.00  0.00    +0.000 H 
ATOM    135  H37 UNL A   1      30.716  30.969  25.006  1.00  0.00    +0.000 H 
ATOM    138  H40 UNL A   1      31.746  25.991  22.581  1.00  0.00    +0.000 H 
ATOM     78  C55 UNL A   1      33.299  25.031  23.655  1.00  0.00    +0.000 C 
ATOM     79  C56 UNL A   1      34.061  25.115  24.825  1.00  0.00    +0.000 C 
ATOM     80  C57 UNL A   1      34.048  26.263  25.629  1.00  0.00    +0.000 C 
ATOM     81  C58 UNL A   1      33.213  27.346  25.288  1.00  0.00    +0.000 C 
ATOM     82  C59 UNL A   1      33.030  28.652  25.818  1.00  0.00    +0.000 C 
ATOM     83  C60 UNL A   1      33.664  29.349  26.869  1.00  0.00    +0.000 C 
ATOM     84  C61 UNL A   1      33.236  30.630  27.200  1.00  0.00    +0.000 C 
ATOM     85 Cl1  UNL A   1      34.020  31.486  28.471  1.00  0.00    +0.000 Cl
ATOM     86  C62 UNL A   1      32.173  31.217  26.528  1.00  0.00    +0.000 C 
ATOM     87  C63 UNL A   1      31.524  30.542  25.485  1.00  0.00    +0.000 C 
ATOM     88  C64 UNL A   1      31.995  29.269  25.100  1.00  0.00    +0.000 C 
ATOM     89  N7  UNL A   1      31.574  28.372  24.114  1.00  0.00    +0.000 N 
ATOM     97  C69 UNL A   1      32.351  27.211  24.208  1.00  0.00    +0.000 C 
ATOM     98  C70 UNL A   1      32.389  26.067  23.385  1.00  0.00    +0.000 C 
BRANCH   89   90
ATOM     90  C65 UNL A   1      30.533  28.542  23.163  1.00  0.00    +0.000 C 
ATOM     91  O3  UNL A   1      30.834  29.190  22.151  1.00  0.00    +0.000 O 
BRANCH   90   92
ATOM    136  H38 UNL A   1      29.329  26.069  24.125  1.00  0.00    +0.000 H 
ATOM    137  H39 UNL A   1      26.065  28.464  23.400  1.00  0.00    +0.000 H 
ATOM     92  C66 UNL A   1      29.167  28.064  23.326  1.00  0.00    +0.000 C 
ATOM     93  C67 UNL A   1      28.729  26.859  23.839  1.00  0.00    +0.000 C 
ATOM     94  O4  UNL A   1      27.365  26.890  23.906  1.00  0.00    +0.000 O 
ATOM     95  C68 UNL A   1      27.040  28.129  23.453  1.00  0.00    +0.000 C 
ATOM     96  N8  UNL A   1      28.060  28.866  23.089  1.00  0.00    +0.000 N 
ENDBRANCH   90   92
ENDBRANCH   89   90
ENDBRANCH    2   78
ENDBRANCH    3    2
ENDBRANCH    5    3
ENDBRANCH    6    5
ENDBRANCH    7    6
ENDBRANCH    8    7
ENDBRANCH    9    8
ENDBRANCH   10    9
ENDBRANCH   11   10
ENDBRANCH   12   11
ENDBRANCH   13   12
ENDBRANCH   15   13
ENDBRANCH   19   18
BRANCH   23   24
ATOM     33  C24 UNL A   1      47.359  27.846  24.881  1.00  0.00    +0.000 C 
ATOM     34  F5  UNL A   1      46.443  28.521  24.172  1.00  0.00    +0.000 F 
ATOM     24  C19 UNL A   1      47.209  27.693  26.268  1.00  0.00    +0.000 C 
ATOM     25  C20 UNL A   1      48.194  26.974  26.960  1.00  0.00    +0.000 C 
ATOM     26  F1  UNL A   1      48.102  26.810  28.289  1.00  0.00    +0.000 F 
ATOM     27  C21 UNL A   1      49.295  26.444  26.295  1.00  0.00    +0.000 C 
ATOM     28  F2  UNL A   1      50.243  25.792  26.983  1.00  0.00    +0.000 F 
ATOM     29  C22 UNL A   1      49.419  26.596  24.922  1.00  0.00    +0.000 C 
ATOM     30  F3  UNL A   1      50.475  26.077  24.280  1.00  0.00    +0.000 F 
ATOM     31  C23 UNL A   1      48.449  27.292  24.214  1.00  0.00    +0.000 C 
ATOM     32  F4  UNL A   1      48.562  27.431  22.887  1.00  0.00    +0.000 F 
ENDBRANCH   23   24
BRANCH   40   41
ATOM     41  C30 UNL A   1      45.248  33.711  29.727  1.00  0.00    +0.000 C 
ATOM     42  C31 UNL A   1      45.129  34.811  28.865  1.00  0.00    +0.000 C 
ATOM     43  F6  UNL A   1      44.507  34.679  27.684  1.00  0.00    +0.000 F 
ATOM     44  C32 UNL A   1      45.693  36.040  29.193  1.00  0.00    +0.000 C 
ATOM     45  F7  UNL A   1      45.614  37.063  28.332  1.00  0.00    +0.000 F 
ATOM     46  C33 UNL A   1      46.354  36.202  30.402  1.00  0.00    +0.000 C 
ATOM     47  F8  UNL A   1      46.898  37.386  30.716  1.00  0.00    +0.000 F 
ATOM     48  C34 UNL A   1      46.462  35.133  31.281  1.00  0.00    +0.000 C 
ATOM     49  F9  UNL A   1      47.092  35.292  32.452  1.00  0.00    +0.000 F 
ATOM     50  C35 UNL A   1      45.921  33.895  30.943  1.00  0.00    +0.000 C 
ATOM     51  F10 UNL A   1      46.056  32.876  31.804  1.00  0.00    +0.000 F 
ENDBRANCH   40   41
BRANCH   55   56
ATOM     65  C44 UNL A   1      38.808  30.576  32.321  1.00  0.00    +0.000 C 
ATOM     66  F15 UNL A   1      39.704  29.823  32.976  1.00  0.00    +0.000 F 
ATOM     56  C39 UNL A   1      39.009  30.892  30.971  1.00  0.00    +0.000 C 
ATOM     57  C40 UNL A   1      38.040  31.676  30.331  1.00  0.00    +0.000 C 
ATOM     58  F11 UNL A   1      38.199  32.021  29.044  1.00  0.00    +0.000 F 
ATOM     59  C41 UNL A   1      36.925  32.147  31.022  1.00  0.00    +0.000 C 
ATOM     60  F12 UNL A   1      36.037  32.935  30.400  1.00  0.00    +0.000 F 
ATOM     61  C42 UNL A   1      36.743  31.818  32.357  1.00  0.00    +0.000 C 
ATOM     62  F13 UNL A   1      35.672  32.270  33.021  1.00  0.00    +0.000 F 
ATOM     63  C43 UNL A   1      37.679  31.025  33.004  1.00  0.00    +0.000 C 
ATOM     64  F14 UNL A   1      37.501  30.692  34.291  1.00  0.00    +0.000 F 
ENDBRANCH   55   56
TORSDOF 19
ENDMDL
MODEL 4
REMARK VINA RESULT:     -12.1     19.171     25.147
ROOT
ATOM     19  C15 UNL A   1      40.682  30.428  29.874  1.00  0.00    +0.000 C 
ATOM     20  C16 UNL A   1      41.831  31.357  29.605  1.00  0.00    +0.000 C 
ATOM     21  N3  UNL A   1      42.956  31.121  28.975  1.00  0.00    +0.000 N 
ATOM     22  C17 UNL A   1      43.657  32.320  28.989  1.00  0.00    +0.000 C 
ATOM     23  C18 UNL A   1      44.904  32.574  28.525  1.00  0.00    +0.000 C 
ATOM     35  C25 UNL A   1      45.751  31.599  27.890  1.00  0.00    +0.000 C 
ATOM     36  C26 UNL A   1      47.042  31.754  27.414  1.00  0.00    +0.000 C 
ATOM     37  C27 UNL A   1      47.452  30.537  26.857  1.00  0.00    +0.000 C 
ATOM     38  C28 UNL A   1      46.431  29.615  27.019  1.00  0.00    +0.000 C 
ATOM     39  N4  UNL A   1      45.390  30.283  27.645  1.00  0.00    +0.000 N 
ATOM     40  C29 UNL A   1      46.405  28.228  26.636  1.00  0.00    +0.000 C 
ATOM     52  C36 UNL A   1      45.358  27.389  26.824  1.00  0.00    +0.000 C 
ATOM     53  N5  UNL A   1      44.120  27.650  27.394  1.00  0.00    +0.000 N 
ATOM     54  C37 UNL A   1      43.445  26.530  27.319  1.00  0.00    +0.000 C 
ATOM     55  C38 UNL A   1      42.055  26.226  27.803  1.00  0.00    +0.000 C 
ATOM     67  C45 UNL A   1      41.356  27.183  28.443  1.00  0.00    +0.000 C 
ATOM     68  C46 UNL A   1      40.018  27.023  29.002  1.00  0.00    +0.000 C 
ATOM     69  C47 UNL A   1      39.636  28.184  29.561  1.00  0.00    +0.000 C 
ATOM     70  C48 UNL A   1      40.715  29.163  29.415  1.00  0.00    +0.000 C 
ATOM     71  N6  UNL A   1      41.691  28.483  28.729  1.00  0.00    +0.000 N 
ATOM     72  C49 UNL A   1      44.177  25.430  26.677  1.00  0.00    +0.000 C 
ATOM     73  C50 UNL A   1      45.351  25.994  26.433  1.00  0.00    +0.000 C 
ATOM     74  C51 UNL A   1      42.810  33.297  29.640  1.00  0.00    +0.000 C 
ATOM     75  C52 UNL A   1      41.695  32.740  30.089  1.00  0.00    +0.000 C 
ATOM    119  H21 UNL A   1      47.605  32.617  27.463  1.00  0.00    +0.000 H 
ATOM    120  H22 UNL A   1      48.360  30.358  26.401  1.00  0.00    +0.000 H 
ATOM    121  H23 UNL A   1      44.523  29.881  27.882  1.00  0.00    +0.000 H 
ATOM    122  H24 UNL A   1      39.456  26.159  28.973  1.00  0.00    +0.000 H 
ATOM    123  H25 UNL A   1      38.728  28.358  30.018  1.00  0.00    +0.000 H 
ATOM    124  H26 UNL A   1      42.549  28.890  28.470  1.00  0.00    +0.000 H 
ATOM    125  H27 UNL A   1      43.861  24.470  26.469  1.00  0.00    +0.000 H 
ATOM    126  H28 UNL A   1      46.158  25.503  26.017  1.00  0.00    +0.000 H 
ATOM    127  H29 UNL A   1      43.045  34.297  29.741  1.00  0.00    +0.000 H 
ATOM    128  H30 UNL A   1      40.929  33.166  30.635  1.00  0.00    +0.000 H 
ENDROOT
BRANCH   19   18
ATOM    129  H31 UNL A   1      40.121  30.159  32.495  1.00  0.00    +0.000 H 
ATOM    130  H32 UNL A   1      38.132  30.865  33.689  1.00  0.00    +0.000 H 
ATOM     76  C53 UNL A   1      39.370  30.661  31.994  1.00  0.00    +0.000 C 
ATOM     77  C54 UNL A   1      38.245  31.100  32.692  1.00  0.00    +0.000 C 
ATOM     15  C11 UNL A   1      37.269  31.858  32.036  1.00  0.00    +0.000 C 
ATOM     16  C12 UNL A   1      37.367  32.086  30.660  1.00  0.00    +0.000 C 
ATOM     17  C13 UNL A   1      38.464  31.595  29.952  1.00  0.00    +0.000 C 
ATOM     18  C14 UNL A   1      39.487  30.900  30.618  1.00  0.00    +0.000 C 
ATOM    117  H19 UNL A   1      36.631  32.617  30.169  1.00  0.00    +0.000 H 
ATOM    118  H20 UNL A   1      38.524  31.743  28.933  1.00  0.00    +0.000 H 
BRANCH   15   13
ATOM     13  C10 UNL A   1      36.094  32.399  32.758  1.00  0.00    +0.000 C 
ATOM     14  O2  UNL A   1      34.969  32.008  32.461  1.00  0.00    +0.000 O 
BRANCH   13   12
ATOM    116  H18 UNL A   1      37.186  33.547  33.972  1.00  0.00    +0.000 H 
ATOM     12  N2  UNL A   1      36.253  33.334  33.742  1.00  0.00    +0.000 N 
BRANCH   12   11
ATOM    114  H16 UNL A   1      34.372  33.448  34.591  1.00  0.00    +0.000 H 
ATOM     11  C9  UNL A   1      35.245  34.060  34.501  1.00  0.00    +0.000 C 
ATOM    115  H17 UNL A   1      35.658  34.291  35.461  1.00  0.00    +0.000 H 
BRANCH   11   10
ATOM    113  H15 UNL A   1      35.729  35.716  33.313  1.00  0.00    +0.000 H 
ATOM     10  C8  UNL A   1      34.856  35.375  33.829  1.00  0.00    +0.000 C 
ATOM    112  H14 UNL A   1      34.524  36.050  34.590  1.00  0.00    +0.000 H 
BRANCH   10    9
ATOM      9  C7  UNL A   1      33.751  35.261  32.777  1.00  0.00    +0.000 C 
ATOM    110  H12 UNL A   1      33.276  34.310  32.896  1.00  0.00    +0.000 H 
ATOM    111  H13 UNL A   1      33.093  36.090  32.944  1.00  0.00    +0.000 H 
BRANCH    9    8
ATOM    108  H10 UNL A   1      34.666  36.344  31.199  1.00  0.00    +0.000 H 
ATOM    109  H11 UNL A   1      34.914  34.572  31.173  1.00  0.00    +0.000 H 
ATOM      8  C6  UNL A   1      34.226  35.377  31.327  1.00  0.00    +0.000 C 
BRANCH    8    7
ATOM    106  H8  UNL A   1      32.343  34.619  30.693  1.00  0.00    +0.000 H 
ATOM    107  H9  UNL A   1      32.810  36.195  30.002  1.00  0.00    +0.000 H 
ATOM      7  C5  UNL A   1      33.128  35.210  30.270  1.00  0.00    +0.000 C 
BRANCH    7    6
ATOM    105  H7  UNL A   1      34.238  35.206  28.448  1.00  0.00    +0.000 H 
ATOM      6  C4  UNL A   1      33.593  34.533  28.975  1.00  0.00    +0.000 C 
ATOM    104  H6  UNL A   1      32.738  34.292  28.378  1.00  0.00    +0.000 H 
BRANCH    6    5
ATOM      5  N1  UNL A   1      34.327  33.318  29.266  1.00  0.00    +0.000 N 
ATOM    103  H5  UNL A   1      34.317  33.011  30.202  1.00  0.00    +0.000 H 
BRANCH    5    3
ATOM      3  C3  UNL A   1      35.033  32.552  28.377  1.00  0.00    +0.000 C 
ATOM      4  O1  UNL A   1      35.872  33.129  27.684  1.00  0.00    +0.000 O 
BRANCH    3    2
ATOM      2  C2  UNL A   1      34.723  31.047  28.275  1.00  0.00    +0.000 C 
ATOM    102  H4  UNL A   1      34.386  30.708  29.232  1.00  0.00    +0.000 H 
BRANCH    2    1
ATOM      1  C1  UNL A   1      36.018  30.314  27.883  1.00  0.00    +0.000 C 
ATOM     99  H1  UNL A   1      36.044  30.181  26.822  1.00  0.00    +0.000 H 
ATOM    100  H2  UNL A   1      36.045  29.358  28.364  1.00  0.00    +0.000 H 
ATOM    101  H3  UNL A   1      36.863  30.893  28.192  1.00  0.00    +0.000 H 
ENDBRANCH    2    1
BRANCH    2   78
ATOM    131  H33 UNL A   1      32.450  32.467  27.695  1.00  0.00    +0.000 H 
ATOM    132  H34 UNL A   1      30.732  32.030  26.041  1.00  0.00    +0.000 H 
ATOM    133  H35 UNL A   1      29.300  31.117  23.864  1.00  0.00    +0.000 H 
ATOM    134  H36 UNL A   1      28.921  27.506  21.761  1.00  0.00    +0.000 H 
ATOM    135  H37 UNL A   1      30.759  26.536  23.032  1.00  0.00    +0.000 H 
ATOM    138  H40 UNL A   1      34.218  28.751  26.886  1.00  0.00    +0.000 H 
ATOM     78  C55 UNL A   1      33.552  30.711  27.336  1.00  0.00    +0.000 C 
ATOM     79  C56 UNL A   1      32.491  31.600  27.137  1.00  0.00    +0.000 C 
ATOM     80  C57 UNL A   1      31.483  31.341  26.198  1.00  0.00    +0.000 C 
ATOM     81  C58 UNL A   1      31.500  30.136  25.468  1.00  0.00    +0.000 C 
ATOM     82  C59 UNL A   1      30.706  29.616  24.410  1.00  0.00    +0.000 C 
ATOM     83  C60 UNL A   1      29.626  30.154  23.679  1.00  0.00    +0.000 C 
ATOM     84  C61 UNL A   1      29.001  29.379  22.708  1.00  0.00    +0.000 C 
ATOM     85 Cl1  UNL A   1      27.693  30.042  21.805  1.00  0.00    +0.000 Cl
ATOM     86  C62 UNL A   1      29.409  28.074  22.472  1.00  0.00    +0.000 C 
ATOM     87  C63 UNL A   1      30.476  27.516  23.190  1.00  0.00    +0.000 C 
ATOM     88  C64 UNL A   1      31.157  28.317  24.130  1.00  0.00    +0.000 C 
ATOM     89  N7  UNL A   1      32.240  28.056  24.975  1.00  0.00    +0.000 N 
ATOM     97  C69 UNL A   1      32.472  29.189  25.764  1.00  0.00    +0.000 C 
ATOM     98  C70 UNL A   1      33.500  29.466  26.687  1.00  0.00    +0.000 C 
BRANCH   89   90
ATOM     90  C65 UNL A   1      33.004  26.863  25.075  1.00  0.00    +0.000 C 
ATOM     91  O3  UNL A   1      34.063  26.851  24.434  1.00  0.00    +0.000 O 
BRANCH   90   92
ATOM    136  H38 UNL A   1      30.459  25.782  25.992  1.00  0.00    +0.000 H 
ATOM    137  H39 UNL A   1      33.145  22.865  27.080  1.00  0.00    +0.000 H 
ATOM     92  C66 UNL A   1      32.604  25.675  25.816  1.00  0.00    +0.000 C 
ATOM     93  C67 UNL A   1      31.332  25.258  26.157  1.00  0.00    +0.000 C 
ATOM     94  O4  UNL A   1      31.426  24.031  26.749  1.00  0.00    +0.000 O 
ATOM     95  C68 UNL A   1      32.755  23.748  26.715  1.00  0.00    +0.000 C 
ATOM     96  N8  UNL A   1      33.502  24.683  26.182  1.00  0.00    +0.000 N 
ENDBRANCH   90   92
ENDBRANCH   89   90
ENDBRANCH    2   78
ENDBRANCH    3    2
ENDBRANCH    5    3
ENDBRANCH    6    5
ENDBRANCH    7    6
ENDBRANCH    8    7
ENDBRANCH    9    8
ENDBRANCH   10    9
ENDBRANCH   11   10
ENDBRANCH   12   11
ENDBRANCH   13   12
ENDBRANCH   15   13
ENDBRANCH   19   18
BRANCH   23   24
ATOM     33  C24 UNL A   1      46.094  34.335  29.889  1.00  0.00    +0.000 C 
ATOM     34  F5  UNL A   1      46.290  33.435  30.863  1.00  0.00    +0.000 F 
ATOM     24  C19 UNL A   1      45.438  33.965  28.705  1.00  0.00    +0.000 C 
ATOM     25  C20 UNL A   1      45.255  34.948  27.720  1.00  0.00    +0.000 C 
ATOM     26  F1  UNL A   1      44.644  34.641  26.566  1.00  0.00    +0.000 F 
ATOM     27  C21 UNL A   1      45.726  36.244  27.905  1.00  0.00    +0.000 C 
ATOM     28  F2  UNL A   1      45.573  37.157  26.935  1.00  0.00    +0.000 F 
ATOM     29  C22 UNL A   1      46.362  36.592  29.087  1.00  0.00    +0.000 C 
ATOM     30  F3  UNL A   1      46.807  37.843  29.268  1.00  0.00    +0.000 F 
ATOM     31  C23 UNL A   1      46.541  35.640  30.081  1.00  0.00    +0.000 C 
ATOM     32  F4  UNL A   1      47.146  35.977  31.228  1.00  0.00    +0.000 F 
ENDBRANCH   23   24
BRANCH   40   41
ATOM     41  C30 UNL A   1      47.632  27.652  25.993  1.00  0.00    +0.000 C 
ATOM     42  C31 UNL A   1      47.756  27.568  24.599  1.00  0.00    +0.000 C 
ATOM     43  F6  UNL A   1      46.753  27.976  23.806  1.00  0.00    +0.000 F 
ATOM     44  C32 UNL A   1      48.893  27.020  24.014  1.00  0.00    +0.000 C 
ATOM     45  F7  UNL A   1      48.969  26.902  22.681  1.00  0.00    +0.000 F 
ATOM     46  C33 UNL A   1      49.940  26.578  24.809  1.00  0.00    +0.000 C 
ATOM     47  F8  UNL A   1      51.034  26.049  24.244  1.00  0.00    +0.000 F 
ATOM     48  C34 UNL A   1      49.849  26.674  26.190  1.00  0.00    +0.000 C 
ATOM     49  F9  UNL A   1      50.864  26.255  26.958  1.00  0.00    +0.000 F 
ATOM     50  C35 UNL A   1      48.701  27.197  26.778  1.00  0.00    +0.000 C 
ATOM     51  F10 UNL A   1      48.634  27.261  28.116  1.00  0.00    +0.000 F 
ENDBRANCH   40   41
BRANCH   55   56
ATOM     65  C44 UNL A   1      40.421  24.672  26.687  1.00  0.00    +0.000 C 
ATOM     66  F15 UNL A   1      39.939  25.701  25.975  1.00  0.00    +0.000 F 
ATOM     56  C39 UNL A   1      41.458  24.880  27.607  1.00  0.00    +0.000 C 
ATOM     57  C40 UNL A   1      41.921  23.773  28.332  1.00  0.00    +0.000 C 
ATOM     58  F11 UNL A   1      42.925  23.920  29.209  1.00  0.00    +0.000 F 
ATOM     59  C41 UNL A   1      41.386  22.503  28.126  1.00  0.00    +0.000 C 
ATOM     60  F12 UNL A   1      41.879  21.454  28.796  1.00  0.00    +0.000 F 
ATOM     61  C42 UNL A   1      40.357  22.322  27.213  1.00  0.00    +0.000 C 
ATOM     62  F13 UNL A   1      39.842  21.102  27.015  1.00  0.00    +0.000 F 
ATOM     63  C43 UNL A   1      39.868  23.407  26.501  1.00  0.00    +0.000 C 
ATOM     64  F14 UNL A   1      38.865  23.239  25.628  1.00  0.00    +0.000 F 
ENDBRANCH   55   56
TORSDOF 19
ENDMDL
MODEL 5
REMARK VINA RESULT:     -12.0     41.905     45.772
ROOT
ATOM     19  C15 UNL A   1      13.521  53.554   5.310  1.00  0.00    +0.000 C 
ATOM     20  C16 UNL A   1      14.456  54.055   4.245  1.00  0.00    +0.000 C 
ATOM     21  N3  UNL A   1      14.974  53.408   3.230  1.00  0.00    +0.000 N 
ATOM     22  C17 UNL A   1      15.748  54.336   2.545  1.00  0.00    +0.000 C 
ATOM     23  C18 UNL A   1      16.540  54.141   1.464  1.00  0.00    +0.000 C 
ATOM     35  C25 UNL A   1      16.710  52.878   0.795  1.00  0.00    +0.000 C 
ATOM     36  C26 UNL A   1      17.514  52.574  -0.290  1.00  0.00    +0.000 C 
ATOM     37  C27 UNL A   1      17.332  51.223  -0.605  1.00  0.00    +0.000 C 
ATOM     38  C28 UNL A   1      16.444  50.676   0.306  1.00  0.00    +0.000 C 
ATOM     39  N4  UNL A   1      16.062  51.705   1.153  1.00  0.00    +0.000 N 
ATOM     40  C29 UNL A   1      15.979  49.318   0.402  1.00  0.00    +0.000 C 
ATOM     52  C36 UNL A   1      15.097  48.860   1.324  1.00  0.00    +0.000 C 
ATOM     53  N5  UNL A   1      14.457  49.555   2.340  1.00  0.00    +0.000 N 
ATOM     54  C37 UNL A   1      13.683  48.685   2.940  1.00  0.00    +0.000 C 
ATOM     55  C38 UNL A   1      12.778  48.878   4.124  1.00  0.00    +0.000 C 
ATOM     67  C45 UNL A   1      12.729  50.081   4.726  1.00  0.00    +0.000 C 
ATOM     68  C46 UNL A   1      11.932  50.406   5.905  1.00  0.00    +0.000 C 
ATOM     69  C47 UNL A   1      12.128  51.696   6.222  1.00  0.00    +0.000 C 
ATOM     70  C48 UNL A   1      13.081  52.282   5.279  1.00  0.00    +0.000 C 
ATOM     71  N6  UNL A   1      13.376  51.253   4.420  1.00  0.00    +0.000 N 
ATOM     72  C49 UNL A   1      13.734  47.336   2.359  1.00  0.00    +0.000 C 
ATOM     73  C50 UNL A   1      14.642  47.488   1.405  1.00  0.00    +0.000 C 
ATOM     74  C51 UNL A   1      15.589  55.603   3.226  1.00  0.00    +0.000 C 
ATOM     75  C52 UNL A   1      14.845  55.471   4.314  1.00  0.00    +0.000 C 
ATOM    119  H21 UNL A   1      18.140  53.231  -0.781  1.00  0.00    +0.000 H 
ATOM    120  H22 UNL A   1      17.783  50.720  -1.385  1.00  0.00    +0.000 H 
ATOM    121  H23 UNL A   1      15.426  51.615   1.900  1.00  0.00    +0.000 H 
ATOM    122  H24 UNL A   1      11.318  49.751   6.412  1.00  0.00    +0.000 H 
ATOM    123  H25 UNL A   1      11.677  52.195   7.006  1.00  0.00    +0.000 H 
ATOM    124  H26 UNL A   1      13.992  51.347   3.659  1.00  0.00    +0.000 H 
ATOM    125  H27 UNL A   1      13.202  46.492   2.623  1.00  0.00    +0.000 H 
ATOM    126  H28 UNL A   1      14.981  46.725   0.798  1.00  0.00    +0.000 H 
ATOM    127  H29 UNL A   1      16.001  56.493   2.905  1.00  0.00    +0.000 H 
ATOM    128  H30 UNL A   1      14.601  56.179   5.026  1.00  0.00    +0.000 H 
ENDROOT
BRANCH   19   18
ATOM    129  H31 UNL A   1      14.902  54.540   7.402  1.00  0.00    +0.000 H 
ATOM    130  H32 UNL A   1      14.104  55.959   9.200  1.00  0.00    +0.000 H 
ATOM     76  C53 UNL A   1      13.923  54.868   7.403  1.00  0.00    +0.000 C 
ATOM     77  C54 UNL A   1      13.477  55.715   8.418  1.00  0.00    +0.000 C 
ATOM     15  C11 UNL A   1      12.177  56.233   8.374  1.00  0.00    +0.000 C 
ATOM     16  C12 UNL A   1      11.292  55.818   7.374  1.00  0.00    +0.000 C 
ATOM     17  C13 UNL A   1      11.723  54.924   6.394  1.00  0.00    +0.000 C 
ATOM     18  C14 UNL A   1      13.049  54.460   6.386  1.00  0.00    +0.000 C 
ATOM    117  H19 UNL A   1      10.324  56.174   7.360  1.00  0.00    +0.000 H 
ATOM    118  H20 UNL A   1      11.062  54.600   5.670  1.00  0.00    +0.000 H 
BRANCH   15   13
ATOM     13  C10 UNL A   1      11.690  57.188   9.396  1.00  0.00    +0.000 C 
ATOM     14  O2  UNL A   1      12.056  58.359   9.353  1.00  0.00    +0.000 O 
BRANCH   13   12
ATOM    116  H18 UNL A   1       9.903  57.032  10.273  1.00  0.00    +0.000 H 
ATOM     12  N2  UNL A   1      10.846  56.774  10.388  1.00  0.00    +0.000 N 
BRANCH   12   11
ATOM    114  H16 UNL A   1      12.062  56.354  12.005  1.00  0.00    +0.000 H 
ATOM     11  C9  UNL A   1      11.137  56.009  11.591  1.00  0.00    +0.000 C 
ATOM    115  H17 UNL A   1      10.328  56.151  12.277  1.00  0.00    +0.000 H 
BRANCH   11   10
ATOM    113  H15 UNL A   1      11.327  54.033  12.261  1.00  0.00    +0.000 H 
ATOM     10  C8  UNL A   1      11.254  54.513  11.307  1.00  0.00    +0.000 C 
ATOM    112  H14 UNL A   1      12.114  54.359  10.689  1.00  0.00    +0.000 H 
BRANCH   10    9
ATOM      9  C7  UNL A   1      10.045  53.892  10.605  1.00  0.00    +0.000 C 
ATOM    110  H12 UNL A   1       9.213  53.932  11.277  1.00  0.00    +0.000 H 
ATOM    111  H13 UNL A   1       9.896  54.459   9.709  1.00  0.00    +0.000 H 
BRANCH    9    8
ATOM    108  H10 UNL A   1       9.645  52.281   9.283  1.00  0.00    +0.000 H 
ATOM    109  H11 UNL A   1      11.281  52.306  10.007  1.00  0.00    +0.000 H 
ATOM      8  C6  UNL A   1      10.231  52.438  10.165  1.00  0.00    +0.000 C 
BRANCH    8    7
ATOM    106  H8  UNL A   1      10.601  51.310  11.929  1.00  0.00    +0.000 H 
ATOM    107  H9  UNL A   1       8.892  51.721  11.623  1.00  0.00    +0.000 H 
ATOM      7  C5  UNL A   1       9.818  51.388  11.204  1.00  0.00    +0.000 C 
BRANCH    7    6
ATOM    105  H7  UNL A   1      10.329  49.765   9.917  1.00  0.00    +0.000 H 
ATOM      6  C4  UNL A   1       9.559  49.992  10.625  1.00  0.00    +0.000 C 
ATOM    104  H6  UNL A   1       8.601  49.982  10.149  1.00  0.00    +0.000 H 
BRANCH    6    5
ATOM      5  N1  UNL A   1       9.580  48.990  11.672  1.00  0.00    +0.000 N 
ATOM    103  H5  UNL A   1       8.711  48.750  12.069  1.00  0.00    +0.000 H 
BRANCH    5    3
ATOM      3  C3  UNL A   1      10.680  48.343  12.167  1.00  0.00    +0.000 C 
ATOM      4  O1  UNL A   1      11.167  48.785  13.209  1.00  0.00    +0.000 O 
BRANCH    3    2
ATOM      2  C2  UNL A   1      11.251  47.140  11.395  1.00  0.00    +0.000 C 
ATOM    102  H4  UNL A   1      10.474  46.734  10.783  1.00  0.00    +0.000 H 
BRANCH    2    1
ATOM      1  C1  UNL A   1      11.718  46.089  12.416  1.00  0.00    +0.000 C 
ATOM     99  H1  UNL A   1      12.302  45.343  11.918  1.00  0.00    +0.000 H 
ATOM    100  H2  UNL A   1      10.864  45.629  12.871  1.00  0.00    +0.000 H 
ATOM    101  H3  UNL A   1      12.311  46.562  13.171  1.00  0.00    +0.000 H 
ENDBRANCH    2    1
BRANCH    2   78
ATOM    131  H33 UNL A   1      12.703  45.552   9.694  1.00  0.00    +0.000 H 
ATOM    132  H34 UNL A   1      14.267  46.177   7.950  1.00  0.00    +0.000 H 
ATOM    133  H35 UNL A   1      15.702  47.531   6.019  1.00  0.00    +0.000 H 
ATOM    134  H36 UNL A   1      17.251  51.399   5.521  1.00  0.00    +0.000 H 
ATOM    135  H37 UNL A   1      16.092  52.154   7.526  1.00  0.00    +0.000 H 
ATOM    138  H40 UNL A   1      12.471  49.544  10.961  1.00  0.00    +0.000 H 
ATOM     78  C55 UNL A   1      12.353  47.508  10.387  1.00  0.00    +0.000 C 
ATOM     79  C56 UNL A   1      12.949  46.546   9.565  1.00  0.00    +0.000 C 
ATOM     80  C57 UNL A   1      13.871  46.900   8.571  1.00  0.00    +0.000 C 
ATOM     81  C58 UNL A   1      14.253  48.248   8.419  1.00  0.00    +0.000 C 
ATOM     82  C59 UNL A   1      15.070  48.939   7.484  1.00  0.00    +0.000 C 
ATOM     83  C60 UNL A   1      15.765  48.513   6.332  1.00  0.00    +0.000 C 
ATOM     84  C61 UNL A   1      16.538  49.425   5.621  1.00  0.00    +0.000 C 
ATOM     85 Cl1  UNL A   1      17.374  48.909   4.206  1.00  0.00    +0.000 Cl
ATOM     86  C62 UNL A   1      16.657  50.740   6.050  1.00  0.00    +0.000 C 
ATOM     87  C63 UNL A   1      15.980  51.184   7.194  1.00  0.00    +0.000 C 
ATOM     88  C64 UNL A   1      15.142  50.282   7.883  1.00  0.00    +0.000 C 
ATOM     89  N7  UNL A   1      14.347  50.425   9.024  1.00  0.00    +0.000 N 
ATOM     97  C69 UNL A   1      13.772  49.184   9.325  1.00  0.00    +0.000 C 
ATOM     98  C70 UNL A   1      12.823  48.830  10.304  1.00  0.00    +0.000 C 
BRANCH   89   90
ATOM     90  C65 UNL A   1      14.132  51.595   9.800  1.00  0.00    +0.000 C 
ATOM     91  O3  UNL A   1      13.391  52.447   9.289  1.00  0.00    +0.000 O 
BRANCH   90   92
ATOM    136  H38 UNL A   1      16.413  50.504  11.247  1.00  0.00    +0.000 H 
ATOM    137  H39 UNL A   1      15.159  53.573  13.681  1.00  0.00    +0.000 H 
ATOM     92  C66 UNL A   1      14.753  51.869  11.088  1.00  0.00    +0.000 C 
ATOM     93  C67 UNL A   1      15.876  51.290  11.646  1.00  0.00    +0.000 C 
ATOM     94  O4  UNL A   1      16.157  51.936  12.816  1.00  0.00    +0.000 O 
ATOM     95  C68 UNL A   1      15.202  52.898  12.900  1.00  0.00    +0.000 C 
ATOM     96  N8  UNL A   1      14.340  52.906  11.914  1.00  0.00    +0.000 N 
ENDBRANCH   90   92
ENDBRANCH   89   90
ENDBRANCH    2   78
ENDBRANCH    3    2
ENDBRANCH    5    3
ENDBRANCH    6    5
ENDBRANCH    7    6
ENDBRANCH    8    7
ENDBRANCH    9    8
ENDBRANCH   10    9
ENDBRANCH   11   10
ENDBRANCH   12   11
ENDBRANCH   13   12
ENDBRANCH   15   13
ENDBRANCH   19   18
BRANCH   23   24
ATOM     33  C24 UNL A   1      16.771  56.131  -0.073  1.00  0.00    +0.000 C 
ATOM     34  F5  UNL A   1      15.550  55.880  -0.567  1.00  0.00    +0.000 F 
ATOM     24  C19 UNL A   1      17.303  55.324   0.944  1.00  0.00    +0.000 C 
ATOM     25  C20 UNL A   1      18.587  55.629   1.420  1.00  0.00    +0.000 C 
ATOM     26  F1  UNL A   1      19.135  54.894   2.400  1.00  0.00    +0.000 F 
ATOM     27  C21 UNL A   1      19.302  56.710   0.913  1.00  0.00    +0.000 C 
ATOM     28  F2  UNL A   1      20.512  57.004   1.410  1.00  0.00    +0.000 F 
ATOM     29  C22 UNL A   1      18.762  57.488  -0.099  1.00  0.00    +0.000 C 
ATOM     30  F3  UNL A   1      19.456  58.523  -0.595  1.00  0.00    +0.000 F 
ATOM     31  C23 UNL A   1      17.500  57.196  -0.596  1.00  0.00    +0.000 C 
ATOM     32  F4  UNL A   1      16.982  57.941  -1.582  1.00  0.00    +0.000 F 
ENDBRANCH   23   24
BRANCH   40   41
ATOM     41  C30 UNL A   1      16.517  48.318  -0.579  1.00  0.00    +0.000 C 
ATOM     42  C31 UNL A   1      15.765  47.903  -1.687  1.00  0.00    +0.000 C 
ATOM     43  F6  UNL A   1      14.522  48.373  -1.874  1.00  0.00    +0.000 F 
ATOM     44  C32 UNL A   1      16.270  46.966  -2.584  1.00  0.00    +0.000 C 
ATOM     45  F7  UNL A   1      15.514  46.544  -3.607  1.00  0.00    +0.000 F 
ATOM     46  C33 UNL A   1      17.546  46.453  -2.408  1.00  0.00    +0.000 C 
ATOM     47  F8  UNL A   1      18.030  45.549  -3.271  1.00  0.00    +0.000 F 
ATOM     48  C34 UNL A   1      18.317  46.867  -1.332  1.00  0.00    +0.000 C 
ATOM     49  F9  UNL A   1      19.554  46.379  -1.167  1.00  0.00    +0.000 F 
ATOM     50  C35 UNL A   1      17.804  47.785  -0.419  1.00  0.00    +0.000 C 
ATOM     51  F10 UNL A   1      18.566  48.155   0.621  1.00  0.00    +0.000 F 
ENDBRANCH   40   41
BRANCH   55   56
ATOM     65  C44 UNL A   1      12.559  46.665   5.299  1.00  0.00    +0.000 C 
ATOM     66  F15 UNL A   1      13.892  46.615   5.441  1.00  0.00    +0.000 F 
ATOM     56  C39 UNL A   1      11.962  47.753   4.650  1.00  0.00    +0.000 C 
ATOM     57  C40 UNL A   1      10.566  47.753   4.521  1.00  0.00    +0.000 C 
ATOM     58  F11 UNL A   1       9.948  48.783   3.925  1.00  0.00    +0.000 F 
ATOM     59  C41 UNL A   1       9.796  46.716   5.043  1.00  0.00    +0.000 C 
ATOM     60  F12 UNL A   1       8.461  46.763   4.949  1.00  0.00    +0.000 F 
ATOM     61  C42 UNL A   1      10.409  45.645   5.678  1.00  0.00    +0.000 C 
ATOM     62  F13 UNL A   1       9.669  44.648   6.180  1.00  0.00    +0.000 F 
ATOM     63  C43 UNL A   1      11.791  45.615   5.797  1.00  0.00    +0.000 C 
ATOM     64  F14 UNL A   1      12.388  44.576   6.397  1.00  0.00    +0.000 F 
ENDBRANCH   55   56
TORSDOF 19
ENDMDL
MODEL 6
REMARK VINA RESULT:     -12.0     40.071     46.613
ROOT
ATOM     19  C15 UNL A   1      53.093  20.085  11.710  1.00  0.00    +0.000 C 
ATOM     20  C16 UNL A   1      54.429  19.423  11.526  1.00  0.00    +0.000 C 
ATOM     21  N3  UNL A   1      55.441  19.357  12.356  1.00  0.00    +0.000 N 
ATOM     22  C17 UNL A   1      56.418  18.615  11.705  1.00  0.00    +0.000 C 
ATOM     23  C18 UNL A   1      57.675  18.327  12.118  1.00  0.00    +0.000 C 
ATOM     35  C25 UNL A   1      58.235  18.746  13.376  1.00  0.00    +0.000 C 
ATOM     36  C26 UNL A   1      59.509  18.529  13.871  1.00  0.00    +0.000 C 
ATOM     37  C27 UNL A   1      59.588  19.103  15.145  1.00  0.00    +0.000 C 
ATOM     38  C28 UNL A   1      58.376  19.710  15.428  1.00  0.00    +0.000 C 
ATOM     39  N4  UNL A   1      57.551  19.475  14.338  1.00  0.00    +0.000 N 
ATOM     40  C29 UNL A   1      57.996  20.453  16.600  1.00  0.00    +0.000 C 
ATOM     52  C36 UNL A   1      56.779  21.012  16.806  1.00  0.00    +0.000 C 
ATOM     53  N5  UNL A   1      55.662  21.001  15.983  1.00  0.00    +0.000 N 
ATOM     54  C37 UNL A   1      54.728  21.649  16.634  1.00  0.00    +0.000 C 
ATOM     55  C38 UNL A   1      53.320  21.963  16.210  1.00  0.00    +0.000 C 
ATOM     67  C45 UNL A   1      52.899  21.585  14.989  1.00  0.00    +0.000 C 
ATOM     68  C46 UNL A   1      51.580  21.854  14.426  1.00  0.00    +0.000 C 
ATOM     69  C47 UNL A   1      51.515  21.325  13.193  1.00  0.00    +0.000 C 
ATOM     70  C48 UNL A   1      52.798  20.698  12.872  1.00  0.00    +0.000 C 
ATOM     71  N6  UNL A   1      53.555  20.891  14.001  1.00  0.00    +0.000 N 
ATOM     72  C49 UNL A   1      55.145  22.135  17.956  1.00  0.00    +0.000 C 
ATOM     73  C50 UNL A   1      56.415  21.758  17.993  1.00  0.00    +0.000 C 
ATOM     74  C51 UNL A   1      55.859  18.205  10.434  1.00  0.00    +0.000 C 
ATOM     75  C52 UNL A   1      54.654  18.724  10.251  1.00  0.00    +0.000 C 
ATOM    119  H21 UNL A   1      60.270  18.030  13.384  1.00  0.00    +0.000 H 
ATOM    120  H22 UNL A   1      60.410  19.077  15.768  1.00  0.00    +0.000 H 
ATOM    121  H23 UNL A   1      56.619  19.781  14.259  1.00  0.00    +0.000 H 
ATOM    122  H24 UNL A   1      50.821  22.366  14.899  1.00  0.00    +0.000 H 
ATOM    123  H25 UNL A   1      50.691  21.356  12.571  1.00  0.00    +0.000 H 
ATOM    124  H26 UNL A   1      54.479  20.565  14.092  1.00  0.00    +0.000 H 
ATOM    125  H27 UNL A   1      54.594  22.638  18.669  1.00  0.00    +0.000 H 
ATOM    126  H28 UNL A   1      57.062  21.968  18.769  1.00  0.00    +0.000 H 
ATOM    127  H29 UNL A   1      56.338  17.589   9.759  1.00  0.00    +0.000 H 
ATOM    128  H30 UNL A   1      54.034  18.656   9.428  1.00  0.00    +0.000 H 
ENDROOT
BRANCH   19   18
ATOM    129  H31 UNL A   1      51.371  18.106  11.100  1.00  0.00    +0.000 H 
ATOM    130  H32 UNL A   1      49.762  18.015   9.287  1.00  0.00    +0.000 H 
ATOM     76  C53 UNL A   1      51.263  18.914  10.466  1.00  0.00    +0.000 C 
ATOM     77  C54 UNL A   1      50.311  18.874   9.447  1.00  0.00    +0.000 C 
ATOM     15  C11 UNL A   1      50.101  20.000   8.643  1.00  0.00    +0.000 C 
ATOM     16  C12 UNL A   1      50.917  21.126   8.789  1.00  0.00    +0.000 C 
ATOM     17  C13 UNL A   1      51.910  21.141   9.768  1.00  0.00    +0.000 C 
ATOM     18  C14 UNL A   1      52.075  20.045  10.631  1.00  0.00    +0.000 C 
ATOM    117  H19 UNL A   1      50.785  21.943   8.174  1.00  0.00    +0.000 H 
ATOM    118  H20 UNL A   1      52.527  21.962   9.859  1.00  0.00    +0.000 H 
BRANCH   15   13
ATOM     13  C10 UNL A   1      49.052  20.019   7.597  1.00  0.00    +0.000 C 
ATOM     14  O2  UNL A   1      48.395  21.041   7.419  1.00  0.00    +0.000 O 
BRANCH   13   12
ATOM    116  H18 UNL A   1      49.602  18.392   6.580  1.00  0.00    +0.000 H 
ATOM     12  N2  UNL A   1      48.805  18.909   6.839  1.00  0.00    +0.000 N 
BRANCH   12   11
ATOM    114  H16 UNL A   1      46.793  18.528   7.113  1.00  0.00    +0.000 H 
ATOM     11  C9  UNL A   1      47.538  18.379   6.358  1.00  0.00    +0.000 C 
ATOM    115  H17 UNL A   1      47.285  18.895   5.456  1.00  0.00    +0.000 H 
BRANCH   11   10
ATOM    113  H15 UNL A   1      47.227  16.377   6.892  1.00  0.00    +0.000 H 
ATOM     10  C8  UNL A   1      47.622  16.888   6.039  1.00  0.00    +0.000 C 
ATOM    112  H14 UNL A   1      48.646  16.649   5.839  1.00  0.00    +0.000 H 
BRANCH   10    9
ATOM      9  C7  UNL A   1      46.786  16.435   4.841  1.00  0.00    +0.000 C 
ATOM    110  H12 UNL A   1      47.284  16.753   3.948  1.00  0.00    +0.000 H 
ATOM    111  H13 UNL A   1      46.696  15.372   4.923  1.00  0.00    +0.000 H 
BRANCH    9    8
ATOM    108  H10 UNL A   1      44.701  16.181   4.538  1.00  0.00    +0.000 H 
ATOM    109  H11 UNL A   1      45.166  17.379   5.783  1.00  0.00    +0.000 H 
ATOM      8  C6  UNL A   1      45.357  16.983   4.807  1.00  0.00    +0.000 C 
BRANCH    8    7
ATOM    106  H8  UNL A   1      44.922  19.022   4.388  1.00  0.00    +0.000 H 
ATOM    107  H9  UNL A   1      46.015  18.215   3.233  1.00  0.00    +0.000 H 
ATOM      7  C5  UNL A   1      45.127  18.136   3.824  1.00  0.00    +0.000 C 
BRANCH    7    6
ATOM    105  H7  UNL A   1      43.715  16.873   2.843  1.00  0.00    +0.000 H 
ATOM      6  C4  UNL A   1      43.968  17.913   2.844  1.00  0.00    +0.000 C 
ATOM    104  H6  UNL A   1      44.272  18.223   1.866  1.00  0.00    +0.000 H 
BRANCH    6    5
ATOM      5  N1  UNL A   1      42.803  18.676   3.244  1.00  0.00    +0.000 N 
ATOM    103  H5  UNL A   1      42.766  18.959   4.187  1.00  0.00    +0.000 H 
BRANCH    5    3
ATOM      3  C3  UNL A   1      41.750  19.044   2.451  1.00  0.00    +0.000 C 
ATOM      4  O1  UNL A   1      40.650  18.561   2.722  1.00  0.00    +0.000 O 
BRANCH    3    2
ATOM      2  C2  UNL A   1      42.001  19.998   1.269  1.00  0.00    +0.000 C 
ATOM    102  H4  UNL A   1      42.438  19.437   0.471  1.00  0.00    +0.000 H 
BRANCH    2    1
ATOM      1  C1  UNL A   1      42.974  21.095   1.734  1.00  0.00    +0.000 C 
ATOM     99  H1  UNL A   1      43.972  20.826   1.459  1.00  0.00    +0.000 H 
ATOM    100  H2  UNL A   1      42.912  21.199   2.797  1.00  0.00    +0.000 H 
ATOM    101  H3  UNL A   1      42.714  22.023   1.269  1.00  0.00    +0.000 H 
ENDBRANCH    2    1
BRANCH    2   78
ATOM    131  H33 UNL A   1      41.512  20.900  -1.275  1.00  0.00    +0.000 H 
ATOM    132  H34 UNL A   1      39.425  21.588  -2.298  1.00  0.00    +0.000 H 
ATOM    133  H35 UNL A   1      36.763  21.989  -2.910  1.00  0.00    +0.000 H 
ATOM    134  H36 UNL A   1      33.217  22.695  -0.781  1.00  0.00    +0.000 H 
ATOM    135  H37 UNL A   1      34.365  22.290   1.328  1.00  0.00    +0.000 H 
ATOM    138  H40 UNL A   1      39.626  20.626   2.462  1.00  0.00    +0.000 H 
ATOM     78  C55 UNL A   1      40.718  20.576   0.648  1.00  0.00    +0.000 C 
ATOM     79  C56 UNL A   1      40.655  20.941  -0.701  1.00  0.00    +0.000 C 
ATOM     80  C57 UNL A   1      39.455  21.362  -1.292  1.00  0.00    +0.000 C 
ATOM     81  C58 UNL A   1      38.290  21.472  -0.507  1.00  0.00    +0.000 C 
ATOM     82  C59 UNL A   1      36.933  21.773  -0.800  1.00  0.00    +0.000 C 
ATOM     83  C60 UNL A   1      36.256  22.032  -2.011  1.00  0.00    +0.000 C 
ATOM     84  C61 UNL A   1      34.901  22.348  -1.986  1.00  0.00    +0.000 C 
ATOM     85 Cl1  UNL A   1      34.073  22.648  -3.466  1.00  0.00    +0.000 Cl
ATOM     86  C62 UNL A   1      34.217  22.440  -0.782  1.00  0.00    +0.000 C 
ATOM     87  C63 UNL A   1      34.870  22.193   0.433  1.00  0.00    +0.000 C 
ATOM     88  C64 UNL A   1      36.227  21.809   0.412  1.00  0.00    +0.000 C 
ATOM     89  N7  UNL A   1      37.128  21.492   1.433  1.00  0.00    +0.000 N 
ATOM     97  C69 UNL A   1      38.382  21.248   0.860  1.00  0.00    +0.000 C 
ATOM     98  C70 UNL A   1      39.582  20.796   1.445  1.00  0.00    +0.000 C 
BRANCH   89   90
ATOM     90  C65 UNL A   1      36.881  21.430   2.830  1.00  0.00    +0.000 C 
ATOM     91  O3  UNL A   1      37.091  22.477   3.458  1.00  0.00    +0.000 O 
BRANCH   90   92
ATOM    136  H38 UNL A   1      38.084  18.828   3.353  1.00  0.00    +0.000 H 
ATOM    137  H39 UNL A   1      34.577  18.672   5.496  1.00  0.00    +0.000 H 
ATOM     92  C66 UNL A   1      36.464  20.236   3.552  1.00  0.00    +0.000 C 
ATOM     93  C67 UNL A   1      37.163  19.062   3.757  1.00  0.00    +0.000 C 
ATOM     94  O4  UNL A   1      36.428  18.264   4.586  1.00  0.00    +0.000 O 
ATOM     95  C68 UNL A   1      35.325  19.005   4.868  1.00  0.00    +0.000 C 
ATOM     96  N8  UNL A   1      35.285  20.176   4.282  1.00  0.00    +0.000 N 
ENDBRANCH   90   92
ENDBRANCH   89   90
ENDBRANCH    2   78
ENDBRANCH    3    2
ENDBRANCH    5    3
ENDBRANCH    6    5
ENDBRANCH    7    6
ENDBRANCH    8    7
ENDBRANCH    9    8
ENDBRANCH   10    9
ENDBRANCH   11   10
ENDBRANCH   12   11
ENDBRANCH   13   12
ENDBRANCH   15   13
ENDBRANCH   19   18
BRANCH   23   24
ATOM     33  C24 UNL A   1      58.609  16.131  11.291  1.00  0.00    +0.000 C 
ATOM     34  F5  UNL A   1      57.862  15.483  12.197  1.00  0.00    +0.000 F 
ATOM     24  C19 UNL A   1      58.542  17.529  11.189  1.00  0.00    +0.000 C 
ATOM     25  C20 UNL A   1      59.348  18.157  10.228  1.00  0.00    +0.000 C 
ATOM     26  F1  UNL A   1      59.312  19.490  10.083  1.00  0.00    +0.000 F 
ATOM     27  C21 UNL A   1      60.174  17.413   9.388  1.00  0.00    +0.000 C 
ATOM     28  F2  UNL A   1      60.907  18.032   8.452  1.00  0.00    +0.000 F 
ATOM     29  C22 UNL A   1      60.232  16.034   9.513  1.00  0.00    +0.000 C 
ATOM     30  F3  UNL A   1      61.035  15.320   8.711  1.00  0.00    +0.000 F 
ATOM     31  C23 UNL A   1      59.455  15.393  10.467  1.00  0.00    +0.000 C 
ATOM     32  F4  UNL A   1      59.519  14.061  10.596  1.00  0.00    +0.000 F 
ENDBRANCH   23   24
BRANCH   40   41
ATOM     41  C30 UNL A   1      59.022  20.641  17.678  1.00  0.00    +0.000 C 
ATOM     42  C31 UNL A   1      59.796  21.808  17.755  1.00  0.00    +0.000 C 
ATOM     43  F6  UNL A   1      59.655  22.773  16.834  1.00  0.00    +0.000 F 
ATOM     44  C32 UNL A   1      60.754  21.966  18.752  1.00  0.00    +0.000 C 
ATOM     45  F7  UNL A   1      61.520  23.065  18.776  1.00  0.00    +0.000 F 
ATOM     46  C33 UNL A   1      60.931  20.978  19.709  1.00  0.00    +0.000 C 
ATOM     47  F8  UNL A   1      61.855  21.130  20.668  1.00  0.00    +0.000 F 
ATOM     48  C34 UNL A   1      60.159  19.826  19.666  1.00  0.00    +0.000 C 
ATOM     49  F9  UNL A   1      60.323  18.876  20.596  1.00  0.00    +0.000 F 
ATOM     50  C35 UNL A   1      59.218  19.654  18.654  1.00  0.00    +0.000 C 
ATOM     51  F10 UNL A   1      58.498  18.523  18.628  1.00  0.00    +0.000 F 
ENDBRANCH   40   41
BRANCH   55   56
ATOM     65  C44 UNL A   1      51.609  22.038  18.053  1.00  0.00    +0.000 C 
ATOM     66  F15 UNL A   1      51.658  20.701  18.144  1.00  0.00    +0.000 F 
ATOM     56  C39 UNL A   1      52.402  22.707  17.111  1.00  0.00    +0.000 C 
ATOM     57  C40 UNL A   1      52.309  24.104  17.052  1.00  0.00    +0.000 C 
ATOM     58  F11 UNL A   1      53.063  24.790  16.180  1.00  0.00    +0.000 F 
ATOM     59  C41 UNL A   1      51.474  24.807  17.918  1.00  0.00    +0.000 C 
ATOM     60  F12 UNL A   1      51.439  26.145  17.874  1.00  0.00    +0.000 F 
ATOM     61  C42 UNL A   1      50.694  24.123  18.840  1.00  0.00    +0.000 C 
ATOM     62  F13 UNL A   1      49.892  24.798  19.673  1.00  0.00    +0.000 F 
ATOM     63  C43 UNL A   1      50.755  22.739  18.901  1.00  0.00    +0.000 C 
ATOM     64  F14 UNL A   1      49.993  22.073  19.781  1.00  0.00    +0.000 F 
ENDBRANCH   55   56
TORSDOF 19
ENDMDL
MODEL 7
REMARK VINA RESULT:     -12.0     41.811     45.579
ROOT
ATOM     19  C15 UNL A   1      13.867  53.825   4.880  1.00  0.00    +0.000 C 
ATOM     20  C16 UNL A   1      14.791  54.284   3.788  1.00  0.00    +0.000 C 
ATOM     21  N3  UNL A   1      15.290  53.602   2.786  1.00  0.00    +0.000 N 
ATOM     22  C17 UNL A   1      16.062  54.501   2.063  1.00  0.00    +0.000 C 
ATOM     23  C18 UNL A   1      16.838  54.267   0.978  1.00  0.00    +0.000 C 
ATOM     35  C25 UNL A   1      16.987  52.982   0.345  1.00  0.00    +0.000 C 
ATOM     36  C26 UNL A   1      17.773  52.639  -0.740  1.00  0.00    +0.000 C 
ATOM     37  C27 UNL A   1      17.576  51.280  -1.012  1.00  0.00    +0.000 C 
ATOM     38  C28 UNL A   1      16.695  50.769  -0.073  1.00  0.00    +0.000 C 
ATOM     39  N4  UNL A   1      16.334  51.827   0.747  1.00  0.00    +0.000 N 
ATOM     40  C29 UNL A   1      16.220  49.419   0.070  1.00  0.00    +0.000 C 
ATOM     52  C36 UNL A   1      15.346  48.998   1.017  1.00  0.00    +0.000 C 
ATOM     53  N5  UNL A   1      14.726  49.729   2.021  1.00  0.00    +0.000 N 
ATOM     54  C37 UNL A   1      13.953  48.884   2.657  1.00  0.00    +0.000 C 
ATOM     55  C38 UNL A   1      13.065  49.122   3.846  1.00  0.00    +0.000 C 
ATOM     67  C45 UNL A   1      13.035  50.342   4.413  1.00  0.00    +0.000 C 
ATOM     68  C46 UNL A   1      12.258  50.711   5.591  1.00  0.00    +0.000 C 
ATOM     69  C47 UNL A   1      12.469  52.008   5.867  1.00  0.00    +0.000 C 
ATOM     70  C48 UNL A   1      13.415  52.556   4.894  1.00  0.00    +0.000 C 
ATOM     71  N6  UNL A   1      13.688  51.499   4.063  1.00  0.00    +0.000 N 
ATOM     72  C49 UNL A   1      13.984  47.519   2.116  1.00  0.00    +0.000 C 
ATOM     73  C50 UNL A   1      14.880  47.632   1.147  1.00  0.00    +0.000 C 
ATOM     74  C51 UNL A   1      15.924  55.790   2.707  1.00  0.00    +0.000 C 
ATOM     75  C52 UNL A   1      15.193  55.698   3.809  1.00  0.00    +0.000 C 
ATOM    119  H21 UNL A   1      18.398  53.274  -1.260  1.00  0.00    +0.000 H 
ATOM    120  H22 UNL A   1      18.011  50.749  -1.783  1.00  0.00    +0.000 H 
ATOM    121  H23 UNL A   1      15.707  51.766   1.505  1.00  0.00    +0.000 H 
ATOM    122  H24 UNL A   1      11.644  50.077   6.126  1.00  0.00    +0.000 H 
ATOM    123  H25 UNL A   1      12.034  52.535   6.641  1.00  0.00    +0.000 H 
ATOM    124  H26 UNL A   1      14.295  51.564   3.290  1.00  0.00    +0.000 H 
ATOM    125  H27 UNL A   1      13.448  46.687   2.413  1.00  0.00    +0.000 H 
ATOM    126  H28 UNL A   1      15.204  46.849   0.559  1.00  0.00    +0.000 H 
ATOM    127  H29 UNL A   1      16.339  56.666   2.354  1.00  0.00    +0.000 H 
ATOM    128  H30 UNL A   1      14.966  56.429   4.502  1.00  0.00    +0.000 H 
ENDROOT
BRANCH   19   18
ATOM    129  H31 UNL A   1      11.728  55.463   4.867  1.00  0.00    +0.000 H 
ATOM    130  H32 UNL A   1      11.042  57.057   6.561  1.00  0.00    +0.000 H 
ATOM     76  C53 UNL A   1      12.268  55.547   5.743  1.00  0.00    +0.000 C 
ATOM     77  C54 UNL A   1      11.849  56.437   6.732  1.00  0.00    +0.000 C 
ATOM     15  C11 UNL A   1      12.525  56.490   7.956  1.00  0.00    +0.000 C 
ATOM     16  C12 UNL A   1      13.682  55.730   8.150  1.00  0.00    +0.000 C 
ATOM     17  C13 UNL A   1      14.134  54.885   7.136  1.00  0.00    +0.000 C 
ATOM     18  C14 UNL A   1      13.417  54.767   5.934  1.00  0.00    +0.000 C 
ATOM    117  H19 UNL A   1      14.200  55.793   9.039  1.00  0.00    +0.000 H 
ATOM    118  H20 UNL A   1      15.002  54.342   7.271  1.00  0.00    +0.000 H 
BRANCH   15   13
ATOM     13  C10 UNL A   1      12.069  57.373   9.055  1.00  0.00    +0.000 C 
ATOM     14  O2  UNL A   1      12.197  58.589   8.947  1.00  0.00    +0.000 O 
BRANCH   13   12
ATOM    116  H18 UNL A   1      11.819  57.253  11.032  1.00  0.00    +0.000 H 
ATOM     12  N2  UNL A   1      11.518  56.844  10.189  1.00  0.00    +0.000 N 
BRANCH   12   11
ATOM    114  H16 UNL A   1       9.859  56.022  11.106  1.00  0.00    +0.000 H 
ATOM     11  C9  UNL A   1      10.553  55.764  10.332  1.00  0.00    +0.000 C 
ATOM    115  H17 UNL A   1      10.056  55.638   9.393  1.00  0.00    +0.000 H 
BRANCH   11   10
ATOM    113  H15 UNL A   1      11.490  53.979   9.764  1.00  0.00    +0.000 H 
ATOM     10  C8  UNL A   1      11.221  54.439  10.692  1.00  0.00    +0.000 C 
ATOM    112  H14 UNL A   1      10.525  53.862  11.265  1.00  0.00    +0.000 H 
BRANCH   10    9
ATOM      9  C7  UNL A   1      12.513  54.565  11.501  1.00  0.00    +0.000 C 
ATOM    110  H12 UNL A   1      13.059  55.406  11.126  1.00  0.00    +0.000 H 
ATOM    111  H13 UNL A   1      12.217  54.673  12.524  1.00  0.00    +0.000 H 
BRANCH    9    8
ATOM    108  H10 UNL A   1      13.100  52.714  10.646  1.00  0.00    +0.000 H 
ATOM    109  H11 UNL A   1      14.423  53.718  11.311  1.00  0.00    +0.000 H 
ATOM      8  C6  UNL A   1      13.430  53.342  11.448  1.00  0.00    +0.000 C 
BRANCH    8    7
ATOM    106  H8  UNL A   1      13.300  53.151  13.562  1.00  0.00    +0.000 H 
ATOM    107  H9  UNL A   1      12.704  51.755  12.624  1.00  0.00    +0.000 H 
ATOM      7  C5  UNL A   1      13.464  52.500  12.729  1.00  0.00    +0.000 C 
BRANCH    7    6
ATOM    105  H7  UNL A   1      14.559  50.757  13.292  1.00  0.00    +0.000 H 
ATOM      6  C4  UNL A   1      14.782  51.750  12.960  1.00  0.00    +0.000 C 
ATOM    104  H6  UNL A   1      15.356  52.269  13.698  1.00  0.00    +0.000 H 
BRANCH    6    5
ATOM      5  N1  UNL A   1      15.548  51.669  11.732  1.00  0.00    +0.000 N 
ATOM    103  H5  UNL A   1      15.290  52.287  11.010  1.00  0.00    +0.000 H 
BRANCH    5    3
ATOM      3  C3  UNL A   1      16.593  50.823  11.471  1.00  0.00    +0.000 C 
ATOM      4  O1  UNL A   1      17.695  51.141  11.917  1.00  0.00    +0.000 O 
BRANCH    3    2
ATOM      2  C2  UNL A   1      16.340  49.560  10.626  1.00  0.00    +0.000 C 
ATOM    102  H4  UNL A   1      16.502  48.704  11.246  1.00  0.00    +0.000 H 
BRANCH    2    1
ATOM      1  C1  UNL A   1      17.337  49.557   9.455  1.00  0.00    +0.000 C 
ATOM     99  H1  UNL A   1      18.328  49.704   9.830  1.00  0.00    +0.000 H 
ATOM    100  H2  UNL A   1      17.091  50.347   8.775  1.00  0.00    +0.000 H 
ATOM    101  H3  UNL A   1      17.284  48.618   8.944  1.00  0.00    +0.000 H 
ENDBRANCH    2    1
BRANCH    2   78
ATOM    131  H33 UNL A   1      14.774  51.219   9.104  1.00  0.00    +0.000 H 
ATOM    132  H34 UNL A   1      12.562  50.845   8.183  1.00  0.00    +0.000 H 
ATOM    133  H35 UNL A   1      10.221  49.718   7.250  1.00  0.00    +0.000 H 
ATOM    134  H36 UNL A   1       7.725  46.528   8.342  1.00  0.00    +0.000 H 
ATOM    135  H37 UNL A   1       9.344  45.790  10.005  1.00  0.00    +0.000 H 
ATOM    138  H40 UNL A   1      14.511  47.639  11.273  1.00  0.00    +0.000 H 
ATOM     78  C55 UNL A   1      14.884  49.401  10.158  1.00  0.00    +0.000 C 
ATOM     79  C56 UNL A   1      14.268  50.350   9.336  1.00  0.00    +0.000 C 
ATOM     80  C57 UNL A   1      12.981  50.149   8.819  1.00  0.00    +0.000 C 
ATOM     81  C58 UNL A   1      12.260  48.990   9.170  1.00  0.00    +0.000 C 
ATOM     82  C59 UNL A   1      11.008  48.450   8.766  1.00  0.00    +0.000 C 
ATOM     83  C60 UNL A   1      10.050  48.876   7.822  1.00  0.00    +0.000 C 
ATOM     84  C61 UNL A   1       8.870  48.155   7.669  1.00  0.00    +0.000 C 
ATOM     85 Cl1  UNL A   1       7.708  48.665   6.505  1.00  0.00    +0.000 Cl
ATOM     86  C62 UNL A   1       8.614  47.040   8.455  1.00  0.00    +0.000 C 
ATOM     87  C63 UNL A   1       9.549  46.602   9.403  1.00  0.00    +0.000 C 
ATOM     88  C64 UNL A   1      10.775  47.290   9.519  1.00  0.00    +0.000 C 
ATOM     89  N7  UNL A   1      11.886  47.093  10.344  1.00  0.00    +0.000 N 
ATOM     97  C69 UNL A   1      12.811  48.116  10.097  1.00  0.00    +0.000 C 
ATOM     98  C70 UNL A   1      14.117  48.306  10.591  1.00  0.00    +0.000 C 
BRANCH   89   90
ATOM     90  C65 UNL A   1      12.095  46.065  11.301  1.00  0.00    +0.000 C 
ATOM     91  O3  UNL A   1      12.346  44.944  10.836  1.00  0.00    +0.000 O 
BRANCH   90   92
ATOM    136  H38 UNL A   1       9.940  46.815  13.112  1.00  0.00    +0.000 H 
ATOM    137  H39 UNL A   1      13.033  45.932  15.674  1.00  0.00    +0.000 H 
ATOM     92  C66 UNL A   1      11.981  46.230  12.744  1.00  0.00    +0.000 C 
ATOM     93  C67 UNL A   1      10.866  46.560  13.489  1.00  0.00    +0.000 C 
ATOM     94  O4  UNL A   1      11.198  46.490  14.812  1.00  0.00    +0.000 O 
ATOM     95  C68 UNL A   1      12.497  46.093  14.807  1.00  0.00    +0.000 C 
ATOM     96  N8  UNL A   1      13.017  45.929  13.616  1.00  0.00    +0.000 N 
ENDBRANCH   90   92
ENDBRANCH   89   90
ENDBRANCH    2   78
ENDBRANCH    3    2
ENDBRANCH    5    3
ENDBRANCH    6    5
ENDBRANCH    7    6
ENDBRANCH    8    7
ENDBRANCH    9    8
ENDBRANCH   10    9
ENDBRANCH   11   10
ENDBRANCH   12   11
ENDBRANCH   13   12
ENDBRANCH   15   13
ENDBRANCH   19   18
BRANCH   23   24
ATOM     33  C24 UNL A   1      17.090  56.172  -0.660  1.00  0.00    +0.000 C 
ATOM     34  F5  UNL A   1      15.883  55.884  -1.168  1.00  0.00    +0.000 F 
ATOM     24  C19 UNL A   1      17.604  55.426   0.412  1.00  0.00    +0.000 C 
ATOM     25  C20 UNL A   1      18.874  55.768   0.901  1.00  0.00    +0.000 C 
ATOM     26  F1  UNL A   1      19.404  55.092   1.932  1.00  0.00    +0.000 F 
ATOM     27  C21 UNL A   1      19.593  56.826   0.352  1.00  0.00    +0.000 C 
ATOM     28  F2  UNL A   1      20.788  57.157   0.860  1.00  0.00    +0.000 F 
ATOM     29  C22 UNL A   1      19.072  57.543  -0.714  1.00  0.00    +0.000 C 
ATOM     30  F3  UNL A   1      19.769  58.555  -1.249  1.00  0.00    +0.000 F 
ATOM     31  C23 UNL A   1      17.824  57.213  -1.224  1.00  0.00    +0.000 C 
ATOM     32  F4  UNL A   1      17.324  57.899  -2.261  1.00  0.00    +0.000 F 
ENDBRANCH   23   24
BRANCH   40   41
ATOM     41  C30 UNL A   1      16.735  48.385  -0.887  1.00  0.00    +0.000 C 
ATOM     42  C31 UNL A   1      16.002  48.009  -2.022  1.00  0.00    +0.000 C 
ATOM     43  F6  UNL A   1      14.797  48.550  -2.257  1.00  0.00    +0.000 F 
ATOM     44  C32 UNL A   1      16.485  47.040  -2.896  1.00  0.00    +0.000 C 
ATOM     45  F7  UNL A   1      15.745  46.658  -3.946  1.00  0.00    +0.000 F 
ATOM     46  C33 UNL A   1      17.722  46.454  -2.671  1.00  0.00    +0.000 C 
ATOM     47  F8  UNL A   1      18.185  45.520  -3.513  1.00  0.00    +0.000 F 
ATOM     48  C34 UNL A   1      18.474  46.829  -1.567  1.00  0.00    +0.000 C 
ATOM     49  F9  UNL A   1      19.673  46.270  -1.354  1.00  0.00    +0.000 F 
ATOM     50  C35 UNL A   1      17.982  47.779  -0.677  1.00  0.00    +0.000 C 
ATOM     51  F10 UNL A   1      18.724  48.108   0.391  1.00  0.00    +0.000 F 
ENDBRANCH   40   41
BRANCH   55   56
ATOM     65  C44 UNL A   1      12.691  47.285   5.524  1.00  0.00    +0.000 C 
ATOM     66  F15 UNL A   1      13.881  47.557   6.078  1.00  0.00    +0.000 F 
ATOM     56  C39 UNL A   1      12.247  48.021   4.417  1.00  0.00    +0.000 C 
ATOM     57  C40 UNL A   1      10.999  47.693   3.871  1.00  0.00    +0.000 C 
ATOM     58  F11 UNL A   1      10.523  48.383   2.823  1.00  0.00    +0.000 F 
ATOM     59  C41 UNL A   1      10.214  46.684   4.425  1.00  0.00    +0.000 C 
ATOM     60  F12 UNL A   1       9.004  46.421   3.914  1.00  0.00    +0.000 F 
ATOM     61  C42 UNL A   1      10.675  45.964   5.518  1.00  0.00    +0.000 C 
ATOM     62  F13 UNL A   1       9.922  44.994   6.051  1.00  0.00    +0.000 F 
ATOM     63  C43 UNL A   1      11.917  46.258   6.061  1.00  0.00    +0.000 C 
ATOM     64  F14 UNL A   1      12.374  45.557   7.108  1.00  0.00    +0.000 F 
ENDBRANCH   55   56
TORSDOF 19
ENDMDL
MODEL 8
REMARK VINA RESULT:     -11.9      1.652      2.704
ROOT
ATOM     19  C15 UNL A   1      25.918  36.271  45.344  1.00  0.00    +0.000 C 
ATOM     20  C16 UNL A   1      25.813  37.442  46.279  1.00  0.00    +0.000 C 
ATOM     21  N3  UNL A   1      26.736  38.300  46.637  1.00  0.00    +0.000 N 
ATOM     22  C17 UNL A   1      26.111  39.192  47.499  1.00  0.00    +0.000 C 
ATOM     23  C18 UNL A   1      26.656  40.221  48.190  1.00  0.00    +0.000 C 
ATOM     35  C25 UNL A   1      28.044  40.597  48.132  1.00  0.00    +0.000 C 
ATOM     36  C26 UNL A   1      28.697  41.606  48.819  1.00  0.00    +0.000 C 
ATOM     37  C27 UNL A   1      30.039  41.610  48.421  1.00  0.00    +0.000 C 
ATOM     38  C28 UNL A   1      30.230  40.580  47.515  1.00  0.00    +0.000 C 
ATOM     39  N4  UNL A   1      28.996  39.973  47.339  1.00  0.00    +0.000 N 
ATOM     40  C29 UNL A   1      31.445  40.174  46.861  1.00  0.00    +0.000 C 
ATOM     52  C36 UNL A   1      31.549  39.153  45.975  1.00  0.00    +0.000 C 
ATOM     53  N5  UNL A   1      30.560  38.301  45.504  1.00  0.00    +0.000 N 
ATOM     54  C37 UNL A   1      31.148  37.506  44.646  1.00  0.00    +0.000 C 
ATOM     55  C38 UNL A   1      30.564  36.373  43.848  1.00  0.00    +0.000 C 
ATOM     67  C45 UNL A   1      29.267  36.051  44.013  1.00  0.00    +0.000 C 
ATOM     68  C46 UNL A   1      28.574  34.956  43.342  1.00  0.00    +0.000 C 
ATOM     69  C47 UNL A   1      27.293  34.937  43.745  1.00  0.00    +0.000 C 
ATOM     70  C48 UNL A   1      27.082  36.009  44.719  1.00  0.00    +0.000 C 
ATOM     71  N6  UNL A   1      28.305  36.625  44.808  1.00  0.00    +0.000 N 
ATOM     72  C49 UNL A   1      32.580  37.774  44.463  1.00  0.00    +0.000 C 
ATOM     73  C50 UNL A   1      32.783  38.758  45.327  1.00  0.00    +0.000 C 
ATOM     74  C51 UNL A   1      24.717  38.805  47.569  1.00  0.00    +0.000 C 
ATOM     75  C52 UNL A   1      24.493  37.698  46.877  1.00  0.00    +0.000 C 
ATOM    119  H21 UNL A   1      28.268  42.245  49.506  1.00  0.00    +0.000 H 
ATOM    120  H22 UNL A   1      30.763  42.269  48.746  1.00  0.00    +0.000 H 
ATOM    121  H23 UNL A   1      28.821  39.210  46.741  1.00  0.00    +0.000 H 
ATOM    122  H24 UNL A   1      29.000  34.302  42.667  1.00  0.00    +0.000 H 
ATOM    123  H25 UNL A   1      26.573  34.273  43.419  1.00  0.00    +0.000 H 
ATOM    124  H26 UNL A   1      28.476  37.402  45.386  1.00  0.00    +0.000 H 
ATOM    125  H27 UNL A   1      33.254  37.317  43.828  1.00  0.00    +0.000 H 
ATOM    126  H28 UNL A   1      33.701  39.189  45.514  1.00  0.00    +0.000 H 
ATOM    127  H29 UNL A   1      23.994  39.326  48.089  1.00  0.00    +0.000 H 
ATOM    128  H30 UNL A   1      23.620  37.156  46.783  1.00  0.00    +0.000 H 
ENDROOT
BRANCH   19   18
ATOM    129  H31 UNL A   1      25.307  33.874  46.409  1.00  0.00    +0.000 H 
ATOM    130  H32 UNL A   1      23.417  32.440  45.906  1.00  0.00    +0.000 H 
ATOM     76  C53 UNL A   1      24.593  34.182  45.730  1.00  0.00    +0.000 C 
ATOM     77  C54 UNL A   1      23.487  33.373  45.471  1.00  0.00    +0.000 C 
ATOM     15  C11 UNL A   1      22.473  33.826  44.620  1.00  0.00    +0.000 C 
ATOM     16  C12 UNL A   1      22.618  35.043  43.946  1.00  0.00    +0.000 C 
ATOM     17  C13 UNL A   1      23.753  35.824  44.161  1.00  0.00    +0.000 C 
ATOM     18  C14 UNL A   1      24.739  35.412  45.073  1.00  0.00    +0.000 C 
ATOM    117  H19 UNL A   1      21.886  35.363  43.293  1.00  0.00    +0.000 H 
ATOM    118  H20 UNL A   1      23.870  36.711  43.645  1.00  0.00    +0.000 H 
BRANCH   15   13
ATOM     13  C10 UNL A   1      21.252  33.025  44.374  1.00  0.00    +0.000 C 
ATOM     14  O2  UNL A   1      21.341  31.805  44.267  1.00  0.00    +0.000 O 
BRANCH   13   12
ATOM    116  H18 UNL A   1      19.831  33.997  43.364  1.00  0.00    +0.000 H 
ATOM     12  N2  UNL A   1      20.034  33.632  44.255  1.00  0.00    +0.000 N 
BRANCH   12   11
ATOM    114  H16 UNL A   1      18.845  32.899  45.778  1.00  0.00    +0.000 H 
ATOM     11  C9  UNL A   1      18.992  33.821  45.254  1.00  0.00    +0.000 C 
ATOM    115  H17 UNL A   1      19.307  34.599  45.918  1.00  0.00    +0.000 H 
BRANCH   11   10
ATOM    113  H15 UNL A   1      17.913  34.737  43.710  1.00  0.00    +0.000 H 
ATOM     10  C8  UNL A   1      17.666  34.246  44.629  1.00  0.00    +0.000 C 
ATOM    112  H14 UNL A   1      17.159  34.881  45.326  1.00  0.00    +0.000 H 
BRANCH   10    9
ATOM      9  C7  UNL A   1      16.726  33.096  44.261  1.00  0.00    +0.000 C 
ATOM    110  H12 UNL A   1      15.817  33.220  44.813  1.00  0.00    +0.000 H 
ATOM    111  H13 UNL A   1      16.590  33.148  43.201  1.00  0.00    +0.000 H 
BRANCH    9    8
ATOM    108  H10 UNL A   1      18.301  31.675  44.263  1.00  0.00    +0.000 H 
ATOM    109  H11 UNL A   1      17.123  31.532  45.601  1.00  0.00    +0.000 H 
ATOM      8  C6  UNL A   1      17.272  31.697  44.554  1.00  0.00    +0.000 C 
BRANCH    8    7
ATOM    106  H8  UNL A   1      15.747  30.218  44.457  1.00  0.00    +0.000 H 
ATOM    107  H9  UNL A   1      16.211  30.948  42.897  1.00  0.00    +0.000 H 
ATOM      7  C5  UNL A   1      16.548  30.554  43.833  1.00  0.00    +0.000 C 
BRANCH    7    6
ATOM    105  H7  UNL A   1      18.451  29.592  43.747  1.00  0.00    +0.000 H 
ATOM      6  C4  UNL A   1      17.437  29.348  43.504  1.00  0.00    +0.000 C 
ATOM    104  H6  UNL A   1      17.349  29.121  42.462  1.00  0.00    +0.000 H 
BRANCH    6    5
ATOM      5  N1  UNL A   1      17.039  28.190  44.279  1.00  0.00    +0.000 N 
ATOM    103  H5  UNL A   1      17.062  28.287  45.259  1.00  0.00    +0.000 H 
BRANCH    5    3
ATOM      3  C3  UNL A   1      16.634  26.976  43.792  1.00  0.00    +0.000 C 
ATOM      4  O1  UNL A   1      17.303  25.993  44.116  1.00  0.00    +0.000 O 
BRANCH    3    2
ATOM      2  C2  UNL A   1      15.409  26.913  42.863  1.00  0.00    +0.000 C 
ATOM    102  H4  UNL A   1      15.652  27.418  41.951  1.00  0.00    +0.000 H 
BRANCH    2    1
ATOM      1  C1  UNL A   1      14.237  27.624  43.561  1.00  0.00    +0.000 C 
ATOM     99  H1  UNL A   1      14.550  28.597  43.879  1.00  0.00    +0.000 H 
ATOM    100  H2  UNL A   1      13.929  27.052  44.411  1.00  0.00    +0.000 H 
ATOM    101  H3  UNL A   1      13.419  27.718  42.878  1.00  0.00    +0.000 H 
ENDBRANCH    2    1
BRANCH    2   78
ATOM    131  H33 UNL A   1      14.919  24.647  44.328  1.00  0.00    +0.000 H 
ATOM    132  H34 UNL A   1      14.116  22.477  43.602  1.00  0.00    +0.000 H 
ATOM    133  H35 UNL A   1      12.981  20.392  42.194  1.00  0.00    +0.000 H 
ATOM    134  H36 UNL A   1      12.749  19.190  38.181  1.00  0.00    +0.000 H 
ATOM    135  H37 UNL A   1      13.769  21.282  37.463  1.00  0.00    +0.000 H 
ATOM    138  H40 UNL A   1      15.287  25.883  40.337  1.00  0.00    +0.000 H 
ATOM     78  C55 UNL A   1      15.043  25.491  42.404  1.00  0.00    +0.000 C 
ATOM     79  C56 UNL A   1      14.782  24.468  43.321  1.00  0.00    +0.000 C 
ATOM     80  C57 UNL A   1      14.340  23.204  42.905  1.00  0.00    +0.000 C 
ATOM     81  C58 UNL A   1      14.199  22.931  41.529  1.00  0.00    +0.000 C 
ATOM     82  C59 UNL A   1      13.705  21.820  40.793  1.00  0.00    +0.000 C 
ATOM     83  C60 UNL A   1      13.132  20.594  41.193  1.00  0.00    +0.000 C 
ATOM     84  C61 UNL A   1      12.774  19.658  40.228  1.00  0.00    +0.000 C 
ATOM     85 Cl1  UNL A   1      12.060  18.168  40.716  1.00  0.00    +0.000 Cl
ATOM     86  C62 UNL A   1      13.002  19.905  38.882  1.00  0.00    +0.000 C 
ATOM     87  C63 UNL A   1      13.575  21.113  38.462  1.00  0.00    +0.000 C 
ATOM     88  C64 UNL A   1      13.881  22.094  39.429  1.00  0.00    +0.000 C 
ATOM     89  N7  UNL A   1      14.436  23.373  39.324  1.00  0.00    +0.000 N 
ATOM     97  C69 UNL A   1      14.592  23.897  40.613  1.00  0.00    +0.000 C 
ATOM     98  C70 UNL A   1      15.008  25.176  41.036  1.00  0.00    +0.000 C 
BRANCH   89   90
ATOM     90  C65 UNL A   1      14.816  24.068  38.145  1.00  0.00    +0.000 C 
ATOM     91  O3  UNL A   1      14.297  25.182  37.991  1.00  0.00    +0.000 O 
BRANCH   90   92
ATOM    136  H38 UNL A   1      15.224  24.628  35.315  1.00  0.00    +0.000 H 
ATOM    137  H39 UNL A   1      18.154  21.863  36.141  1.00  0.00    +0.000 H 
ATOM     92  C66 UNL A   1      15.703  23.545  37.116  1.00  0.00    +0.000 C 
ATOM     93  C67 UNL A   1      15.819  23.935  35.796  1.00  0.00    +0.000 C 
ATOM     94  O4  UNL A   1      16.857  23.248  35.234  1.00  0.00    +0.000 O 
ATOM     95  C68 UNL A   1      17.341  22.490  36.252  1.00  0.00    +0.000 C 
ATOM     96  N8  UNL A   1      16.698  22.616  37.386  1.00  0.00    +0.000 N 
ENDBRANCH   90   92
ENDBRANCH   89   90
ENDBRANCH    2   78
ENDBRANCH    3    2
ENDBRANCH    5    3
ENDBRANCH    6    5
ENDBRANCH    7    6
ENDBRANCH    8    7
ENDBRANCH    9    8
ENDBRANCH   10    9
ENDBRANCH   11   10
ENDBRANCH   12   11
ENDBRANCH   13   12
ENDBRANCH   15   13
ENDBRANCH   19   18
BRANCH   23   24
ATOM     33  C24 UNL A   1      25.525  40.606  50.415  1.00  0.00    +0.000 C 
ATOM     34  F5  UNL A   1      26.156  39.532  50.911  1.00  0.00    +0.000 F 
ATOM     24  C19 UNL A   1      25.748  41.009  49.089  1.00  0.00    +0.000 C 
ATOM     25  C20 UNL A   1      25.058  42.136  48.620  1.00  0.00    +0.000 C 
ATOM     26  F1  UNL A   1      25.245  42.567  47.363  1.00  0.00    +0.000 F 
ATOM     27  C21 UNL A   1      24.194  42.845  49.450  1.00  0.00    +0.000 C 
ATOM     28  F2  UNL A   1      23.574  43.941  48.991  1.00  0.00    +0.000 F 
ATOM     29  C22 UNL A   1      23.980  42.424  50.753  1.00  0.00    +0.000 C 
ATOM     30  F3  UNL A   1      23.140  43.101  51.549  1.00  0.00    +0.000 F 
ATOM     31  C23 UNL A   1      24.640  41.302  51.235  1.00  0.00    +0.000 C 
ATOM     32  F4  UNL A   1      24.426  40.889  52.491  1.00  0.00    +0.000 F 
ENDBRANCH   23   24
BRANCH   40   41
ATOM     41  C30 UNL A   1      32.705  40.921  47.187  1.00  0.00    +0.000 C 
ATOM     42  C31 UNL A   1      33.043  42.110  46.524  1.00  0.00    +0.000 C 
ATOM     43  F6  UNL A   1      32.253  42.587  45.550  1.00  0.00    +0.000 F 
ATOM     44  C32 UNL A   1      34.220  42.787  46.827  1.00  0.00    +0.000 C 
ATOM     45  F7  UNL A   1      34.549  43.892  46.145  1.00  0.00    +0.000 F 
ATOM     46  C33 UNL A   1      35.062  42.309  47.820  1.00  0.00    +0.000 C 
ATOM     47  F8  UNL A   1      36.196  42.961  48.109  1.00  0.00    +0.000 F 
ATOM     48  C34 UNL A   1      34.735  41.148  48.505  1.00  0.00    +0.000 C 
ATOM     49  F9  UNL A   1      35.544  40.691  49.471  1.00  0.00    +0.000 F 
ATOM     50  C35 UNL A   1      33.571  40.454  48.186  1.00  0.00    +0.000 C 
ATOM     51  F10 UNL A   1      33.289  39.325  48.853  1.00  0.00    +0.000 F 
ENDBRANCH   40   41
BRANCH   55   56
ATOM     65  C44 UNL A   1      32.131  34.472  43.338  1.00  0.00    +0.000 C 
ATOM     66  F15 UNL A   1      32.085  34.097  44.624  1.00  0.00    +0.000 F 
ATOM     56  C39 UNL A   1      31.406  35.592  42.906  1.00  0.00    +0.000 C 
ATOM     57  C40 UNL A   1      31.493  35.946  41.553  1.00  0.00    +0.000 C 
ATOM     58  F11 UNL A   1      30.801  36.998  41.090  1.00  0.00    +0.000 F 
ATOM     59  C41 UNL A   1      32.255  35.195  40.661  1.00  0.00    +0.000 C 
ATOM     60  F12 UNL A   1      32.284  35.526  39.363  1.00  0.00    +0.000 F 
ATOM     61  C42 UNL A   1      32.969  34.094  41.110  1.00  0.00    +0.000 C 
ATOM     62  F13 UNL A   1      33.702  33.372  40.253  1.00  0.00    +0.000 F 
ATOM     63  C43 UNL A   1      32.914  33.738  42.450  1.00  0.00    +0.000 C 
ATOM     64  F14 UNL A   1      33.613  32.683  42.892  1.00  0.00    +0.000 F 
ENDBRANCH   55   56
TORSDOF 19
ENDMDL
MODEL 9
REMARK VINA RESULT:     -11.8      4.646      9.388
ROOT
ATOM     19  C15 UNL A   1      22.080  38.174  49.606  1.00  0.00    +0.000 C 
ATOM     20  C16 UNL A   1      22.557  37.054  48.726  1.00  0.00    +0.000 C 
ATOM     21  N3  UNL A   1      23.688  36.939  48.074  1.00  0.00    +0.000 N 
ATOM     22  C17 UNL A   1      23.633  35.708  47.435  1.00  0.00    +0.000 C 
ATOM     23  C18 UNL A   1      24.531  35.158  46.583  1.00  0.00    +0.000 C 
ATOM     35  C25 UNL A   1      25.768  35.781  46.189  1.00  0.00    +0.000 C 
ATOM     36  C26 UNL A   1      26.729  35.316  45.308  1.00  0.00    +0.000 C 
ATOM     37  C27 UNL A   1      27.768  36.252  45.259  1.00  0.00    +0.000 C 
ATOM     38  C28 UNL A   1      27.437  37.317  46.081  1.00  0.00    +0.000 C 
ATOM     39  N4  UNL A   1      26.212  37.010  46.653  1.00  0.00    +0.000 N 
ATOM     40  C29 UNL A   1      28.178  38.526  46.325  1.00  0.00    +0.000 C 
ATOM     52  C36 UNL A   1      27.787  39.524  47.156  1.00  0.00    +0.000 C 
ATOM     53  N5  UNL A   1      26.643  39.614  47.935  1.00  0.00    +0.000 N 
ATOM     54  C37 UNL A   1      26.735  40.750  48.581  1.00  0.00    +0.000 C 
ATOM     55  C38 UNL A   1      25.767  41.372  49.548  1.00  0.00    +0.000 C 
ATOM     67  C45 UNL A   1      24.604  40.747  49.810  1.00  0.00    +0.000 C 
ATOM     68  C46 UNL A   1      23.553  41.247  50.691  1.00  0.00    +0.000 C 
ATOM     69  C47 UNL A   1      22.545  40.360  50.716  1.00  0.00    +0.000 C 
ATOM     70  C48 UNL A   1      22.873  39.238  49.835  1.00  0.00    +0.000 C 
ATOM     71  N6  UNL A   1      24.118  39.549  49.349  1.00  0.00    +0.000 N 
ATOM     72  C49 UNL A   1      27.962  41.505  48.293  1.00  0.00    +0.000 C 
ATOM     73  C50 UNL A   1      28.547  40.735  47.388  1.00  0.00    +0.000 C 
ATOM     74  C51 UNL A   1      22.383  35.087  47.819  1.00  0.00    +0.000 C 
ATOM     75  C52 UNL A   1      21.657  35.901  48.572  1.00  0.00    +0.000 C 
ATOM    119  H21 UNL A   1      26.686  34.432  44.778  1.00  0.00    +0.000 H 
ATOM    120  H22 UNL A   1      28.635  36.164  44.706  1.00  0.00    +0.000 H 
ATOM    121  H23 UNL A   1      25.729  37.582  47.293  1.00  0.00    +0.000 H 
ATOM    122  H24 UNL A   1      23.581  42.138  51.211  1.00  0.00    +0.000 H 
ATOM    123  H25 UNL A   1      21.678  40.455  51.269  1.00  0.00    +0.000 H 
ATOM    124  H26 UNL A   1      24.614  38.967  48.728  1.00  0.00    +0.000 H 
ATOM    125  H27 UNL A   1      28.284  42.401  48.692  1.00  0.00    +0.000 H 
ATOM    126  H28 UNL A   1      29.431  40.968  46.909  1.00  0.00    +0.000 H 
ATOM    127  H29 UNL A   1      22.096  34.135  47.544  1.00  0.00    +0.000 H 
ATOM    128  H30 UNL A   1      20.707  35.762  48.951  1.00  0.00    +0.000 H 
ENDROOT
BRANCH   19   18
ATOM    129  H31 UNL A   1      21.395  36.964  51.913  1.00  0.00    +0.000 H 
ATOM    130  H32 UNL A   1      19.200  36.795  52.932  1.00  0.00    +0.000 H 
ATOM     76  C53 UNL A   1      20.584  37.422  51.468  1.00  0.00    +0.000 C 
ATOM     77  C54 UNL A   1      19.330  37.356  52.076  1.00  0.00    +0.000 C 
ATOM     15  C11 UNL A   1      18.248  38.050  51.523  1.00  0.00    +0.000 C 
ATOM     16  C12 UNL A   1      18.396  38.722  50.306  1.00  0.00    +0.000 C 
ATOM     17  C13 UNL A   1      19.637  38.737  49.668  1.00  0.00    +0.000 C 
ATOM     18  C14 UNL A   1      20.747  38.108  50.256  1.00  0.00    +0.000 C 
ATOM    117  H19 UNL A   1      17.591  39.206  49.880  1.00  0.00    +0.000 H 
ATOM    118  H20 UNL A   1      19.740  39.213  48.758  1.00  0.00    +0.000 H 
BRANCH   15   13
ATOM     13  C10 UNL A   1      16.918  38.058  52.176  1.00  0.00    +0.000 C 
ATOM     14  O2  UNL A   1      16.729  37.365  53.171  1.00  0.00    +0.000 O 
BRANCH   13   12
ATOM    116  H18 UNL A   1      16.114  39.776  51.554  1.00  0.00    +0.000 H 
ATOM     12  N2  UNL A   1      15.902  38.822  51.674  1.00  0.00    +0.000 N 
BRANCH   12   11
ATOM    114  H16 UNL A   1      14.242  37.614  51.906  1.00  0.00    +0.000 H 
ATOM     11  C9  UNL A   1      14.553  38.433  51.290  1.00  0.00    +0.000 C 
ATOM    115  H17 UNL A   1      13.915  39.281  51.421  1.00  0.00    +0.000 H 
BRANCH   11   10
ATOM    113  H15 UNL A   1      15.269  38.512  49.323  1.00  0.00    +0.000 H 
ATOM     10  C8  UNL A   1      14.472  38.006  49.827  1.00  0.00    +0.000 C 
ATOM    112  H14 UNL A   1      13.503  38.270  49.458  1.00  0.00    +0.000 H 
BRANCH   10    9
ATOM      9  C7  UNL A   1      14.685  36.512  49.576  1.00  0.00    +0.000 C 
ATOM    110  H12 UNL A   1      14.450  35.986  50.478  1.00  0.00    +0.000 H 
ATOM    111  H13 UNL A   1      14.050  36.252  48.755  1.00  0.00    +0.000 H 
BRANCH    9    8
ATOM    108  H10 UNL A   1      16.782  36.492  49.899  1.00  0.00    +0.000 H 
ATOM    109  H11 UNL A   1      16.109  35.056  49.070  1.00  0.00    +0.000 H 
ATOM      8  C6  UNL A   1      16.105  36.123  49.157  1.00  0.00    +0.000 C 
BRANCH    8    7
ATOM    106  H8  UNL A   1      16.148  37.651  47.678  1.00  0.00    +0.000 H 
ATOM    107  H9  UNL A   1      17.620  36.649  47.794  1.00  0.00    +0.000 H 
ATOM      7  C5  UNL A   1      16.550  36.666  47.794  1.00  0.00    +0.000 C 
BRANCH    7    6
ATOM    105  H7  UNL A   1      15.103  36.104  46.331  1.00  0.00    +0.000 H 
ATOM      6  C4  UNL A   1      16.100  35.820  46.597  1.00  0.00    +0.000 C 
ATOM    104  H6  UNL A   1      16.132  34.785  46.867  1.00  0.00    +0.000 H 
BRANCH    6    5
ATOM      5  N1  UNL A   1      16.967  36.041  45.457  1.00  0.00    +0.000 N 
ATOM    103  H5  UNL A   1      16.594  35.823  44.572  1.00  0.00    +0.000 H 
BRANCH    5    3
ATOM      3  C3  UNL A   1      18.249  36.520  45.482  1.00  0.00    +0.000 C 
ATOM      4  O1  UNL A   1      18.393  37.739  45.382  1.00  0.00    +0.000 O 
BRANCH    3    2
ATOM      2  C2  UNL A   1      19.418  35.524  45.602  1.00  0.00    +0.000 C 
ATOM    102  H4  UNL A   1      19.656  35.409  46.638  1.00  0.00    +0.000 H 
BRANCH    2    1
ATOM      1  C1  UNL A   1      20.625  36.105  44.847  1.00  0.00    +0.000 C 
ATOM     99  H1  UNL A   1      20.312  36.949  44.269  1.00  0.00    +0.000 H 
ATOM    100  H2  UNL A   1      21.032  35.358  44.197  1.00  0.00    +0.000 H 
ATOM    101  H3  UNL A   1      21.372  36.411  45.550  1.00  0.00    +0.000 H 
ENDBRANCH    2    1
BRANCH    2   78
ATOM    131  H33 UNL A   1      20.822  33.185  45.885  1.00  0.00    +0.000 H 
ATOM    132  H34 UNL A   1      20.159  30.910  45.370  1.00  0.00    +0.000 H 
ATOM    133  H35 UNL A   1      18.734  28.612  44.814  1.00  0.00    +0.000 H 
ATOM    134  H36 UNL A   1      15.328  27.601  42.582  1.00  0.00    +0.000 H 
ATOM    135  H37 UNL A   1      14.849  29.955  42.185  1.00  0.00    +0.000 H 
ATOM    138  H40 UNL A   1      17.329  34.646  44.079  1.00  0.00    +0.000 H 
ATOM     78  C55 UNL A   1      19.073  34.096  45.147  1.00  0.00    +0.000 C 
ATOM     79  C56 UNL A   1      19.910  33.012  45.431  1.00  0.00    +0.000 C 
ATOM     80  C57 UNL A   1      19.542  31.697  45.115  1.00  0.00    +0.000 C 
ATOM     81  C58 UNL A   1      18.324  31.454  44.449  1.00  0.00    +0.000 C 
ATOM     82  C59 UNL A   1      17.629  30.273  44.072  1.00  0.00    +0.000 C 
ATOM     83  C60 UNL A   1      17.902  28.903  44.274  1.00  0.00    +0.000 C 
ATOM     84  C61 UNL A   1      17.045  27.946  43.741  1.00  0.00    +0.000 C 
ATOM     85 Cl1  UNL A   1      17.370  26.275  44.001  1.00  0.00    +0.000 Cl
ATOM     86  C62 UNL A   1      15.942  28.324  42.988  1.00  0.00    +0.000 C 
ATOM     87  C63 UNL A   1      15.654  29.678  42.769  1.00  0.00    +0.000 C 
ATOM     88  C64 UNL A   1      16.482  30.655  43.361  1.00  0.00    +0.000 C 
ATOM     89  N7  UNL A   1      16.448  32.053  43.337  1.00  0.00    +0.000 N 
ATOM     97  C69 UNL A   1      17.558  32.537  44.040  1.00  0.00    +0.000 C 
ATOM     98  C70 UNL A   1      17.918  33.855  44.385  1.00  0.00    +0.000 C 
BRANCH   89   90
ATOM     90  C65 UNL A   1      15.491  32.894  42.710  1.00  0.00    +0.000 C 
ATOM     91  O3  UNL A   1      14.598  33.331  43.449  1.00  0.00    +0.000 O 
BRANCH   90   92
ATOM    136  H38 UNL A   1      14.754  35.247  41.158  1.00  0.00    +0.000 H 
ATOM    137  H39 UNL A   1      16.149  32.651  38.291  1.00  0.00    +0.000 H 
ATOM     92  C66 UNL A   1      15.466  33.218  41.290  1.00  0.00    +0.000 C 
ATOM     93  C67 UNL A   1      15.123  34.410  40.682  1.00  0.00    +0.000 C 
ATOM     94  O4  UNL A   1      15.355  34.290  39.342  1.00  0.00    +0.000 O 
ATOM     95  C68 UNL A   1      15.856  33.035  39.203  1.00  0.00    +0.000 C 
ATOM     96  N8  UNL A   1      15.939  32.350  40.316  1.00  0.00    +0.000 N 
ENDBRANCH   90   92
ENDBRANCH   89   90
ENDBRANCH    2   78
ENDBRANCH    3    2
ENDBRANCH    5    3
ENDBRANCH    6    5
ENDBRANCH    7    6
ENDBRANCH    8    7
ENDBRANCH    9    8
ENDBRANCH   10    9
ENDBRANCH   11   10
ENDBRANCH   12   11
ENDBRANCH   13   12
ENDBRANCH   15   13
ENDBRANCH   19   18
BRANCH   23   24
ATOM     33  C24 UNL A   1      23.536  33.711  44.769  1.00  0.00    +0.000 C 
ATOM     34  F5  UNL A   1      23.224  34.813  44.073  1.00  0.00    +0.000 F 
ATOM     24  C19 UNL A   1      24.200  33.815  46.001  1.00  0.00    +0.000 C 
ATOM     25  C20 UNL A   1      24.497  32.630  46.690  1.00  0.00    +0.000 C 
ATOM     26  F1  UNL A   1      25.142  32.676  47.866  1.00  0.00    +0.000 F 
ATOM     27  C21 UNL A   1      24.161  31.388  46.158  1.00  0.00    +0.000 C 
ATOM     28  F2  UNL A   1      24.488  30.267  46.817  1.00  0.00    +0.000 F 
ATOM     29  C22 UNL A   1      23.495  31.308  44.945  1.00  0.00    +0.000 C 
ATOM     30  F3  UNL A   1      23.162  30.112  44.438  1.00  0.00    +0.000 F 
ATOM     31  C23 UNL A   1      23.178  32.468  44.253  1.00  0.00    +0.000 C 
ATOM     32  F4  UNL A   1      22.525  32.392  43.085  1.00  0.00    +0.000 F 
ENDBRANCH   23   24
BRANCH   40   41
ATOM     41  C30 UNL A   1      29.477  38.716  45.599  1.00  0.00    +0.000 C 
ATOM     42  C31 UNL A   1      30.678  38.190  46.099  1.00  0.00    +0.000 C 
ATOM     43  F6  UNL A   1      30.691  37.530  47.267  1.00  0.00    +0.000 F 
ATOM     44  C32 UNL A   1      31.879  38.383  45.423  1.00  0.00    +0.000 C 
ATOM     45  F7  UNL A   1      33.022  37.918  45.944  1.00  0.00    +0.000 F 
ATOM     46  C33 UNL A   1      31.896  39.073  44.220  1.00  0.00    +0.000 C 
ATOM     47  F8  UNL A   1      33.054  39.260  43.571  1.00  0.00    +0.000 F 
ATOM     48  C34 UNL A   1      30.717  39.581  43.695  1.00  0.00    +0.000 C 
ATOM     49  F9  UNL A   1      30.732  40.239  42.529  1.00  0.00    +0.000 F 
ATOM     50  C35 UNL A   1      29.518  39.412  44.383  1.00  0.00    +0.000 C 
ATOM     51  F10 UNL A   1      28.396  39.928  43.860  1.00  0.00    +0.000 F 
ENDBRANCH   40   41
BRANCH   55   56
ATOM     65  C44 UNL A   1      25.717  43.887  49.577  1.00  0.00    +0.000 C 
ATOM     66  F15 UNL A   1      25.114  43.883  48.380  1.00  0.00    +0.000 F 
ATOM     56  C39 UNL A   1      26.067  42.677  50.191  1.00  0.00    +0.000 C 
ATOM     57  C40 UNL A   1      26.702  42.737  51.440  1.00  0.00    +0.000 C 
ATOM     58  F11 UNL A   1      27.038  41.604  52.075  1.00  0.00    +0.000 F 
ATOM     59  C41 UNL A   1      26.954  43.958  52.061  1.00  0.00    +0.000 C 
ATOM     60  F12 UNL A   1      27.519  43.986  53.275  1.00  0.00    +0.000 F 
ATOM     61  C42 UNL A   1      26.603  45.144  51.433  1.00  0.00    +0.000 C 
ATOM     62  F13 UNL A   1      26.845  46.318  52.029  1.00  0.00    +0.000 F 
ATOM     63  C43 UNL A   1      25.994  45.109  50.187  1.00  0.00    +0.000 C 
ATOM     64  F14 UNL A   1      25.665  46.253  49.570  1.00  0.00    +0.000 F 
ENDBRANCH   55   56
TORSDOF 19
ENDMDL
MODEL 10
REMARK VINA RESULT:     -11.7     32.012     39.742
ROOT
ATOM     19  C15 UNL A   1       7.113   3.224  26.069  1.00  0.00    +0.000 C 
ATOM     20  C16 UNL A   1       8.286   3.514  26.961  1.00  0.00    +0.000 C 
ATOM     21  N3  UNL A   1       8.802   4.670  27.297  1.00  0.00    +0.000 N 
ATOM     22  C17 UNL A   1       9.855   4.380  28.155  1.00  0.00    +0.000 C 
ATOM     23  C18 UNL A   1      10.743   5.232  28.721  1.00  0.00    +0.000 C 
ATOM     35  C25 UNL A   1      10.736   6.660  28.533  1.00  0.00    +0.000 C 
ATOM     36  C26 UNL A   1      11.613   7.603  29.039  1.00  0.00    +0.000 C 
ATOM     37  C27 UNL A   1      11.193   8.867  28.608  1.00  0.00    +0.000 C 
ATOM     38  C28 UNL A   1      10.078   8.707  27.803  1.00  0.00    +0.000 C 
ATOM     39  N4  UNL A   1       9.802   7.349  27.774  1.00  0.00    +0.000 N 
ATOM     40  C29 UNL A   1       9.320   9.714  27.108  1.00  0.00    +0.000 C 
ATOM     52  C36 UNL A   1       8.228   9.476  26.341  1.00  0.00    +0.000 C 
ATOM     53  N5  UNL A   1       7.605   8.268  26.060  1.00  0.00    +0.000 N 
ATOM     54  C37 UNL A   1       6.578   8.561  25.302  1.00  0.00    +0.000 C 
ATOM     55  C38 UNL A   1       5.564   7.640  24.681  1.00  0.00    +0.000 C 
ATOM     67  C45 UNL A   1       5.685   6.311  24.859  1.00  0.00    +0.000 C 
ATOM     68  C46 UNL A   1       4.806   5.297  24.288  1.00  0.00    +0.000 C 
ATOM     69  C47 UNL A   1       5.225   4.083  24.681  1.00  0.00    +0.000 C 
ATOM     70  C48 UNL A   1       6.417   4.236  25.516  1.00  0.00    +0.000 C 
ATOM     71  N6  UNL A   1       6.610   5.593  25.577  1.00  0.00    +0.000 N 
ATOM     72  C49 UNL A   1       6.424   9.996  25.028  1.00  0.00    +0.000 C 
ATOM     73  C50 UNL A   1       7.479  10.503  25.648  1.00  0.00    +0.000 C 
ATOM     74  C51 UNL A   1       9.871   2.944  28.333  1.00  0.00    +0.000 C 
ATOM     75  C52 UNL A   1       8.958   2.358  27.573  1.00  0.00    +0.000 C 
ATOM    119  H21 UNL A   1      12.434   7.409  29.632  1.00  0.00    +0.000 H 
ATOM    120  H22 UNL A   1      11.639   9.766  28.850  1.00  0.00    +0.000 H 
ATOM    121  H23 UNL A   1       9.054   6.934  27.285  1.00  0.00    +0.000 H 
ATOM    122  H24 UNL A   1       3.993   5.482  23.680  1.00  0.00    +0.000 H 
ATOM    123  H25 UNL A   1       4.778   3.186  24.433  1.00  0.00    +0.000 H 
ATOM    124  H26 UNL A   1       7.342   6.011  26.085  1.00  0.00    +0.000 H 
ATOM    125  H27 UNL A   1       5.688  10.482  24.492  1.00  0.00    +0.000 H 
ATOM    126  H28 UNL A   1       7.734  11.503  25.639  1.00  0.00    +0.000 H 
ATOM    127  H29 UNL A   1      10.511   2.443  28.968  1.00  0.00    +0.000 H 
ATOM    128  H30 UNL A   1       8.767   1.351  27.445  1.00  0.00    +0.000 H 
ENDROOT
BRANCH   19   18
ATOM    129  H31 UNL A   1       5.290   1.751  27.398  1.00  0.00    +0.000 H 
ATOM    130  H32 UNL A   1       4.655  -0.559  27.022  1.00  0.00    +0.000 H 
ATOM     76  C53 UNL A   1       5.716   1.220  26.622  1.00  0.00    +0.000 C 
ATOM     77  C54 UNL A   1       5.321  -0.096  26.384  1.00  0.00    +0.000 C 
ATOM     15  C11 UNL A   1       5.829  -0.789  25.279  1.00  0.00    +0.000 C 
ATOM     16  C12 UNL A   1       6.811  -0.201  24.476  1.00  0.00    +0.000 C 
ATOM     17  C13 UNL A   1       7.249   1.094  24.752  1.00  0.00    +0.000 C 
ATOM     18  C14 UNL A   1       6.687   1.825  25.812  1.00  0.00    +0.000 C 
ATOM    117  H19 UNL A   1       7.211  -0.723  23.682  1.00  0.00    +0.000 H 
ATOM    118  H20 UNL A   1       7.991   1.518  24.174  1.00  0.00    +0.000 H 
BRANCH   15   13
ATOM     13  C10 UNL A   1       5.382  -2.164  24.955  1.00  0.00    +0.000 C 
ATOM     14  O2  UNL A   1       4.853  -2.848  25.825  1.00  0.00    +0.000 O 
BRANCH   13   12
ATOM    116  H18 UNL A   1       5.211  -2.124  22.966  1.00  0.00    +0.000 H 
ATOM     12  N2  UNL A   1       5.565  -2.676  23.701  1.00  0.00    +0.000 N 
BRANCH   12   11
ATOM    114  H16 UNL A   1       5.776  -4.726  23.848  1.00  0.00    +0.000 H 
ATOM     11  C9  UNL A   1       6.204  -3.918  23.292  1.00  0.00    +0.000 C 
ATOM    115  H17 UNL A   1       6.042  -4.042  22.241  1.00  0.00    +0.000 H 
BRANCH   11   10
ATOM    113  H15 UNL A   1       7.988  -2.866  23.606  1.00  0.00    +0.000 H 
ATOM     10  C8  UNL A   1       7.711  -3.897  23.536  1.00  0.00    +0.000 C 
ATOM    112  H14 UNL A   1       8.185  -4.409  22.725  1.00  0.00    +0.000 H 
BRANCH   10    9
ATOM      9  C7  UNL A   1       8.163  -4.553  24.842  1.00  0.00    +0.000 C 
ATOM    110  H12 UNL A   1       7.349  -5.135  25.221  1.00  0.00    +0.000 H 
ATOM    111  H13 UNL A   1       9.027  -5.137  24.600  1.00  0.00    +0.000 H 
BRANCH    9    8
ATOM    108  H10 UNL A   1       7.745  -3.003  26.230  1.00  0.00    +0.000 H 
ATOM    109  H11 UNL A   1       9.000  -4.177  26.729  1.00  0.00    +0.000 H 
ATOM      8  C6  UNL A   1       8.600  -3.577  25.937  1.00  0.00    +0.000 C 
BRANCH    8    7
ATOM    106  H8  UNL A   1       9.317  -1.930  24.800  1.00  0.00    +0.000 H 
ATOM    107  H9  UNL A   1      10.025  -2.109  26.427  1.00  0.00    +0.000 H 
ATOM      7  C5  UNL A   1       9.712  -2.603  25.532  1.00  0.00    +0.000 C 
BRANCH    7    6
ATOM    105  H7  UNL A   1      11.212  -2.785  24.026  1.00  0.00    +0.000 H 
ATOM      6  C4  UNL A   1      10.959  -3.274  24.944  1.00  0.00    +0.000 C 
ATOM    104  H6  UNL A   1      10.751  -4.309  24.769  1.00  0.00    +0.000 H 
BRANCH    6    5
ATOM      5  N1  UNL A   1      12.081  -3.162  25.855  1.00  0.00    +0.000 N 
ATOM    103  H5  UNL A   1      12.349  -3.985  26.325  1.00  0.00    +0.000 H 
BRANCH    5    3
ATOM      3  C3  UNL A   1      12.805  -2.034  26.130  1.00  0.00    +0.000 C 
ATOM      4  O1  UNL A   1      12.945  -1.735  27.317  1.00  0.00    +0.000 O 
BRANCH    3    2
ATOM      2  C2  UNL A   1      13.369  -1.203  24.963  1.00  0.00    +0.000 C 
ATOM    102  H4  UNL A   1      13.516  -1.855  24.128  1.00  0.00    +0.000 H 
BRANCH    2    1
ATOM      1  C1  UNL A   1      14.714  -0.603  25.404  1.00  0.00    +0.000 C 
ATOM     99  H1  UNL A   1      14.666  -0.344  26.441  1.00  0.00    +0.000 H 
ATOM    100  H2  UNL A   1      14.919   0.275  24.827  1.00  0.00    +0.000 H 
ATOM    101  H3  UNL A   1      15.493  -1.320  25.251  1.00  0.00    +0.000 H 
ENDBRANCH    2    1
BRANCH    2   78
ATOM    131  H33 UNL A   1      11.678   0.492  26.302  1.00  0.00    +0.000 H 
ATOM    132  H34 UNL A   1      10.331   2.321  25.456  1.00  0.00    +0.000 H 
ATOM    133  H35 UNL A   1       9.266   4.362  23.931  1.00  0.00    +0.000 H 
ATOM    134  H36 UNL A   1       8.558   5.076  19.858  1.00  0.00    +0.000 H 
ATOM    135  H37 UNL A   1       9.781   3.057  19.259  1.00  0.00    +0.000 H 
ATOM    138  H40 UNL A   1      12.681  -0.625  22.385  1.00  0.00    +0.000 H 
ATOM     78  C55 UNL A   1      12.399  -0.137  24.427  1.00  0.00    +0.000 C 
ATOM     79  C56 UNL A   1      11.645   0.670  25.286  1.00  0.00    +0.000 C 
ATOM     80  C57 UNL A   1      10.847   1.715  24.800  1.00  0.00    +0.000 C 
ATOM     81  C58 UNL A   1      10.754   1.935  23.411  1.00  0.00    +0.000 C 
ATOM     82  C59 UNL A   1      10.125   2.930  22.613  1.00  0.00    +0.000 C 
ATOM     83  C60 UNL A   1       9.395   4.091  22.943  1.00  0.00    +0.000 C 
ATOM     84  C61 UNL A   1       8.848   4.869  21.928  1.00  0.00    +0.000 C 
ATOM     85 Cl1  UNL A   1       7.970   6.295  22.330  1.00  0.00    +0.000 Cl
ATOM     86  C62 UNL A   1       8.987   4.498  20.598  1.00  0.00    +0.000 C 
ATOM     87  C63 UNL A   1       9.703   3.345  20.247  1.00  0.00    +0.000 C 
ATOM     88  C64 UNL A   1      10.316   2.587  21.267  1.00  0.00    +0.000 C 
ATOM     89  N7  UNL A   1      11.087   1.421  21.234  1.00  0.00    +0.000 N 
ATOM     97  C69 UNL A   1      11.387   1.048  22.550  1.00  0.00    +0.000 C 
ATOM     98  C70 UNL A   1      12.212   0.018  23.043  1.00  0.00    +0.000 C 
BRANCH   89   90
ATOM     90  C65 UNL A   1      11.512   0.685  20.096  1.00  0.00    +0.000 C 
ATOM     91  O3  UNL A   1      12.484   1.153  19.488  1.00  0.00    +0.000 O 
BRANCH   90   92
ATOM    136  H38 UNL A   1       9.697   0.117  17.890  1.00  0.00    +0.000 H 
ATOM    137  H39 UNL A   1      10.442  -3.613  19.454  1.00  0.00    +0.000 H 
ATOM     92  C66 UNL A   1      10.862  -0.516  19.588  1.00  0.00    +0.000 C 
ATOM     93  C67 UNL A   1      10.039  -0.651  18.487  1.00  0.00    +0.000 C 
ATOM     94  O4  UNL A   1       9.754  -1.977  18.325  1.00  0.00    +0.000 O 
ATOM     95  C68 UNL A   1      10.444  -2.589  19.323  1.00  0.00    +0.000 C 
ATOM     96  N8  UNL A   1      11.112  -1.779  20.106  1.00  0.00    +0.000 N 
ENDBRANCH   90   92
ENDBRANCH   89   90
ENDBRANCH    2   78
ENDBRANCH    3    2
ENDBRANCH    5    3
ENDBRANCH    6    5
ENDBRANCH    7    6
ENDBRANCH    8    7
ENDBRANCH    9    8
ENDBRANCH   10    9
ENDBRANCH   11   10
ENDBRANCH   12   11
ENDBRANCH   13   12
ENDBRANCH   15   13
ENDBRANCH   19   18
BRANCH   23   24
ATOM     33  C24 UNL A   1      11.773   4.783  30.982  1.00  0.00    +0.000 C 
ATOM     34  F5  UNL A   1      10.747   5.418  31.565  1.00  0.00    +0.000 F 
ATOM     24  C19 UNL A   1      11.816   4.639  29.586  1.00  0.00    +0.000 C 
ATOM     25  C20 UNL A   1      12.915   3.970  29.028  1.00  0.00    +0.000 C 
ATOM     26  F1  UNL A   1      12.996   3.796  27.700  1.00  0.00    +0.000 F 
ATOM     27  C21 UNL A   1      13.922   3.447  29.835  1.00  0.00    +0.000 C 
ATOM     28  F2  UNL A   1      14.943   2.779  29.281  1.00  0.00    +0.000 F 
ATOM     29  C22 UNL A   1      13.866   3.609  31.210  1.00  0.00    +0.000 C 
ATOM     30  F3  UNL A   1      14.841   3.115  31.986  1.00  0.00    +0.000 F 
ATOM     31  C23 UNL A   1      12.795   4.281  31.784  1.00  0.00    +0.000 C 
ATOM     32  F4  UNL A   1      12.746   4.448  33.112  1.00  0.00    +0.000 F 
ENDBRANCH   23   24
BRANCH   40   41
ATOM     41  C30 UNL A   1       9.773  11.140  27.222  1.00  0.00    +0.000 C 
ATOM     42  C31 UNL A   1      10.814  11.642  26.427  1.00  0.00    +0.000 C 
ATOM     43  F6  UNL A   1      11.454  10.837  25.565  1.00  0.00    +0.000 F 
ATOM     44  C32 UNL A   1      11.234  12.963  26.550  1.00  0.00    +0.000 C 
ATOM     45  F7  UNL A   1      12.265  13.407  25.819  1.00  0.00    +0.000 F 
ATOM     46  C33 UNL A   1      10.601  13.813  27.444  1.00  0.00    +0.000 C 
ATOM     47  F8  UNL A   1      11.007  15.085  27.563  1.00  0.00    +0.000 F 
ATOM     48  C34 UNL A   1       9.552  13.344  28.222  1.00  0.00    +0.000 C 
ATOM     49  F9  UNL A   1       8.934  14.169  29.078  1.00  0.00    +0.000 F 
ATOM     50  C35 UNL A   1       9.147  12.016  28.119  1.00  0.00    +0.000 C 
ATOM     51  F10 UNL A   1       8.143  11.586  28.897  1.00  0.00    +0.000 F 
ENDBRANCH   40   41
BRANCH   55   56
ATOM     65  C44 UNL A   1       3.176   8.377  24.398  1.00  0.00    +0.000 C 
ATOM     66  F15 UNL A   1       2.934   8.066  25.680  1.00  0.00    +0.000 F 
ATOM     56  C39 UNL A   1       4.453   8.178  23.856  1.00  0.00    +0.000 C 
ATOM     57  C40 UNL A   1       4.651   8.512  22.509  1.00  0.00    +0.000 C 
ATOM     58  F11 UNL A   1       5.861   8.358  21.951  1.00  0.00    +0.000 F 
ATOM     59  C41 UNL A   1       3.619   9.049  21.741  1.00  0.00    +0.000 C 
ATOM     60  F12 UNL A   1       3.847   9.404  20.470  1.00  0.00    +0.000 F 
ATOM     61  C42 UNL A   1       2.361   9.232  22.298  1.00  0.00    +0.000 C 
ATOM     62  F13 UNL A   1       1.370   9.747  21.560  1.00  0.00    +0.000 F 
ATOM     63  C43 UNL A   1       2.137   8.888  23.622  1.00  0.00    +0.000 C 
ATOM     64  F14 UNL A   1       0.920   9.051  24.160  1.00  0.00    +0.000 F 
ENDBRANCH   55   56
TORSDOF 19
ENDMDL
