MODEL 1
REMARK VINA RESULT:     -11.4      0.000      0.000
ROOT
ATOM     19  C15 UNL A   1      38.316  30.365  29.851  1.00  0.00    +0.000 C 
ATOM     20  C16 UNL A   1      39.303  29.389  29.281  1.00  0.00    +0.000 C 
ATOM     21  N3  UNL A   1      40.334  28.821  29.852  1.00  0.00    +0.000 N 
ATOM     22  C17 UNL A   1      40.850  27.945  28.906  1.00  0.00    +0.000 C 
ATOM     23  C18 UNL A   1      41.942  27.151  29.000  1.00  0.00    +0.000 C 
ATOM     35  C25 UNL A   1      42.809  27.104  30.147  1.00  0.00    +0.000 C 
ATOM     36  C26 UNL A   1      43.982  26.389  30.315  1.00  0.00    +0.000 C 
ATOM     37  C27 UNL A   1      44.459  26.632  31.608  1.00  0.00    +0.000 C 
ATOM     38  C28 UNL A   1      43.606  27.531  32.229  1.00  0.00    +0.000 C 
ATOM     39  N4  UNL A   1      42.597  27.808  31.323  1.00  0.00    +0.000 N 
ATOM     40  C29 UNL A   1      43.707  28.095  33.551  1.00  0.00    +0.000 C 
ATOM     52  C36 UNL A   1      42.828  28.970  34.096  1.00  0.00    +0.000 C 
ATOM     53  N5  UNL A   1      41.686  29.522  33.532  1.00  0.00    +0.000 N 
ATOM     54  C37 UNL A   1      41.180  30.315  34.445  1.00  0.00    +0.000 C 
ATOM     55  C38 UNL A   1      39.955  31.184  34.367  1.00  0.00    +0.000 C 
ATOM     67  C45 UNL A   1      39.275  31.267  33.208  1.00  0.00    +0.000 C 
ATOM     68  C46 UNL A   1      38.061  32.051  32.993  1.00  0.00    +0.000 C 
ATOM     69  C47 UNL A   1      37.594  31.804  31.758  1.00  0.00    +0.000 C 
ATOM     70  C48 UNL A   1      38.501  30.876  31.082  1.00  0.00    +0.000 C 
ATOM     71  N6  UNL A   1      39.500  30.656  31.999  1.00  0.00    +0.000 N 
ATOM     72  C49 UNL A   1      41.929  30.330  35.709  1.00  0.00    +0.000 C 
ATOM     73  C50 UNL A   1      42.938  29.515  35.434  1.00  0.00    +0.000 C 
ATOM     74  C51 UNL A   1      39.998  28.031  27.739  1.00  0.00    +0.000 C 
ATOM     75  C52 UNL A   1      39.072  28.965  27.892  1.00  0.00    +0.000 C 
ATOM    112  H21 UNL A   1      44.427  25.782  29.610  1.00  0.00    +0.000 H 
ATOM    113  H22 UNL A   1      45.303  26.212  32.028  1.00  0.00    +0.000 H 
ATOM    114  H23 UNL A   1      41.839  28.415  31.490  1.00  0.00    +0.000 H 
ATOM    115  H24 UNL A   1      37.632  32.691  33.678  1.00  0.00    +0.000 H 
ATOM    116  H25 UNL A   1      36.735  32.205  31.351  1.00  0.00    +0.000 H 
ATOM    117  H26 UNL A   1      40.299  30.112  31.808  1.00  0.00    +0.000 H 
ATOM    118  H27 UNL A   1      41.724  30.842  36.582  1.00  0.00    +0.000 H 
ATOM    119  H28 UNL A   1      43.705  29.296  36.090  1.00  0.00    +0.000 H 
ATOM    120  H29 UNL A   1      40.099  27.441  26.897  1.00  0.00    +0.000 H 
ATOM    121  H30 UNL A   1      38.370  29.305  27.215  1.00  0.00    +0.000 H 
ENDROOT
BRANCH   19   18
ATOM     76  C53 UNL A   1      36.133  29.638  28.919  1.00  0.00    +0.000 C 
ATOM     77  C54 UNL A   1      34.966  29.870  28.200  1.00  0.00    +0.000 C 
ATOM    110  H19 UNL A   1      35.434  33.120  27.490  1.00  0.00    +0.000 H 
ATOM     15  C11 UNL A   1      34.687  31.158  27.735  1.00  0.00    +0.000 C 
ATOM     16  C12 UNL A   1      35.626  32.183  27.878  1.00  0.00    +0.000 C 
ATOM     17  C13 UNL A   1      36.827  31.932  28.547  1.00  0.00    +0.000 C 
ATOM    111  H20 UNL A   1      37.532  32.679  28.635  1.00  0.00    +0.000 H 
ATOM     18  C14 UNL A   1      37.073  30.666  29.099  1.00  0.00    +0.000 C 
ATOM    122  H31 UNL A   1      36.310  28.704  29.322  1.00  0.00    +0.000 H 
ATOM    123  H32 UNL A   1      34.310  29.096  28.012  1.00  0.00    +0.000 H 
BRANCH   15   13
ATOM     13  C10 UNL A   1      33.383  31.455  27.108  1.00  0.00    +0.000 C 
ATOM     14  O2  UNL A   1      32.784  32.486  27.399  1.00  0.00    +0.000 O 
BRANCH   13   12
ATOM     12  N2  UNL A   1      32.847  30.558  26.217  1.00  0.00    +0.000 N 
ATOM    109  H18 UNL A   1      33.340  30.445  25.372  1.00  0.00    +0.000 H 
BRANCH   12   11
ATOM     11  C9  UNL A   1      31.644  29.752  26.359  1.00  0.00    +0.000 C 
ATOM    108  H17 UNL A   1      31.433  29.311  25.408  1.00  0.00    +0.000 H 
ATOM    107  H16 UNL A   1      30.843  30.385  26.683  1.00  0.00    +0.000 H 
BRANCH   11   10
ATOM    105  H14 UNL A   1      32.619  28.885  28.027  1.00  0.00    +0.000 H 
ATOM     10  C8  UNL A   1      31.817  28.623  27.369  1.00  0.00    +0.000 C 
ATOM    106  H15 UNL A   1      30.877  28.520  27.870  1.00  0.00    +0.000 H 
BRANCH   10    9
ATOM      9  C7  UNL A   1      32.132  27.260  26.752  1.00  0.00    +0.000 C 
ATOM    103  H12 UNL A   1      31.936  26.509  27.489  1.00  0.00    +0.000 H 
ATOM    104  H13 UNL A   1      31.512  27.176  25.883  1.00  0.00    +0.000 H 
BRANCH    9    8
ATOM    101  H10 UNL A   1      34.032  28.052  26.240  1.00  0.00    +0.000 H 
ATOM    102  H11 UNL A   1      34.035  26.408  26.951  1.00  0.00    +0.000 H 
ATOM      8  C6  UNL A   1      33.573  27.085  26.266  1.00  0.00    +0.000 C 
BRANCH    8    7
ATOM     99  H8  UNL A   1      34.748  26.155  24.754  1.00  0.00    +0.000 H 
ATOM    100  H9  UNL A   1      33.045  25.627  24.838  1.00  0.00    +0.000 H 
ATOM      7  C5  UNL A   1      33.727  26.451  24.875  1.00  0.00    +0.000 C 
BRANCH    7    6
ATOM     97  H6  UNL A   1      33.174  28.362  24.091  1.00  0.00    +0.000 H 
ATOM     98  H7  UNL A   1      34.168  27.396  23.012  1.00  0.00    +0.000 H 
ATOM      6  C4  UNL A   1      33.357  27.378  23.711  1.00  0.00    +0.000 C 
BRANCH    6    5
ATOM      5  N1  UNL A   1      32.168  26.899  23.036  1.00  0.00    +0.000 N 
ATOM     96  H5  UNL A   1      32.325  26.340  22.241  1.00  0.00    +0.000 H 
BRANCH    5    3
ATOM      3  C3  UNL A   1      30.858  27.122  23.355  1.00  0.00    +0.000 C 
ATOM      4  O1  UNL A   1      30.532  28.294  23.563  1.00  0.00    +0.000 O 
BRANCH    3    2
ATOM      2  C2  UNL A   1      29.886  25.932  23.510  1.00  0.00    +0.000 C 
ATOM     95  H4  UNL A   1      29.728  25.474  22.556  1.00  0.00    +0.000 H 
BRANCH    2    1
ATOM      1  C1  UNL A   1      28.523  26.435  23.999  1.00  0.00    +0.000 C 
ATOM     92  H1  UNL A   1      27.766  26.147  23.300  1.00  0.00    +0.000 H 
ATOM     93  H2  UNL A   1      28.545  27.502  24.081  1.00  0.00    +0.000 H 
ATOM     94  H3  UNL A   1      28.306  26.008  24.955  1.00  0.00    +0.000 H 
ENDBRANCH    2    1
BRANCH    2   78
ATOM    132  H41 UNL A   1      31.304  23.757  22.757  1.00  0.00    +0.000 H 
ATOM     78  C55 UNL A   1      30.486  24.824  24.391  1.00  0.00    +0.000 C 
ATOM     79  C56 UNL A   1      30.321  24.778  25.784  1.00  0.00    +0.000 C 
ATOM     80  C57 UNL A   1      30.944  23.791  26.550  1.00  0.00    +0.000 C 
ATOM     81  C58 UNL A   1      31.759  22.840  25.939  1.00  0.00    +0.000 C 
ATOM     82  C59 UNL A   1      31.929  22.847  24.553  1.00  0.00    +0.000 C 
ATOM     91  C67 UNL A   1      31.247  23.803  23.786  1.00  0.00    +0.000 C 
ATOM    124  H33 UNL A   1      29.731  25.485  26.249  1.00  0.00    +0.000 H 
ATOM    125  H34 UNL A   1      30.802  23.766  27.572  1.00  0.00    +0.000 H 
ATOM    126  H35 UNL A   1      32.238  22.129  26.513  1.00  0.00    +0.000 H 
BRANCH   82   83
ATOM     83  C60 UNL A   1      32.818  21.815  23.947  1.00  0.00    +0.000 C 
ATOM     84  O3  UNL A   1      32.326  20.913  23.270  1.00  0.00    +0.000 O 
BRANCH   83   85
ATOM    129  H38 UNL A   1      38.093  22.095  24.441  1.00  0.00    +0.000 H 
ATOM    130  H39 UNL A   1      36.891  20.304  25.549  1.00  0.00    +0.000 H 
ATOM    131  H40 UNL A   1      34.478  20.130  25.316  1.00  0.00    +0.000 H 
ATOM     85  C61 UNL A   1      34.292  21.850  24.098  1.00  0.00    +0.000 C 
ATOM     86  C62 UNL A   1      34.995  22.860  23.430  1.00  0.00    +0.000 C 
ATOM     87  C63 UNL A   1      36.380  22.949  23.556  1.00  0.00    +0.000 C 
ATOM     88  C64 UNL A   1      37.069  22.021  24.337  1.00  0.00    +0.000 C 
ATOM     89  C65 UNL A   1      36.377  20.994  24.979  1.00  0.00    +0.000 C 
ATOM     90  C66 UNL A   1      34.988  20.898  24.854  1.00  0.00    +0.000 C 
ATOM    127  H36 UNL A   1      34.486  23.540  22.844  1.00  0.00    +0.000 H 
ATOM    128  H37 UNL A   1      36.896  23.700  23.073  1.00  0.00    +0.000 H 
ENDBRANCH   83   85
ENDBRANCH   82   83
ENDBRANCH    2   78
ENDBRANCH    3    2
ENDBRANCH    5    3
ENDBRANCH    6    5
ENDBRANCH    7    6
ENDBRANCH    8    7
ENDBRANCH    9    8
ENDBRANCH   10    9
ENDBRANCH   11   10
ENDBRANCH   12   11
ENDBRANCH   13   12
ENDBRANCH   15   13
ENDBRANCH   19   18
BRANCH   23   24
ATOM     33  C24 UNL A   1      43.167  26.668  26.852  1.00  0.00    +0.000 C 
ATOM     34  F5  UNL A   1      43.776  27.859  26.949  1.00  0.00    +0.000 F 
ATOM     24  C19 UNL A   1      42.248  26.260  27.833  1.00  0.00    +0.000 C 
ATOM     25  C20 UNL A   1      41.637  25.007  27.678  1.00  0.00    +0.000 C 
ATOM     26  F1  UNL A   1      40.762  24.565  28.594  1.00  0.00    +0.000 F 
ATOM     27  C21 UNL A   1      41.964  24.177  26.608  1.00  0.00    +0.000 C 
ATOM     28  F2  UNL A   1      41.414  22.958  26.516  1.00  0.00    +0.000 F 
ATOM     29  C22 UNL A   1      42.876  24.601  25.653  1.00  0.00    +0.000 C 
ATOM     30  F3  UNL A   1      43.192  23.800  24.626  1.00  0.00    +0.000 F 
ATOM     31  C23 UNL A   1      43.468  25.848  25.767  1.00  0.00    +0.000 C 
ATOM     32  F4  UNL A   1      44.341  26.263  24.839  1.00  0.00    +0.000 F 
ENDBRANCH   23   24
BRANCH   40   41
ATOM     41  C30 UNL A   1      44.894  27.698  34.377  1.00  0.00    +0.000 C 
ATOM     42  C31 UNL A   1      46.071  28.458  34.384  1.00  0.00    +0.000 C 
ATOM     43  F6  UNL A   1      46.195  29.517  33.570  1.00  0.00    +0.000 F 
ATOM     44  C32 UNL A   1      47.134  28.119  35.217  1.00  0.00    +0.000 C 
ATOM     45  F7  UNL A   1      48.260  28.844  35.193  1.00  0.00    +0.000 F 
ATOM     46  C33 UNL A   1      47.029  27.032  36.072  1.00  0.00    +0.000 C 
ATOM     47  F8  UNL A   1      48.047  26.717  36.886  1.00  0.00    +0.000 F 
ATOM     48  C34 UNL A   1      45.871  26.268  36.083  1.00  0.00    +0.000 C 
ATOM     49  F9  UNL A   1      45.765  25.224  36.916  1.00  0.00    +0.000 F 
ATOM     50  C35 UNL A   1      44.817  26.590  35.235  1.00  0.00    +0.000 C 
ATOM     51  F10 UNL A   1      43.707  25.837  35.268  1.00  0.00    +0.000 F 
ENDBRANCH   40   41
BRANCH   55   56
ATOM     65  C44 UNL A   1      38.546  31.463  36.434  1.00  0.00    +0.000 C 
ATOM     66  F15 UNL A   1      38.056  30.226  36.264  1.00  0.00    +0.000 F 
ATOM     56  C39 UNL A   1      39.496  31.973  35.538  1.00  0.00    +0.000 C 
ATOM     57  C40 UNL A   1      39.968  33.274  35.755  1.00  0.00    +0.000 C 
ATOM     58  F11 UNL A   1      40.891  33.794  34.932  1.00  0.00    +0.000 F 
ATOM     59  C41 UNL A   1      39.512  34.035  36.827  1.00  0.00    +0.000 C 
ATOM     60  F12 UNL A   1      39.997  35.269  37.026  1.00  0.00    +0.000 F 
ATOM     61  C42 UNL A   1      38.558  33.518  37.692  1.00  0.00    +0.000 C 
ATOM     62  F13 UNL A   1      38.107  34.258  38.714  1.00  0.00    +0.000 F 
ATOM     63  C43 UNL A   1      38.073  32.234  37.494  1.00  0.00    +0.000 C 
ATOM     64  F14 UNL A   1      37.140  31.737  38.318  1.00  0.00    +0.000 F 
ENDBRANCH   55   56
TORSDOF 19
ENDMDL
MODEL 2
REMARK VINA RESULT:     -11.2     37.499     43.216
ROOT
ATOM     19  C15 UNL A   1      13.588  53.595   5.848  1.00  0.00    +0.000 C 
ATOM     20  C16 UNL A   1      14.536  54.108   4.803  1.00  0.00    +0.000 C 
ATOM     21  N3  UNL A   1      15.000  53.510   3.736  1.00  0.00    +0.000 N 
ATOM     22  C17 UNL A   1      15.767  54.461   3.077  1.00  0.00    +0.000 C 
ATOM     23  C18 UNL A   1      16.489  54.321   1.941  1.00  0.00    +0.000 C 
ATOM     35  C25 UNL A   1      16.609  53.090   1.208  1.00  0.00    +0.000 C 
ATOM     36  C26 UNL A   1      17.374  52.824   0.086  1.00  0.00    +0.000 C 
ATOM     37  C27 UNL A   1      17.144  51.496  -0.293  1.00  0.00    +0.000 C 
ATOM     38  C28 UNL A   1      16.269  50.924   0.617  1.00  0.00    +0.000 C 
ATOM     39  N4  UNL A   1      15.945  51.915   1.529  1.00  0.00    +0.000 N 
ATOM     40  C29 UNL A   1      15.767  49.575   0.652  1.00  0.00    +0.000 C 
ATOM     52  C36 UNL A   1      14.904  49.085   1.575  1.00  0.00    +0.000 C 
ATOM     53  N5  UNL A   1      14.341  49.729   2.668  1.00  0.00    +0.000 N 
ATOM     54  C37 UNL A   1      13.585  48.838   3.263  1.00  0.00    +0.000 C 
ATOM     55  C38 UNL A   1      12.757  48.984   4.509  1.00  0.00    +0.000 C 
ATOM     67  C45 UNL A   1      12.805  50.134   5.206  1.00  0.00    +0.000 C 
ATOM     68  C46 UNL A   1      12.043  50.423   6.418  1.00  0.00    +0.000 C 
ATOM     69  C47 UNL A   1      12.251  51.702   6.771  1.00  0.00    +0.000 C 
ATOM     70  C48 UNL A   1      13.194  52.308   5.833  1.00  0.00    +0.000 C 
ATOM     71  N6  UNL A   1      13.514  51.287   4.971  1.00  0.00    +0.000 N 
ATOM     72  C49 UNL A   1      13.557  47.532   2.591  1.00  0.00    +0.000 C 
ATOM     73  C50 UNL A   1      14.398  47.728   1.584  1.00  0.00    +0.000 C 
ATOM     74  C51 UNL A   1      15.676  55.685   3.845  1.00  0.00    +0.000 C 
ATOM     75  C52 UNL A   1      14.989  55.498   4.961  1.00  0.00    +0.000 C 
ATOM    112  H21 UNL A   1      18.005  53.488  -0.388  1.00  0.00    +0.000 H 
ATOM    113  H22 UNL A   1      17.556  51.023  -1.112  1.00  0.00    +0.000 H 
ATOM    114  H23 UNL A   1      15.333  51.802   2.293  1.00  0.00    +0.000 H 
ATOM    115  H24 UNL A   1      11.442  49.753   6.922  1.00  0.00    +0.000 H 
ATOM    116  H25 UNL A   1      11.816  52.180   7.576  1.00  0.00    +0.000 H 
ATOM    117  H26 UNL A   1      14.183  51.374   4.254  1.00  0.00    +0.000 H 
ATOM    118  H27 UNL A   1      13.023  46.684   2.838  1.00  0.00    +0.000 H 
ATOM    119  H28 UNL A   1      14.659  47.005   0.895  1.00  0.00    +0.000 H 
ATOM    120  H29 UNL A   1      16.093  56.585   3.560  1.00  0.00    +0.000 H 
ATOM    121  H30 UNL A   1      14.815  56.156   5.738  1.00  0.00    +0.000 H 
ENDROOT
BRANCH   19   18
ATOM     76  C53 UNL A   1      13.682  54.794   8.020  1.00  0.00    +0.000 C 
ATOM     77  C54 UNL A   1      13.149  55.660   8.968  1.00  0.00    +0.000 C 
ATOM    110  H19 UNL A   1      10.364  56.575   7.328  1.00  0.00    +0.000 H 
ATOM     15  C11 UNL A   1      11.971  56.355   8.684  1.00  0.00    +0.000 C 
ATOM     16  C12 UNL A   1      11.259  56.093   7.510  1.00  0.00    +0.000 C 
ATOM     17  C13 UNL A   1      11.764  55.177   6.585  1.00  0.00    +0.000 C 
ATOM    111  H20 UNL A   1      11.231  54.965   5.728  1.00  0.00    +0.000 H 
ATOM     18  C14 UNL A   1      12.994  54.545   6.821  1.00  0.00    +0.000 C 
ATOM    122  H31 UNL A   1      14.587  54.331   8.198  1.00  0.00    +0.000 H 
ATOM    123  H32 UNL A   1      13.622  55.789   9.877  1.00  0.00    +0.000 H 
BRANCH   15   13
ATOM     13  C10 UNL A   1      11.477  57.392   9.613  1.00  0.00    +0.000 C 
ATOM     14  O2  UNL A   1      11.912  58.537   9.540  1.00  0.00    +0.000 O 
BRANCH   13   12
ATOM     12  N2  UNL A   1      10.547  57.052  10.564  1.00  0.00    +0.000 N 
ATOM    109  H18 UNL A   1       9.928  56.326  10.319  1.00  0.00    +0.000 H 
BRANCH   12   11
ATOM     11  C9  UNL A   1      10.356  57.627  11.887  1.00  0.00    +0.000 C 
ATOM    108  H17 UNL A   1       9.481  58.241  11.853  1.00  0.00    +0.000 H 
ATOM    107  H16 UNL A   1      11.224  58.197  12.143  1.00  0.00    +0.000 H 
BRANCH   11   10
ATOM    105  H14 UNL A   1       9.408  56.931  13.649  1.00  0.00    +0.000 H 
ATOM     10  C8  UNL A   1      10.136  56.562  12.956  1.00  0.00    +0.000 C 
ATOM    106  H15 UNL A   1       9.818  55.679  12.442  1.00  0.00    +0.000 H 
BRANCH   10    9
ATOM      9  C7  UNL A   1      11.391  56.180  13.742  1.00  0.00    +0.000 C 
ATOM    103  H12 UNL A   1      12.100  56.975  13.641  1.00  0.00    +0.000 H 
ATOM    104  H13 UNL A   1      11.073  56.019  14.751  1.00  0.00    +0.000 H 
BRANCH    9    8
ATOM    101  H10 UNL A   1      11.593  54.557  12.390  1.00  0.00    +0.000 H 
ATOM    102  H11 UNL A   1      13.103  55.111  13.179  1.00  0.00    +0.000 H 
ATOM      8  C6  UNL A   1      12.065  54.880  13.294  1.00  0.00    +0.000 C 
BRANCH    8    7
ATOM     99  H8  UNL A   1      12.930  53.685  14.830  1.00  0.00    +0.000 H 
ATOM    100  H9  UNL A   1      11.164  53.922  14.942  1.00  0.00    +0.000 H 
ATOM      7  C5  UNL A   1      11.999  53.723  14.303  1.00  0.00    +0.000 C 
BRANCH    7    6
ATOM     97  H6  UNL A   1      11.722  51.608  14.446  1.00  0.00    +0.000 H 
ATOM     98  H7  UNL A   1      10.817  52.371  13.149  1.00  0.00    +0.000 H 
ATOM      6  C4  UNL A   1      11.750  52.347  13.673  1.00  0.00    +0.000 C 
BRANCH    6    5
ATOM      5  N1  UNL A   1      12.804  52.017  12.736  1.00  0.00    +0.000 N 
ATOM     96  H5  UNL A   1      12.549  52.027  11.786  1.00  0.00    +0.000 H 
BRANCH    5    3
ATOM      3  C3  UNL A   1      14.106  51.691  12.998  1.00  0.00    +0.000 C 
ATOM      4  O1  UNL A   1      14.304  50.918  13.939  1.00  0.00    +0.000 O 
BRANCH    3    2
ATOM      2  C2  UNL A   1      15.245  52.338  12.179  1.00  0.00    +0.000 C 
ATOM     95  H4  UNL A   1      15.979  52.740  12.846  1.00  0.00    +0.000 H 
BRANCH    2    1
ATOM      1  C1  UNL A   1      14.694  53.510  11.358  1.00  0.00    +0.000 C 
ATOM     92  H1  UNL A   1      14.179  53.132  10.499  1.00  0.00    +0.000 H 
ATOM     93  H2  UNL A   1      15.502  54.135  11.043  1.00  0.00    +0.000 H 
ATOM     94  H3  UNL A   1      14.016  54.078  11.959  1.00  0.00    +0.000 H 
ENDBRANCH    2    1
BRANCH    2   78
ATOM    132  H41 UNL A   1      14.384  50.980  10.005  1.00  0.00    +0.000 H 
ATOM     78  C55 UNL A   1      15.998  51.295  11.337  1.00  0.00    +0.000 C 
ATOM     79  C56 UNL A   1      17.296  50.858  11.641  1.00  0.00    +0.000 C 
ATOM     80  C57 UNL A   1      17.968  49.961  10.807  1.00  0.00    +0.000 C 
ATOM     81  C58 UNL A   1      17.360  49.499   9.642  1.00  0.00    +0.000 C 
ATOM     82  C59 UNL A   1      16.061  49.901   9.320  1.00  0.00    +0.000 C 
ATOM     91  C67 UNL A   1      15.371  50.750  10.197  1.00  0.00    +0.000 C 
ATOM    124  H33 UNL A   1      17.762  51.204  12.495  1.00  0.00    +0.000 H 
ATOM    125  H34 UNL A   1      18.917  49.641  11.054  1.00  0.00    +0.000 H 
ATOM    126  H35 UNL A   1      17.870  48.857   9.015  1.00  0.00    +0.000 H 
BRANCH   82   83
ATOM     83  C60 UNL A   1      15.457  49.387   8.058  1.00  0.00    +0.000 C 
ATOM     84  O3  UNL A   1      14.365  48.820   8.096  1.00  0.00    +0.000 O 
BRANCH   83   85
ATOM    129  H38 UNL A   1      17.725  49.869   3.286  1.00  0.00    +0.000 H 
ATOM    130  H39 UNL A   1      17.422  51.843   4.661  1.00  0.00    +0.000 H 
ATOM    131  H40 UNL A   1      16.416  51.651   6.865  1.00  0.00    +0.000 H 
ATOM     85  C61 UNL A   1      16.108  49.562   6.737  1.00  0.00    +0.000 C 
ATOM     86  C62 UNL A   1      16.318  48.420   5.955  1.00  0.00    +0.000 C 
ATOM     87  C63 UNL A   1      16.908  48.533   4.697  1.00  0.00    +0.000 C 
ATOM     88  C64 UNL A   1      17.301  49.784   4.222  1.00  0.00    +0.000 C 
ATOM     89  C65 UNL A   1      17.122  50.921   5.012  1.00  0.00    +0.000 C 
ATOM     90  C66 UNL A   1      16.534  50.813   6.275  1.00  0.00    +0.000 C 
ATOM    127  H36 UNL A   1      16.037  47.493   6.312  1.00  0.00    +0.000 H 
ATOM    128  H37 UNL A   1      17.052  47.692   4.117  1.00  0.00    +0.000 H 
ENDBRANCH   83   85
ENDBRANCH   82   83
ENDBRANCH    2   78
ENDBRANCH    3    2
ENDBRANCH    5    3
ENDBRANCH    6    5
ENDBRANCH    7    6
ENDBRANCH    8    7
ENDBRANCH    9    8
ENDBRANCH   10    9
ENDBRANCH   11   10
ENDBRANCH   12   11
ENDBRANCH   13   12
ENDBRANCH   15   13
ENDBRANCH   19   18
BRANCH   23   24
ATOM     33  C24 UNL A   1      16.489  56.499   0.674  1.00  0.00    +0.000 C 
ATOM     34  F5  UNL A   1      15.183  56.334   0.419  1.00  0.00    +0.000 F 
ATOM     24  C19 UNL A   1      17.193  55.539   1.419  1.00  0.00    +0.000 C 
ATOM     25  C20 UNL A   1      18.559  55.760   1.650  1.00  0.00    +0.000 C 
ATOM     26  F1  UNL A   1      19.272  54.881   2.368  1.00  0.00    +0.000 F 
ATOM     27  C21 UNL A   1      19.185  56.917   1.192  1.00  0.00    +0.000 C 
ATOM     28  F2  UNL A   1      20.475  57.136   1.480  1.00  0.00    +0.000 F 
ATOM     29  C22 UNL A   1      18.469  57.852   0.460  1.00  0.00    +0.000 C 
ATOM     30  F3  UNL A   1      19.072  58.966   0.022  1.00  0.00    +0.000 F 
ATOM     31  C23 UNL A   1      17.126  57.639   0.190  1.00  0.00    +0.000 C 
ATOM     32  F4  UNL A   1      16.436  58.537  -0.527  1.00  0.00    +0.000 F 
ENDBRANCH   23   24
BRANCH   40   41
ATOM     41  C30 UNL A   1      16.258  48.633  -0.406  1.00  0.00    +0.000 C 
ATOM     42  C31 UNL A   1      17.509  48.008  -0.310  1.00  0.00    +0.000 C 
ATOM     43  F6  UNL A   1      18.340  48.315   0.696  1.00  0.00    +0.000 F 
ATOM     44  C32 UNL A   1      17.915  47.076  -1.262  1.00  0.00    +0.000 C 
ATOM     45  F7  UNL A   1      19.124  46.507  -1.165  1.00  0.00    +0.000 F 
ATOM     46  C33 UNL A   1      17.071  46.737  -2.309  1.00  0.00    +0.000 C 
ATOM     47  F8  UNL A   1      17.458  45.827  -3.214  1.00  0.00    +0.000 F 
ATOM     48  C34 UNL A   1      15.828  47.341  -2.421  1.00  0.00    +0.000 C 
ATOM     49  F9  UNL A   1      15.008  47.007  -3.426  1.00  0.00    +0.000 F 
ATOM     50  C35 UNL A   1      15.428  48.290  -1.485  1.00  0.00    +0.000 C 
ATOM     51  F10 UNL A   1      14.220  48.858  -1.616  1.00  0.00    +0.000 F 
ENDBRANCH   40   41
BRANCH   55   56
ATOM     65  C44 UNL A   1      12.457  46.774   5.676  1.00  0.00    +0.000 C 
ATOM     66  F15 UNL A   1      13.774  46.729   5.924  1.00  0.00    +0.000 F 
ATOM     56  C39 UNL A   1      11.905  47.871   5.000  1.00  0.00    +0.000 C 
ATOM     57  C40 UNL A   1      10.525  47.864   4.756  1.00  0.00    +0.000 C 
ATOM     58  F11 UNL A   1       9.953  48.901   4.127  1.00  0.00    +0.000 F 
ATOM     59  C41 UNL A   1       9.727  46.804   5.177  1.00  0.00    +0.000 C 
ATOM     60  F12 UNL A   1       8.406  46.832   4.952  1.00  0.00    +0.000 F 
ATOM     61  C42 UNL A   1      10.295  45.719   5.830  1.00  0.00    +0.000 C 
ATOM     62  F13 UNL A   1       9.528  44.692   6.219  1.00  0.00    +0.000 F 
ATOM     63  C43 UNL A   1      11.660  45.703   6.077  1.00  0.00    +0.000 C 
ATOM     64  F14 UNL A   1      12.215  44.651   6.693  1.00  0.00    +0.000 F 
ENDBRANCH   55   56
TORSDOF 19
ENDMDL
MODEL 3
REMARK VINA RESULT:     -11.1      4.337      9.173
ROOT
ATOM     19  C15 UNL A   1      41.734  26.224  27.906  1.00  0.00    +0.000 C 
ATOM     20  C16 UNL A   1      41.010  27.311  28.646  1.00  0.00    +0.000 C 
ATOM     21  N3  UNL A   1      41.394  28.533  28.912  1.00  0.00    +0.000 N 
ATOM     22  C17 UNL A   1      40.314  29.136  29.542  1.00  0.00    +0.000 C 
ATOM     23  C18 UNL A   1      40.225  30.389  30.047  1.00  0.00    +0.000 C 
ATOM     35  C25 UNL A   1      41.303  31.340  30.038  1.00  0.00    +0.000 C 
ATOM     36  C26 UNL A   1      41.340  32.610  30.589  1.00  0.00    +0.000 C 
ATOM     37  C27 UNL A   1      42.588  33.174  30.301  1.00  0.00    +0.000 C 
ATOM     38  C28 UNL A   1      43.343  32.240  29.608  1.00  0.00    +0.000 C 
ATOM     39  N4  UNL A   1      42.541  31.122  29.450  1.00  0.00    +0.000 N 
ATOM     40  C29 UNL A   1      44.696  32.360  29.128  1.00  0.00    +0.000 C 
ATOM     52  C36 UNL A   1      45.372  31.401  28.450  1.00  0.00    +0.000 C 
ATOM     53  N5  UNL A   1      44.951  30.127  28.091  1.00  0.00    +0.000 N 
ATOM     54  C37 UNL A   1      45.960  29.578  27.460  1.00  0.00    +0.000 C 
ATOM     55  C38 UNL A   1      46.067  28.199  26.870  1.00  0.00    +0.000 C 
ATOM     67  C45 UNL A   1      45.055  27.326  27.038  1.00  0.00    +0.000 C 
ATOM     68  C46 UNL A   1      45.012  25.967  26.507  1.00  0.00    +0.000 C 
ATOM     69  C47 UNL A   1      43.808  25.432  26.769  1.00  0.00    +0.000 C 
ATOM     70  C48 UNL A   1      43.012  26.399  27.523  1.00  0.00    +0.000 C 
ATOM     71  N6  UNL A   1      43.853  27.473  27.686  1.00  0.00    +0.000 N 
ATOM     72  C49 UNL A   1      47.129  30.457  27.317  1.00  0.00    +0.000 C 
ATOM     73  C50 UNL A   1      46.728  31.546  27.961  1.00  0.00    +0.000 C 
ATOM     74  C51 UNL A   1      39.248  28.157  29.586  1.00  0.00    +0.000 C 
ATOM     75  C52 UNL A   1      39.653  26.989  29.113  1.00  0.00    +0.000 C 
ATOM    112  H21 UNL A   1      40.579  33.061  31.119  1.00  0.00    +0.000 H 
ATOM    113  H22 UNL A   1      42.894  34.124  30.560  1.00  0.00    +0.000 H 
ATOM    114  H23 UNL A   1      42.809  30.295  28.988  1.00  0.00    +0.000 H 
ATOM    115  H24 UNL A   1      45.783  25.492  26.011  1.00  0.00    +0.000 H 
ATOM    116  H25 UNL A   1      43.496  24.491  26.484  1.00  0.00    +0.000 H 
ATOM    117  H26 UNL A   1      43.617  28.270  28.214  1.00  0.00    +0.000 H 
ATOM    118  H27 UNL A   1      48.026  30.275  26.842  1.00  0.00    +0.000 H 
ATOM    119  H28 UNL A   1      47.308  32.388  28.096  1.00  0.00    +0.000 H 
ATOM    120  H29 UNL A   1      38.296  28.346  29.939  1.00  0.00    +0.000 H 
ATOM    121  H30 UNL A   1      39.149  26.089  29.080  1.00  0.00    +0.000 H 
ENDROOT
BRANCH   19   18
ATOM     76  C53 UNL A   1      39.962  25.138  26.548  1.00  0.00    +0.000 C 
ATOM     77  C54 UNL A   1      39.227  24.027  26.151  1.00  0.00    +0.000 C 
ATOM    110  H19 UNL A   1      40.799  21.686  27.977  1.00  0.00    +0.000 H 
ATOM     15  C11 UNL A   1      39.577  22.761  26.627  1.00  0.00    +0.000 C 
ATOM     16  C12 UNL A   1      40.577  22.619  27.593  1.00  0.00    +0.000 C 
ATOM     17  C13 UNL A   1      41.274  23.745  28.037  1.00  0.00    +0.000 C 
ATOM    111  H20 UNL A   1      41.998  23.647  28.766  1.00  0.00    +0.000 H 
ATOM     18  C14 UNL A   1      40.992  25.007  27.494  1.00  0.00    +0.000 C 
ATOM    122  H31 UNL A   1      39.750  26.065  26.145  1.00  0.00    +0.000 H 
ATOM    123  H32 UNL A   1      38.428  24.137  25.507  1.00  0.00    +0.000 H 
BRANCH   15   13
ATOM     13  C10 UNL A   1      38.909  21.556  26.096  1.00  0.00    +0.000 C 
ATOM     14  O2  UNL A   1      39.524  20.497  26.022  1.00  0.00    +0.000 O 
BRANCH   13   12
ATOM     12  N2  UNL A   1      37.606  21.644  25.672  1.00  0.00    +0.000 N 
ATOM    109  H18 UNL A   1      36.946  21.895  26.360  1.00  0.00    +0.000 H 
BRANCH   12   11
ATOM     11  C9  UNL A   1      37.071  21.412  24.339  1.00  0.00    +0.000 C 
ATOM    108  H17 UNL A   1      36.250  20.733  24.430  1.00  0.00    +0.000 H 
ATOM    107  H16 UNL A   1      37.847  21.007  23.723  1.00  0.00    +0.000 H 
BRANCH   11   10
ATOM    105  H14 UNL A   1      37.375  23.193  23.234  1.00  0.00    +0.000 H 
ATOM     10  C8  UNL A   1      36.549  22.690  23.693  1.00  0.00    +0.000 C 
ATOM    106  H15 UNL A   1      35.798  22.390  22.992  1.00  0.00    +0.000 H 
BRANCH   10    9
ATOM      9  C7  UNL A   1      35.876  23.664  24.660  1.00  0.00    +0.000 C 
ATOM    103  H12 UNL A   1      35.589  23.117  25.535  1.00  0.00    +0.000 H 
ATOM    104  H13 UNL A   1      36.593  24.434  24.856  1.00  0.00    +0.000 H 
BRANCH    9    8
ATOM    101  H10 UNL A   1      34.844  24.676  23.108  1.00  0.00    +0.000 H 
ATOM    102  H11 UNL A   1      33.835  23.661  24.185  1.00  0.00    +0.000 H 
ATOM      8  C6  UNL A   1      34.632  24.369  24.111  1.00  0.00    +0.000 C 
BRANCH    8    7
ATOM     99  H8  UNL A   1      33.877  25.289  25.876  1.00  0.00    +0.000 H 
ATOM    100  H9  UNL A   1      35.004  26.283  24.912  1.00  0.00    +0.000 H 
ATOM      7  C5  UNL A   1      34.175  25.606  24.898  1.00  0.00    +0.000 C 
BRANCH    7    6
ATOM     97  H6  UNL A   1      32.935  27.337  24.702  1.00  0.00    +0.000 H 
ATOM     98  H7  UNL A   1      33.174  26.445  23.209  1.00  0.00    +0.000 H 
ATOM      6  C4  UNL A   1      33.003  26.364  24.263  1.00  0.00    +0.000 C 
BRANCH    6    5
ATOM      5  N1  UNL A   1      31.759  25.654  24.481  1.00  0.00    +0.000 N 
ATOM     96  H5  UNL A   1      31.267  25.395  23.669  1.00  0.00    +0.000 H 
BRANCH    5    3
ATOM      3  C3  UNL A   1      31.177  25.299  25.666  1.00  0.00    +0.000 C 
ATOM      4  O1  UNL A   1      31.225  26.130  26.577  1.00  0.00    +0.000 O 
BRANCH    3    2
ATOM      2  C2  UNL A   1      30.567  23.890  25.837  1.00  0.00    +0.000 C 
ATOM     95  H4  UNL A   1      30.028  23.626  24.950  1.00  0.00    +0.000 H 
BRANCH    2    1
ATOM      1  C1  UNL A   1      29.558  23.897  26.991  1.00  0.00    +0.000 C 
ATOM     92  H1  UNL A   1      28.975  24.793  26.948  1.00  0.00    +0.000 H 
ATOM     93  H2  UNL A   1      30.083  23.858  27.923  1.00  0.00    +0.000 H 
ATOM     94  H3  UNL A   1      28.914  23.048  26.907  1.00  0.00    +0.000 H 
ENDBRANCH    2    1
BRANCH    2   78
ATOM    132  H41 UNL A   1      30.855  21.584  24.454  1.00  0.00    +0.000 H 
ATOM     78  C55 UNL A   1      31.657  22.816  25.977  1.00  0.00    +0.000 C 
ATOM     79  C56 UNL A   1      32.681  22.883  26.935  1.00  0.00    +0.000 C 
ATOM     80  C57 UNL A   1      33.691  21.919  26.978  1.00  0.00    +0.000 C 
ATOM     81  C58 UNL A   1      33.706  20.879  26.052  1.00  0.00    +0.000 C 
ATOM     82  C59 UNL A   1      32.692  20.774  25.096  1.00  0.00    +0.000 C 
ATOM     91  C67 UNL A   1      31.648  21.709  25.103  1.00  0.00    +0.000 C 
ATOM    124  H33 UNL A   1      32.687  23.656  27.618  1.00  0.00    +0.000 H 
ATOM    125  H34 UNL A   1      34.427  21.978  27.698  1.00  0.00    +0.000 H 
ATOM    126  H35 UNL A   1      34.469  20.184  26.071  1.00  0.00    +0.000 H 
BRANCH   82   83
ATOM     83  C60 UNL A   1      32.758  19.648  24.121  1.00  0.00    +0.000 C 
ATOM     84  O3  UNL A   1      32.469  19.850  22.942  1.00  0.00    +0.000 O 
BRANCH   83   85
ATOM    129  H38 UNL A   1      34.174  14.743  25.564  1.00  0.00    +0.000 H 
ATOM    130  H39 UNL A   1      35.554  15.960  23.984  1.00  0.00    +0.000 H 
ATOM    131  H40 UNL A   1      34.950  18.221  23.327  1.00  0.00    +0.000 H 
ATOM     85  C61 UNL A   1      33.196  18.286  24.509  1.00  0.00    +0.000 C 
ATOM     86  C62 UNL A   1      32.423  17.593  25.449  1.00  0.00    +0.000 C 
ATOM     87  C63 UNL A   1      32.780  16.302  25.833  1.00  0.00    +0.000 C 
ATOM     88  C64 UNL A   1      33.917  15.704  25.290  1.00  0.00    +0.000 C 
ATOM     89  C65 UNL A   1      34.708  16.402  24.377  1.00  0.00    +0.000 C 
ATOM     90  C66 UNL A   1      34.356  17.698  23.991  1.00  0.00    +0.000 C 
ATOM    127  H36 UNL A   1      31.588  18.041  25.858  1.00  0.00    +0.000 H 
ATOM    128  H37 UNL A   1      32.204  15.788  26.517  1.00  0.00    +0.000 H 
ENDBRANCH   83   85
ENDBRANCH   82   83
ENDBRANCH    2   78
ENDBRANCH    3    2
ENDBRANCH    5    3
ENDBRANCH    6    5
ENDBRANCH    7    6
ENDBRANCH    8    7
ENDBRANCH    9    8
ENDBRANCH   10    9
ENDBRANCH   11   10
ENDBRANCH   12   11
ENDBRANCH   13   12
ENDBRANCH   15   13
ENDBRANCH   19   18
BRANCH   23   24
ATOM     33  C24 UNL A   1      37.878  31.274  29.811  1.00  0.00    +0.000 C 
ATOM     34  F5  UNL A   1      38.062  31.367  28.486  1.00  0.00    +0.000 F 
ATOM     24  C19 UNL A   1      38.909  30.801  30.638  1.00  0.00    +0.000 C 
ATOM     25  C20 UNL A   1      38.663  30.730  32.017  1.00  0.00    +0.000 C 
ATOM     26  F1  UNL A   1      39.610  30.272  32.849  1.00  0.00    +0.000 F 
ATOM     27  C21 UNL A   1      37.421  31.079  32.543  1.00  0.00    +0.000 C 
ATOM     28  F2  UNL A   1      37.190  30.943  33.856  1.00  0.00    +0.000 F 
ATOM     29  C22 UNL A   1      36.417  31.543  31.705  1.00  0.00    +0.000 C 
ATOM     30  F3  UNL A   1      35.221  31.875  32.212  1.00  0.00    +0.000 F 
ATOM     31  C23 UNL A   1      36.648  31.652  30.343  1.00  0.00    +0.000 C 
ATOM     32  F4  UNL A   1      35.682  32.110  29.535  1.00  0.00    +0.000 F 
ENDBRANCH   23   24
BRANCH   40   41
ATOM     41  C30 UNL A   1      45.418  33.639  29.424  1.00  0.00    +0.000 C 
ATOM     42  C31 UNL A   1      46.216  33.785  30.567  1.00  0.00    +0.000 C 
ATOM     43  F6  UNL A   1      46.276  32.801  31.477  1.00  0.00    +0.000 F 
ATOM     44  C32 UNL A   1      46.942  34.952  30.786  1.00  0.00    +0.000 C 
ATOM     45  F7  UNL A   1      47.682  35.081  31.896  1.00  0.00    +0.000 F 
ATOM     46  C33 UNL A   1      46.903  35.982  29.857  1.00  0.00    +0.000 C 
ATOM     47  F8  UNL A   1      47.616  37.098  30.061  1.00  0.00    +0.000 F 
ATOM     48  C34 UNL A   1      46.121  35.857  28.718  1.00  0.00    +0.000 C 
ATOM     49  F9  UNL A   1      46.090  36.847  27.815  1.00  0.00    +0.000 F 
ATOM     50  C35 UNL A   1      45.376  34.701  28.508  1.00  0.00    +0.000 C 
ATOM     51  F10 UNL A   1      44.631  34.606  27.397  1.00  0.00    +0.000 F 
ENDBRANCH   40   41
BRANCH   55   56
ATOM     65  C44 UNL A   1      47.316  27.777  24.726  1.00  0.00    +0.000 C 
ATOM     66  F15 UNL A   1      46.255  28.204  24.027  1.00  0.00    +0.000 F 
ATOM     56  C39 UNL A   1      47.280  27.773  26.128  1.00  0.00    +0.000 C 
ATOM     57  C40 UNL A   1      48.411  27.307  26.811  1.00  0.00    +0.000 C 
ATOM     58  F11 UNL A   1      48.426  27.302  28.152  1.00  0.00    +0.000 F 
ATOM     59  C41 UNL A   1      49.537  26.866  26.120  1.00  0.00    +0.000 C 
ATOM     60  F12 UNL A   1      50.615  26.448  26.798  1.00  0.00    +0.000 F 
ATOM     61  C42 UNL A   1      49.546  26.863  24.733  1.00  0.00    +0.000 C 
ATOM     62  F13 UNL A   1      50.624  26.423  24.069  1.00  0.00    +0.000 F 
ATOM     63  C43 UNL A   1      48.435  27.315  24.036  1.00  0.00    +0.000 C 
ATOM     64  F14 UNL A   1      48.434  27.298  22.696  1.00  0.00    +0.000 F 
ENDBRANCH   55   56
TORSDOF 19
ENDMDL
MODEL 4
REMARK VINA RESULT:     -11.1     37.556     42.988
ROOT
ATOM     19  C15 UNL A   1      29.285 -13.856  30.727  1.00  0.00    +0.000 C 
ATOM     20  C16 UNL A   1      29.038 -14.007  32.199  1.00  0.00    +0.000 C 
ATOM     21  N3  UNL A   1      28.002 -13.640  32.910  1.00  0.00    +0.000 N 
ATOM     22  C17 UNL A   1      28.252 -14.094  34.198  1.00  0.00    +0.000 C 
ATOM     23  C18 UNL A   1      27.498 -13.931  35.310  1.00  0.00    +0.000 C 
ATOM     35  C25 UNL A   1      26.262 -13.196  35.345  1.00  0.00    +0.000 C 
ATOM     36  C26 UNL A   1      25.458 -12.911  36.435  1.00  0.00    +0.000 C 
ATOM     37  C27 UNL A   1      24.342 -12.199  35.979  1.00  0.00    +0.000 C 
ATOM     38  C28 UNL A   1      24.473 -12.006  34.612  1.00  0.00    +0.000 C 
ATOM     39  N4  UNL A   1      25.652 -12.627  34.237  1.00  0.00    +0.000 N 
ATOM     40  C29 UNL A   1      23.587 -11.307  33.717  1.00  0.00    +0.000 C 
ATOM     52  C36 UNL A   1      23.778 -11.162  32.384  1.00  0.00    +0.000 C 
ATOM     53  N5  UNL A   1      24.833 -11.613  31.601  1.00  0.00    +0.000 N 
ATOM     54  C37 UNL A   1      24.570 -11.218  30.379  1.00  0.00    +0.000 C 
ATOM     55  C38 UNL A   1      25.383 -11.413  29.129  1.00  0.00    +0.000 C 
ATOM     67  C45 UNL A   1      26.593 -11.999  29.210  1.00  0.00    +0.000 C 
ATOM     68  C46 UNL A   1      27.479 -12.270  28.082  1.00  0.00    +0.000 C 
ATOM     69  C47 UNL A   1      28.542 -12.967  28.517  1.00  0.00    +0.000 C 
ATOM     70  C48 UNL A   1      28.428 -13.154  29.963  1.00  0.00    +0.000 C 
ATOM     71  N6  UNL A   1      27.269 -12.497  30.297  1.00  0.00    +0.000 N 
ATOM     72  C49 UNL A   1      23.297 -10.498  30.241  1.00  0.00    +0.000 C 
ATOM     73  C50 UNL A   1      22.868 -10.467  31.496  1.00  0.00    +0.000 C 
ATOM     74  C51 UNL A   1      29.519 -14.793  34.163  1.00  0.00    +0.000 C 
ATOM     75  C52 UNL A   1      30.081 -14.703  32.967  1.00  0.00    +0.000 C 
ATOM    112  H21 UNL A   1      25.648 -13.175  37.414  1.00  0.00    +0.000 H 
ATOM    113  H22 UNL A   1      23.555 -11.874  36.561  1.00  0.00    +0.000 H 
ATOM    114  H23 UNL A   1      26.006 -12.661  33.318  1.00  0.00    +0.000 H 
ATOM    115  H24 UNL A   1      27.317 -11.974  27.107  1.00  0.00    +0.000 H 
ATOM    116  H25 UNL A   1      29.314 -13.314  27.927  1.00  0.00    +0.000 H 
ATOM    117  H26 UNL A   1      26.952 -12.395  31.224  1.00  0.00    +0.000 H 
ATOM    118  H27 UNL A   1      22.854 -10.115  29.392  1.00  0.00    +0.000 H 
ATOM    119  H28 UNL A   1      21.996 -10.007  31.802  1.00  0.00    +0.000 H 
ATOM    120  H29 UNL A   1      29.931 -15.297  34.965  1.00  0.00    +0.000 H 
ATOM    121  H30 UNL A   1      31.008 -15.034  32.656  1.00  0.00    +0.000 H 
ENDROOT
BRANCH   19   18
ATOM     76  C53 UNL A   1      31.641 -13.926  29.947  1.00  0.00    +0.000 C 
ATOM     77  C54 UNL A   1      32.717 -14.568  29.344  1.00  0.00    +0.000 C 
ATOM    110  H19 UNL A   1      31.282 -17.551  28.771  1.00  0.00    +0.000 H 
ATOM     15  C11 UNL A   1      32.600 -15.910  28.974  1.00  0.00    +0.000 C 
ATOM     16  C12 UNL A   1      31.375 -16.574  29.091  1.00  0.00    +0.000 C 
ATOM     17  C13 UNL A   1      30.277 -15.907  29.640  1.00  0.00    +0.000 C 
ATOM    111  H20 UNL A   1      29.366 -16.386  29.708  1.00  0.00    +0.000 H 
ATOM     18  C14 UNL A   1      30.413 -14.589  30.100  1.00  0.00    +0.000 C 
ATOM    122  H31 UNL A   1      31.746 -12.955  30.283  1.00  0.00    +0.000 H 
ATOM    123  H32 UNL A   1      33.597 -14.057  29.172  1.00  0.00    +0.000 H 
BRANCH   15   13
ATOM     13  C10 UNL A   1      33.778 -16.650  28.478  1.00  0.00    +0.000 C 
ATOM     14  O2  UNL A   1      34.539 -17.195  29.272  1.00  0.00    +0.000 O 
BRANCH   13   12
ATOM     12  N2  UNL A   1      34.017 -16.701  27.127  1.00  0.00    +0.000 N 
ATOM    109  H18 UNL A   1      33.949 -17.592  26.712  1.00  0.00    +0.000 H 
BRANCH   12   11
ATOM     11  C9  UNL A   1      34.360 -15.609  26.228  1.00  0.00    +0.000 C 
ATOM    108  H17 UNL A   1      35.014 -16.000  25.476  1.00  0.00    +0.000 H 
ATOM    107  H16 UNL A   1      34.834 -14.834  26.794  1.00  0.00    +0.000 H 
BRANCH   11   10
ATOM    105  H14 UNL A   1      32.862 -15.691  24.733  1.00  0.00    +0.000 H 
ATOM     10  C8  UNL A   1      33.138 -15.028  25.527  1.00  0.00    +0.000 C 
ATOM    106  H15 UNL A   1      32.379 -14.930  26.275  1.00  0.00    +0.000 H 
BRANCH   10    9
ATOM      9  C7  UNL A   1      33.346 -13.634  24.934  1.00  0.00    +0.000 C 
ATOM    103  H12 UNL A   1      34.387 -13.521  24.711  1.00  0.00    +0.000 H 
ATOM    104  H13 UNL A   1      32.718 -13.582  24.070  1.00  0.00    +0.000 H 
BRANCH    9    8
ATOM    101  H10 UNL A   1      33.593 -12.447  26.675  1.00  0.00    +0.000 H 
ATOM    102  H11 UNL A   1      32.961 -11.596  25.231  1.00  0.00    +0.000 H 
ATOM      8  C6  UNL A   1      32.924 -12.474  25.840  1.00  0.00    +0.000 C 
BRANCH    8    7
ATOM     99  H8  UNL A   1      31.365 -13.500  26.863  1.00  0.00    +0.000 H 
ATOM    100  H9  UNL A   1      31.373 -11.725  27.055  1.00  0.00    +0.000 H 
ATOM      7  C5  UNL A   1      31.490 -12.551  26.384  1.00  0.00    +0.000 C 
BRANCH    7    6
ATOM     97  H6  UNL A   1      30.359 -13.301  24.732  1.00  0.00    +0.000 H 
ATOM     98  H7  UNL A   1      29.459 -12.241  25.804  1.00  0.00    +0.000 H 
ATOM      6  C4  UNL A   1      30.398 -12.406  25.317  1.00  0.00    +0.000 C 
BRANCH    6    5
ATOM      5  N1  UNL A   1      30.680 -11.281  24.449  1.00  0.00    +0.000 N 
ATOM     96  H5  UNL A   1      31.112 -11.500  23.593  1.00  0.00    +0.000 H 
BRANCH    5    3
ATOM      3  C3  UNL A   1      30.425  -9.955  24.663  1.00  0.00    +0.000 C 
ATOM      4  O1  UNL A   1      31.375  -9.180  24.523  1.00  0.00    +0.000 O 
BRANCH    3    2
ATOM      2  C2  UNL A   1      29.024  -9.502  25.128  1.00  0.00    +0.000 C 
ATOM     95  H4  UNL A   1      28.426 -10.362  25.348  1.00  0.00    +0.000 H 
BRANCH    2    1
ATOM      1  C1  UNL A   1      28.322  -8.744  23.995  1.00  0.00    +0.000 C 
ATOM     92  H1  UNL A   1      28.024  -9.435  23.235  1.00  0.00    +0.000 H 
ATOM     93  H2  UNL A   1      28.994  -8.023  23.578  1.00  0.00    +0.000 H 
ATOM     94  H3  UNL A   1      27.458  -8.245  24.382  1.00  0.00    +0.000 H 
ENDBRANCH    2    1
BRANCH    2   78
ATOM    132  H41 UNL A   1      28.945 -10.440  27.662  1.00  0.00    +0.000 H 
ATOM     78  C55 UNL A   1      29.093  -8.715  26.447  1.00  0.00    +0.000 C 
ATOM     79  C56 UNL A   1      29.165  -7.314  26.500  1.00  0.00    +0.000 C 
ATOM     80  C57 UNL A   1      29.298  -6.646  27.720  1.00  0.00    +0.000 C 
ATOM     81  C58 UNL A   1      29.379  -7.368  28.909  1.00  0.00    +0.000 C 
ATOM     82  C59 UNL A   1      29.293  -8.763  28.891  1.00  0.00    +0.000 C 
ATOM     91  C67 UNL A   1      29.094  -9.420  27.668  1.00  0.00    +0.000 C 
ATOM    124  H33 UNL A   1      29.119  -6.769  25.625  1.00  0.00    +0.000 H 
ATOM    125  H34 UNL A   1      29.337  -5.616  27.741  1.00  0.00    +0.000 H 
ATOM    126  H35 UNL A   1      29.504  -6.872  29.805  1.00  0.00    +0.000 H 
BRANCH   82   83
ATOM     83  C60 UNL A   1      29.394  -9.491  30.187  1.00  0.00    +0.000 C 
ATOM     84  O3  UNL A   1      30.370 -10.209  30.405  1.00  0.00    +0.000 O 
BRANCH   83   85
ATOM    129  H38 UNL A   1      25.849  -9.070  34.113  1.00  0.00    +0.000 H 
ATOM    130  H39 UNL A   1      25.468  -7.878  32.036  1.00  0.00    +0.000 H 
ATOM    131  H40 UNL A   1      27.056  -8.075  30.207  1.00  0.00    +0.000 H 
ATOM     85  C61 UNL A   1      28.373  -9.359  31.254  1.00  0.00    +0.000 C 
ATOM     86  C62 UNL A   1      28.570 -10.074  32.441  1.00  0.00    +0.000 C 
ATOM     87  C63 UNL A   1      27.650  -9.968  33.483  1.00  0.00    +0.000 C 
ATOM     88  C64 UNL A   1      26.523  -9.159  33.337  1.00  0.00    +0.000 C 
ATOM     89  C65 UNL A   1      26.306  -8.468  32.144  1.00  0.00    +0.000 C 
ATOM     90  C66 UNL A   1      27.224  -8.573  31.095  1.00  0.00    +0.000 C 
ATOM    127  H36 UNL A   1      29.398 -10.682  32.545  1.00  0.00    +0.000 H 
ATOM    128  H37 UNL A   1      27.802 -10.487  34.361  1.00  0.00    +0.000 H 
ENDBRANCH   83   85
ENDBRANCH   82   83
ENDBRANCH    2   78
ENDBRANCH    3    2
ENDBRANCH    5    3
ENDBRANCH    6    5
ENDBRANCH    7    6
ENDBRANCH    8    7
ENDBRANCH    9    8
ENDBRANCH   10    9
ENDBRANCH   11   10
ENDBRANCH   12   11
ENDBRANCH   13   12
ENDBRANCH   15   13
ENDBRANCH   19   18
BRANCH   23   24
ATOM     33  C24 UNL A   1      28.809 -13.856  37.460  1.00  0.00    +0.000 C 
ATOM     34  F5  UNL A   1      29.165 -12.594  37.181  1.00  0.00    +0.000 F 
ATOM     24  C19 UNL A   1      27.988 -14.572  36.574  1.00  0.00    +0.000 C 
ATOM     25  C20 UNL A   1      27.651 -15.892  36.913  1.00  0.00    +0.000 C 
ATOM     26  F1  UNL A   1      26.859 -16.614  36.108  1.00  0.00    +0.000 F 
ATOM     27  C21 UNL A   1      28.084 -16.456  38.111  1.00  0.00    +0.000 C 
ATOM     28  F2  UNL A   1      27.697 -17.696  38.443  1.00  0.00    +0.000 F 
ATOM     29  C22 UNL A   1      28.892 -15.728  38.971  1.00  0.00    +0.000 C 
ATOM     30  F3  UNL A   1      29.305 -16.272  40.125  1.00  0.00    +0.000 F 
ATOM     31  C23 UNL A   1      29.265 -14.435  38.642  1.00  0.00    +0.000 C 
ATOM     32  F4  UNL A   1      30.055 -13.735  39.467  1.00  0.00    +0.000 F 
ENDBRANCH   23   24
BRANCH   40   41
ATOM     41  C30 UNL A   1      22.370 -10.669  34.316  1.00  0.00    +0.000 C 
ATOM     42  C31 UNL A   1      22.413  -9.384  34.874  1.00  0.00    +0.000 C 
ATOM     43  F6  UNL A   1      23.580  -8.728  34.967  1.00  0.00    +0.000 F 
ATOM     44  C32 UNL A   1      21.256  -8.776  35.354  1.00  0.00    +0.000 C 
ATOM     45  F7  UNL A   1      21.322  -7.556  35.905  1.00  0.00    +0.000 F 
ATOM     46  C33 UNL A   1      20.036  -9.430  35.264  1.00  0.00    +0.000 C 
ATOM     47  F8  UNL A   1      18.921  -8.836  35.712  1.00  0.00    +0.000 F 
ATOM     48  C34 UNL A   1      19.972 -10.701  34.713  1.00  0.00    +0.000 C 
ATOM     49  F9  UNL A   1      18.792 -11.331  34.617  1.00  0.00    +0.000 F 
ATOM     50  C35 UNL A   1      21.129 -11.321  34.254  1.00  0.00    +0.000 C 
ATOM     51  F10 UNL A   1      21.038 -12.550  33.723  1.00  0.00    +0.000 F 
ENDBRANCH   40   41
BRANCH   55   56
ATOM     65  C44 UNL A   1      24.011 -11.727  27.042  1.00  0.00    +0.000 C 
ATOM     66  F15 UNL A   1      23.575 -12.906  27.509  1.00  0.00    +0.000 F 
ATOM     56  C39 UNL A   1      24.887 -10.946  27.809  1.00  0.00    +0.000 C 
ATOM     57  C40 UNL A   1      25.321  -9.728  27.271  1.00  0.00    +0.000 C 
ATOM     58  F11 UNL A   1      26.146  -8.942  27.979  1.00  0.00    +0.000 F 
ATOM     59  C41 UNL A   1      24.893  -9.303  26.016  1.00  0.00    +0.000 C 
ATOM     60  F12 UNL A   1      25.304  -8.122  25.534  1.00  0.00    +0.000 F 
ATOM     61  C42 UNL A   1      24.039 -10.098  25.266  1.00  0.00    +0.000 C 
ATOM     62  F13 UNL A   1      23.641  -9.696  24.051  1.00  0.00    +0.000 F 
ATOM     63  C43 UNL A   1      23.601 -11.311  25.777  1.00  0.00    +0.000 C 
ATOM     64  F14 UNL A   1      22.789 -12.090  25.048  1.00  0.00    +0.000 F 
ENDBRANCH   55   56
TORSDOF 19
ENDMDL
MODEL 5
REMARK VINA RESULT:     -10.9     38.597     43.270
ROOT
ATOM     19  C15 UNL A   1      14.033  53.663   5.345  1.00  0.00    +0.000 C 
ATOM     20  C16 UNL A   1      14.986  54.132   4.285  1.00  0.00    +0.000 C 
ATOM     21  N3  UNL A   1      15.452  53.492   3.243  1.00  0.00    +0.000 N 
ATOM     22  C17 UNL A   1      16.225  54.415   2.551  1.00  0.00    +0.000 C 
ATOM     23  C18 UNL A   1      16.950  54.229   1.424  1.00  0.00    +0.000 C 
ATOM     35  C25 UNL A   1      17.068  52.970   0.739  1.00  0.00    +0.000 C 
ATOM     36  C26 UNL A   1      17.835  52.658  -0.370  1.00  0.00    +0.000 C 
ATOM     37  C27 UNL A   1      17.602  51.318  -0.699  1.00  0.00    +0.000 C 
ATOM     38  C28 UNL A   1      16.721  50.785   0.230  1.00  0.00    +0.000 C 
ATOM     39  N4  UNL A   1      16.398  51.810   1.102  1.00  0.00    +0.000 N 
ATOM     40  C29 UNL A   1      16.213  49.439   0.314  1.00  0.00    +0.000 C 
ATOM     52  C36 UNL A   1      15.346  48.988   1.252  1.00  0.00    +0.000 C 
ATOM     53  N5  UNL A   1      14.782  49.676   2.318  1.00  0.00    +0.000 N 
ATOM     54  C37 UNL A   1      14.020  48.811   2.943  1.00  0.00    +0.000 C 
ATOM     55  C38 UNL A   1      13.188  49.007   4.180  1.00  0.00    +0.000 C 
ATOM     67  C45 UNL A   1      13.238  50.183   4.833  1.00  0.00    +0.000 C 
ATOM     68  C46 UNL A   1      12.473  50.521   6.030  1.00  0.00    +0.000 C 
ATOM     69  C47 UNL A   1      12.685  51.812   6.335  1.00  0.00    +0.000 C 
ATOM     70  C48 UNL A   1      13.634  52.378   5.378  1.00  0.00    +0.000 C 
ATOM     71  N6  UNL A   1      13.952  51.324   4.556  1.00  0.00    +0.000 N 
ATOM     72  C49 UNL A   1      13.988  47.480   2.321  1.00  0.00    +0.000 C 
ATOM     73  C50 UNL A   1      14.834  47.634   1.311  1.00  0.00    +0.000 C 
ATOM     74  C51 UNL A   1      16.136  55.667   3.272  1.00  0.00    +0.000 C 
ATOM     75  C52 UNL A   1      15.444  55.526   4.392  1.00  0.00    +0.000 C 
ATOM    112  H21 UNL A   1      18.470  53.301  -0.867  1.00  0.00    +0.000 H 
ATOM    113  H22 UNL A   1      18.014  50.812  -1.498  1.00  0.00    +0.000 H 
ATOM    114  H23 UNL A   1      15.783  51.729   1.868  1.00  0.00    +0.000 H 
ATOM    115  H24 UNL A   1      11.868  49.873   6.557  1.00  0.00    +0.000 H 
ATOM    116  H25 UNL A   1      12.249  52.321   7.120  1.00  0.00    +0.000 H 
ATOM    117  H26 UNL A   1      14.624  51.381   3.839  1.00  0.00    +0.000 H 
ATOM    118  H27 UNL A   1      13.451  46.644   2.599  1.00  0.00    +0.000 H 
ATOM    119  H28 UNL A   1      15.094  46.885   0.651  1.00  0.00    +0.000 H 
ATOM    120  H29 UNL A   1      16.558  56.554   2.954  1.00  0.00    +0.000 H 
ATOM    121  H30 UNL A   1      15.271  56.213   5.142  1.00  0.00    +0.000 H 
ENDROOT
BRANCH   19   18
ATOM     76  C53 UNL A   1      14.223  55.120   7.347  1.00  0.00    +0.000 C 
ATOM     77  C54 UNL A   1      13.698  56.029   8.257  1.00  0.00    +0.000 C 
ATOM    110  H19 UNL A   1      10.651  56.422   6.900  1.00  0.00    +0.000 H 
ATOM     15  C11 UNL A   1      12.417  56.548   8.054  1.00  0.00    +0.000 C 
ATOM     16  C12 UNL A   1      11.614  56.069   7.016  1.00  0.00    +0.000 C 
ATOM     17  C13 UNL A   1      12.121  55.108   6.137  1.00  0.00    +0.000 C 
ATOM    111  H20 UNL A   1      11.524  54.736   5.382  1.00  0.00    +0.000 H 
ATOM     18  C14 UNL A   1      13.440  54.652   6.279  1.00  0.00    +0.000 C 
ATOM    122  H31 UNL A   1      15.194  54.786   7.456  1.00  0.00    +0.000 H 
ATOM    123  H32 UNL A   1      14.252  56.319   9.079  1.00  0.00    +0.000 H 
BRANCH   15   13
ATOM     13  C10 UNL A   1      11.906  57.629   8.923  1.00  0.00    +0.000 C 
ATOM     14  O2  UNL A   1      12.433  58.737   8.896  1.00  0.00    +0.000 O 
BRANCH   13   12
ATOM     12  N2  UNL A   1      10.855  57.370   9.767  1.00  0.00    +0.000 N 
ATOM    109  H18 UNL A   1      10.221  56.680   9.464  1.00  0.00    +0.000 H 
BRANCH   12   11
ATOM     11  C9  UNL A   1      10.556  57.983  11.053  1.00  0.00    +0.000 C 
ATOM    108  H17 UNL A   1       9.821  58.743  10.888  1.00  0.00    +0.000 H 
ATOM    107  H16 UNL A   1      11.459  58.393  11.456  1.00  0.00    +0.000 H 
BRANCH   11   10
ATOM    105  H14 UNL A   1       9.196  57.473  12.594  1.00  0.00    +0.000 H 
ATOM     10  C8  UNL A   1       9.981  56.986  12.052  1.00  0.00    +0.000 C 
ATOM    106  H15 UNL A   1       9.640  56.148  11.480  1.00  0.00    +0.000 H 
BRANCH   10    9
ATOM      9  C7  UNL A   1      10.991  56.442  13.062  1.00  0.00    +0.000 C 
ATOM    103  H12 UNL A   1      11.803  57.137  13.127  1.00  0.00    +0.000 H 
ATOM    104  H13 UNL A   1      10.458  56.323  13.982  1.00  0.00    +0.000 H 
BRANCH    9    8
ATOM    101  H10 UNL A   1      10.805  54.336  12.893  1.00  0.00    +0.000 H 
ATOM    102  H11 UNL A   1      11.892  55.123  11.706  1.00  0.00    +0.000 H 
ATOM      8  C6  UNL A   1      11.570  55.065  12.723  1.00  0.00    +0.000 C 
BRANCH    8    7
ATOM     99  H8  UNL A   1      13.678  54.972  13.003  1.00  0.00    +0.000 H 
ATOM    100  H9  UNL A   1      12.710  55.115  14.496  1.00  0.00    +0.000 H 
ATOM      7  C5  UNL A   1      12.807  54.652  13.536  1.00  0.00    +0.000 C 
BRANCH    7    6
ATOM     97  H6  UNL A   1      13.708  52.967  14.495  1.00  0.00    +0.000 H 
ATOM     98  H7  UNL A   1      11.993  52.783  14.168  1.00  0.00    +0.000 H 
ATOM      6  C4  UNL A   1      12.926  53.144  13.787  1.00  0.00    +0.000 C 
BRANCH    6    5
ATOM      5  N1  UNL A   1      13.230  52.445  12.556  1.00  0.00    +0.000 N 
ATOM     96  H5  UNL A   1      12.565  51.779  12.268  1.00  0.00    +0.000 H 
BRANCH    5    3
ATOM      3  C3  UNL A   1      14.319  52.586  11.742  1.00  0.00    +0.000 C 
ATOM      4  O1  UNL A   1      15.424  52.565  12.289  1.00  0.00    +0.000 O 
BRANCH    3    2
ATOM      2  C2  UNL A   1      14.128  52.830  10.229  1.00  0.00    +0.000 C 
ATOM     95  H4  UNL A   1      14.637  53.728   9.946  1.00  0.00    +0.000 H 
BRANCH    2    1
ATOM      1  C1  UNL A   1      12.641  53.039   9.920  1.00  0.00    +0.000 C 
ATOM     92  H1  UNL A   1      12.240  53.776  10.585  1.00  0.00    +0.000 H 
ATOM     93  H2  UNL A   1      12.116  52.116  10.053  1.00  0.00    +0.000 H 
ATOM     94  H3  UNL A   1      12.529  53.371   8.910  1.00  0.00    +0.000 H 
ENDBRANCH    2    1
BRANCH    2   78
ATOM    132  H41 UNL A   1      13.843  50.151  10.456  1.00  0.00    +0.000 H 
ATOM     78  C55 UNL A   1      14.782  51.719   9.391  1.00  0.00    +0.000 C 
ATOM     79  C56 UNL A   1      15.704  51.976   8.364  1.00  0.00    +0.000 C 
ATOM     80  C57 UNL A   1      16.218  50.939   7.583  1.00  0.00    +0.000 C 
ATOM     81  C58 UNL A   1      15.806  49.627   7.801  1.00  0.00    +0.000 C 
ATOM     82  C59 UNL A   1      14.902  49.335   8.826  1.00  0.00    +0.000 C 
ATOM     91  C67 UNL A   1      14.442  50.375   9.647  1.00  0.00    +0.000 C 
ATOM    124  H33 UNL A   1      16.007  52.946   8.185  1.00  0.00    +0.000 H 
ATOM    125  H34 UNL A   1      16.905  51.146   6.841  1.00  0.00    +0.000 H 
ATOM    126  H35 UNL A   1      16.168  48.868   7.203  1.00  0.00    +0.000 H 
BRANCH   82   83
ATOM     83  C60 UNL A   1      14.484  47.917   9.014  1.00  0.00    +0.000 C 
ATOM     84  O3  UNL A   1      15.337  47.031   9.036  1.00  0.00    +0.000 O 
BRANCH   83   85
ATOM    129  H38 UNL A   1       9.463  46.420   9.850  1.00  0.00    +0.000 H 
ATOM    130  H39 UNL A   1       9.903  48.501   8.686  1.00  0.00    +0.000 H 
ATOM    131  H40 UNL A   1      12.191  49.199   8.259  1.00  0.00    +0.000 H 
ATOM     85  C61 UNL A   1      13.067  47.528   9.215  1.00  0.00    +0.000 C 
ATOM     86  C62 UNL A   1      12.809  46.309   9.854  1.00  0.00    +0.000 C 
ATOM     87  C63 UNL A   1      11.494  45.906  10.086  1.00  0.00    +0.000 C 
ATOM     88  C64 UNL A   1      10.435  46.712   9.667  1.00  0.00    +0.000 C 
ATOM     89  C65 UNL A   1      10.688  47.912   9.002  1.00  0.00    +0.000 C 
ATOM     90  C66 UNL A   1      12.004  48.319   8.765  1.00  0.00    +0.000 C 
ATOM    127  H36 UNL A   1      13.592  45.708  10.154  1.00  0.00    +0.000 H 
ATOM    128  H37 UNL A   1      11.305  45.013  10.567  1.00  0.00    +0.000 H 
ENDBRANCH   83   85
ENDBRANCH   82   83
ENDBRANCH    2   78
ENDBRANCH    3    2
ENDBRANCH    5    3
ENDBRANCH    6    5
ENDBRANCH    7    6
ENDBRANCH    8    7
ENDBRANCH    9    8
ENDBRANCH   10    9
ENDBRANCH   11   10
ENDBRANCH   12   11
ENDBRANCH   13   12
ENDBRANCH   15   13
ENDBRANCH   19   18
BRANCH   23   24
ATOM     33  C24 UNL A   1      18.950  55.756   1.303  1.00  0.00    +0.000 C 
ATOM     34  F5  UNL A   1      19.556  55.012   2.239  1.00  0.00    +0.000 F 
ATOM     24  C19 UNL A   1      17.660  55.423   0.858  1.00  0.00    +0.000 C 
ATOM     25  C20 UNL A   1      17.072  56.240  -0.120  1.00  0.00    +0.000 C 
ATOM     26  F1  UNL A   1      15.848  55.957  -0.587  1.00  0.00    +0.000 F 
ATOM     27  C21 UNL A   1      17.764  57.320  -0.661  1.00  0.00    +0.000 C 
ATOM     28  F2  UNL A   1      17.206  58.048  -1.639  1.00  0.00    +0.000 F 
ATOM     29  C22 UNL A   1      19.038  57.629  -0.208  1.00  0.00    +0.000 C 
ATOM     30  F3  UNL A   1      19.704  58.667  -0.732  1.00  0.00    +0.000 F 
ATOM     31  C23 UNL A   1      19.626  56.856   0.781  1.00  0.00    +0.000 C 
ATOM     32  F4  UNL A   1      20.852  57.160   1.228  1.00  0.00    +0.000 F 
ENDBRANCH   23   24
BRANCH   40   41
ATOM     41  C30 UNL A   1      16.704  48.456  -0.706  1.00  0.00    +0.000 C 
ATOM     42  C31 UNL A   1      17.948  47.823  -0.576  1.00  0.00    +0.000 C 
ATOM     43  F6  UNL A   1      18.774  48.157   0.427  1.00  0.00    +0.000 F 
ATOM     44  C32 UNL A   1      18.353  46.854  -1.490  1.00  0.00    +0.000 C 
ATOM     45  F7  UNL A   1      19.556  46.276  -1.363  1.00  0.00    +0.000 F 
ATOM     46  C33 UNL A   1      17.516  46.486  -2.533  1.00  0.00    +0.000 C 
ATOM     47  F8  UNL A   1      17.901  45.541  -3.402  1.00  0.00    +0.000 F 
ATOM     48  C34 UNL A   1      16.280  47.098  -2.678  1.00  0.00    +0.000 C 
ATOM     49  F9  UNL A   1      15.465  46.737  -3.679  1.00  0.00    +0.000 F 
ATOM     50  C35 UNL A   1      15.881  48.083  -1.780  1.00  0.00    +0.000 C 
ATOM     51  F10 UNL A   1      14.680  48.658  -1.941  1.00  0.00    +0.000 F 
ENDBRANCH   40   41
BRANCH   55   56
ATOM     65  C44 UNL A   1      10.962  47.854   4.409  1.00  0.00    +0.000 C 
ATOM     66  F15 UNL A   1      10.408  48.769   3.600  1.00  0.00    +0.000 F 
ATOM     56  C39 UNL A   1      12.330  47.917   4.709  1.00  0.00    +0.000 C 
ATOM     57  C40 UNL A   1      12.858  46.943   5.567  1.00  0.00    +0.000 C 
ATOM     58  F11 UNL A   1      14.165  46.956   5.867  1.00  0.00    +0.000 F 
ATOM     59  C41 UNL A   1      12.051  45.942   6.101  1.00  0.00    +0.000 C 
ATOM     60  F12 UNL A   1      12.585  45.009   6.900  1.00  0.00    +0.000 F 
ATOM     61  C42 UNL A   1      10.696  45.908   5.805  1.00  0.00    +0.000 C 
ATOM     62  F13 UNL A   1       9.917  44.953   6.332  1.00  0.00    +0.000 F 
ATOM     63  C43 UNL A   1      10.151  46.865   4.961  1.00  0.00    +0.000 C 
ATOM     64  F14 UNL A   1       8.840  46.844   4.685  1.00  0.00    +0.000 F 
ENDBRANCH   55   56
TORSDOF 19
ENDMDL
MODEL 6
REMARK VINA RESULT:     -10.9      1.337      3.147
ROOT
ATOM     19  C15 UNL A   1      38.239  30.257  29.771  1.00  0.00    +0.000 C 
ATOM     20  C16 UNL A   1      39.247  29.297  29.211  1.00  0.00    +0.000 C 
ATOM     21  N3  UNL A   1      40.306  28.778  29.779  1.00  0.00    +0.000 N 
ATOM     22  C17 UNL A   1      40.834  27.893  28.848  1.00  0.00    +0.000 C 
ATOM     23  C18 UNL A   1      41.952  27.137  28.945  1.00  0.00    +0.000 C 
ATOM     35  C25 UNL A   1      42.839  27.151  30.077  1.00  0.00    +0.000 C 
ATOM     36  C26 UNL A   1      44.037  26.478  30.244  1.00  0.00    +0.000 C 
ATOM     37  C27 UNL A   1      44.528  26.772  31.521  1.00  0.00    +0.000 C 
ATOM     38  C28 UNL A   1      43.658  27.661  32.132  1.00  0.00    +0.000 C 
ATOM     39  N4  UNL A   1      42.624  27.881  31.237  1.00  0.00    +0.000 N 
ATOM     40  C29 UNL A   1      43.762  28.266  33.436  1.00  0.00    +0.000 C 
ATOM     52  C36 UNL A   1      42.865  29.127  33.972  1.00  0.00    +0.000 C 
ATOM     53  N5  UNL A   1      41.696  29.627  33.413  1.00  0.00    +0.000 N 
ATOM     54  C37 UNL A   1      41.180  30.429  34.313  1.00  0.00    +0.000 C 
ATOM     55  C38 UNL A   1      39.926  31.255  34.232  1.00  0.00    +0.000 C 
ATOM     67  C45 UNL A   1      39.224  31.284  33.084  1.00  0.00    +0.000 C 
ATOM     68  C46 UNL A   1      37.983  32.022  32.868  1.00  0.00    +0.000 C 
ATOM     69  C47 UNL A   1      37.503  31.725  31.649  1.00  0.00    +0.000 C 
ATOM     70  C48 UNL A   1      38.428  30.808  30.984  1.00  0.00    +0.000 C 
ATOM     71  N6  UNL A   1      39.449  30.646  31.888  1.00  0.00    +0.000 N 
ATOM     72  C49 UNL A   1      41.949  30.504  35.563  1.00  0.00    +0.000 C 
ATOM     73  C50 UNL A   1      42.980  29.713  35.292  1.00  0.00    +0.000 C 
ATOM     74  C51 UNL A   1      39.959  27.918  27.695  1.00  0.00    +0.000 C 
ATOM     75  C52 UNL A   1      39.006  28.826  27.838  1.00  0.00    +0.000 C 
ATOM    112  H21 UNL A   1      44.490  25.866  29.548  1.00  0.00    +0.000 H 
ATOM    113  H22 UNL A   1      45.392  26.392  31.938  1.00  0.00    +0.000 H 
ATOM    114  H23 UNL A   1      41.850  28.468  31.400  1.00  0.00    +0.000 H 
ATOM    115  H24 UNL A   1      37.544  32.668  33.543  1.00  0.00    +0.000 H 
ATOM    116  H25 UNL A   1      36.625  32.087  31.246  1.00  0.00    +0.000 H 
ATOM    117  H26 UNL A   1      40.261  30.122  31.699  1.00  0.00    +0.000 H 
ATOM    118  H27 UNL A   1      41.742  31.033  36.424  1.00  0.00    +0.000 H 
ATOM    119  H28 UNL A   1      43.763  29.538  35.940  1.00  0.00    +0.000 H 
ATOM    120  H29 UNL A   1      40.066  27.309  26.868  1.00  0.00    +0.000 H 
ATOM    121  H30 UNL A   1      38.283  29.124  27.165  1.00  0.00    +0.000 H 
ENDROOT
BRANCH   19   18
ATOM     76  C53 UNL A   1      36.074  29.429  28.881  1.00  0.00    +0.000 C 
ATOM     77  C54 UNL A   1      34.888  29.604  28.177  1.00  0.00    +0.000 C 
ATOM    110  H19 UNL A   1      35.216  32.858  27.412  1.00  0.00    +0.000 H 
ATOM     15  C11 UNL A   1      34.551  30.872  27.697  1.00  0.00    +0.000 C 
ATOM     16  C12 UNL A   1      35.451  31.935  27.810  1.00  0.00    +0.000 C 
ATOM     17  C13 UNL A   1      36.670  31.742  28.465  1.00  0.00    +0.000 C 
ATOM    111  H20 UNL A   1      37.346  32.519  28.533  1.00  0.00    +0.000 H 
ATOM     18  C14 UNL A   1      36.974  30.496  29.032  1.00  0.00    +0.000 C 
ATOM    122  H31 UNL A   1      36.294  28.509  29.296  1.00  0.00    +0.000 H 
ATOM    123  H32 UNL A   1      34.260  28.801  28.010  1.00  0.00    +0.000 H 
BRANCH   15   13
ATOM     13  C10 UNL A   1      33.227  31.107  27.085  1.00  0.00    +0.000 C 
ATOM     14  O2  UNL A   1      32.629  32.156  27.303  1.00  0.00    +0.000 O 
BRANCH   13   12
ATOM     12  N2  UNL A   1      32.673  30.134  26.291  1.00  0.00    +0.000 N 
ATOM    109  H18 UNL A   1      32.781  30.259  25.319  1.00  0.00    +0.000 H 
BRANCH   12   11
ATOM     11  C9  UNL A   1      31.945  28.942  26.697  1.00  0.00    +0.000 C 
ATOM    108  H17 UNL A   1      31.062  28.878  26.096  1.00  0.00    +0.000 H 
ATOM    107  H16 UNL A   1      31.705  29.024  27.737  1.00  0.00    +0.000 H 
BRANCH   11   10
ATOM    105  H14 UNL A   1      33.322  27.783  25.581  1.00  0.00    +0.000 H 
ATOM     10  C8  UNL A   1      32.750  27.666  26.478  1.00  0.00    +0.000 C 
ATOM    106  H15 UNL A   1      33.357  27.539  27.350  1.00  0.00    +0.000 H 
BRANCH   10    9
ATOM      9  C7  UNL A   1      31.909  26.396  26.345  1.00  0.00    +0.000 C 
ATOM    103  H12 UNL A   1      31.618  26.087  27.328  1.00  0.00    +0.000 H 
ATOM    104  H13 UNL A   1      31.081  26.652  25.718  1.00  0.00    +0.000 H 
BRANCH    9    8
ATOM    101  H10 UNL A   1      32.189  25.101  24.689  1.00  0.00    +0.000 H 
ATOM    102  H11 UNL A   1      33.654  25.465  25.654  1.00  0.00    +0.000 H 
ATOM      8  C6  UNL A   1      32.613  25.220  25.664  1.00  0.00    +0.000 C 
BRANCH    8    7
ATOM     99  H8  UNL A   1      31.622  23.894  27.004  1.00  0.00    +0.000 H 
ATOM    100  H9  UNL A   1      32.470  23.117  25.639  1.00  0.00    +0.000 H 
ATOM      7  C5  UNL A   1      32.503  23.873  26.396  1.00  0.00    +0.000 C 
BRANCH    7    6
ATOM     97  H6  UNL A   1      34.255  24.435  27.484  1.00  0.00    +0.000 H 
ATOM     98  H7  UNL A   1      33.335  23.131  28.216  1.00  0.00    +0.000 H 
ATOM      6  C4  UNL A   1      33.698  23.541  27.296  1.00  0.00    +0.000 C 
BRANCH    6    5
ATOM      5  N1  UNL A   1      34.561  22.567  26.659  1.00  0.00    +0.000 N 
ATOM     96  H5  UNL A   1      34.342  21.624  26.833  1.00  0.00    +0.000 H 
BRANCH    5    3
ATOM      3  C3  UNL A   1      35.641  22.785  25.850  1.00  0.00    +0.000 C 
ATOM      4  O1  UNL A   1      36.539  23.497  26.307  1.00  0.00    +0.000 O 
BRANCH    3    2
ATOM      2  C2  UNL A   1      35.662  22.212  24.416  1.00  0.00    +0.000 C 
ATOM     95  H4  UNL A   1      35.765  21.147  24.459  1.00  0.00    +0.000 H 
BRANCH    2    1
ATOM      1  C1  UNL A   1      36.880  22.751  23.659  1.00  0.00    +0.000 C 
ATOM     92  H1  UNL A   1      37.731  22.136  23.868  1.00  0.00    +0.000 H 
ATOM     93  H2  UNL A   1      37.080  23.754  23.973  1.00  0.00    +0.000 H 
ATOM     94  H3  UNL A   1      36.682  22.739  22.608  1.00  0.00    +0.000 H 
ENDBRANCH    2    1
BRANCH    2   78
ATOM    132  H41 UNL A   1      34.855  24.400  23.048  1.00  0.00    +0.000 H 
ATOM     78  C55 UNL A   1      34.328  22.454  23.691  1.00  0.00    +0.000 C 
ATOM     79  C56 UNL A   1      33.277  21.524  23.689  1.00  0.00    +0.000 C 
ATOM     80  C57 UNL A   1      32.110  21.758  22.957  1.00  0.00    +0.000 C 
ATOM     81  C58 UNL A   1      31.980  22.919  22.199  1.00  0.00    +0.000 C 
ATOM     82  C59 UNL A   1      33.001  23.873  22.194  1.00  0.00    +0.000 C 
ATOM     91  C67 UNL A   1      34.140  23.659  22.983  1.00  0.00    +0.000 C 
ATOM    124  H33 UNL A   1      33.368  20.654  24.236  1.00  0.00    +0.000 H 
ATOM    125  H34 UNL A   1      31.343  21.068  22.978  1.00  0.00    +0.000 H 
ATOM    126  H35 UNL A   1      31.127  23.075  21.639  1.00  0.00    +0.000 H 
BRANCH   82   83
ATOM     83  C60 UNL A   1      32.818  25.095  21.360  1.00  0.00    +0.000 C 
ATOM     84  O3  UNL A   1      32.875  25.007  20.135  1.00  0.00    +0.000 O 
BRANCH   83   85
ATOM    129  H38 UNL A   1      31.650  29.796  23.526  1.00  0.00    +0.000 H 
ATOM    130  H39 UNL A   1      33.964  29.252  23.048  1.00  0.00    +0.000 H 
ATOM    131  H40 UNL A   1      34.530  27.120  22.027  1.00  0.00    +0.000 H 
ATOM     85  C61 UNL A   1      32.533  26.424  21.952  1.00  0.00    +0.000 C 
ATOM     86  C62 UNL A   1      31.195  26.758  22.196  1.00  0.00    +0.000 C 
ATOM     87  C63 UNL A   1      30.874  27.987  22.770  1.00  0.00    +0.000 C 
ATOM     88  C64 UNL A   1      31.887  28.892  23.089  1.00  0.00    +0.000 C 
ATOM     89  C65 UNL A   1      33.219  28.576  22.819  1.00  0.00    +0.000 C 
ATOM     90  C66 UNL A   1      33.546  27.347  22.241  1.00  0.00    +0.000 C 
ATOM    127  H36 UNL A   1      30.445  26.093  21.950  1.00  0.00    +0.000 H 
ATOM    128  H37 UNL A   1      29.889  28.228  22.960  1.00  0.00    +0.000 H 
ENDBRANCH   83   85
ENDBRANCH   82   83
ENDBRANCH    2   78
ENDBRANCH    3    2
ENDBRANCH    5    3
ENDBRANCH    6    5
ENDBRANCH    7    6
ENDBRANCH    8    7
ENDBRANCH    9    8
ENDBRANCH   10    9
ENDBRANCH   11   10
ENDBRANCH   12   11
ENDBRANCH   13   12
ENDBRANCH   15   13
ENDBRANCH   19   18
BRANCH   23   24
ATOM     33  C24 UNL A   1      43.184  26.617  26.810  1.00  0.00    +0.000 C 
ATOM     34  F5  UNL A   1      43.784  27.814  26.882  1.00  0.00    +0.000 F 
ATOM     24  C19 UNL A   1      42.267  26.224  27.798  1.00  0.00    +0.000 C 
ATOM     25  C20 UNL A   1      41.666  24.962  27.669  1.00  0.00    +0.000 C 
ATOM     26  F1  UNL A   1      40.793  24.534  28.593  1.00  0.00    +0.000 F 
ATOM     27  C21 UNL A   1      42.001  24.112  26.618  1.00  0.00    +0.000 C 
ATOM     28  F2  UNL A   1      41.461  22.888  26.551  1.00  0.00    +0.000 F 
ATOM     29  C22 UNL A   1      42.912  24.522  25.655  1.00  0.00    +0.000 C 
ATOM     30  F3  UNL A   1      43.236  23.702  24.646  1.00  0.00    +0.000 F 
ATOM     31  C23 UNL A   1      43.494  25.777  25.744  1.00  0.00    +0.000 C 
ATOM     32  F4  UNL A   1      44.365  26.178  24.808  1.00  0.00    +0.000 F 
ENDBRANCH   23   24
BRANCH   40   41
ATOM     41  C30 UNL A   1      44.975  27.931  34.252  1.00  0.00    +0.000 C 
ATOM     42  C31 UNL A   1      45.006  26.812  35.095  1.00  0.00    +0.000 C 
ATOM     43  F6  UNL A   1      43.907  26.061  35.261  1.00  0.00    +0.000 F 
ATOM     44  C32 UNL A   1      46.167  26.472  35.785  1.00  0.00    +0.000 C 
ATOM     45  F7  UNL A   1      46.171  25.412  36.604  1.00  0.00    +0.000 F 
ATOM     46  C33 UNL A   1      47.319  27.228  35.626  1.00  0.00    +0.000 C 
ATOM     47  F8  UNL A   1      48.440  26.889  36.278  1.00  0.00    +0.000 F 
ATOM     48  C34 UNL A   1      47.309  28.338  34.794  1.00  0.00    +0.000 C 
ATOM     49  F9  UNL A   1      48.424  29.064  34.632  1.00  0.00    +0.000 F 
ATOM     50  C35 UNL A   1      46.145  28.694  34.121  1.00  0.00    +0.000 C 
ATOM     51  F10 UNL A   1      46.164  29.771  33.322  1.00  0.00    +0.000 F 
ENDBRANCH   40   41
BRANCH   55   56
ATOM     65  C44 UNL A   1      38.593  31.526  36.350  1.00  0.00    +0.000 C 
ATOM     66  F15 UNL A   1      38.191  30.250  36.257  1.00  0.00    +0.000 F 
ATOM     56  C39 UNL A   1      39.462  32.062  35.389  1.00  0.00    +0.000 C 
ATOM     57  C40 UNL A   1      39.844  33.403  35.526  1.00  0.00    +0.000 C 
ATOM     58  F11 UNL A   1      40.688  33.951  34.639  1.00  0.00    +0.000 F 
ATOM     59  C41 UNL A   1      39.380  34.177  36.586  1.00  0.00    +0.000 C 
ATOM     60  F12 UNL A   1      39.779  35.451  36.708  1.00  0.00    +0.000 F 
ATOM     61  C42 UNL A   1      38.507  33.633  37.517  1.00  0.00    +0.000 C 
ATOM     62  F13 UNL A   1      38.048  34.384  38.527  1.00  0.00    +0.000 F 
ATOM     63  C43 UNL A   1      38.111  32.309  37.398  1.00  0.00    +0.000 C 
ATOM     64  F14 UNL A   1      37.256  31.784  38.286  1.00  0.00    +0.000 F 
ENDBRANCH   55   56
TORSDOF 19
ENDMDL
MODEL 7
REMARK VINA RESULT:     -10.8     37.687     43.156
ROOT
ATOM     19  C15 UNL A   1      14.140  53.695   5.358  1.00  0.00    +0.000 C 
ATOM     20  C16 UNL A   1      15.073  54.155   4.276  1.00  0.00    +0.000 C 
ATOM     21  N3  UNL A   1      15.497  53.514   3.217  1.00  0.00    +0.000 N 
ATOM     22  C17 UNL A   1      16.269  54.428   2.512  1.00  0.00    +0.000 C 
ATOM     23  C18 UNL A   1      16.960  54.237   1.363  1.00  0.00    +0.000 C 
ATOM     35  C25 UNL A   1      17.033  52.982   0.664  1.00  0.00    +0.000 C 
ATOM     36  C26 UNL A   1      17.764  52.665  -0.467  1.00  0.00    +0.000 C 
ATOM     37  C27 UNL A   1      17.494  51.333  -0.800  1.00  0.00    +0.000 C 
ATOM     38  C28 UNL A   1      16.628  50.809   0.147  1.00  0.00    +0.000 C 
ATOM     39  N4  UNL A   1      16.350  51.833   1.037  1.00  0.00    +0.000 N 
ATOM     40  C29 UNL A   1      16.096  49.473   0.234  1.00  0.00    +0.000 C 
ATOM     52  C36 UNL A   1      15.245  49.032   1.192  1.00  0.00    +0.000 C 
ATOM     53  N5  UNL A   1      14.725  49.721   2.279  1.00  0.00    +0.000 N 
ATOM     54  C37 UNL A   1      13.963  48.866   2.918  1.00  0.00    +0.000 C 
ATOM     55  C38 UNL A   1      13.169  49.068   4.178  1.00  0.00    +0.000 C 
ATOM     67  C45 UNL A   1      13.261  50.237   4.840  1.00  0.00    +0.000 C 
ATOM     68  C46 UNL A   1      12.536  50.580   6.060  1.00  0.00    +0.000 C 
ATOM     69  C47 UNL A   1      12.782  51.863   6.370  1.00  0.00    +0.000 C 
ATOM     70  C48 UNL A   1      13.716  52.419   5.391  1.00  0.00    +0.000 C 
ATOM     71  N6  UNL A   1      13.990  51.366   4.553  1.00  0.00    +0.000 N 
ATOM     72  C49 UNL A   1      13.888  47.542   2.286  1.00  0.00    +0.000 C 
ATOM     73  C50 UNL A   1      14.708  47.688   1.254  1.00  0.00    +0.000 C 
ATOM     74  C51 UNL A   1      16.226  55.675   3.245  1.00  0.00    +0.000 C 
ATOM     75  C52 UNL A   1      15.562  55.538   4.382  1.00  0.00    +0.000 C 
ATOM    112  H21 UNL A   1      18.398  53.299  -0.976  1.00  0.00    +0.000 H 
ATOM    113  H22 UNL A   1      17.874  50.826  -1.615  1.00  0.00    +0.000 H 
ATOM    114  H23 UNL A   1      15.755  51.758   1.818  1.00  0.00    +0.000 H 
ATOM    115  H24 UNL A   1      11.932  49.939   6.598  1.00  0.00    +0.000 H 
ATOM    116  H25 UNL A   1      12.378  52.374   7.170  1.00  0.00    +0.000 H 
ATOM    117  H26 UNL A   1      14.644  51.415   3.818  1.00  0.00    +0.000 H 
ATOM    118  H27 UNL A   1      13.341  46.714   2.572  1.00  0.00    +0.000 H 
ATOM    119  H28 UNL A   1      14.935  46.939   0.581  1.00  0.00    +0.000 H 
ATOM    120  H29 UNL A   1      16.657  56.557   2.922  1.00  0.00    +0.000 H 
ATOM    121  H30 UNL A   1      15.423  56.222   5.142  1.00  0.00    +0.000 H 
ENDROOT
BRANCH   19   18
ATOM     76  C53 UNL A   1      12.414  55.370   5.974  1.00  0.00    +0.000 C 
ATOM     77  C54 UNL A   1      11.880  56.324   6.832  1.00  0.00    +0.000 C 
ATOM    110  H19 UNL A   1      14.117  56.088   9.326  1.00  0.00    +0.000 H 
ATOM     15  C11 UNL A   1      12.469  56.537   8.080  1.00  0.00    +0.000 C 
ATOM     16  C12 UNL A   1      13.660  55.890   8.422  1.00  0.00    +0.000 C 
ATOM     17  C13 UNL A   1      14.230  54.976   7.532  1.00  0.00    +0.000 C 
ATOM    111  H20 UNL A   1      15.120  54.513   7.771  1.00  0.00    +0.000 H 
ATOM     18  C14 UNL A   1      13.593  54.688   6.316  1.00  0.00    +0.000 C 
ATOM    122  H31 UNL A   1      11.942  55.162   5.080  1.00  0.00    +0.000 H 
ATOM    123  H32 UNL A   1      11.052  56.872   6.548  1.00  0.00    +0.000 H 
BRANCH   15   13
ATOM     13  C10 UNL A   1      11.826  57.432   9.064  1.00  0.00    +0.000 C 
ATOM     14  O2  UNL A   1      12.097  58.629   9.073  1.00  0.00    +0.000 O 
BRANCH   13   12
ATOM     12  N2  UNL A   1      10.943  56.904   9.973  1.00  0.00    +0.000 N 
ATOM    109  H18 UNL A   1      10.275  57.530  10.337  1.00  0.00    +0.000 H 
BRANCH   12   11
ATOM     11  C9  UNL A   1      10.866  55.539  10.471  1.00  0.00    +0.000 C 
ATOM    108  H17 UNL A   1      10.283  55.551  11.368  1.00  0.00    +0.000 H 
ATOM    107  H16 UNL A   1      11.858  55.184  10.654  1.00  0.00    +0.000 H 
BRANCH   11   10
ATOM    105  H14 UNL A   1       9.197  54.393   9.848  1.00  0.00    +0.000 H 
ATOM     10  C8  UNL A   1      10.182  54.599   9.485  1.00  0.00    +0.000 C 
ATOM    106  H15 UNL A   1      10.186  55.099   8.539  1.00  0.00    +0.000 H 
BRANCH   10    9
ATOM      9  C7  UNL A   1      10.901  53.265   9.273  1.00  0.00    +0.000 C 
ATOM    103  H12 UNL A   1      10.164  52.490   9.262  1.00  0.00    +0.000 H 
ATOM    104  H13 UNL A   1      11.435  53.358   8.351  1.00  0.00    +0.000 H 
BRANCH    9    8
ATOM    101  H10 UNL A   1      12.507  53.799  10.551  1.00  0.00    +0.000 H 
ATOM    102  H11 UNL A   1      11.396  52.541  11.176  1.00  0.00    +0.000 H 
ATOM      8  C6  UNL A   1      11.944  52.915  10.338  1.00  0.00    +0.000 C 
BRANCH    8    7
ATOM     99  H8  UNL A   1      12.932  51.070  10.728  1.00  0.00    +0.000 H 
ATOM    100  H9  UNL A   1      12.604  51.418   9.009  1.00  0.00    +0.000 H 
ATOM      7  C5  UNL A   1      12.933  51.805   9.950  1.00  0.00    +0.000 C 
BRANCH    7    6
ATOM     97  H6  UNL A   1      14.843  51.680   8.996  1.00  0.00    +0.000 H 
ATOM     98  H7  UNL A   1      14.358  53.309   9.438  1.00  0.00    +0.000 H 
ATOM      6  C4  UNL A   1      14.375  52.284   9.746  1.00  0.00    +0.000 C 
BRANCH    6    5
ATOM      5  N1  UNL A   1      15.127  52.179  10.980  1.00  0.00    +0.000 N 
ATOM     96  H5  UNL A   1      15.593  52.997  11.267  1.00  0.00    +0.000 H 
BRANCH    5    3
ATOM      3  C3  UNL A   1      15.277  51.094  11.797  1.00  0.00    +0.000 C 
ATOM      4  O1  UNL A   1      14.565  51.058  12.804  1.00  0.00    +0.000 O 
BRANCH    3    2
ATOM      2  C2  UNL A   1      16.347  50.026  11.477  1.00  0.00    +0.000 C 
ATOM     95  H4  UNL A   1      16.487  49.396  12.331  1.00  0.00    +0.000 H 
BRANCH    2    1
ATOM      1  C1  UNL A   1      17.691  50.707  11.194  1.00  0.00    +0.000 C 
ATOM     92  H1  UNL A   1      17.955  51.330  12.023  1.00  0.00    +0.000 H 
ATOM     93  H2  UNL A   1      17.609  51.304  10.310  1.00  0.00    +0.000 H 
ATOM     94  H3  UNL A   1      18.445  49.962  11.053  1.00  0.00    +0.000 H 
ENDBRANCH    2    1
BRANCH    2   78
ATOM    132  H41 UNL A   1      14.319  48.238  11.501  1.00  0.00    +0.000 H 
ATOM     78  C55 UNL A   1      15.884  49.082  10.355  1.00  0.00    +0.000 C 
ATOM     79  C56 UNL A   1      16.531  48.995   9.112  1.00  0.00    +0.000 C 
ATOM     80  C57 UNL A   1      16.032  48.175   8.098  1.00  0.00    +0.000 C 
ATOM     81  C58 UNL A   1      14.867  47.439   8.301  1.00  0.00    +0.000 C 
ATOM     82  C59 UNL A   1      14.210  47.490   9.533  1.00  0.00    +0.000 C 
ATOM     91  C67 UNL A   1      14.754  48.266  10.566  1.00  0.00    +0.000 C 
ATOM    124  H33 UNL A   1      17.387  49.546   8.946  1.00  0.00    +0.000 H 
ATOM    125  H34 UNL A   1      16.528  48.114   7.195  1.00  0.00    +0.000 H 
ATOM    126  H35 UNL A   1      14.488  46.855   7.539  1.00  0.00    +0.000 H 
BRANCH   82   83
ATOM     83  C60 UNL A   1      12.962  46.692   9.699  1.00  0.00    +0.000 C 
ATOM     84  O3  UNL A   1      13.008  45.606  10.275  1.00  0.00    +0.000 O 
BRANCH   83   85
ATOM    129  H38 UNL A   1       8.169  48.304   8.092  1.00  0.00    +0.000 H 
ATOM    130  H39 UNL A   1      10.073  49.779   7.810  1.00  0.00    +0.000 H 
ATOM    131  H40 UNL A   1      12.287  49.058   8.507  1.00  0.00    +0.000 H 
ATOM     85  C61 UNL A   1      11.642  47.174   9.224  1.00  0.00    +0.000 C 
ATOM     86  C62 UNL A   1      10.547  46.312   9.350  1.00  0.00    +0.000 C 
ATOM     87  C63 UNL A   1       9.281  46.725   8.937  1.00  0.00    +0.000 C 
ATOM     88  C64 UNL A   1       9.108  47.994   8.385  1.00  0.00    +0.000 C 
ATOM     89  C65 UNL A   1      10.203  48.845   8.228  1.00  0.00    +0.000 C 
ATOM     90  C66 UNL A   1      11.475  48.435   8.637  1.00  0.00    +0.000 C 
ATOM    127  H36 UNL A   1      10.677  45.369   9.749  1.00  0.00    +0.000 H 
ATOM    128  H37 UNL A   1       8.472  46.093   9.042  1.00  0.00    +0.000 H 
ENDBRANCH   83   85
ENDBRANCH   82   83
ENDBRANCH    2   78
ENDBRANCH    3    2
ENDBRANCH    5    3
ENDBRANCH    6    5
ENDBRANCH    7    6
ENDBRANCH    8    7
ENDBRANCH    9    8
ENDBRANCH   10    9
ENDBRANCH   11   10
ENDBRANCH   12   11
ENDBRANCH   13   12
ENDBRANCH   15   13
ENDBRANCH   19   18
BRANCH   23   24
ATOM     33  C24 UNL A   1      18.963  55.760   1.243  1.00  0.00    +0.000 C 
ATOM     34  F5  UNL A   1      19.556  55.030   2.199  1.00  0.00    +0.000 F 
ATOM     24  C19 UNL A   1      17.678  55.422   0.788  1.00  0.00    +0.000 C 
ATOM     25  C20 UNL A   1      17.103  56.224  -0.210  1.00  0.00    +0.000 C 
ATOM     26  F1  UNL A   1      15.885  55.935  -0.688  1.00  0.00    +0.000 F 
ATOM     27  C21 UNL A   1      17.803  57.295  -0.759  1.00  0.00    +0.000 C 
ATOM     28  F2  UNL A   1      17.258  58.008  -1.755  1.00  0.00    +0.000 F 
ATOM     29  C22 UNL A   1      19.072  57.610  -0.295  1.00  0.00    +0.000 C 
ATOM     30  F3  UNL A   1      19.745  58.639  -0.827  1.00  0.00    +0.000 F 
ATOM     31  C23 UNL A   1      19.647  56.851   0.713  1.00  0.00    +0.000 C 
ATOM     32  F4  UNL A   1      20.868  57.161   1.171  1.00  0.00    +0.000 F 
ENDBRANCH   23   24
BRANCH   40   41
ATOM     41  C30 UNL A   1      16.539  48.489  -0.806  1.00  0.00    +0.000 C 
ATOM     42  C31 UNL A   1      15.763  48.222  -1.943  1.00  0.00    +0.000 C 
ATOM     43  F6  UNL A   1      14.551  48.781  -2.078  1.00  0.00    +0.000 F 
ATOM     44  C32 UNL A   1      16.227  47.365  -2.937  1.00  0.00    +0.000 C 
ATOM     45  F7  UNL A   1      15.461  47.105  -4.005  1.00  0.00    +0.000 F 
ATOM     46  C33 UNL A   1      17.479  46.779  -2.824  1.00  0.00    +0.000 C 
ATOM     47  F8  UNL A   1      17.931  45.968  -3.790  1.00  0.00    +0.000 F 
ATOM     48  C34 UNL A   1      18.263  47.032  -1.709  1.00  0.00    +0.000 C 
ATOM     49  F9  UNL A   1      19.478  46.475  -1.603  1.00  0.00    +0.000 F 
ATOM     50  C35 UNL A   1      17.794  47.870  -0.702  1.00  0.00    +0.000 C 
ATOM     51  F10 UNL A   1      18.574  48.099   0.365  1.00  0.00    +0.000 F 
ENDBRANCH   40   41
BRANCH   55   56
ATOM     65  C44 UNL A   1      12.851  46.865   5.355  1.00  0.00    +0.000 C 
ATOM     66  F15 UNL A   1      14.179  46.760   5.510  1.00  0.00    +0.000 F 
ATOM     56  C39 UNL A   1      12.304  47.991   4.723  1.00  0.00    +0.000 C 
ATOM     57  C40 UNL A   1      10.912  48.047   4.576  1.00  0.00    +0.000 C 
ATOM     58  F11 UNL A   1      10.345  49.114   3.993  1.00  0.00    +0.000 F 
ATOM     59  C41 UNL A   1      10.098  47.021   5.046  1.00  0.00    +0.000 C 
ATOM     60  F12 UNL A   1       8.767  47.110   4.914  1.00  0.00    +0.000 F 
ATOM     61  C42 UNL A   1      10.660  45.908   5.654  1.00  0.00    +0.000 C 
ATOM     62  F13 UNL A   1       9.877  44.913   6.092  1.00  0.00    +0.000 F 
ATOM     63  C43 UNL A   1      12.037  45.828   5.805  1.00  0.00    +0.000 C 
ATOM     64  F14 UNL A   1      12.586  44.748   6.377  1.00  0.00    +0.000 F 
ENDBRANCH   55   56
TORSDOF 19
ENDMDL
MODEL 8
REMARK VINA RESULT:     -10.8     38.516     43.243
ROOT
ATOM     19  C15 UNL A   1      14.043  53.549   5.356  1.00  0.00    +0.000 C 
ATOM     20  C16 UNL A   1      14.992  54.010   4.289  1.00  0.00    +0.000 C 
ATOM     21  N3  UNL A   1      15.433  53.370   3.236  1.00  0.00    +0.000 N 
ATOM     22  C17 UNL A   1      16.215  54.285   2.543  1.00  0.00    +0.000 C 
ATOM     23  C18 UNL A   1      16.923  54.096   1.405  1.00  0.00    +0.000 C 
ATOM     35  C25 UNL A   1      17.008  52.841   0.707  1.00  0.00    +0.000 C 
ATOM     36  C26 UNL A   1      17.757  52.525  -0.413  1.00  0.00    +0.000 C 
ATOM     37  C27 UNL A   1      17.495  51.192  -0.751  1.00  0.00    +0.000 C 
ATOM     38  C28 UNL A   1      16.615  50.667   0.183  1.00  0.00    +0.000 C 
ATOM     39  N4  UNL A   1      16.322  51.691   1.069  1.00  0.00    +0.000 N 
ATOM     40  C29 UNL A   1      16.083  49.331   0.262  1.00  0.00    +0.000 C 
ATOM     52  C36 UNL A   1      15.219  48.888   1.207  1.00  0.00    +0.000 C 
ATOM     53  N5  UNL A   1      14.680  49.576   2.286  1.00  0.00    +0.000 N 
ATOM     54  C37 UNL A   1      13.910  48.720   2.912  1.00  0.00    +0.000 C 
ATOM     55  C38 UNL A   1      13.097  48.921   4.161  1.00  0.00    +0.000 C 
ATOM     67  C45 UNL A   1      13.177  50.090   4.824  1.00  0.00    +0.000 C 
ATOM     68  C46 UNL A   1      12.433  50.431   6.033  1.00  0.00    +0.000 C 
ATOM     69  C47 UNL A   1      12.672  51.715   6.347  1.00  0.00    +0.000 C 
ATOM     70  C48 UNL A   1      13.620  52.272   5.383  1.00  0.00    +0.000 C 
ATOM     71  N6  UNL A   1      13.909  51.219   4.548  1.00  0.00    +0.000 N 
ATOM     72  C49 UNL A   1      13.846  47.395   2.279  1.00  0.00    +0.000 C 
ATOM     73  C50 UNL A   1      14.682  47.543   1.260  1.00  0.00    +0.000 C 
ATOM     74  C51 UNL A   1      16.158  55.532   3.275  1.00  0.00    +0.000 C 
ATOM     75  C52 UNL A   1      15.477  55.394   4.402  1.00  0.00    +0.000 C 
ATOM    112  H21 UNL A   1      18.398  53.160  -0.912  1.00  0.00    +0.000 H 
ATOM    113  H22 UNL A   1      17.888  50.686  -1.559  1.00  0.00    +0.000 H 
ATOM    114  H23 UNL A   1      15.715  51.614   1.841  1.00  0.00    +0.000 H 
ATOM    115  H24 UNL A   1      11.822  49.789   6.562  1.00  0.00    +0.000 H 
ATOM    116  H25 UNL A   1      12.256  52.225   7.140  1.00  0.00    +0.000 H 
ATOM    117  H26 UNL A   1      14.573  51.270   3.823  1.00  0.00    +0.000 H 
ATOM    118  H27 UNL A   1      13.296  46.567   2.556  1.00  0.00    +0.000 H 
ATOM    119  H28 UNL A   1      14.921  46.795   0.591  1.00  0.00    +0.000 H 
ATOM    120  H29 UNL A   1      16.593  56.414   2.960  1.00  0.00    +0.000 H 
ATOM    121  H30 UNL A   1      15.326  56.078   5.161  1.00  0.00    +0.000 H 
ENDROOT
BRANCH   19   18
ATOM     76  C53 UNL A   1      14.150  54.762   7.520  1.00  0.00    +0.000 C 
ATOM     77  C54 UNL A   1      13.643  55.665   8.447  1.00  0.00    +0.000 C 
ATOM    110  H19 UNL A   1      10.956  56.719   6.730  1.00  0.00    +0.000 H 
ATOM     15  C11 UNL A   1      12.513  56.422   8.128  1.00  0.00    +0.000 C 
ATOM     16  C12 UNL A   1      11.817  56.190   6.938  1.00  0.00    +0.000 C 
ATOM     17  C13 UNL A   1      12.293  55.237   6.034  1.00  0.00    +0.000 C 
ATOM    111  H20 UNL A   1      11.771  55.048   5.165  1.00  0.00    +0.000 H 
ATOM     18  C14 UNL A   1      13.480  54.540   6.306  1.00  0.00    +0.000 C 
ATOM    122  H31 UNL A   1      15.023  54.251   7.725  1.00  0.00    +0.000 H 
ATOM    123  H32 UNL A   1      14.100  55.776   9.367  1.00  0.00    +0.000 H 
BRANCH   15   13
ATOM     13  C10 UNL A   1      12.056  57.494   9.035  1.00  0.00    +0.000 C 
ATOM     14  O2  UNL A   1      12.362  58.661   8.809  1.00  0.00    +0.000 O 
BRANCH   13   12
ATOM     12  N2  UNL A   1      11.306  57.166  10.137  1.00  0.00    +0.000 N 
ATOM    109  H18 UNL A   1      11.454  57.720  10.938  1.00  0.00    +0.000 H 
BRANCH   12   11
ATOM     11  C9  UNL A   1      10.320  56.104  10.276  1.00  0.00    +0.000 C 
ATOM    108  H17 UNL A   1       9.919  55.903   9.305  1.00  0.00    +0.000 H 
ATOM    107  H16 UNL A   1       9.559  56.428  10.954  1.00  0.00    +0.000 H 
BRANCH   11   10
ATOM    105  H14 UNL A   1      11.974  54.979  10.972  1.00  0.00    +0.000 H 
ATOM     10  C8  UNL A   1      10.930  54.811  10.804  1.00  0.00    +0.000 C 
ATOM    106  H15 UNL A   1      10.394  54.567  11.697  1.00  0.00    +0.000 H 
BRANCH   10    9
ATOM      9  C7  UNL A   1      10.786  53.610   9.869  1.00  0.00    +0.000 C 
ATOM    103  H12 UNL A   1       9.936  53.043  10.187  1.00  0.00    +0.000 H 
ATOM    104  H13 UNL A   1      10.685  54.011   8.882  1.00  0.00    +0.000 H 
BRANCH    9    8
ATOM    101  H10 UNL A   1      12.020  52.210   8.862  1.00  0.00    +0.000 H 
ATOM    102  H11 UNL A   1      12.849  53.280  10.035  1.00  0.00    +0.000 H 
ATOM      8  C6  UNL A   1      11.995  52.671   9.826  1.00  0.00    +0.000 C 
BRANCH    8    7
ATOM     99  H8  UNL A   1      12.355  50.659  10.422  1.00  0.00    +0.000 H 
ATOM    100  H9  UNL A   1      12.635  51.896  11.679  1.00  0.00    +0.000 H 
ATOM      7  C5  UNL A   1      12.002  51.558  10.885  1.00  0.00    +0.000 C 
BRANCH    7    6
ATOM     97  H6  UNL A   1      10.734  51.222  12.573  1.00  0.00    +0.000 H 
ATOM     98  H7  UNL A   1       9.956  52.052  11.236  1.00  0.00    +0.000 H 
ATOM      6  C4  UNL A   1      10.632  51.268  11.509  1.00  0.00    +0.000 C 
BRANCH    6    5
ATOM      5  N1  UNL A   1      10.107  50.008  11.025  1.00  0.00    +0.000 N 
ATOM     96  H5  UNL A   1      10.333  49.216  11.564  1.00  0.00    +0.000 H 
BRANCH    5    3
ATOM      3  C3  UNL A   1       9.340  49.773   9.918  1.00  0.00    +0.000 C 
ATOM      4  O1  UNL A   1       8.136  50.022  10.017  1.00  0.00    +0.000 O 
BRANCH    3    2
ATOM      2  C2  UNL A   1       9.977  49.157   8.653  1.00  0.00    +0.000 C 
ATOM     95  H4  UNL A   1      10.513  49.915   8.119  1.00  0.00    +0.000 H 
BRANCH    2    1
ATOM      1  C1  UNL A   1       8.878  48.640   7.718  1.00  0.00    +0.000 C 
ATOM     92  H1  UNL A   1       8.961  47.577   7.626  1.00  0.00    +0.000 H 
ATOM     93  H2  UNL A   1       8.989  49.090   6.753  1.00  0.00    +0.000 H 
ATOM     94  H3  UNL A   1       7.920  48.890   8.121  1.00  0.00    +0.000 H 
ENDBRANCH    2    1
BRANCH    2   78
ATOM    132  H41 UNL A   1      12.662  49.281   8.358  1.00  0.00    +0.000 H 
ATOM     78  C55 UNL A   1      11.033  48.098   9.009  1.00  0.00    +0.000 C 
ATOM     79  C56 UNL A   1      10.707  46.834   9.525  1.00  0.00    +0.000 C 
ATOM     80  C57 UNL A   1      11.704  45.931   9.901  1.00  0.00    +0.000 C 
ATOM     81  C58 UNL A   1      13.047  46.282   9.785  1.00  0.00    +0.000 C 
ATOM     82  C59 UNL A   1      13.405  47.526   9.259  1.00  0.00    +0.000 C 
ATOM     91  C67 UNL A   1      12.398  48.399   8.824  1.00  0.00    +0.000 C 
ATOM    124  H33 UNL A   1       9.715  46.569   9.628  1.00  0.00    +0.000 H 
ATOM    125  H34 UNL A   1      11.444  45.002  10.266  1.00  0.00    +0.000 H 
ATOM    126  H35 UNL A   1      13.779  45.622  10.089  1.00  0.00    +0.000 H 
BRANCH   82   83
ATOM     83  C60 UNL A   1      14.855  47.859   9.164  1.00  0.00    +0.000 C 
ATOM     84  O3  UNL A   1      15.692  47.030   9.518  1.00  0.00    +0.000 O 
BRANCH   83   85
ATOM    129  H38 UNL A   1      16.592  52.413   7.068  1.00  0.00    +0.000 H 
ATOM    130  H39 UNL A   1      15.482  52.446   9.224  1.00  0.00    +0.000 H 
ATOM    131  H40 UNL A   1      14.703  50.373  10.226  1.00  0.00    +0.000 H 
ATOM     85  C61 UNL A   1      15.338  49.151   8.619  1.00  0.00    +0.000 C 
ATOM     86  C62 UNL A   1      16.012  49.133   7.392  1.00  0.00    +0.000 C 
ATOM     87  C63 UNL A   1      16.468  50.323   6.828  1.00  0.00    +0.000 C 
ATOM     88  C64 UNL A   1      16.266  51.532   7.493  1.00  0.00    +0.000 C 
ATOM     89  C65 UNL A   1      15.622  51.551   8.731  1.00  0.00    +0.000 C 
ATOM     90  C66 UNL A   1      15.165  50.361   9.303  1.00  0.00    +0.000 C 
ATOM    127  H36 UNL A   1      16.171  48.236   6.906  1.00  0.00    +0.000 H 
ATOM    128  H37 UNL A   1      16.955  50.309   5.918  1.00  0.00    +0.000 H 
ENDBRANCH   83   85
ENDBRANCH   82   83
ENDBRANCH    2   78
ENDBRANCH    3    2
ENDBRANCH    5    3
ENDBRANCH    6    5
ENDBRANCH    7    6
ENDBRANCH    8    7
ENDBRANCH    9    8
ENDBRANCH   10    9
ENDBRANCH   11   10
ENDBRANCH   12   11
ENDBRANCH   13   12
ENDBRANCH   15   13
ENDBRANCH   19   18
BRANCH   23   24
ATOM     33  C24 UNL A   1      17.043  56.081  -0.142  1.00  0.00    +0.000 C 
ATOM     34  F5  UNL A   1      15.813  55.789  -0.588  1.00  0.00    +0.000 F 
ATOM     24  C19 UNL A   1      17.649  55.281   0.841  1.00  0.00    +0.000 C 
ATOM     25  C20 UNL A   1      18.939  55.630   1.267  1.00  0.00    +0.000 C 
ATOM     26  F1  UNL A   1      19.555  54.907   2.213  1.00  0.00    +0.000 F 
ATOM     27  C21 UNL A   1      19.581  56.758   0.761  1.00  0.00    +0.000 C 
ATOM     28  F2  UNL A   1      20.787  57.106   1.229  1.00  0.00    +0.000 F 
ATOM     29  C22 UNL A   1      18.962  57.534  -0.208  1.00  0.00    +0.000 C 
ATOM     30  F3  UNL A   1      19.579  58.621  -0.692  1.00  0.00    +0.000 F 
ATOM     31  C23 UNL A   1      17.701  57.190  -0.668  1.00  0.00    +0.000 C 
ATOM     32  F4  UNL A   1      17.107  57.932  -1.613  1.00  0.00    +0.000 F 
ENDBRANCH   23   24
BRANCH   40   41
ATOM     41  C30 UNL A   1      16.544  48.347  -0.772  1.00  0.00    +0.000 C 
ATOM     42  C31 UNL A   1      15.762  48.042  -1.895  1.00  0.00    +0.000 C 
ATOM     43  F6  UNL A   1      14.532  48.561  -2.021  1.00  0.00    +0.000 F 
ATOM     44  C32 UNL A   1      16.240  47.187  -2.884  1.00  0.00    +0.000 C 
ATOM     45  F7  UNL A   1      15.469  46.889  -3.939  1.00  0.00    +0.000 F 
ATOM     46  C33 UNL A   1      17.511  46.642  -2.780  1.00  0.00    +0.000 C 
ATOM     47  F8  UNL A   1      17.975  45.832  -3.742  1.00  0.00    +0.000 F 
ATOM     48  C34 UNL A   1      18.301  46.933  -1.678  1.00  0.00    +0.000 C 
ATOM     49  F9  UNL A   1      19.534  46.416  -1.582  1.00  0.00    +0.000 F 
ATOM     50  C35 UNL A   1      17.819  47.769  -0.677  1.00  0.00    +0.000 C 
ATOM     51  F10 UNL A   1      18.605  48.036   0.377  1.00  0.00    +0.000 F 
ENDBRANCH   40   41
BRANCH   55   56
ATOM     65  C44 UNL A   1      10.861  47.782   4.371  1.00  0.00    +0.000 C 
ATOM     66  F15 UNL A   1      10.324  48.690   3.543  1.00  0.00    +0.000 F 
ATOM     56  C39 UNL A   1      12.225  47.842   4.691  1.00  0.00    +0.000 C 
ATOM     57  C40 UNL A   1      12.735  46.876   5.569  1.00  0.00    +0.000 C 
ATOM     58  F11 UNL A   1      14.037  46.885   5.888  1.00  0.00    +0.000 F 
ATOM     59  C41 UNL A   1      11.914  45.886   6.103  1.00  0.00    +0.000 C 
ATOM     60  F12 UNL A   1      12.432  44.960   6.922  1.00  0.00    +0.000 F 
ATOM     61  C42 UNL A   1      10.564  45.855   5.787  1.00  0.00    +0.000 C 
ATOM     62  F13 UNL A   1       9.772  44.912   6.315  1.00  0.00    +0.000 F 
ATOM     63  C43 UNL A   1      10.037  46.805   4.924  1.00  0.00    +0.000 C 
ATOM     64  F14 UNL A   1       8.730  46.787   4.629  1.00  0.00    +0.000 F 
ENDBRANCH   55   56
TORSDOF 19
ENDMDL
MODEL 9
REMARK VINA RESULT:     -10.8     38.504     43.156
ROOT
ATOM     19  C15 UNL A   1      29.325 -13.855  30.679  1.00  0.00    +0.000 C 
ATOM     20  C16 UNL A   1      29.090 -13.988  32.155  1.00  0.00    +0.000 C 
ATOM     21  N3  UNL A   1      28.055 -13.623  32.868  1.00  0.00    +0.000 N 
ATOM     22  C17 UNL A   1      28.319 -14.055  34.161  1.00  0.00    +0.000 C 
ATOM     23  C18 UNL A   1      27.570 -13.886  35.275  1.00  0.00    +0.000 C 
ATOM     35  C25 UNL A   1      26.325 -13.167  35.309  1.00  0.00    +0.000 C 
ATOM     36  C26 UNL A   1      25.526 -12.875  36.400  1.00  0.00    +0.000 C 
ATOM     37  C27 UNL A   1      24.398 -12.184  35.942  1.00  0.00    +0.000 C 
ATOM     38  C28 UNL A   1      24.517 -12.009  34.572  1.00  0.00    +0.000 C 
ATOM     39  N4  UNL A   1      25.701 -12.621  34.197  1.00  0.00    +0.000 N 
ATOM     40  C29 UNL A   1      23.617 -11.334  33.673  1.00  0.00    +0.000 C 
ATOM     52  C36 UNL A   1      23.797 -11.205  32.336  1.00  0.00    +0.000 C 
ATOM     53  N5  UNL A   1      24.851 -11.655  31.553  1.00  0.00    +0.000 N 
ATOM     54  C37 UNL A   1      24.575 -11.281  30.327  1.00  0.00    +0.000 C 
ATOM     55  C38 UNL A   1      25.382 -11.483  29.074  1.00  0.00    +0.000 C 
ATOM     67  C45 UNL A   1      26.599 -12.053  29.155  1.00  0.00    +0.000 C 
ATOM     68  C46 UNL A   1      27.481 -12.330  28.024  1.00  0.00    +0.000 C 
ATOM     69  C47 UNL A   1      28.555 -13.007  28.462  1.00  0.00    +0.000 C 
ATOM     70  C48 UNL A   1      28.454 -13.175  29.912  1.00  0.00    +0.000 C 
ATOM     71  N6  UNL A   1      27.289 -12.527  30.244  1.00  0.00    +0.000 N 
ATOM     72  C49 UNL A   1      23.292 -10.578  30.188  1.00  0.00    +0.000 C 
ATOM     73  C50 UNL A   1      22.871 -10.535  31.445  1.00  0.00    +0.000 C 
ATOM     74  C51 UNL A   1      29.595 -14.740  34.126  1.00  0.00    +0.000 C 
ATOM     75  C52 UNL A   1      30.147 -14.660  32.925  1.00  0.00    +0.000 C 
ATOM    112  H21 UNL A   1      25.726 -13.123  37.381  1.00  0.00    +0.000 H 
ATOM    113  H22 UNL A   1      23.611 -11.861  36.525  1.00  0.00    +0.000 H 
ATOM    114  H23 UNL A   1      26.049 -12.663  33.276  1.00  0.00    +0.000 H 
ATOM    115  H24 UNL A   1      27.309 -12.049  27.046  1.00  0.00    +0.000 H 
ATOM    116  H25 UNL A   1      29.327 -13.353  27.872  1.00  0.00    +0.000 H 
ATOM    117  H26 UNL A   1      26.978 -12.416  31.172  1.00  0.00    +0.000 H 
ATOM    118  H27 UNL A   1      22.839 -10.213  29.336  1.00  0.00    +0.000 H 
ATOM    119  H28 UNL A   1      21.996 -10.082  31.750  1.00  0.00    +0.000 H 
ATOM    120  H29 UNL A   1      30.018 -15.226  34.933  1.00  0.00    +0.000 H 
ATOM    121  H30 UNL A   1      31.076 -14.984  32.612  1.00  0.00    +0.000 H 
ENDROOT
BRANCH   19   18
ATOM     76  C53 UNL A   1      31.679 -13.909  29.890  1.00  0.00    +0.000 C 
ATOM     77  C54 UNL A   1      32.757 -14.547  29.289  1.00  0.00    +0.000 C 
ATOM    110  H19 UNL A   1      31.351 -17.550  28.752  1.00  0.00    +0.000 H 
ATOM     15  C11 UNL A   1      32.653 -15.894  28.933  1.00  0.00    +0.000 C 
ATOM     16  C12 UNL A   1      31.435 -16.568  29.061  1.00  0.00    +0.000 C 
ATOM     17  C13 UNL A   1      30.333 -15.907  29.609  1.00  0.00    +0.000 C 
ATOM    111  H20 UNL A   1      29.427 -16.395  29.686  1.00  0.00    +0.000 H 
ATOM     18  C14 UNL A   1      30.457 -14.583  30.055  1.00  0.00    +0.000 C 
ATOM    122  H31 UNL A   1      31.775 -12.934  30.215  1.00  0.00    +0.000 H 
ATOM    123  H32 UNL A   1      33.632 -14.028  29.107  1.00  0.00    +0.000 H 
BRANCH   15   13
ATOM     13  C10 UNL A   1      33.836 -16.627  28.439  1.00  0.00    +0.000 C 
ATOM     14  O2  UNL A   1      34.358 -17.491  29.137  1.00  0.00    +0.000 O 
BRANCH   13   12
ATOM     12  N2  UNL A   1      34.351 -16.315  27.205  1.00  0.00    +0.000 N 
ATOM    109  H18 UNL A   1      34.012 -15.486  26.795  1.00  0.00    +0.000 H 
BRANCH   12   11
ATOM     11  C9  UNL A   1      35.333 -17.051  26.423  1.00  0.00    +0.000 C 
ATOM    108  H17 UNL A   1      34.836 -17.887  25.979  1.00  0.00    +0.000 H 
ATOM    107  H16 UNL A   1      36.124 -17.365  27.073  1.00  0.00    +0.000 H 
BRANCH   11   10
ATOM    105  H14 UNL A   1      36.963 -16.046  25.516  1.00  0.00    +0.000 H 
ATOM     10  C8  UNL A   1      35.927 -16.211  25.299  1.00  0.00    +0.000 C 
ATOM    106  H15 UNL A   1      35.770 -16.761  24.395  1.00  0.00    +0.000 H 
BRANCH   10    9
ATOM      9  C7  UNL A   1      35.260 -14.849  25.100  1.00  0.00    +0.000 C 
ATOM    103  H12 UNL A   1      34.499 -14.958  24.355  1.00  0.00    +0.000 H 
ATOM    104  H13 UNL A   1      34.880 -14.561  26.058  1.00  0.00    +0.000 H 
BRANCH    9    8
ATOM    101  H10 UNL A   1      37.156 -14.157  24.447  1.00  0.00    +0.000 H 
ATOM    102  H11 UNL A   1      35.737 -13.268  23.809  1.00  0.00    +0.000 H 
ATOM      8  C6  UNL A   1      36.201 -13.724  24.658  1.00  0.00    +0.000 C 
BRANCH    8    7
ATOM     99  H8  UNL A   1      36.051 -12.940  26.632  1.00  0.00    +0.000 H 
ATOM    100  H9  UNL A   1      37.454 -12.374  25.684  1.00  0.00    +0.000 H 
ATOM      7  C5  UNL A   1      36.407 -12.598  25.683  1.00  0.00    +0.000 C 
BRANCH    7    6
ATOM     97  H6  UNL A   1      36.405 -10.520  25.176  1.00  0.00    +0.000 H 
ATOM     98  H7  UNL A   1      35.092 -11.442  24.461  1.00  0.00    +0.000 H 
ATOM      6  C4  UNL A   1      35.681 -11.291  25.342  1.00  0.00    +0.000 C 
BRANCH    6    5
ATOM      5  N1  UNL A   1      34.806 -10.896  26.427  1.00  0.00    +0.000 N 
ATOM     96  H5  UNL A   1      35.196 -10.945  27.329  1.00  0.00    +0.000 H 
BRANCH    5    3
ATOM      3  C3  UNL A   1      33.510 -10.466  26.363  1.00  0.00    +0.000 C 
ATOM      4  O1  UNL A   1      33.326  -9.330  25.918  1.00  0.00    +0.000 O 
BRANCH    3    2
ATOM      2  C2  UNL A   1      32.371 -11.360  26.899  1.00  0.00    +0.000 C 
ATOM     95  H4  UNL A   1      32.538 -11.568  27.936  1.00  0.00    +0.000 H 
BRANCH    2    1
ATOM      1  C1  UNL A   1      32.378 -12.706  26.164  1.00  0.00    +0.000 C 
ATOM     92  H1  UNL A   1      33.131 -12.693  25.405  1.00  0.00    +0.000 H 
ATOM     93  H2  UNL A   1      31.421 -12.871  25.714  1.00  0.00    +0.000 H 
ATOM     94  H3  UNL A   1      32.585 -13.491  26.860  1.00  0.00    +0.000 H 
ENDBRANCH    2    1
BRANCH    2   78
ATOM    132  H41 UNL A   1      31.169  -9.888  28.822  1.00  0.00    +0.000 H 
ATOM     78  C55 UNL A   1      31.014 -10.638  26.850  1.00  0.00    +0.000 C 
ATOM     79  C56 UNL A   1      30.155 -10.695  25.741  1.00  0.00    +0.000 C 
ATOM     80  C57 UNL A   1      28.965  -9.965  25.714  1.00  0.00    +0.000 C 
ATOM     81  C58 UNL A   1      28.621  -9.147  26.789  1.00  0.00    +0.000 C 
ATOM     82  C59 UNL A   1      29.445  -9.082  27.915  1.00  0.00    +0.000 C 
ATOM     91  C67 UNL A   1      30.605  -9.869  27.959  1.00  0.00    +0.000 C 
ATOM    124  H33 UNL A   1      30.407 -11.286  24.934  1.00  0.00    +0.000 H 
ATOM    125  H34 UNL A   1      28.340 -10.029  24.896  1.00  0.00    +0.000 H 
ATOM    126  H35 UNL A   1      27.753  -8.589  26.753  1.00  0.00    +0.000 H 
BRANCH   82   83
ATOM     83  C60 UNL A   1      29.038  -8.187  29.035  1.00  0.00    +0.000 C 
ATOM     84  O3  UNL A   1      29.152  -6.968  28.910  1.00  0.00    +0.000 O 
BRANCH   83   85
ATOM    129  H38 UNL A   1      26.825 -10.009  33.499  1.00  0.00    +0.000 H 
ATOM    130  H39 UNL A   1      29.061 -10.735  32.901  1.00  0.00    +0.000 H 
ATOM    131  H40 UNL A   1      30.115  -9.893  30.879  1.00  0.00    +0.000 H 
ATOM     85  C61 UNL A   1      28.461  -8.708  30.297  1.00  0.00    +0.000 C 
ATOM     86  C62 UNL A   1      27.186  -8.264  30.666  1.00  0.00    +0.000 C 
ATOM     87  C63 UNL A   1      26.590  -8.739  31.833  1.00  0.00    +0.000 C 
ATOM     88  C64 UNL A   1      27.272  -9.648  32.643  1.00  0.00    +0.000 C 
ATOM     89  C65 UNL A   1      28.556 -10.069  32.295  1.00  0.00    +0.000 C 
ATOM     90  C66 UNL A   1      29.159  -9.594  31.128  1.00  0.00    +0.000 C 
ATOM    127  H36 UNL A   1      26.686  -7.583  30.072  1.00  0.00    +0.000 H 
ATOM    128  H37 UNL A   1      25.645  -8.420  32.098  1.00  0.00    +0.000 H 
ENDBRANCH   83   85
ENDBRANCH   82   83
ENDBRANCH    2   78
ENDBRANCH    3    2
ENDBRANCH    5    3
ENDBRANCH    6    5
ENDBRANCH    7    6
ENDBRANCH    8    7
ENDBRANCH    9    8
ENDBRANCH   10    9
ENDBRANCH   11   10
ENDBRANCH   12   11
ENDBRANCH   13   12
ENDBRANCH   15   13
ENDBRANCH   19   18
BRANCH   23   24
ATOM     33  C24 UNL A   1      27.693 -15.806  36.902  1.00  0.00    +0.000 C 
ATOM     34  F5  UNL A   1      26.866 -16.507  36.114  1.00  0.00    +0.000 F 
ATOM     24  C19 UNL A   1      28.077 -14.503  36.545  1.00  0.00    +0.000 C 
ATOM     25  C20 UNL A   1      28.940 -13.814  37.410  1.00  0.00    +0.000 C 
ATOM     26  F1  UNL A   1      29.348 -12.573  37.108  1.00  0.00    +0.000 F 
ATOM     27  C21 UNL A   1      29.432 -14.419  38.564  1.00  0.00    +0.000 C 
ATOM     28  F2  UNL A   1      30.304 -13.763  39.342  1.00  0.00    +0.000 F 
ATOM     29  C22 UNL A   1      29.039 -15.707  38.896  1.00  0.00    +0.000 C 
ATOM     30  F3  UNL A   1      29.516 -16.289  40.005  1.00  0.00    +0.000 F 
ATOM     31  C23 UNL A   1      28.162 -16.396  38.073  1.00  0.00    +0.000 C 
ATOM     32  F4  UNL A   1      27.773 -17.637  38.398  1.00  0.00    +0.000 F 
ENDBRANCH   23   24
BRANCH   40   41
ATOM     41  C30 UNL A   1      22.396 -10.702  34.271  1.00  0.00    +0.000 C 
ATOM     42  C31 UNL A   1      22.430  -9.414  34.821  1.00  0.00    +0.000 C 
ATOM     43  F6  UNL A   1      23.591  -8.747  34.907  1.00  0.00    +0.000 F 
ATOM     44  C32 UNL A   1      21.269  -8.812  35.301  1.00  0.00    +0.000 C 
ATOM     45  F7  UNL A   1      21.326  -7.589  35.844  1.00  0.00    +0.000 F 
ATOM     46  C33 UNL A   1      20.054  -9.477  35.218  1.00  0.00    +0.000 C 
ATOM     47  F8  UNL A   1      18.935  -8.890  35.665  1.00  0.00    +0.000 F 
ATOM     48  C34 UNL A   1      19.999 -10.752  34.675  1.00  0.00    +0.000 C 
ATOM     49  F9  UNL A   1      18.824 -11.392  34.586  1.00  0.00    +0.000 F 
ATOM     50  C35 UNL A   1      21.160 -11.365  34.216  1.00  0.00    +0.000 C 
ATOM     51  F10 UNL A   1      21.077 -12.598  33.694  1.00  0.00    +0.000 F 
ENDBRANCH   40   41
BRANCH   55   56
ATOM     65  C44 UNL A   1      24.180 -11.921  26.906  1.00  0.00    +0.000 C 
ATOM     66  F15 UNL A   1      23.937 -13.180  27.299  1.00  0.00    +0.000 F 
ATOM     56  C39 UNL A   1      24.871 -11.042  27.752  1.00  0.00    +0.000 C 
ATOM     57  C40 UNL A   1      25.109  -9.741  27.290  1.00  0.00    +0.000 C 
ATOM     58  F11 UNL A   1      25.751  -8.862  28.074  1.00  0.00    +0.000 F 
ATOM     59  C41 UNL A   1      24.669  -9.332  26.034  1.00  0.00    +0.000 C 
ATOM     60  F12 UNL A   1      24.888  -8.075  25.626  1.00  0.00    +0.000 F 
ATOM     61  C42 UNL A   1      24.002 -10.223  25.206  1.00  0.00    +0.000 C 
ATOM     62  F13 UNL A   1      23.593  -9.834  23.991  1.00  0.00    +0.000 F 
ATOM     63  C43 UNL A   1      23.760 -11.518  25.640  1.00  0.00    +0.000 C 
ATOM     64  F14 UNL A   1      23.130 -12.386  24.837  1.00  0.00    +0.000 F 
ENDBRANCH   55   56
TORSDOF 19
ENDMDL
MODEL 10
REMARK VINA RESULT:     -10.8      4.380     10.650
ROOT
ATOM     19  C15 UNL A   1      39.684  28.886  30.338  1.00  0.00    +0.000 C 
ATOM     20  C16 UNL A   1      40.388  29.519  31.502  1.00  0.00    +0.000 C 
ATOM     21  N3  UNL A   1      41.589  29.293  31.970  1.00  0.00    +0.000 N 
ATOM     22  C17 UNL A   1      41.768  30.208  32.999  1.00  0.00    +0.000 C 
ATOM     23  C18 UNL A   1      42.833  30.353  33.822  1.00  0.00    +0.000 C 
ATOM     35  C25 UNL A   1      44.004  29.518  33.780  1.00  0.00    +0.000 C 
ATOM     36  C26 UNL A   1      45.106  29.535  34.616  1.00  0.00    +0.000 C 
ATOM     37  C27 UNL A   1      46.007  28.562  34.169  1.00  0.00    +0.000 C 
ATOM     38  C28 UNL A   1      45.447  27.912  33.080  1.00  0.00    +0.000 C 
ATOM     39  N4  UNL A   1      44.220  28.512  32.850  1.00  0.00    +0.000 N 
ATOM     40  C29 UNL A   1      45.991  26.824  32.308  1.00  0.00    +0.000 C 
ATOM     52  C36 UNL A   1      45.384  26.238  31.248  1.00  0.00    +0.000 C 
ATOM     53  N5  UNL A   1      44.144  26.519  30.689  1.00  0.00    +0.000 N 
ATOM     54  C37 UNL A   1      43.999  25.681  29.692  1.00  0.00    +0.000 C 
ATOM     55  C38 UNL A   1      42.835  25.524  28.753  1.00  0.00    +0.000 C 
ATOM     67  C45 UNL A   1      41.724  26.259  28.946  1.00  0.00    +0.000 C 
ATOM     68  C46 UNL A   1      40.531  26.227  28.105  1.00  0.00    +0.000 C 
ATOM     69  C47 UNL A   1      39.674  27.172  28.525  1.00  0.00    +0.000 C 
ATOM     70  C48 UNL A   1      40.243  27.847  29.691  1.00  0.00    +0.000 C 
ATOM     71  N6  UNL A   1      41.437  27.201  29.903  1.00  0.00    +0.000 N 
ATOM     72  C49 UNL A   1      45.150  24.792  29.483  1.00  0.00    +0.000 C 
ATOM     73  C50 UNL A   1      45.955  25.155  30.473  1.00  0.00    +0.000 C 
ATOM     74  C51 UNL A   1      40.567  31.015  33.063  1.00  0.00    +0.000 C 
ATOM     75  C52 UNL A   1      39.654  30.579  32.209  1.00  0.00    +0.000 C 
ATOM    112  H21 UNL A   1      45.240  30.156  35.429  1.00  0.00    +0.000 H 
ATOM    113  H22 UNL A   1      46.933  28.363  34.579  1.00  0.00    +0.000 H 
ATOM    114  H23 UNL A   1      43.594  28.262  32.132  1.00  0.00    +0.000 H 
ATOM    115  H24 UNL A   1      40.370  25.581  27.316  1.00  0.00    +0.000 H 
ATOM    116  H25 UNL A   1      38.761  27.386  28.095  1.00  0.00    +0.000 H 
ATOM    117  H26 UNL A   1      42.029  27.396  30.666  1.00  0.00    +0.000 H 
ATOM    118  H27 UNL A   1      45.294  24.073  28.757  1.00  0.00    +0.000 H 
ATOM    119  H28 UNL A   1      46.870  24.720  30.668  1.00  0.00    +0.000 H 
ATOM    120  H29 UNL A   1      40.440  31.823  33.693  1.00  0.00    +0.000 H 
ATOM    121  H30 UNL A   1      38.682  30.901  32.074  1.00  0.00    +0.000 H 
ENDROOT
BRANCH   19   18
ATOM     76  C53 UNL A   1      38.492  30.308  28.688  1.00  0.00    +0.000 C 
ATOM     77  C54 UNL A   1      37.344  30.914  28.192  1.00  0.00    +0.000 C 
ATOM    110  H19 UNL A   1      35.121  29.690  30.393  1.00  0.00    +0.000 H 
ATOM     15  C11 UNL A   1      36.108  30.635  28.780  1.00  0.00    +0.000 C 
ATOM     16  C12 UNL A   1      36.032  29.853  29.936  1.00  0.00    +0.000 C 
ATOM     17  C13 UNL A   1      37.196  29.294  30.469  1.00  0.00    +0.000 C 
ATOM    111  H20 UNL A   1      37.148  28.734  31.334  1.00  0.00    +0.000 H 
ATOM     18  C14 UNL A   1      38.429  29.493  29.830  1.00  0.00    +0.000 C 
ATOM    122  H31 UNL A   1      39.397  30.458  28.214  1.00  0.00    +0.000 H 
ATOM    123  H32 UNL A   1      37.405  31.566  27.394  1.00  0.00    +0.000 H 
BRANCH   15   13
ATOM     13  C10 UNL A   1      34.863  31.146  28.171  1.00  0.00    +0.000 C 
ATOM     14  O2  UNL A   1      34.432  30.639  27.140  1.00  0.00    +0.000 O 
BRANCH   13   12
ATOM     12  N2  UNL A   1      34.212  32.202  28.761  1.00  0.00    +0.000 N 
ATOM    109  H18 UNL A   1      34.146  32.171  29.743  1.00  0.00    +0.000 H 
BRANCH   12   11
ATOM     11  C9  UNL A   1      33.605  33.360  28.122  1.00  0.00    +0.000 C 
ATOM    108  H17 UNL A   1      32.781  33.672  28.729  1.00  0.00    +0.000 H 
ATOM    107  H16 UNL A   1      33.285  33.083  27.140  1.00  0.00    +0.000 H 
BRANCH   11   10
ATOM    105  H14 UNL A   1      35.460  34.288  28.554  1.00  0.00    +0.000 H 
ATOM     10  C8  UNL A   1      34.572  34.534  28.010  1.00  0.00    +0.000 C 
ATOM    106  H15 UNL A   1      34.746  34.683  26.965  1.00  0.00    +0.000 H 
BRANCH   10    9
ATOM      9  C7  UNL A   1      34.032  35.858  28.553  1.00  0.00    +0.000 C 
ATOM    103  H12 UNL A   1      34.867  36.469  28.826  1.00  0.00    +0.000 H 
ATOM    104  H13 UNL A   1      33.434  36.279  27.772  1.00  0.00    +0.000 H 
BRANCH    9    8
ATOM    101  H10 UNL A   1      32.110  35.627  29.420  1.00  0.00    +0.000 H 
ATOM    102  H11 UNL A   1      33.468  34.887  30.322  1.00  0.00    +0.000 H 
ATOM      8  C6  UNL A   1      33.114  35.733  29.772  1.00  0.00    +0.000 C 
BRANCH    8    7
ATOM     99  H8  UNL A   1      34.035  37.488  30.549  1.00  0.00    +0.000 H 
ATOM    100  H9  UNL A   1      32.250  37.473  30.590  1.00  0.00    +0.000 H 
ATOM      7  C5  UNL A   1      33.151  36.918  30.749  1.00  0.00    +0.000 C 
BRANCH    7    6
ATOM     97  H6  UNL A   1      32.838  37.351  32.820  1.00  0.00    +0.000 H 
ATOM     98  H7  UNL A   1      32.505  35.687  32.369  1.00  0.00    +0.000 H 
ATOM      6  C4  UNL A   1      33.164  36.519  32.230  1.00  0.00    +0.000 C 
BRANCH    6    5
ATOM      5  N1  UNL A   1      34.497  36.134  32.643  1.00  0.00    +0.000 N 
ATOM     96  H5  UNL A   1      35.162  36.859  32.670  1.00  0.00    +0.000 H 
BRANCH    5    3
ATOM      3  C3  UNL A   1      34.955  34.896  32.999  1.00  0.00    +0.000 C 
ATOM      4  O1  UNL A   1      35.073  34.677  34.207  1.00  0.00    +0.000 O 
BRANCH    3    2
ATOM      2  C2  UNL A   1      35.361  33.879  31.910  1.00  0.00    +0.000 C 
ATOM     95  H4  UNL A   1      34.816  34.081  31.012  1.00  0.00    +0.000 H 
BRANCH    2    1
ATOM      1  C1  UNL A   1      34.983  32.462  32.356  1.00  0.00    +0.000 C 
ATOM     92  H1  UNL A   1      35.805  32.023  32.881  1.00  0.00    +0.000 H 
ATOM     93  H2  UNL A   1      34.750  31.868  31.497  1.00  0.00    +0.000 H 
ATOM     94  H3  UNL A   1      34.130  32.506  33.000  1.00  0.00    +0.000 H 
ENDBRANCH    2    1
BRANCH    2   78
ATOM    132  H41 UNL A   1      37.440  34.673  33.445  1.00  0.00    +0.000 H 
ATOM     78  C55 UNL A   1      36.841  34.029  31.521  1.00  0.00    +0.000 C 
ATOM     79  C56 UNL A   1      37.319  33.799  30.221  1.00  0.00    +0.000 C 
ATOM     80  C57 UNL A   1      38.683  33.879  29.931  1.00  0.00    +0.000 C 
ATOM     81  C58 UNL A   1      39.597  34.172  30.940  1.00  0.00    +0.000 C 
ATOM     82  C59 UNL A   1      39.152  34.423  32.241  1.00  0.00    +0.000 C 
ATOM     91  C67 UNL A   1      37.776  34.405  32.507  1.00  0.00    +0.000 C 
ATOM    124  H33 UNL A   1      36.652  33.568  29.469  1.00  0.00    +0.000 H 
ATOM    125  H34 UNL A   1      39.014  33.719  28.967  1.00  0.00    +0.000 H 
ATOM    126  H35 UNL A   1      40.606  34.204  30.726  1.00  0.00    +0.000 H 
BRANCH   82   83
ATOM     83  C60 UNL A   1      40.170  34.723  33.287  1.00  0.00    +0.000 C 
ATOM     84  O3  UNL A   1      41.328  34.974  32.954  1.00  0.00    +0.000 O 
BRANCH   83   85
ATOM    129  H38 UNL A   1      38.963  34.721  38.454  1.00  0.00    +0.000 H 
ATOM    130  H39 UNL A   1      39.943  36.707  37.465  1.00  0.00    +0.000 H 
ATOM    131  H40 UNL A   1      40.478  36.751  35.095  1.00  0.00    +0.000 H 
ATOM     85  C61 UNL A   1      39.834  34.768  34.731  1.00  0.00    +0.000 C 
ATOM     86  C62 UNL A   1      39.234  33.638  35.299  1.00  0.00    +0.000 C 
ATOM     87  C63 UNL A   1      38.917  33.621  36.656  1.00  0.00    +0.000 C 
ATOM     88  C64 UNL A   1      39.185  34.738  37.447  1.00  0.00    +0.000 C 
ATOM     89  C65 UNL A   1      39.754  35.879  36.879  1.00  0.00    +0.000 C 
ATOM     90  C66 UNL A   1      40.071  35.902  35.518  1.00  0.00    +0.000 C 
ATOM    127  H36 UNL A   1      39.026  32.815  34.710  1.00  0.00    +0.000 H 
ATOM    128  H37 UNL A   1      38.485  32.783  37.076  1.00  0.00    +0.000 H 
ENDBRANCH   83   85
ENDBRANCH   82   83
ENDBRANCH    2   78
ENDBRANCH    3    2
ENDBRANCH    5    3
ENDBRANCH    6    5
ENDBRANCH    7    6
ENDBRANCH    8    7
ENDBRANCH    9    8
ENDBRANCH   10    9
ENDBRANCH   11   10
ENDBRANCH   12   11
ENDBRANCH   13   12
ENDBRANCH   15   13
ENDBRANCH   19   18
BRANCH   23   24
ATOM     33  C24 UNL A   1      42.231  31.244  36.100  1.00  0.00    +0.000 C 
ATOM     34  F5  UNL A   1      41.746  30.038  36.427  1.00  0.00    +0.000 F 
ATOM     24  C19 UNL A   1      42.780  31.465  34.827  1.00  0.00    +0.000 C 
ATOM     25  C20 UNL A   1      43.267  32.749  34.537  1.00  0.00    +0.000 C 
ATOM     26  F1  UNL A   1      43.814  33.008  33.340  1.00  0.00    +0.000 F 
ATOM     27  C21 UNL A   1      43.246  33.757  35.497  1.00  0.00    +0.000 C 
ATOM     28  F2  UNL A   1      43.775  34.956  35.217  1.00  0.00    +0.000 F 
ATOM     29  C22 UNL A   1      42.700  33.515  36.749  1.00  0.00    +0.000 C 
ATOM     30  F3  UNL A   1      42.683  34.486  37.673  1.00  0.00    +0.000 F 
ATOM     31  C23 UNL A   1      42.183  32.264  37.047  1.00  0.00    +0.000 C 
ATOM     32  F4  UNL A   1      41.645  32.032  38.252  1.00  0.00    +0.000 F 
ENDBRANCH   23   24
BRANCH   40   41
ATOM     41  C30 UNL A   1      47.324  26.283  32.730  1.00  0.00    +0.000 C 
ATOM     42  C31 UNL A   1      48.523  26.874  32.309  1.00  0.00    +0.000 C 
ATOM     43  F6  UNL A   1      48.503  27.891  31.435  1.00  0.00    +0.000 F 
ATOM     44  C32 UNL A   1      49.749  26.406  32.773  1.00  0.00    +0.000 C 
ATOM     45  F7  UNL A   1      50.886  26.970  32.341  1.00  0.00    +0.000 F 
ATOM     46  C33 UNL A   1      49.797  25.359  33.682  1.00  0.00    +0.000 C 
ATOM     47  F8  UNL A   1      50.978  24.922  34.141  1.00  0.00    +0.000 F 
ATOM     48  C34 UNL A   1      48.622  24.763  34.113  1.00  0.00    +0.000 C 
ATOM     49  F9  UNL A   1      48.666  23.758  34.999  1.00  0.00    +0.000 F 
ATOM     50  C35 UNL A   1      47.396  25.212  33.634  1.00  0.00    +0.000 C 
ATOM     51  F10 UNL A   1      46.275  24.618  34.069  1.00  0.00    +0.000 F 
ENDBRANCH   40   41
BRANCH   55   56
ATOM     65  C44 UNL A   1      42.340  23.265  27.759  1.00  0.00    +0.000 C 
ATOM     66  F15 UNL A   1      41.737  22.898  28.900  1.00  0.00    +0.000 F 
ATOM     56  C39 UNL A   1      42.879  24.552  27.631  1.00  0.00    +0.000 C 
ATOM     57  C40 UNL A   1      43.508  24.881  26.423  1.00  0.00    +0.000 C 
ATOM     58  F11 UNL A   1      44.023  26.108  26.251  1.00  0.00    +0.000 F 
ATOM     59  C41 UNL A   1      43.589  23.961  25.381  1.00  0.00    +0.000 C 
ATOM     60  F12 UNL A   1      44.175  24.309  24.227  1.00  0.00    +0.000 F 
ATOM     61  C42 UNL A   1      43.064  22.687  25.535  1.00  0.00    +0.000 C 
ATOM     62  F13 UNL A   1      43.158  21.797  24.537  1.00  0.00    +0.000 F 
ATOM     63  C43 UNL A   1      42.442  22.337  26.724  1.00  0.00    +0.000 C 
ATOM     64  F14 UNL A   1      41.947  21.102  26.882  1.00  0.00    +0.000 F 
ENDBRANCH   55   56
TORSDOF 19
ENDMDL
