MODEL 1
REMARK VINA RESULT:      -9.6      0.000      0.000
ROOT
ATOM    129  H35 UNL A   1      16.439  56.591   2.852  1.00  0.00    +0.000 H 
ATOM    130  H36 UNL A   1      14.906  56.345   4.891  1.00  0.00    +0.000 H 
ATOM     36  C29 UNL A   1      13.873  53.709   5.236  1.00  0.00    +0.000 C 
ATOM     37  C30 UNL A   1      14.831  54.190   4.187  1.00  0.00    +0.000 C 
ATOM     38  N4  UNL A   1      15.398  53.515   3.218  1.00  0.00    +0.000 N 
ATOM     39  C31 UNL A   1      16.173  54.429   2.522  1.00  0.00    +0.000 C 
ATOM     40  C32 UNL A   1      16.968  54.212   1.447  1.00  0.00    +0.000 C 
ATOM     52  C39 UNL A   1      17.180  52.931   0.826  1.00  0.00    +0.000 C 
ATOM     53  C40 UNL A   1      18.077  52.593  -0.173  1.00  0.00    +0.000 C 
ATOM     54  C41 UNL A   1      17.888  51.241  -0.490  1.00  0.00    +0.000 C 
ATOM     55  C42 UNL A   1      16.884  50.740   0.320  1.00  0.00    +0.000 C 
ATOM     56  N5  UNL A   1      16.472  51.781   1.135  1.00  0.00    +0.000 N 
ATOM     57  C43 UNL A   1      16.323  49.416   0.345  1.00  0.00    +0.000 C 
ATOM     69  C50 UNL A   1      15.443  48.965   1.269  1.00  0.00    +0.000 C 
ATOM     70  N6  UNL A   1      14.881  49.650   2.335  1.00  0.00    +0.000 N 
ATOM     71  C51 UNL A   1      14.089  48.796   2.931  1.00  0.00    +0.000 C 
ATOM     72  C52 UNL A   1      13.219  49.000   4.135  1.00  0.00    +0.000 C 
ATOM     84  C59 UNL A   1      13.166  50.208   4.725  1.00  0.00    +0.000 C 
ATOM     85  C60 UNL A   1      12.345  50.543   5.884  1.00  0.00    +0.000 C 
ATOM     86  C61 UNL A   1      12.510  51.843   6.176  1.00  0.00    +0.000 C 
ATOM     87  C62 UNL A   1      13.468  52.424   5.235  1.00  0.00    +0.000 C 
ATOM     88  N7  UNL A   1      13.807  51.380   4.412  1.00  0.00    +0.000 N 
ATOM     89  C63 UNL A   1      14.060  47.463   2.312  1.00  0.00    +0.000 C 
ATOM     90  C64 UNL A   1      14.909  47.618   1.305  1.00  0.00    +0.000 C 
ATOM     91  C65 UNL A   1      15.998  55.713   3.169  1.00  0.00    +0.000 C 
ATOM     92  C66 UNL A   1      15.196  55.614   4.222  1.00  0.00    +0.000 C 
ATOM    121  H27 UNL A   1      18.765  53.226  -0.609  1.00  0.00    +0.000 H 
ATOM    122  H28 UNL A   1      18.410  50.710  -1.206  1.00  0.00    +0.000 H 
ATOM    123  H29 UNL A   1      15.779  51.714   1.832  1.00  0.00    +0.000 H 
ATOM    124  H30 UNL A   1      11.737  49.887   6.399  1.00  0.00    +0.000 H 
ATOM    125  H31 UNL A   1      12.037  52.351   6.939  1.00  0.00    +0.000 H 
ATOM    126  H32 UNL A   1      14.448  51.463   3.670  1.00  0.00    +0.000 H 
ATOM    127  H33 UNL A   1      13.521  46.627   2.588  1.00  0.00    +0.000 H 
ATOM    128  H34 UNL A   1      15.158  46.875   0.634  1.00  0.00    +0.000 H 
ENDROOT
BRANCH   36   35
ATOM     33  C26 UNL A   1      11.741  56.350   6.912  1.00  0.00    +0.000 C 
ATOM     34  C27 UNL A   1      12.185  55.393   5.997  1.00  0.00    +0.000 C 
ATOM     35  C28 UNL A   1      13.332  54.629   6.265  1.00  0.00    +0.000 C 
ATOM    132  H38 UNL A   1      14.033  55.865   9.308  1.00  0.00    +0.000 H 
ATOM    131  H37 UNL A   1      14.857  54.265   7.684  1.00  0.00    +0.000 H 
ATOM    119  H25 UNL A   1      10.927  56.942   6.684  1.00  0.00    +0.000 H 
ATOM    120  H26 UNL A   1      11.667  55.246   5.116  1.00  0.00    +0.000 H 
ATOM     93  C67 UNL A   1      14.009  54.815   7.479  1.00  0.00    +0.000 C 
ATOM     94  C68 UNL A   1      13.538  55.743   8.411  1.00  0.00    +0.000 C 
ATOM     32  C25 UNL A   1      12.397  56.510   8.136  1.00  0.00    +0.000 C 
BRANCH   32    2
ATOM      1  O1  UNL A   1      12.351  58.704   8.953  1.00  0.00    +0.000 O 
ATOM      2  C1  UNL A   1      11.998  57.540   9.127  1.00  0.00    +0.000 C 
BRANCH    2    3
ATOM      3  N1  UNL A   1      11.258  57.225  10.238  1.00  0.00    +0.000 N 
ATOM     95  H1  UNL A   1      11.025  57.991  10.810  1.00  0.00    +0.000 H 
BRANCH    3    4
ATOM     97  H3  UNL A   1       9.748  56.082  11.004  1.00  0.00    +0.000 H 
ATOM      4  C2  UNL A   1      10.764  55.943  10.702  1.00  0.00    +0.000 C 
ATOM     96  H2  UNL A   1      10.850  55.235   9.904  1.00  0.00    +0.000 H 
BRANCH    4    5
ATOM     98  H4  UNL A   1      10.824  55.238  12.692  1.00  0.00    +0.000 H 
ATOM     99  H5  UNL A   1      12.265  56.156  12.130  1.00  0.00    +0.000 H 
ATOM      5  C3  UNL A   1      11.530  55.411  11.908  1.00  0.00    +0.000 C 
BRANCH    5    6
ATOM    100  H6  UNL A   1      12.257  53.864  10.655  1.00  0.00    +0.000 H 
ATOM    101  H7  UNL A   1      11.864  53.393  12.343  1.00  0.00    +0.000 H 
ATOM      6  C4  UNL A   1      12.314  54.115  11.694  1.00  0.00    +0.000 C 
BRANCH    6    7
ATOM    103  H9  UNL A   1      14.334  54.088  11.163  1.00  0.00    +0.000 H 
ATOM    102  H8  UNL A   1      13.962  55.062  12.628  1.00  0.00    +0.000 H 
ATOM      7  C5  UNL A   1      13.794  54.157  12.084  1.00  0.00    +0.000 C 
BRANCH    7    8
ATOM    105  H11 UNL A   1      15.055  53.414  13.580  1.00  0.00    +0.000 H 
ATOM    104  H10 UNL A   1      13.465  52.580  13.466  1.00  0.00    +0.000 H 
ATOM      8  C6  UNL A   1      14.305  52.992  12.943  1.00  0.00    +0.000 C 
BRANCH    8    9
ATOM      9  C7  UNL A   1      14.995  51.852  12.194  1.00  0.00    +0.000 C 
ATOM    106  H12 UNL A   1      14.407  50.965  12.308  1.00  0.00    +0.000 H 
ATOM    107  H13 UNL A   1      15.973  51.740  12.612  1.00  0.00    +0.000 H 
BRANCH    9   10
ATOM     10  N2  UNL A   1      15.156  52.120  10.776  1.00  0.00    +0.000 N 
ATOM    108  H14 UNL A   1      15.792  52.834  10.537  1.00  0.00    +0.000 H 
BRANCH   10   11
ATOM     11  C8  UNL A   1      14.527  51.495   9.729  1.00  0.00    +0.000 C 
ATOM     12  O2  UNL A   1      13.309  51.589   9.589  1.00  0.00    +0.000 O 
BRANCH   11   13
ATOM     13  C9  UNL A   1      15.295  50.740   8.727  1.00  0.00    +0.000 C 
ATOM     14  C10 UNL A   1      15.810  51.450   7.634  1.00  0.00    +0.000 C 
ATOM    109  H15 UNL A   1      15.660  52.469   7.564  1.00  0.00    +0.000 H 
ATOM     15  C11 UNL A   1      16.527  50.782   6.639  1.00  0.00    +0.000 C 
ATOM     17  C13 UNL A   1      16.181  48.701   7.803  1.00  0.00    +0.000 C 
ATOM     18  C14 UNL A   1      15.459  49.356   8.811  1.00  0.00    +0.000 C 
ATOM    110  H16 UNL A   1      16.918  51.309   5.842  1.00  0.00    +0.000 H 
ATOM    112  H18 UNL A   1      16.323  47.681   7.861  1.00  0.00    +0.000 H 
ATOM     16  C12 UNL A   1      16.711  49.405   6.722  1.00  0.00    +0.000 C 
ATOM    111  H17 UNL A   1      17.239  48.908   5.988  1.00  0.00    +0.000 H 
BRANCH   18   19
ATOM     19  N3  UNL A   1      15.089  48.574   9.902  1.00  0.00    +0.000 N 
BRANCH   19   20
ATOM    113  H19 UNL A   1      14.334  46.932   8.954  1.00  0.00    +0.000 H 
ATOM     20  C15 UNL A   1      14.291  47.563   9.768  1.00  0.00    +0.000 C 
BRANCH   20   21
ATOM     26  C20 UNL A   1       8.774  48.294   9.286  1.00  0.00    +0.000 C 
ATOM    117  H23 UNL A   1       8.386  46.510   8.218  1.00  0.00    +0.000 H 
ATOM    114  H20 UNL A   1      13.642  49.245  11.620  1.00  0.00    +0.000 H 
ATOM    115  H21 UNL A   1       9.412  49.896  10.517  1.00  0.00    +0.000 H 
ATOM    116  H22 UNL A   1       7.968  48.804   8.892  1.00  0.00    +0.000 H 
ATOM     21  C16 UNL A   1      13.313  47.375  10.860  1.00  0.00    +0.000 C 
ATOM     22  C17 UNL A   1      12.919  48.555  11.367  1.00  0.00    +0.000 C 
ATOM     23  O3  UNL A   1      11.586  48.891  11.565  1.00  0.00    +0.000 O 
ATOM     24  C18 UNL A   1      10.712  48.248  10.710  1.00  0.00    +0.000 C 
ATOM    118  H24 UNL A   1      10.302  45.306   9.120  1.00  0.00    +0.000 H 
ATOM     25  C19 UNL A   1       9.612  48.931  10.210  1.00  0.00    +0.000 C 
ATOM     27  C21 UNL A   1       9.020  46.973   8.889  1.00  0.00    +0.000 C 
ATOM     28  C22 UNL A   1      10.118  46.282   9.398  1.00  0.00    +0.000 C 
ATOM     29  C23 UNL A   1      10.962  46.939  10.291  1.00  0.00    +0.000 C 
ATOM     30  C24 UNL A   1      12.244  46.360  10.703  1.00  0.00    +0.000 C 
ATOM     31  O4  UNL A   1      12.431  45.158  10.813  1.00  0.00    +0.000 O 
ENDBRANCH   20   21
ENDBRANCH   19   20
ENDBRANCH   18   19
ENDBRANCH   11   13
ENDBRANCH   10   11
ENDBRANCH    9   10
ENDBRANCH    8    9
ENDBRANCH    7    8
ENDBRANCH    6    7
ENDBRANCH    5    6
ENDBRANCH    4    5
ENDBRANCH    3    4
ENDBRANCH    2    3
ENDBRANCH   32    2
ENDBRANCH   36   35
BRANCH   40   41
ATOM     41  C33 UNL A   1      17.685  55.390   0.870  1.00  0.00    +0.000 C 
ATOM     42  C34 UNL A   1      18.962  55.752   1.316  1.00  0.00    +0.000 C 
ATOM     43  F1  UNL A   1      19.544  55.078   2.320  1.00  0.00    +0.000 F 
ATOM     44  C35 UNL A   1      19.643  56.817   0.736  1.00  0.00    +0.000 C 
ATOM     45  F2  UNL A   1      20.861  57.157   1.181  1.00  0.00    +0.000 F 
ATOM     46  C36 UNL A   1      19.063  57.531  -0.304  1.00  0.00    +0.000 C 
ATOM     47  F3  UNL A   1      19.723  58.554  -0.865  1.00  0.00    +0.000 F 
ATOM     48  C37 UNL A   1      17.799  57.188  -0.759  1.00  0.00    +0.000 C 
ATOM     49  F4  UNL A   1      17.239  57.877  -1.762  1.00  0.00    +0.000 F 
ATOM     50  C38 UNL A   1      17.112  56.127  -0.175  1.00  0.00    +0.000 C 
ATOM     51  F5  UNL A   1      15.890  55.814  -0.631  1.00  0.00    +0.000 F 
ENDBRANCH   40   41
BRANCH   57   58
ATOM     65  C48 UNL A   1      16.295  47.267  -2.789  1.00  0.00    +0.000 C 
ATOM     66  F9  UNL A   1      15.486  47.018  -3.828  1.00  0.00    +0.000 F 
ATOM     67  C49 UNL A   1      15.911  48.181  -1.813  1.00  0.00    +0.000 C 
ATOM     68  F10 UNL A   1      14.729  48.805  -1.935  1.00  0.00    +0.000 F 
ATOM     58  C44 UNL A   1      16.743  48.453  -0.718  1.00  0.00    +0.000 C 
ATOM     59  C45 UNL A   1      17.971  47.782  -0.635  1.00  0.00    +0.000 C 
ATOM     60  F6  UNL A   1      18.804  48.027   0.388  1.00  0.00    +0.000 F 
ATOM     61  C46 UNL A   1      18.356  46.876  -1.618  1.00  0.00    +0.000 C 
ATOM     62  F7  UNL A   1      19.543  46.261  -1.533  1.00  0.00    +0.000 F 
ATOM     63  C47 UNL A   1      17.517  46.616  -2.692  1.00  0.00    +0.000 C 
ATOM     64  F8  UNL A   1      17.891  45.746  -3.640  1.00  0.00    +0.000 F 
ENDBRANCH   57   58
BRANCH   72   73
ATOM     73  C53 UNL A   1      12.404  47.893   4.680  1.00  0.00    +0.000 C 
ATOM     74  C54 UNL A   1      12.864  47.129   5.760  1.00  0.00    +0.000 C 
ATOM     75  F11 UNL A   1      14.077  47.366   6.279  1.00  0.00    +0.000 F 
ATOM     76  C55 UNL A   1      12.081  46.110   6.297  1.00  0.00    +0.000 C 
ATOM     77  F12 UNL A   1      12.544  45.383   7.323  1.00  0.00    +0.000 F 
ATOM     78  C56 UNL A   1      10.825  45.846   5.771  1.00  0.00    +0.000 C 
ATOM     79  F13 UNL A   1      10.070  44.870   6.294  1.00  0.00    +0.000 F 
ATOM     80  C57 UNL A   1      10.353  46.591   4.700  1.00  0.00    +0.000 C 
ATOM     81  F14 UNL A   1       9.140  46.339   4.191  1.00  0.00    +0.000 F 
ATOM     82  C58 UNL A   1      11.139  47.602   4.155  1.00  0.00    +0.000 C 
ATOM     83  F15 UNL A   1      10.665  48.310   3.118  1.00  0.00    +0.000 F 
ENDBRANCH   72   73
TORSDOF 18
ENDMDL
MODEL 2
REMARK VINA RESULT:      -9.6      1.423      3.231
ROOT
ATOM    129  H35 UNL A   1      16.545  56.578   2.826  1.00  0.00    +0.000 H 
ATOM    130  H36 UNL A   1      14.993  56.357   4.854  1.00  0.00    +0.000 H 
ATOM     36  C29 UNL A   1      13.893  53.745   5.175  1.00  0.00    +0.000 C 
ATOM     37  C30 UNL A   1      14.870  54.209   4.135  1.00  0.00    +0.000 C 
ATOM     38  N4  UNL A   1      15.426  53.526   3.166  1.00  0.00    +0.000 N 
ATOM     39  C31 UNL A   1      16.228  54.426   2.480  1.00  0.00    +0.000 C 
ATOM     40  C32 UNL A   1      17.024  54.195   1.409  1.00  0.00    +0.000 C 
ATOM     52  C39 UNL A   1      17.209  52.914   0.782  1.00  0.00    +0.000 C 
ATOM     53  C40 UNL A   1      18.104  52.560  -0.214  1.00  0.00    +0.000 C 
ATOM     54  C41 UNL A   1      17.885  51.215  -0.541  1.00  0.00    +0.000 C 
ATOM     55  C42 UNL A   1      16.863  50.733   0.260  1.00  0.00    +0.000 C 
ATOM     56  N5  UNL A   1      16.471  51.779   1.079  1.00  0.00    +0.000 N 
ATOM     57  C43 UNL A   1      16.269  49.423   0.273  1.00  0.00    +0.000 C 
ATOM     69  C50 UNL A   1      15.373  48.989   1.188  1.00  0.00    +0.000 C 
ATOM     70  N6  UNL A   1      14.821  49.680   2.255  1.00  0.00    +0.000 N 
ATOM     71  C51 UNL A   1      14.004  48.842   2.841  1.00  0.00    +0.000 C 
ATOM     72  C52 UNL A   1      13.132  49.061   4.040  1.00  0.00    +0.000 C 
ATOM     84  C59 UNL A   1      13.104  50.266   4.637  1.00  0.00    +0.000 C 
ATOM     85  C60 UNL A   1      12.284  50.613   5.793  1.00  0.00    +0.000 C 
ATOM     86  C61 UNL A   1      12.479  51.908   6.094  1.00  0.00    +0.000 C 
ATOM     87  C62 UNL A   1      13.457  52.471   5.163  1.00  0.00    +0.000 C 
ATOM     88  N7  UNL A   1      13.776  51.424   4.336  1.00  0.00    +0.000 N 
ATOM     89  C63 UNL A   1      13.947  47.514   2.213  1.00  0.00    +0.000 C 
ATOM     90  C64 UNL A   1      14.806  47.655   1.212  1.00  0.00    +0.000 C 
ATOM     91  C65 UNL A   1      16.080  55.709   3.134  1.00  0.00    +0.000 C 
ATOM     92  C66 UNL A   1      15.269  55.623   4.182  1.00  0.00    +0.000 C 
ATOM    121  H27 UNL A   1      18.810  53.179  -0.641  1.00  0.00    +0.000 H 
ATOM    122  H28 UNL A   1      18.398  50.676  -1.256  1.00  0.00    +0.000 H 
ATOM    123  H29 UNL A   1      15.772  51.725   1.771  1.00  0.00    +0.000 H 
ATOM    124  H30 UNL A   1      11.657  49.969   6.300  1.00  0.00    +0.000 H 
ATOM    125  H31 UNL A   1      12.013  52.422   6.858  1.00  0.00    +0.000 H 
ATOM    126  H32 UNL A   1      14.423  51.495   3.598  1.00  0.00    +0.000 H 
ATOM    127  H33 UNL A   1      13.386  46.690   2.480  1.00  0.00    +0.000 H 
ATOM    128  H34 UNL A   1      15.041  46.910   0.538  1.00  0.00    +0.000 H 
ENDROOT
BRANCH   36   35
ATOM     33  C26 UNL A   1      11.710  56.306   6.910  1.00  0.00    +0.000 C 
ATOM     34  C27 UNL A   1      12.151  55.341   6.001  1.00  0.00    +0.000 C 
ATOM     35  C28 UNL A   1      13.368  54.672   6.206  1.00  0.00    +0.000 C 
ATOM    132  H38 UNL A   1      14.212  56.092   9.130  1.00  0.00    +0.000 H 
ATOM    131  H37 UNL A   1      15.021  54.480   7.511  1.00  0.00    +0.000 H 
ATOM    119  H25 UNL A   1      10.840  56.829   6.724  1.00  0.00    +0.000 H 
ATOM    120  H26 UNL A   1      11.578  55.117   5.172  1.00  0.00    +0.000 H 
ATOM     93  C67 UNL A   1      14.122  54.960   7.353  1.00  0.00    +0.000 C 
ATOM     94  C68 UNL A   1      13.658  55.895   8.282  1.00  0.00    +0.000 C 
ATOM     32  C25 UNL A   1      12.447  56.567   8.069  1.00  0.00    +0.000 C 
BRANCH   32    2
ATOM      1  O1  UNL A   1      12.413  58.772   8.860  1.00  0.00    +0.000 O 
ATOM      2  C1  UNL A   1      12.052  57.612   9.047  1.00  0.00    +0.000 C 
BRANCH    2    3
ATOM      3  N1  UNL A   1      11.306  57.315  10.159  1.00  0.00    +0.000 N 
ATOM     95  H1  UNL A   1      11.228  58.047  10.812  1.00  0.00    +0.000 H 
BRANCH    3    4
ATOM     97  H3  UNL A   1       9.871  56.352  11.248  1.00  0.00    +0.000 H 
ATOM      4  C2  UNL A   1      10.615  56.094  10.526  1.00  0.00    +0.000 C 
ATOM     96  H2  UNL A   1      10.185  55.668   9.643  1.00  0.00    +0.000 H 
BRANCH    4    5
ATOM     98  H4  UNL A   1      11.250  54.964  12.193  1.00  0.00    +0.000 H 
ATOM     99  H5  UNL A   1      12.527  55.426  11.013  1.00  0.00    +0.000 H 
ATOM      5  C3  UNL A   1      11.534  55.059  11.166  1.00  0.00    +0.000 C 
BRANCH    5    6
ATOM    100  H6  UNL A   1      11.017  53.727   9.601  1.00  0.00    +0.000 H 
ATOM    101  H7  UNL A   1      11.019  53.034  11.257  1.00  0.00    +0.000 H 
ATOM      6  C4  UNL A   1      11.515  53.661  10.546  1.00  0.00    +0.000 C 
BRANCH    6    7
ATOM    103  H9  UNL A   1      12.774  51.995  10.610  1.00  0.00    +0.000 H 
ATOM    102  H8  UNL A   1      13.132  53.150   9.278  1.00  0.00    +0.000 H 
ATOM      7  C5  UNL A   1      12.883  53.017  10.309  1.00  0.00    +0.000 C 
BRANCH    7    8
ATOM    105  H11 UNL A   1      14.561  54.252  10.508  1.00  0.00    +0.000 H 
ATOM    104  H10 UNL A   1      13.633  54.009  12.029  1.00  0.00    +0.000 H 
ATOM      8  C6  UNL A   1      14.047  53.564  11.147  1.00  0.00    +0.000 C 
BRANCH    8    9
ATOM      9  C7  UNL A   1      15.101  52.547  11.586  1.00  0.00    +0.000 C 
ATOM    106  H12 UNL A   1      16.063  52.901  11.283  1.00  0.00    +0.000 H 
ATOM    107  H13 UNL A   1      14.855  51.613  11.126  1.00  0.00    +0.000 H 
BRANCH    9   10
ATOM     10  N2  UNL A   1      15.117  52.332  13.023  1.00  0.00    +0.000 N 
ATOM    108  H14 UNL A   1      15.698  52.931  13.546  1.00  0.00    +0.000 H 
BRANCH   10   11
ATOM     11  C8  UNL A   1      14.418  51.391  13.736  1.00  0.00    +0.000 C 
ATOM     12  O2  UNL A   1      14.956  50.782  14.659  1.00  0.00    +0.000 O 
BRANCH   11   13
ATOM     13  C9  UNL A   1      13.002  51.122  13.446  1.00  0.00    +0.000 C 
ATOM     14  C10 UNL A   1      12.056  52.041  13.922  1.00  0.00    +0.000 C 
ATOM    109  H15 UNL A   1      12.366  52.878  14.439  1.00  0.00    +0.000 H 
ATOM     15  C11 UNL A   1      10.694  51.825  13.698  1.00  0.00    +0.000 C 
ATOM     17  C13 UNL A   1      11.218  49.765  12.564  1.00  0.00    +0.000 C 
ATOM     18  C14 UNL A   1      12.589  49.966  12.780  1.00  0.00    +0.000 C 
ATOM    110  H16 UNL A   1      10.000  52.509  14.036  1.00  0.00    +0.000 H 
ATOM    112  H18 UNL A   1      10.902  48.923  12.059  1.00  0.00    +0.000 H 
ATOM     16  C12 UNL A   1      10.274  50.685  13.020  1.00  0.00    +0.000 C 
ATOM    111  H17 UNL A   1       9.269  50.521  12.854  1.00  0.00    +0.000 H 
BRANCH   18   19
ATOM     19  N3  UNL A   1      13.444  49.051  12.170  1.00  0.00    +0.000 N 
BRANCH   19   20
ATOM    113  H19 UNL A   1      13.236  49.727  10.255  1.00  0.00    +0.000 H 
ATOM     20  C15 UNL A   1      13.788  49.173  10.928  1.00  0.00    +0.000 C 
BRANCH   20   21
ATOM     26  C20 UNL A   1      16.701  50.152   6.263  1.00  0.00    +0.000 C 
ATOM    117  H23 UNL A   1      17.579  51.967   6.902  1.00  0.00    +0.000 H 
ATOM    114  H20 UNL A   1      13.995  46.888   9.737  1.00  0.00    +0.000 H 
ATOM    115  H21 UNL A   1      15.845  48.238   5.958  1.00  0.00    +0.000 H 
ATOM    116  H22 UNL A   1      16.734  50.392   5.260  1.00  0.00    +0.000 H 
ATOM     21  C16 UNL A   1      15.024  48.464  10.537  1.00  0.00    +0.000 C 
ATOM     22  C17 UNL A   1      14.777  47.543   9.591  1.00  0.00    +0.000 C 
ATOM     23  O3  UNL A   1      15.522  47.432   8.424  1.00  0.00    +0.000 O 
ATOM     24  C18 UNL A   1      16.106  48.616   8.015  1.00  0.00    +0.000 C 
ATOM    118  H24 UNL A   1      17.480  51.422   9.274  1.00  0.00    +0.000 H 
ATOM     25  C19 UNL A   1      16.176  48.917   6.662  1.00  0.00    +0.000 C 
ATOM     27  C21 UNL A   1      17.180  51.066   7.211  1.00  0.00    +0.000 C 
ATOM     28  C22 UNL A   1      17.121  50.761   8.569  1.00  0.00    +0.000 C 
ATOM     29  C23 UNL A   1      16.565  49.542   8.954  1.00  0.00    +0.000 C 
ATOM     30  C24 UNL A   1      16.274  49.241  10.359  1.00  0.00    +0.000 C 
ATOM     31  O4  UNL A   1      16.944  49.666  11.287  1.00  0.00    +0.000 O 
ENDBRANCH   20   21
ENDBRANCH   19   20
ENDBRANCH   18   19
ENDBRANCH   11   13
ENDBRANCH   10   11
ENDBRANCH    9   10
ENDBRANCH    8    9
ENDBRANCH    7    8
ENDBRANCH    6    7
ENDBRANCH    5    6
ENDBRANCH    4    5
ENDBRANCH    3    4
ENDBRANCH    2    3
ENDBRANCH   32    2
ENDBRANCH   36   35
BRANCH   40   41
ATOM     41  C33 UNL A   1      17.773  55.359   0.845  1.00  0.00    +0.000 C 
ATOM     42  C34 UNL A   1      19.026  55.731   1.351  1.00  0.00    +0.000 C 
ATOM     43  F1  UNL A   1      19.551  55.081   2.400  1.00  0.00    +0.000 F 
ATOM     44  C35 UNL A   1      19.739  56.782   0.783  1.00  0.00    +0.000 C 
ATOM     45  F2  UNL A   1      20.931  57.131   1.286  1.00  0.00    +0.000 F 
ATOM     46  C36 UNL A   1      19.217  57.471  -0.304  1.00  0.00    +0.000 C 
ATOM     47  F3  UNL A   1      19.909  58.480  -0.852  1.00  0.00    +0.000 F 
ATOM     48  C37 UNL A   1      17.979  57.117  -0.818  1.00  0.00    +0.000 C 
ATOM     49  F4  UNL A   1      17.476  57.782  -1.867  1.00  0.00    +0.000 F 
ATOM     50  C38 UNL A   1      17.259  56.071  -0.247  1.00  0.00    +0.000 C 
ATOM     51  F5  UNL A   1      16.064  55.749  -0.762  1.00  0.00    +0.000 F 
ENDBRANCH   40   41
BRANCH   57   58
ATOM     65  C48 UNL A   1      18.269  46.877  -1.718  1.00  0.00    +0.000 C 
ATOM     66  F9  UNL A   1      19.433  46.220  -1.622  1.00  0.00    +0.000 F 
ATOM     67  C49 UNL A   1      17.885  47.759  -0.711  1.00  0.00    +0.000 C 
ATOM     68  F10 UNL A   1      18.694  47.931   0.346  1.00  0.00    +0.000 F 
ATOM     58  C44 UNL A   1      16.673  48.457  -0.794  1.00  0.00    +0.000 C 
ATOM     59  C45 UNL A   1      15.857  48.241  -1.913  1.00  0.00    +0.000 C 
ATOM     60  F6  UNL A   1      14.680  48.877  -2.022  1.00  0.00    +0.000 F 
ATOM     61  C46 UNL A   1      16.240  47.352  -2.912  1.00  0.00    +0.000 C 
ATOM     62  F7  UNL A   1      15.437  47.142  -3.964  1.00  0.00    +0.000 F 
ATOM     63  C47 UNL A   1      17.446  46.674  -2.816  1.00  0.00    +0.000 C 
ATOM     64  F8  UNL A   1      17.811  45.814  -3.777  1.00  0.00    +0.000 F 
ENDBRANCH   57   58
BRANCH   72   73
ATOM     73  C53 UNL A   1      12.286  47.970   4.573  1.00  0.00    +0.000 C 
ATOM     74  C54 UNL A   1      12.808  47.033   5.473  1.00  0.00    +0.000 C 
ATOM     75  F11 UNL A   1      14.102  47.089   5.823  1.00  0.00    +0.000 F 
ATOM     76  C55 UNL A   1      12.003  46.029   6.004  1.00  0.00    +0.000 C 
ATOM     77  F12 UNL A   1      12.525  45.134   6.855  1.00  0.00    +0.000 F 
ATOM     78  C56 UNL A   1      10.664  45.951   5.651  1.00  0.00    +0.000 C 
ATOM     79  F13 UNL A   1       9.889  44.987   6.167  1.00  0.00    +0.000 F 
ATOM     80  C57 UNL A   1      10.129  46.869   4.759  1.00  0.00    +0.000 C 
ATOM     81  F14 UNL A   1       8.836  46.797   4.418  1.00  0.00    +0.000 F 
ATOM     82  C58 UNL A   1      10.935  47.867   4.219  1.00  0.00    +0.000 C 
ATOM     83  F15 UNL A   1      10.399  48.744   3.357  1.00  0.00    +0.000 F 
ENDBRANCH   72   73
TORSDOF 18
ENDMDL
MODEL 3
REMARK VINA RESULT:      -9.4     22.598     29.276
ROOT
ATOM    129  H35 UNL A   1      23.050  26.825  -0.839  1.00  0.00    +0.000 H 
ATOM    130  H36 UNL A   1      22.648  24.438  -1.682  1.00  0.00    +0.000 H 
ATOM     36  C29 UNL A   1      19.931  23.908  -2.367  1.00  0.00    +0.000 C 
ATOM     37  C30 UNL A   1      20.523  25.202  -1.893  1.00  0.00    +0.000 C 
ATOM     38  N4  UNL A   1      19.932  26.355  -1.697  1.00  0.00    +0.000 N 
ATOM     39  C31 UNL A   1      20.919  27.214  -1.238  1.00  0.00    +0.000 C 
ATOM     40  C32 UNL A   1      20.809  28.524  -0.914  1.00  0.00    +0.000 C 
ATOM     52  C39 UNL A   1      19.602  29.300  -1.020  1.00  0.00    +0.000 C 
ATOM     53  C40 UNL A   1      19.433  30.664  -0.853  1.00  0.00    +0.000 C 
ATOM     54  C41 UNL A   1      18.072  30.958  -1.006  1.00  0.00    +0.000 C 
ATOM     55  C42 UNL A   1      17.400  29.779  -1.280  1.00  0.00    +0.000 C 
ATOM     56  N5  UNL A   1      18.352  28.774  -1.305  1.00  0.00    +0.000 N 
ATOM     57  C43 UNL A   1      15.992  29.572  -1.488  1.00  0.00    +0.000 C 
ATOM     69  C50 UNL A   1      15.433  28.409  -1.897  1.00  0.00    +0.000 C 
ATOM     70  N6  UNL A   1      16.052  27.198  -2.165  1.00  0.00    +0.000 N 
ATOM     71  C51 UNL A   1      15.095  26.378  -2.517  1.00  0.00    +0.000 C 
ATOM     72  C52 UNL A   1      15.190  24.933  -2.904  1.00  0.00    +0.000 C 
ATOM     84  C59 UNL A   1      16.382  24.311  -2.885  1.00  0.00    +0.000 C 
ATOM     85  C60 UNL A   1      16.606  22.908  -3.217  1.00  0.00    +0.000 C 
ATOM     86  C61 UNL A   1      17.907  22.620  -3.051  1.00  0.00    +0.000 C 
ATOM     87  C62 UNL A   1      18.610  23.830  -2.623  1.00  0.00    +0.000 C 
ATOM     88  N7  UNL A   1      17.627  24.784  -2.555  1.00  0.00    +0.000 N 
ATOM     89  C63 UNL A   1      13.753  26.977  -2.516  1.00  0.00    +0.000 C 
ATOM     90  C64 UNL A   1      14.016  28.220  -2.136  1.00  0.00    +0.000 C 
ATOM     91  C65 UNL A   1      22.148  26.450  -1.171  1.00  0.00    +0.000 C 
ATOM     92  C66 UNL A   1      21.961  25.204  -1.590  1.00  0.00    +0.000 C 
ATOM    121  H27 UNL A   1      20.180  31.346  -0.650  1.00  0.00    +0.000 H 
ATOM    122  H28 UNL A   1      17.644  31.894  -0.928  1.00  0.00    +0.000 H 
ATOM    123  H29 UNL A   1      18.169  27.825  -1.497  1.00  0.00    +0.000 H 
ATOM    124  H30 UNL A   1      15.881  22.242  -3.530  1.00  0.00    +0.000 H 
ATOM    125  H31 UNL A   1      18.340  21.696  -3.200  1.00  0.00    +0.000 H 
ATOM    126  H32 UNL A   1      17.798  25.718  -2.294  1.00  0.00    +0.000 H 
ATOM    127  H33 UNL A   1      12.845  26.544  -2.750  1.00  0.00    +0.000 H 
ATOM    128  H34 UNL A   1      13.303  28.958  -2.026  1.00  0.00    +0.000 H 
ENDROOT
BRANCH   36   35
ATOM     33  C26 UNL A   1      22.292  21.054  -1.588  1.00  0.00    +0.000 C 
ATOM     34  C27 UNL A   1      21.408  22.123  -1.422  1.00  0.00    +0.000 C 
ATOM     35  C28 UNL A   1      20.765  22.694  -2.531  1.00  0.00    +0.000 C 
ATOM    132  H38 UNL A   1      22.001  20.664  -4.904  1.00  0.00    +0.000 H 
ATOM    131  H37 UNL A   1      20.534  22.574  -4.630  1.00  0.00    +0.000 H 
ATOM    119  H25 UNL A   1      22.799  20.673  -0.773  1.00  0.00    +0.000 H 
ATOM    120  H26 UNL A   1      21.225  22.496  -0.477  1.00  0.00    +0.000 H 
ATOM     93  C67 UNL A   1      20.995  22.158  -3.806  1.00  0.00    +0.000 C 
ATOM     94  C68 UNL A   1      21.847  21.062  -3.964  1.00  0.00    +0.000 C 
ATOM     32  C25 UNL A   1      22.494  20.499  -2.855  1.00  0.00    +0.000 C 
BRANCH   32    2
ATOM      1  O1  UNL A   1      23.419  18.402  -2.373  1.00  0.00    +0.000 O 
ATOM      2  C1  UNL A   1      23.454  19.394  -3.099  1.00  0.00    +0.000 C 
BRANCH    2    3
ATOM      3  N1  UNL A   1      24.385  19.454  -4.103  1.00  0.00    +0.000 N 
ATOM     95  H1  UNL A   1      24.219  18.845  -4.859  1.00  0.00    +0.000 H 
BRANCH    3    4
ATOM     97  H3  UNL A   1      26.342  19.814  -3.640  1.00  0.00    +0.000 H 
ATOM      4  C2  UNL A   1      25.576  20.272  -4.229  1.00  0.00    +0.000 C 
ATOM     96  H2  UNL A   1      25.846  20.325  -5.263  1.00  0.00    +0.000 H 
BRANCH    4    5
ATOM     98  H4  UNL A   1      25.652  21.694  -2.669  1.00  0.00    +0.000 H 
ATOM     99  H5  UNL A   1      24.357  21.927  -3.896  1.00  0.00    +0.000 H 
ATOM      5  C3  UNL A   1      25.383  21.690  -3.704  1.00  0.00    +0.000 C 
BRANCH    5    6
ATOM    100  H6  UNL A   1      26.759  22.328  -5.185  1.00  0.00    +0.000 H 
ATOM    101  H7  UNL A   1      26.791  23.235  -3.635  1.00  0.00    +0.000 H 
ATOM      6  C4  UNL A   1      26.192  22.786  -4.401  1.00  0.00    +0.000 C 
BRANCH    6    7
ATOM    103  H9  UNL A   1      25.930  24.820  -4.796  1.00  0.00    +0.000 H 
ATOM    102  H8  UNL A   1      25.268  23.723  -6.059  1.00  0.00    +0.000 H 
ATOM      7  C5  UNL A   1      25.380  23.928  -5.015  1.00  0.00    +0.000 C 
BRANCH    7    8
ATOM    105  H11 UNL A   1      23.585  23.184  -4.238  1.00  0.00    +0.000 H 
ATOM    104  H10 UNL A   1      24.089  24.770  -3.557  1.00  0.00    +0.000 H 
ATOM      8  C6  UNL A   1      23.980  24.160  -4.430  1.00  0.00    +0.000 C 
BRANCH    8    9
ATOM      9  C7  UNL A   1      22.966  24.839  -5.352  1.00  0.00    +0.000 C 
ATOM    106  H12 UNL A   1      22.025  24.886  -4.846  1.00  0.00    +0.000 H 
ATOM    107  H13 UNL A   1      22.911  24.258  -6.249  1.00  0.00    +0.000 H 
BRANCH    9   10
ATOM     10  N2  UNL A   1      23.357  26.186  -5.730  1.00  0.00    +0.000 N 
ATOM    108  H14 UNL A   1      23.471  26.829  -4.993  1.00  0.00    +0.000 H 
BRANCH   10   11
ATOM     11  C8  UNL A   1      23.585  26.667  -6.994  1.00  0.00    +0.000 C 
ATOM     12  O2  UNL A   1      23.569  27.877  -7.213  1.00  0.00    +0.000 O 
BRANCH   11   13
ATOM     13  C9  UNL A   1      23.901  25.755  -8.104  1.00  0.00    +0.000 C 
ATOM     14  C10 UNL A   1      22.830  25.252  -8.855  1.00  0.00    +0.000 C 
ATOM    109  H15 UNL A   1      21.864  25.539  -8.632  1.00  0.00    +0.000 H 
ATOM     15  C11 UNL A   1      23.066  24.362  -9.906  1.00  0.00    +0.000 C 
ATOM     17  C13 UNL A   1      25.427  24.447  -9.431  1.00  0.00    +0.000 C 
ATOM     18  C14 UNL A   1      25.208  25.341  -8.373  1.00  0.00    +0.000 C 
ATOM    110  H16 UNL A   1      22.279  24.004 -10.468  1.00  0.00    +0.000 H 
ATOM    112  H18 UNL A   1      26.390  24.147  -9.649  1.00  0.00    +0.000 H 
ATOM     16  C12 UNL A   1      24.367  23.958 -10.193  1.00  0.00    +0.000 C 
ATOM    111  H17 UNL A   1      24.546  23.300 -10.967  1.00  0.00    +0.000 H 
BRANCH   18   19
ATOM     19  N3  UNL A   1      26.348  25.861  -7.766  1.00  0.00    +0.000 N 
BRANCH   19   20
ATOM    113  H19 UNL A   1      27.404  26.897  -9.173  1.00  0.00    +0.000 H 
ATOM     20  C15 UNL A   1      27.404  26.156  -8.455  1.00  0.00    +0.000 C 
BRANCH   20   21
ATOM     26  C20 UNL A   1      27.564  20.580  -8.162  1.00  0.00    +0.000 C 
ATOM    117  H23 UNL A   1      27.490  20.226 -10.246  1.00  0.00    +0.000 H 
ATOM    114  H20 UNL A   1      28.383  25.604  -6.128  1.00  0.00    +0.000 H 
ATOM    115  H21 UNL A   1      27.821  21.221  -6.160  1.00  0.00    +0.000 H 
ATOM    116  H22 UNL A   1      27.123  19.682  -7.910  1.00  0.00    +0.000 H 
ATOM     21  C16 UNL A   1      28.609  25.359  -8.146  1.00  0.00    +0.000 C 
ATOM     22  C17 UNL A   1      28.590  24.924  -6.875  1.00  0.00    +0.000 C 
ATOM     23  O3  UNL A   1      28.833  23.604  -6.519  1.00  0.00    +0.000 O 
ATOM     24  C18 UNL A   1      28.515  22.689  -7.503  1.00  0.00    +0.000 C 
ATOM    118  H24 UNL A   1      28.505  22.355 -10.855  1.00  0.00    +0.000 H 
ATOM     25  C19 UNL A   1      27.952  21.469  -7.153  1.00  0.00    +0.000 C 
ATOM     27  C21 UNL A   1      27.767  20.897  -9.512  1.00  0.00    +0.000 C 
ATOM     28  C22 UNL A   1      28.343  22.116  -9.866  1.00  0.00    +0.000 C 
ATOM     29  C23 UNL A   1      28.693  23.006  -8.852  1.00  0.00    +0.000 C 
ATOM     30  C24 UNL A   1      29.103  24.382  -9.146  1.00  0.00    +0.000 C 
ATOM     31  O4  UNL A   1      29.708  24.698 -10.159  1.00  0.00    +0.000 O 
ENDBRANCH   20   21
ENDBRANCH   19   20
ENDBRANCH   18   19
ENDBRANCH   11   13
ENDBRANCH   10   11
ENDBRANCH    9   10
ENDBRANCH    8    9
ENDBRANCH    7    8
ENDBRANCH    6    7
ENDBRANCH    5    6
ENDBRANCH    4    5
ENDBRANCH    3    4
ENDBRANCH    2    3
ENDBRANCH   32    2
ENDBRANCH   36   35
BRANCH   40   41
ATOM     41  C33 UNL A   1      22.038  29.217  -0.419  1.00  0.00    +0.000 C 
ATOM     42  C34 UNL A   1      22.275  29.384   0.951  1.00  0.00    +0.000 C 
ATOM     43  F1  UNL A   1      21.365  28.975   1.849  1.00  0.00    +0.000 F 
ATOM     44  C35 UNL A   1      23.447  29.981   1.403  1.00  0.00    +0.000 C 
ATOM     45  F2  UNL A   1      23.654  30.142   2.718  1.00  0.00    +0.000 F 
ATOM     46  C36 UNL A   1      24.404  30.412   0.494  1.00  0.00    +0.000 C 
ATOM     47  F3  UNL A   1      25.535  30.983   0.933  1.00  0.00    +0.000 F 
ATOM     48  C37 UNL A   1      24.187  30.256  -0.866  1.00  0.00    +0.000 C 
ATOM     49  F4  UNL A   1      25.111  30.672  -1.743  1.00  0.00    +0.000 F 
ATOM     50  C38 UNL A   1      23.011  29.665  -1.322  1.00  0.00    +0.000 C 
ATOM     51  F5  UNL A   1      22.824  29.526  -2.643  1.00  0.00    +0.000 F 
ENDBRANCH   40   41
BRANCH   57   58
ATOM     65  C48 UNL A   1      13.517  32.394  -2.084  1.00  0.00    +0.000 C 
ATOM     66  F9  UNL A   1      12.849  32.942  -3.108  1.00  0.00    +0.000 F 
ATOM     67  C49 UNL A   1      14.359  31.307  -2.307  1.00  0.00    +0.000 C 
ATOM     68  F10 UNL A   1      14.482  30.824  -3.552  1.00  0.00    +0.000 F 
ATOM     58  C44 UNL A   1      15.068  30.722  -1.249  1.00  0.00    +0.000 C 
ATOM     59  C45 UNL A   1      14.904  31.256   0.037  1.00  0.00    +0.000 C 
ATOM     60  F6  UNL A   1      15.552  30.713   1.079  1.00  0.00    +0.000 F 
ATOM     61  C46 UNL A   1      14.054  32.336   0.256  1.00  0.00    +0.000 C 
ATOM     62  F7  UNL A   1      13.894  32.818   1.496  1.00  0.00    +0.000 F 
ATOM     63  C47 UNL A   1      13.365  32.905  -0.803  1.00  0.00    +0.000 C 
ATOM     64  F8  UNL A   1      12.543  33.943  -0.589  1.00  0.00    +0.000 F 
ENDBRANCH   57   58
BRANCH   72   73
ATOM     73  C53 UNL A   1      13.984  24.171  -3.298  1.00  0.00    +0.000 C 
ATOM     74  C54 UNL A   1      13.401  24.353  -4.558  1.00  0.00    +0.000 C 
ATOM     75  F11 UNL A   1      13.906  25.262  -5.405  1.00  0.00    +0.000 F 
ATOM     76  C55 UNL A   1      12.288  23.610  -4.942  1.00  0.00    +0.000 C 
ATOM     77  F12 UNL A   1      11.738  23.807  -6.149  1.00  0.00    +0.000 F 
ATOM     78  C56 UNL A   1      11.747  22.669  -4.079  1.00  0.00    +0.000 C 
ATOM     79  F13 UNL A   1      10.681  21.949  -4.453  1.00  0.00    +0.000 F 
ATOM     80  C57 UNL A   1      12.310  22.475  -2.826  1.00  0.00    +0.000 C 
ATOM     81  F14 UNL A   1      11.791  21.566  -1.991  1.00  0.00    +0.000 F 
ATOM     82  C58 UNL A   1      13.416  23.225  -2.436  1.00  0.00    +0.000 C 
ATOM     83  F15 UNL A   1      13.944  23.025  -1.219  1.00  0.00    +0.000 F 
ENDBRANCH   72   73
TORSDOF 18
ENDMDL
MODEL 4
REMARK VINA RESULT:      -9.4     43.625     50.322
ROOT
ATOM    129  H35 UNL A   1       7.784   4.412  24.629  1.00  0.00    +0.000 H 
ATOM    130  H36 UNL A   1       9.404   2.534  23.982  1.00  0.00    +0.000 H 
ATOM     36  C29 UNL A   1      10.731   2.972  21.496  1.00  0.00    +0.000 C 
ATOM     37  C30 UNL A   1       9.765   3.882  22.194  1.00  0.00    +0.000 C 
ATOM     38  N4  UNL A   1       9.330   5.061  21.823  1.00  0.00    +0.000 N 
ATOM     39  C31 UNL A   1       8.441   5.464  22.807  1.00  0.00    +0.000 C 
ATOM     40  C32 UNL A   1       7.744   6.622  22.888  1.00  0.00    +0.000 C 
ATOM     52  C39 UNL A   1       7.827   7.701  21.939  1.00  0.00    +0.000 C 
ATOM     53  C40 UNL A   1       7.270   8.965  22.017  1.00  0.00    +0.000 C 
ATOM     54  C41 UNL A   1       7.580   9.653  20.837  1.00  0.00    +0.000 C 
ATOM     55  C42 UNL A   1       8.339   8.819  20.033  1.00  0.00    +0.000 C 
ATOM     56  N5  UNL A   1       8.500   7.633  20.730  1.00  0.00    +0.000 N 
ATOM     57  C43 UNL A   1       8.869   9.070  18.720  1.00  0.00    +0.000 C 
ATOM     69  C50 UNL A   1       9.726   8.255  18.062  1.00  0.00    +0.000 C 
ATOM     70  N6  UNL A   1      10.242   7.034  18.468  1.00  0.00    +0.000 N 
ATOM     71  C51 UNL A   1      11.014   6.630  17.491  1.00  0.00    +0.000 C 
ATOM     72  C52 UNL A   1      11.815   5.368  17.386  1.00  0.00    +0.000 C 
ATOM     84  C59 UNL A   1      11.766   4.458  18.375  1.00  0.00    +0.000 C 
ATOM     85  C60 UNL A   1      12.479   3.185  18.385  1.00  0.00    +0.000 C 
ATOM     86  C61 UNL A   1      12.165   2.516  19.507  1.00  0.00    +0.000 C 
ATOM     87  C62 UNL A   1      11.248   3.330  20.305  1.00  0.00    +0.000 C 
ATOM     88  N7  UNL A   1      11.069   4.467  19.557  1.00  0.00    +0.000 N 
ATOM     89  C63 UNL A   1      11.081   7.555  16.350  1.00  0.00    +0.000 C 
ATOM     90  C64 UNL A   1      10.281   8.533  16.753  1.00  0.00    +0.000 C 
ATOM     91  C65 UNL A   1       8.385   4.400  23.789  1.00  0.00    +0.000 C 
ATOM     92  C66 UNL A   1       9.207   3.408  23.469  1.00  0.00    +0.000 C 
ATOM    121  H27 UNL A   1       6.721   9.338  22.807  1.00  0.00    +0.000 H 
ATOM    122  H28 UNL A   1       7.292  10.617  20.605  1.00  0.00    +0.000 H 
ATOM    123  H29 UNL A   1       9.015   6.856  20.413  1.00  0.00    +0.000 H 
ATOM    124  H30 UNL A   1      13.121   2.850  17.649  1.00  0.00    +0.000 H 
ATOM    125  H31 UNL A   1      12.515   1.581  19.764  1.00  0.00    +0.000 H 
ATOM    126  H32 UNL A   1      10.497   5.216  19.841  1.00  0.00    +0.000 H 
ATOM    127  H33 UNL A   1      11.610   7.465  15.468  1.00  0.00    +0.000 H 
ATOM    128  H34 UNL A   1      10.081   9.384  16.205  1.00  0.00    +0.000 H 
ENDROOT
BRANCH   36   35
ATOM     33  C26 UNL A   1      12.720   0.278  23.262  1.00  0.00    +0.000 C 
ATOM     34  C27 UNL A   1      12.294   1.532  22.818  1.00  0.00    +0.000 C 
ATOM     35  C28 UNL A   1      11.110   1.661  22.075  1.00  0.00    +0.000 C 
ATOM    132  H38 UNL A   1      10.169  -1.563  22.107  1.00  0.00    +0.000 H 
ATOM    131  H37 UNL A   1       9.472   0.599  21.260  1.00  0.00    +0.000 H 
ATOM    119  H25 UNL A   1      13.617   0.187  23.764  1.00  0.00    +0.000 H 
ATOM    120  H26 UNL A   1      12.853   2.371  23.037  1.00  0.00    +0.000 H 
ATOM     93  C67 UNL A   1      10.341   0.518  21.811  1.00  0.00    +0.000 C 
ATOM     94  C68 UNL A   1      10.747  -0.729  22.293  1.00  0.00    +0.000 C 
ATOM     32  C25 UNL A   1      11.934  -0.854  23.027  1.00  0.00    +0.000 C 
BRANCH   32    2
ATOM      1  O1  UNL A   1      13.556  -2.459  23.559  1.00  0.00    +0.000 O 
ATOM      2  C1  UNL A   1      12.357  -2.217  23.436  1.00  0.00    +0.000 C 
BRANCH    2    3
ATOM      3  N1  UNL A   1      11.447  -3.217  23.666  1.00  0.00    +0.000 N 
ATOM     95  H1  UNL A   1      11.236  -3.773  22.883  1.00  0.00    +0.000 H 
BRANCH    3    4
ATOM     97  H3  UNL A   1       9.713  -3.354  24.738  1.00  0.00    +0.000 H 
ATOM      4  C2  UNL A   1      10.747  -3.584  24.883  1.00  0.00    +0.000 C 
ATOM     96  H2  UNL A   1      10.902  -4.627  25.063  1.00  0.00    +0.000 H 
BRANCH    4    5
ATOM     98  H4  UNL A   1      12.084  -2.241  25.813  1.00  0.00    +0.000 H 
ATOM     99  H5  UNL A   1      11.407  -3.540  26.858  1.00  0.00    +0.000 H 
ATOM      5  C3  UNL A   1      11.223  -2.804  26.103  1.00  0.00    +0.000 C 
BRANCH    5    6
ATOM    100  H6  UNL A   1      10.765  -1.091  27.264  1.00  0.00    +0.000 H 
ATOM    101  H7  UNL A   1       9.569  -2.428  27.327  1.00  0.00    +0.000 H 
ATOM      6  C4  UNL A   1      10.216  -1.830  26.719  1.00  0.00    +0.000 C 
BRANCH    6    7
ATOM    103  H9  UNL A   1       9.584  -1.458  24.764  1.00  0.00    +0.000 H 
ATOM    102  H8  UNL A   1       8.289  -1.317  26.005  1.00  0.00    +0.000 H 
ATOM      7  C5  UNL A   1       9.301  -1.101  25.732  1.00  0.00    +0.000 C 
BRANCH    7    8
ATOM    105  H11 UNL A   1      10.486   0.601  25.455  1.00  0.00    +0.000 H 
ATOM    104  H10 UNL A   1       8.782   0.785  24.910  1.00  0.00    +0.000 H 
ATOM      8  C6  UNL A   1       9.452   0.425  25.664  1.00  0.00    +0.000 C 
BRANCH    8    9
ATOM      9  C7  UNL A   1       9.158   1.191  26.955  1.00  0.00    +0.000 C 
ATOM    106  H12 UNL A   1       8.529   0.586  27.574  1.00  0.00    +0.000 H 
ATOM    107  H13 UNL A   1       8.685   2.110  26.680  1.00  0.00    +0.000 H 
BRANCH    9   10
ATOM     10  N2  UNL A   1      10.358   1.526  27.702  1.00  0.00    +0.000 N 
ATOM    108  H14 UNL A   1      10.456   1.096  28.583  1.00  0.00    +0.000 H 
BRANCH   10   11
ATOM     11  C8  UNL A   1      11.371   2.370  27.323  1.00  0.00    +0.000 C 
ATOM     12  O2  UNL A   1      11.141   3.556  27.097  1.00  0.00    +0.000 O 
BRANCH   11   13
ATOM     13  C9  UNL A   1      12.757   1.890  27.224  1.00  0.00    +0.000 C 
ATOM     14  C10 UNL A   1      12.970   0.640  26.626  1.00  0.00    +0.000 C 
ATOM    109  H15 UNL A   1      12.170   0.101  26.260  1.00  0.00    +0.000 H 
ATOM     15  C11 UNL A   1      14.263   0.121  26.526  1.00  0.00    +0.000 C 
ATOM     17  C13 UNL A   1      15.121   2.073  27.649  1.00  0.00    +0.000 C 
ATOM     18  C14 UNL A   1      13.829   2.608  27.758  1.00  0.00    +0.000 C 
ATOM    110  H16 UNL A   1      14.420  -0.793  26.073  1.00  0.00    +0.000 H 
ATOM    112  H18 UNL A   1      15.922   2.601  28.025  1.00  0.00    +0.000 H 
ATOM     16  C12 UNL A   1      15.340   0.838  27.040  1.00  0.00    +0.000 C 
ATOM    111  H17 UNL A   1      16.296   0.457  26.969  1.00  0.00    +0.000 H 
BRANCH   18   19
ATOM     19  N3  UNL A   1      13.745   3.902  28.268  1.00  0.00    +0.000 N 
BRANCH   19   20
ATOM    113  H19 UNL A   1      15.385   3.914  29.484  1.00  0.00    +0.000 H 
ATOM     20  C15 UNL A   1      14.431   4.263  29.305  1.00  0.00    +0.000 C 
BRANCH   20   21
ATOM     26  C20 UNL A   1       9.122   5.933  28.820  1.00  0.00    +0.000 C 
ATOM    117  H23 UNL A   1       8.241   4.145  29.526  1.00  0.00    +0.000 H 
ATOM    114  H20 UNL A   1      14.510   6.846  29.252  1.00  0.00    +0.000 H 
ATOM    115  H21 UNL A   1      10.262   7.653  28.341  1.00  0.00    +0.000 H 
ATOM    116  H22 UNL A   1       8.315   6.198  28.234  1.00  0.00    +0.000 H 
ATOM     21  C16 UNL A   1      13.754   5.209  30.217  1.00  0.00    +0.000 C 
ATOM     22  C17 UNL A   1      13.663   6.431  29.668  1.00  0.00    +0.000 C 
ATOM     23  O3  UNL A   1      12.482   7.163  29.630  1.00  0.00    +0.000 O 
ATOM     24  C18 UNL A   1      11.340   6.385  29.634  1.00  0.00    +0.000 C 
ATOM    118  H24 UNL A   1      10.151   3.495  30.890  1.00  0.00    +0.000 H 
ATOM     25  C19 UNL A   1      10.247   6.766  28.868  1.00  0.00    +0.000 C 
ATOM     27  C21 UNL A   1       9.081   4.742  29.558  1.00  0.00    +0.000 C 
ATOM     28  C22 UNL A   1      10.174   4.364  30.336  1.00  0.00    +0.000 C 
ATOM     29  C23 UNL A   1      11.300   5.186  30.348  1.00  0.00    +0.000 C 
ATOM     30  C24 UNL A   1      12.558   4.756  30.966  1.00  0.00    +0.000 C 
ATOM     31  O4  UNL A   1      12.608   4.024  31.942  1.00  0.00    +0.000 O 
ENDBRANCH   20   21
ENDBRANCH   19   20
ENDBRANCH   18   19
ENDBRANCH   11   13
ENDBRANCH   10   11
ENDBRANCH    9   10
ENDBRANCH    8    9
ENDBRANCH    7    8
ENDBRANCH    6    7
ENDBRANCH    5    6
ENDBRANCH    4    5
ENDBRANCH    3    4
ENDBRANCH    2    3
ENDBRANCH   32    2
ENDBRANCH   36   35
BRANCH   40   41
ATOM     41  C33 UNL A   1       6.827   6.795  24.056  1.00  0.00    +0.000 C 
ATOM     42  C34 UNL A   1       5.513   6.312  24.026  1.00  0.00    +0.000 C 
ATOM     43  F1  UNL A   1       5.031   5.734  22.915  1.00  0.00    +0.000 F 
ATOM     44  C35 UNL A   1       4.685   6.429  25.138  1.00  0.00    +0.000 C 
ATOM     45  F2  UNL A   1       3.427   5.970  25.088  1.00  0.00    +0.000 F 
ATOM     46  C36 UNL A   1       5.160   7.023  26.300  1.00  0.00    +0.000 C 
ATOM     47  F3  UNL A   1       4.362   7.131  27.372  1.00  0.00    +0.000 F 
ATOM     48  C37 UNL A   1       6.458   7.508  26.349  1.00  0.00    +0.000 C 
ATOM     49  F4  UNL A   1       6.916   8.081  27.470  1.00  0.00    +0.000 F 
ATOM     50  C38 UNL A   1       7.287   7.398  25.235  1.00  0.00    +0.000 C 
ATOM     51  F5  UNL A   1       8.538   7.876  25.306  1.00  0.00    +0.000 F 
ENDBRANCH   40   41
BRANCH   57   58
ATOM     65  C48 UNL A   1       6.940  11.530  16.559  1.00  0.00    +0.000 C 
ATOM     66  F9  UNL A   1       5.837  11.546  15.799  1.00  0.00    +0.000 F 
ATOM     67  C49 UNL A   1       7.308  10.364  17.225  1.00  0.00    +0.000 C 
ATOM     68  F10 UNL A   1       6.540   9.272  17.095  1.00  0.00    +0.000 F 
ATOM     58  C44 UNL A   1       8.459  10.327  18.023  1.00  0.00    +0.000 C 
ATOM     59  C45 UNL A   1       9.227  11.494  18.135  1.00  0.00    +0.000 C 
ATOM     60  F6  UNL A   1      10.328  11.505  18.904  1.00  0.00    +0.000 F 
ATOM     61  C46 UNL A   1       8.852  12.660  17.475  1.00  0.00    +0.000 C 
ATOM     62  F7  UNL A   1       9.587  13.772  17.612  1.00  0.00    +0.000 F 
ATOM     63  C47 UNL A   1       7.712  12.676  16.686  1.00  0.00    +0.000 C 
ATOM     64  F8  UNL A   1       7.349  13.802  16.054  1.00  0.00    +0.000 F 
ENDBRANCH   57   58
BRANCH   72   73
ATOM     73  C53 UNL A   1      12.655   5.098  16.198  1.00  0.00    +0.000 C 
ATOM     74  C54 UNL A   1      12.125   4.445  15.079  1.00  0.00    +0.000 C 
ATOM     75  F11 UNL A   1      10.856   4.013  15.094  1.00  0.00    +0.000 F 
ATOM     76  C55 UNL A   1      12.905   4.224  13.946  1.00  0.00    +0.000 C 
ATOM     77  F12 UNL A   1      12.382   3.587  12.889  1.00  0.00    +0.000 F 
ATOM     78  C56 UNL A   1      14.222   4.659  13.912  1.00  0.00    +0.000 C 
ATOM     79  F13 UNL A   1      14.969   4.451  12.819  1.00  0.00    +0.000 F 
ATOM     80  C57 UNL A   1      14.765   5.306  15.012  1.00  0.00    +0.000 C 
ATOM     81  F14 UNL A   1      16.036   5.729  14.981  1.00  0.00    +0.000 F 
ATOM     82  C58 UNL A   1      13.991   5.518  16.148  1.00  0.00    +0.000 C 
ATOM     83  F15 UNL A   1      14.536   6.144  17.203  1.00  0.00    +0.000 F 
ENDBRANCH   72   73
TORSDOF 18
ENDMDL
MODEL 5
REMARK VINA RESULT:      -9.3      1.197      3.697
ROOT
ATOM    129  H35 UNL A   1      16.705  56.728   2.629  1.00  0.00    +0.000 H 
ATOM    130  H36 UNL A   1      15.159  56.544   4.665  1.00  0.00    +0.000 H 
ATOM     36  C29 UNL A   1      14.068  53.936   5.042  1.00  0.00    +0.000 C 
ATOM     37  C30 UNL A   1      15.041  54.381   3.990  1.00  0.00    +0.000 C 
ATOM     38  N4  UNL A   1      15.597  53.680   3.034  1.00  0.00    +0.000 N 
ATOM     39  C31 UNL A   1      16.394  54.568   2.328  1.00  0.00    +0.000 C 
ATOM     40  C32 UNL A   1      17.189  54.318   1.260  1.00  0.00    +0.000 C 
ATOM     52  C39 UNL A   1      17.376  53.025   0.658  1.00  0.00    +0.000 C 
ATOM     53  C40 UNL A   1      18.270  52.653  -0.331  1.00  0.00    +0.000 C 
ATOM     54  C41 UNL A   1      18.055  51.302  -0.631  1.00  0.00    +0.000 C 
ATOM     55  C42 UNL A   1      17.036  50.833   0.182  1.00  0.00    +0.000 C 
ATOM     56  N5  UNL A   1      16.643  51.894   0.981  1.00  0.00    +0.000 N 
ATOM     57  C43 UNL A   1      16.447  49.522   0.223  1.00  0.00    +0.000 C 
ATOM     69  C50 UNL A   1      15.554  49.103   1.149  1.00  0.00    +0.000 C 
ATOM     70  N6  UNL A   1      15.002  49.815   2.203  1.00  0.00    +0.000 N 
ATOM     71  C51 UNL A   1      14.189  48.987   2.808  1.00  0.00    +0.000 C 
ATOM     72  C52 UNL A   1      13.319  49.227   4.004  1.00  0.00    +0.000 C 
ATOM     84  C59 UNL A   1      13.288  50.443   4.577  1.00  0.00    +0.000 C 
ATOM     85  C60 UNL A   1      12.470  50.812   5.728  1.00  0.00    +0.000 C 
ATOM     86  C61 UNL A   1      12.662  52.113   6.001  1.00  0.00    +0.000 C 
ATOM     87  C62 UNL A   1      13.636  52.660   5.057  1.00  0.00    +0.000 C 
ATOM     88  N7  UNL A   1      13.956  51.597   4.250  1.00  0.00    +0.000 N 
ATOM     89  C63 UNL A   1      14.135  47.645   2.207  1.00  0.00    +0.000 C 
ATOM     90  C64 UNL A   1      14.991  47.768   1.202  1.00  0.00    +0.000 C 
ATOM     91  C65 UNL A   1      16.244  55.864   2.956  1.00  0.00    +0.000 C 
ATOM     92  C66 UNL A   1      15.436  55.797   4.007  1.00  0.00    +0.000 C 
ATOM    121  H27 UNL A   1      18.973  53.266  -0.773  1.00  0.00    +0.000 H 
ATOM    122  H28 UNL A   1      18.568  50.750  -1.336  1.00  0.00    +0.000 H 
ATOM    123  H29 UNL A   1      15.946  51.852   1.675  1.00  0.00    +0.000 H 
ATOM    124  H30 UNL A   1      11.846  50.176   6.248  1.00  0.00    +0.000 H 
ATOM    125  H31 UNL A   1      12.196  52.641   6.755  1.00  0.00    +0.000 H 
ATOM    126  H32 UNL A   1      14.602  51.656   3.510  1.00  0.00    +0.000 H 
ATOM    127  H33 UNL A   1      13.577  46.826   2.492  1.00  0.00    +0.000 H 
ATOM    128  H34 UNL A   1      15.227  47.011   0.542  1.00  0.00    +0.000 H 
ENDROOT
BRANCH   36   35
ATOM     33  C26 UNL A   1      13.664  55.855   8.280  1.00  0.00    +0.000 C 
ATOM     34  C27 UNL A   1      14.217  55.060   7.272  1.00  0.00    +0.000 C 
ATOM     35  C28 UNL A   1      13.542  54.881   6.055  1.00  0.00    +0.000 C 
ATOM    132  H38 UNL A   1      10.896  56.854   6.676  1.00  0.00    +0.000 H 
ATOM    131  H37 UNL A   1      11.811  55.407   4.960  1.00  0.00    +0.000 H 
ATOM    119  H25 UNL A   1      14.143  55.940   9.190  1.00  0.00    +0.000 H 
ATOM    120  H26 UNL A   1      15.129  54.601   7.424  1.00  0.00    +0.000 H 
ATOM     93  C67 UNL A   1      12.320  55.537   5.848  1.00  0.00    +0.000 C 
ATOM     94  C68 UNL A   1      11.789  56.364   6.841  1.00  0.00    +0.000 C 
ATOM     32  C25 UNL A   1      12.462  56.534   8.058  1.00  0.00    +0.000 C 
BRANCH   32    2
ATOM      1  O1  UNL A   1      12.060  58.556   9.170  1.00  0.00    +0.000 O 
ATOM      2  C1  UNL A   1      11.805  57.355   9.106  1.00  0.00    +0.000 C 
BRANCH    2    3
ATOM      3  N1  UNL A   1      10.933  56.808  10.011  1.00  0.00    +0.000 N 
ATOM     95  H1  UNL A   1      10.274  57.437  10.383  1.00  0.00    +0.000 H 
BRANCH    3    4
ATOM     97  H3  UNL A   1      11.817  55.049  10.557  1.00  0.00    +0.000 H 
ATOM      4  C2  UNL A   1      10.827  55.449  10.507  1.00  0.00    +0.000 C 
ATOM     96  H2  UNL A   1      10.356  55.473  11.468  1.00  0.00    +0.000 H 
BRANCH    4    5
ATOM     98  H4  UNL A   1       9.638  55.142   8.789  1.00  0.00    +0.000 H 
ATOM     99  H5  UNL A   1       9.258  54.111  10.213  1.00  0.00    +0.000 H 
ATOM      5  C3  UNL A   1      10.014  54.542   9.590  1.00  0.00    +0.000 C 
BRANCH    5    6
ATOM    100  H6  UNL A   1      11.784  53.644   8.848  1.00  0.00    +0.000 H 
ATOM    101  H7  UNL A   1      10.252  53.139   8.058  1.00  0.00    +0.000 H 
ATOM      6  C4  UNL A   1      10.760  53.357   8.974  1.00  0.00    +0.000 C 
BRANCH    6    7
ATOM    103  H9  UNL A   1      10.975  52.341  10.786  1.00  0.00    +0.000 H 
ATOM    102  H8  UNL A   1       9.765  51.621   9.666  1.00  0.00    +0.000 H 
ATOM      7  C5  UNL A   1      10.735  52.058   9.782  1.00  0.00    +0.000 C 
BRANCH    7    8
ATOM    105  H11 UNL A   1      12.205  51.336   8.480  1.00  0.00    +0.000 H 
ATOM    104  H10 UNL A   1      12.473  50.918  10.208  1.00  0.00    +0.000 H 
ATOM      8  C6  UNL A   1      11.776  50.997   9.399  1.00  0.00    +0.000 C 
BRANCH    8    9
ATOM      9  C7  UNL A   1      11.237  49.596   9.109  1.00  0.00    +0.000 C 
ATOM    106  H12 UNL A   1      10.603  49.647   8.248  1.00  0.00    +0.000 H 
ATOM    107  H13 UNL A   1      10.705  49.271   9.978  1.00  0.00    +0.000 H 
BRANCH    9   10
ATOM     10  N2  UNL A   1      12.287  48.626   8.853  1.00  0.00    +0.000 N 
ATOM    108  H14 UNL A   1      12.624  48.582   7.928  1.00  0.00    +0.000 H 
BRANCH   10   11
ATOM     11  C8  UNL A   1      12.865  47.763   9.749  1.00  0.00    +0.000 C 
ATOM     12  O2  UNL A   1      13.782  47.023   9.400  1.00  0.00    +0.000 O 
BRANCH   11   13
ATOM     13  C9  UNL A   1      12.435  47.735  11.156  1.00  0.00    +0.000 C 
ATOM     14  C10 UNL A   1      11.517  46.745  11.535  1.00  0.00    +0.000 C 
ATOM    109  H15 UNL A   1      11.182  46.060  10.840  1.00  0.00    +0.000 H 
ATOM     15  C11 UNL A   1      11.054  46.684  12.851  1.00  0.00    +0.000 C 
ATOM     17  C13 UNL A   1      12.387  48.616  13.396  1.00  0.00    +0.000 C 
ATOM     18  C14 UNL A   1      12.862  48.691  12.079  1.00  0.00    +0.000 C 
ATOM    110  H16 UNL A   1      10.390  45.946  13.132  1.00  0.00    +0.000 H 
ATOM    112  H18 UNL A   1      12.708  49.307  14.092  1.00  0.00    +0.000 H 
ATOM     16  C12 UNL A   1      11.488  47.622  13.783  1.00  0.00    +0.000 C 
ATOM    111  H17 UNL A   1      11.147  47.582  14.756  1.00  0.00    +0.000 H 
BRANCH   18   19
ATOM     19  N3  UNL A   1      13.852  49.642  11.840  1.00  0.00    +0.000 N 
BRANCH   19   20
ATOM    113  H19 UNL A   1      13.218  50.973  13.252  1.00  0.00    +0.000 H 
ATOM     20  C15 UNL A   1      13.892  50.754  12.502  1.00  0.00    +0.000 C 
BRANCH   20   21
ATOM     26  C20 UNL A   1      17.106  50.215   7.965  1.00  0.00    +0.000 C 
ATOM    117  H23 UNL A   1      15.645  50.821   6.561  1.00  0.00    +0.000 H 
ATOM    114  H20 UNL A   1      16.330  50.815  13.358  1.00  0.00    +0.000 H 
ATOM    115  H21 UNL A   1      18.416  49.838   9.587  1.00  0.00    +0.000 H 
ATOM    116  H22 UNL A   1      17.622  49.622   7.297  1.00  0.00    +0.000 H 
ATOM     21  C16 UNL A   1      14.967  51.690  12.110  1.00  0.00    +0.000 C 
ATOM     22  C17 UNL A   1      16.177  51.192  12.411  1.00  0.00    +0.000 C 
ATOM     23  O3  UNL A   1      17.232  51.157  11.508  1.00  0.00    +0.000 O 
ATOM     24  C18 UNL A   1      16.838  51.100  10.185  1.00  0.00    +0.000 C 
ATOM    118  H24 UNL A   1      14.402  52.202   8.135  1.00  0.00    +0.000 H 
ATOM     25  C19 UNL A   1      17.557  50.326   9.286  1.00  0.00    +0.000 C 
ATOM     27  C21 UNL A   1      15.959  50.900   7.541  1.00  0.00    +0.000 C 
ATOM     28  C22 UNL A   1      15.242  51.687   8.440  1.00  0.00    +0.000 C 
ATOM     29  C23 UNL A   1      15.683  51.761   9.760  1.00  0.00    +0.000 C 
ATOM     30  C24 UNL A   1      14.872  52.389  10.806  1.00  0.00    +0.000 C 
ATOM     31  O4  UNL A   1      14.127  53.334  10.598  1.00  0.00    +0.000 O 
ENDBRANCH   20   21
ENDBRANCH   19   20
ENDBRANCH   18   19
ENDBRANCH   11   13
ENDBRANCH   10   11
ENDBRANCH    9   10
ENDBRANCH    8    9
ENDBRANCH    7    8
ENDBRANCH    6    7
ENDBRANCH    5    6
ENDBRANCH    4    5
ENDBRANCH    3    4
ENDBRANCH    2    3
ENDBRANCH   32    2
ENDBRANCH   36   35
BRANCH   40   41
ATOM     41  C33 UNL A   1      17.933  55.473   0.670  1.00  0.00    +0.000 C 
ATOM     42  C34 UNL A   1      19.166  55.885   1.192  1.00  0.00    +0.000 C 
ATOM     43  F1  UNL A   1      19.675  55.284   2.279  1.00  0.00    +0.000 F 
ATOM     44  C35 UNL A   1      19.877  56.926   0.603  1.00  0.00    +0.000 C 
ATOM     45  F2  UNL A   1      21.050  57.314   1.121  1.00  0.00    +0.000 F 
ATOM     46  C36 UNL A   1      19.372  57.564  -0.522  1.00  0.00    +0.000 C 
ATOM     47  F3  UNL A   1      20.060  58.564  -1.091  1.00  0.00    +0.000 F 
ATOM     48  C37 UNL A   1      18.152  57.170  -1.053  1.00  0.00    +0.000 C 
ATOM     49  F4  UNL A   1      17.665  57.787  -2.138  1.00  0.00    +0.000 F 
ATOM     50  C38 UNL A   1      17.436  56.134  -0.460  1.00  0.00    +0.000 C 
ATOM     51  F5  UNL A   1      16.258  55.772  -0.991  1.00  0.00    +0.000 F 
ENDBRANCH   40   41
BRANCH   57   58
ATOM     65  C48 UNL A   1      18.417  46.889  -1.683  1.00  0.00    +0.000 C 
ATOM     66  F9  UNL A   1      19.549  46.187  -1.542  1.00  0.00    +0.000 F 
ATOM     67  C49 UNL A   1      18.031  47.791  -0.694  1.00  0.00    +0.000 C 
ATOM     68  F10 UNL A   1      18.806  47.936   0.391  1.00  0.00    +0.000 F 
ATOM     58  C44 UNL A   1      16.851  48.535  -0.825  1.00  0.00    +0.000 C 
ATOM     59  C45 UNL A   1      16.070  48.346  -1.973  1.00  0.00    +0.000 C 
ATOM     60  F6  UNL A   1      14.923  49.027  -2.127  1.00  0.00    +0.000 F 
ATOM     61  C46 UNL A   1      16.454  47.438  -2.954  1.00  0.00    +0.000 C 
ATOM     62  F7  UNL A   1      15.682  47.254  -4.034  1.00  0.00    +0.000 F 
ATOM     63  C47 UNL A   1      17.627  46.713  -2.810  1.00  0.00    +0.000 C 
ATOM     64  F8  UNL A   1      17.993  45.835  -3.755  1.00  0.00    +0.000 F 
ENDBRANCH   57   58
BRANCH   72   73
ATOM     73  C53 UNL A   1      12.478  48.145   4.561  1.00  0.00    +0.000 C 
ATOM     74  C54 UNL A   1      11.213  47.873   4.027  1.00  0.00    +0.000 C 
ATOM     75  F11 UNL A   1      10.730  48.629   3.031  1.00  0.00    +0.000 F 
ATOM     76  C55 UNL A   1      10.436  46.831   4.528  1.00  0.00    +0.000 C 
ATOM     77  F12 UNL A   1       9.223  46.594   4.010  1.00  0.00    +0.000 F 
ATOM     78  C56 UNL A   1      10.915  46.040   5.562  1.00  0.00    +0.000 C 
ATOM     79  F13 UNL A   1      10.170  45.034   6.038  1.00  0.00    +0.000 F 
ATOM     80  C57 UNL A   1      12.166  46.295   6.105  1.00  0.00    +0.000 C 
ATOM     81  F14 UNL A   1      12.631  45.532   7.103  1.00  0.00    +0.000 F 
ATOM     82  C58 UNL A   1      12.939  47.343   5.614  1.00  0.00    +0.000 C 
ATOM     83  F15 UNL A   1      14.144  47.575   6.154  1.00  0.00    +0.000 F 
ENDBRANCH   72   73
TORSDOF 18
ENDMDL
MODEL 6
REMARK VINA RESULT:      -9.3      1.199      3.352
ROOT
ATOM    129  H35 UNL A   1      16.483  56.773   2.753  1.00  0.00    +0.000 H 
ATOM    130  H36 UNL A   1      14.965  56.525   4.803  1.00  0.00    +0.000 H 
ATOM     36  C29 UNL A   1      13.956  53.883   5.167  1.00  0.00    +0.000 C 
ATOM     37  C30 UNL A   1      14.903  54.367   4.110  1.00  0.00    +0.000 C 
ATOM     38  N4  UNL A   1      15.469  53.691   3.142  1.00  0.00    +0.000 N 
ATOM     39  C31 UNL A   1      16.233  54.608   2.436  1.00  0.00    +0.000 C 
ATOM     40  C32 UNL A   1      17.023  54.391   1.357  1.00  0.00    +0.000 C 
ATOM     52  C39 UNL A   1      17.242  53.109   0.742  1.00  0.00    +0.000 C 
ATOM     53  C40 UNL A   1      18.136  52.773  -0.261  1.00  0.00    +0.000 C 
ATOM     54  C41 UNL A   1      17.957  51.418  -0.570  1.00  0.00    +0.000 C 
ATOM     55  C42 UNL A   1      16.962  50.912   0.249  1.00  0.00    +0.000 C 
ATOM     56  N5  UNL A   1      16.546  51.955   1.061  1.00  0.00    +0.000 N 
ATOM     57  C43 UNL A   1      16.412  49.584   0.284  1.00  0.00    +0.000 C 
ATOM     69  C50 UNL A   1      15.541  49.131   1.216  1.00  0.00    +0.000 C 
ATOM     70  N6  UNL A   1      14.980  49.817   2.282  1.00  0.00    +0.000 N 
ATOM     71  C51 UNL A   1      14.198  48.960   2.888  1.00  0.00    +0.000 C 
ATOM     72  C52 UNL A   1      13.335  49.163   4.095  1.00  0.00    +0.000 C 
ATOM     84  C59 UNL A   1      13.274  50.373   4.679  1.00  0.00    +0.000 C 
ATOM     85  C60 UNL A   1      12.458  50.708   5.842  1.00  0.00    +0.000 C 
ATOM     86  C61 UNL A   1      12.614  52.011   6.125  1.00  0.00    +0.000 C 
ATOM     87  C62 UNL A   1      13.562  52.595   5.176  1.00  0.00    +0.000 C 
ATOM     88  N7  UNL A   1      13.904  51.549   4.356  1.00  0.00    +0.000 N 
ATOM     89  C63 UNL A   1      14.177  47.623   2.276  1.00  0.00    +0.000 C 
ATOM     90  C64 UNL A   1      15.019  47.780   1.263  1.00  0.00    +0.000 C 
ATOM     91  C65 UNL A   1      16.051  55.894   3.077  1.00  0.00    +0.000 C 
ATOM     92  C66 UNL A   1      15.257  55.793   4.135  1.00  0.00    +0.000 C 
ATOM    121  H27 UNL A   1      18.816  53.410  -0.704  1.00  0.00    +0.000 H 
ATOM    122  H28 UNL A   1      18.478  50.888  -1.286  1.00  0.00    +0.000 H 
ATOM    123  H29 UNL A   1      15.858  51.886   1.763  1.00  0.00    +0.000 H 
ATOM    124  H30 UNL A   1      11.858  50.050   6.363  1.00  0.00    +0.000 H 
ATOM    125  H31 UNL A   1      12.141  52.519   6.889  1.00  0.00    +0.000 H 
ATOM    126  H32 UNL A   1      14.540  51.634   3.610  1.00  0.00    +0.000 H 
ATOM    127  H33 UNL A   1      13.647  46.784   2.559  1.00  0.00    +0.000 H 
ATOM    128  H34 UNL A   1      15.270  47.035   0.594  1.00  0.00    +0.000 H 
ENDROOT
BRANCH   36   35
ATOM     33  C26 UNL A   1      11.767  56.464   6.865  1.00  0.00    +0.000 C 
ATOM     34  C27 UNL A   1      12.220  55.504   5.957  1.00  0.00    +0.000 C 
ATOM     35  C28 UNL A   1      13.413  54.804   6.194  1.00  0.00    +0.000 C 
ATOM    132  H38 UNL A   1      14.179  56.157   9.172  1.00  0.00    +0.000 H 
ATOM    131  H37 UNL A   1      15.012  54.554   7.555  1.00  0.00    +0.000 H 
ATOM    119  H25 UNL A   1      10.916  57.009   6.657  1.00  0.00    +0.000 H 
ATOM    120  H26 UNL A   1      11.673  55.307   5.104  1.00  0.00    +0.000 H 
ATOM     93  C67 UNL A   1      14.130  55.057   7.373  1.00  0.00    +0.000 C 
ATOM     94  C68 UNL A   1      13.653  55.986   8.300  1.00  0.00    +0.000 C 
ATOM     32  C25 UNL A   1      12.465  56.689   8.055  1.00  0.00    +0.000 C 
BRANCH   32    2
ATOM      1  O1  UNL A   1      12.419  58.887   8.862  1.00  0.00    +0.000 O 
ATOM      2  C1  UNL A   1      12.057  57.725   9.036  1.00  0.00    +0.000 C 
BRANCH    2    3
ATOM      3  N1  UNL A   1      11.299  57.420  10.137  1.00  0.00    +0.000 N 
ATOM     95  H1  UNL A   1      11.464  57.988  10.923  1.00  0.00    +0.000 H 
BRANCH    3    4
ATOM     97  H3  UNL A   1       9.640  56.724  11.105  1.00  0.00    +0.000 H 
ATOM      4  C2  UNL A   1      10.293  56.392  10.326  1.00  0.00    +0.000 C 
ATOM     96  H2  UNL A   1       9.774  56.250   9.402  1.00  0.00    +0.000 H 
BRANCH    4    5
ATOM     98  H4  UNL A   1      10.411  54.777  11.682  1.00  0.00    +0.000 H 
ATOM     99  H5  UNL A   1      11.937  55.220  10.838  1.00  0.00    +0.000 H 
ATOM      5  C3  UNL A   1      10.882  55.056  10.763  1.00  0.00    +0.000 C 
BRANCH    5    6
ATOM    100  H6  UNL A   1      10.531  54.302   8.814  1.00  0.00    +0.000 H 
ATOM    101  H7  UNL A   1       9.916  53.298  10.170  1.00  0.00    +0.000 H 
ATOM      6  C4  UNL A   1      10.719  53.891   9.785  1.00  0.00    +0.000 C 
BRANCH    6    7
ATOM    103  H9  UNL A   1      12.334  53.130   8.700  1.00  0.00    +0.000 H 
ATOM    102  H8  UNL A   1      12.577  53.151  10.483  1.00  0.00    +0.000 H 
ATOM      7  C5  UNL A   1      11.915  52.944   9.668  1.00  0.00    +0.000 C 
BRANCH    7    8
ATOM    105  H11 UNL A   1      11.406  51.173   8.675  1.00  0.00    +0.000 H 
ATOM    104  H10 UNL A   1      12.438  50.940  10.129  1.00  0.00    +0.000 H 
ATOM      8  C6  UNL A   1      11.599  51.442   9.693  1.00  0.00    +0.000 C 
BRANCH    8    9
ATOM      9  C7  UNL A   1      10.350  51.027  10.471  1.00  0.00    +0.000 C 
ATOM    106  H12 UNL A   1       9.705  50.483   9.814  1.00  0.00    +0.000 H 
ATOM    107  H13 UNL A   1       9.889  51.921  10.836  1.00  0.00    +0.000 H 
BRANCH    9   10
ATOM     10  N2  UNL A   1      10.650  50.192  11.622  1.00  0.00    +0.000 N 
ATOM    108  H14 UNL A   1      11.303  50.554  12.264  1.00  0.00    +0.000 H 
BRANCH   10   11
ATOM     11  C8  UNL A   1      10.128  48.958  11.918  1.00  0.00    +0.000 C 
ATOM     12  O2  UNL A   1       9.963  48.616  13.087  1.00  0.00    +0.000 O 
BRANCH   11   13
ATOM     13  C9  UNL A   1       9.710  48.038  10.849  1.00  0.00    +0.000 C 
ATOM     14  C10 UNL A   1       8.350  48.010  10.512  1.00  0.00    +0.000 C 
ATOM    109  H15 UNL A   1       7.686  48.633  10.996  1.00  0.00    +0.000 H 
ATOM     15  C11 UNL A   1       7.891  47.138   9.522  1.00  0.00    +0.000 C 
ATOM     17  C13 UNL A   1      10.132  46.301   9.236  1.00  0.00    +0.000 C 
ATOM     18  C14 UNL A   1      10.610  47.169  10.228  1.00  0.00    +0.000 C 
ATOM    110  H16 UNL A   1       6.892  47.129   9.264  1.00  0.00    +0.000 H 
ATOM    112  H18 UNL A   1      10.790  45.666   8.758  1.00  0.00    +0.000 H 
ATOM     16  C12 UNL A   1       8.783  46.281   8.884  1.00  0.00    +0.000 C 
ATOM    111  H17 UNL A   1       8.448  45.635   8.153  1.00  0.00    +0.000 H 
BRANCH   18   19
ATOM     19  N3  UNL A   1      11.991  47.193  10.405  1.00  0.00    +0.000 N 
BRANCH   19   20
ATOM    113  H19 UNL A   1      12.438  48.154   8.660  1.00  0.00    +0.000 H 
ATOM     20  C15 UNL A   1      12.767  47.821   9.580  1.00  0.00    +0.000 C 
BRANCH   20   21
ATOM     26  C20 UNL A   1      16.582  50.948   6.959  1.00  0.00    +0.000 C 
ATOM    117  H23 UNL A   1      15.788  52.825   7.525  1.00  0.00    +0.000 H 
ATOM    114  H20 UNL A   1      14.807  46.278   9.214  1.00  0.00    +0.000 H 
ATOM    115  H21 UNL A   1      17.266  48.959   6.706  1.00  0.00    +0.000 H 
ATOM    116  H22 UNL A   1      17.010  51.298   6.088  1.00  0.00    +0.000 H 
ATOM     21  C16 UNL A   1      14.154  48.029  10.044  1.00  0.00    +0.000 C 
ATOM     22  C17 UNL A   1      15.018  47.279   9.340  1.00  0.00    +0.000 C 
ATOM     23  O3  UNL A   1      16.181  47.786   8.774  1.00  0.00    +0.000 O 
ATOM     24  C18 UNL A   1      16.114  49.130   8.462  1.00  0.00    +0.000 C 
ATOM    118  H24 UNL A   1      14.750  52.004   9.570  1.00  0.00    +0.000 H 
ATOM     25  C19 UNL A   1      16.720  49.598   7.304  1.00  0.00    +0.000 C 
ATOM     27  C21 UNL A   1      15.868  51.829   7.783  1.00  0.00    +0.000 C 
ATOM     28  C22 UNL A   1      15.269  51.362   8.952  1.00  0.00    +0.000 C 
ATOM     29  C23 UNL A   1      15.385  50.009   9.266  1.00  0.00    +0.000 C 
ATOM     30  C24 UNL A   1      14.612  49.405  10.354  1.00  0.00    +0.000 C 
ATOM     31  O4  UNL A   1      14.301  50.008  11.369  1.00  0.00    +0.000 O 
ENDBRANCH   20   21
ENDBRANCH   19   20
ENDBRANCH   18   19
ENDBRANCH   11   13
ENDBRANCH   10   11
ENDBRANCH    9   10
ENDBRANCH    8    9
ENDBRANCH    7    8
ENDBRANCH    6    7
ENDBRANCH    5    6
ENDBRANCH    4    5
ENDBRANCH    3    4
ENDBRANCH    2    3
ENDBRANCH   32    2
ENDBRANCH   36   35
BRANCH   40   41
ATOM     41  C33 UNL A   1      17.727  55.572   0.770  1.00  0.00    +0.000 C 
ATOM     42  C34 UNL A   1      18.985  55.974   1.237  1.00  0.00    +0.000 C 
ATOM     43  F1  UNL A   1      19.558  55.336   2.269  1.00  0.00    +0.000 F 
ATOM     44  C35 UNL A   1      19.655  57.041   0.647  1.00  0.00    +0.000 C 
ATOM     45  F2  UNL A   1      20.854  57.418   1.112  1.00  0.00    +0.000 F 
ATOM     46  C36 UNL A   1      19.084  57.717  -0.422  1.00  0.00    +0.000 C 
ATOM     47  F3  UNL A   1      19.734  58.742  -0.991  1.00  0.00    +0.000 F 
ATOM     48  C37 UNL A   1      17.838  57.334  -0.898  1.00  0.00    +0.000 C 
ATOM     49  F4  UNL A   1      17.287  57.987  -1.930  1.00  0.00    +0.000 F 
ATOM     50  C38 UNL A   1      17.162  56.271  -0.305  1.00  0.00    +0.000 C 
ATOM     51  F5  UNL A   1      15.958  55.921  -0.782  1.00  0.00    +0.000 F 
ENDBRANCH   40   41
BRANCH   57   58
ATOM     65  C48 UNL A   1      16.431  47.499  -2.893  1.00  0.00    +0.000 C 
ATOM     66  F9  UNL A   1      15.666  47.317  -3.978  1.00  0.00    +0.000 F 
ATOM     67  C49 UNL A   1      16.047  48.416  -1.918  1.00  0.00    +0.000 C 
ATOM     68  F10 UNL A   1      14.910  49.108  -2.088  1.00  0.00    +0.000 F 
ATOM     58  C44 UNL A   1      16.833  48.619  -0.776  1.00  0.00    +0.000 C 
ATOM     59  C45 UNL A   1      18.016  47.878  -0.643  1.00  0.00    +0.000 C 
ATOM     60  F6  UNL A   1      18.806  48.056   0.427  1.00  0.00    +0.000 F 
ATOM     61  C46 UNL A   1      18.401  46.970  -1.625  1.00  0.00    +0.000 C 
ATOM     62  F7  UNL A   1      19.547  46.288  -1.491  1.00  0.00    +0.000 F 
ATOM     63  C47 UNL A   1      17.608  46.779  -2.746  1.00  0.00    +0.000 C 
ATOM     64  F8  UNL A   1      17.983  45.906  -3.692  1.00  0.00    +0.000 F 
ENDBRANCH   57   58
BRANCH   72   73
ATOM     73  C53 UNL A   1      12.532  48.052   4.652  1.00  0.00    +0.000 C 
ATOM     74  C54 UNL A   1      11.300  47.704   4.085  1.00  0.00    +0.000 C 
ATOM     75  F11 UNL A   1      10.812  48.412   3.056  1.00  0.00    +0.000 F 
ATOM     76  C55 UNL A   1      10.562  46.635   4.586  1.00  0.00    +0.000 C 
ATOM     77  F12 UNL A   1       9.379  46.324   4.036  1.00  0.00    +0.000 F 
ATOM     78  C56 UNL A   1      11.046  45.893   5.653  1.00  0.00    +0.000 C 
ATOM     79  F13 UNL A   1      10.338  44.860   6.129  1.00  0.00    +0.000 F 
ATOM     80  C57 UNL A   1      12.264  46.223   6.228  1.00  0.00    +0.000 C 
ATOM     81  F14 UNL A   1      12.735  45.507   7.258  1.00  0.00    +0.000 F 
ATOM     82  C58 UNL A   1      12.998  47.298   5.737  1.00  0.00    +0.000 C 
ATOM     83  F15 UNL A   1      14.173  47.604   6.309  1.00  0.00    +0.000 F 
ENDBRANCH   72   73
TORSDOF 18
ENDMDL
MODEL 7
REMARK VINA RESULT:      -9.2      2.679      7.861
ROOT
ATOM    129  H35 UNL A   1      15.232  46.994   0.608  1.00  0.00    +0.000 H 
ATOM    130  H36 UNL A   1      13.500  47.067   2.495  1.00  0.00    +0.000 H 
ATOM     36  C29 UNL A   1      13.158  49.658   3.636  1.00  0.00    +0.000 C 
ATOM     37  C30 UNL A   1      14.044  49.269   2.490  1.00  0.00    +0.000 C 
ATOM     38  N4  UNL A   1      14.839  50.022   1.772  1.00  0.00    +0.000 N 
ATOM     39  C31 UNL A   1      15.446  49.172   0.861  1.00  0.00    +0.000 C 
ATOM     40  C32 UNL A   1      16.336  49.480  -0.113  1.00  0.00    +0.000 C 
ATOM     52  C39 UNL A   1      16.810  50.807  -0.405  1.00  0.00    +0.000 C 
ATOM     53  C40 UNL A   1      17.598  51.230  -1.461  1.00  0.00    +0.000 C 
ATOM     54  C41 UNL A   1      17.844  52.600  -1.302  1.00  0.00    +0.000 C 
ATOM     55  C42 UNL A   1      17.199  53.028  -0.155  1.00  0.00    +0.000 C 
ATOM     56  N5  UNL A   1      16.553  51.922   0.375  1.00  0.00    +0.000 N 
ATOM     57  C43 UNL A   1      17.180  54.340   0.433  1.00  0.00    +0.000 C 
ATOM     69  C50 UNL A   1      16.404  54.709   1.478  1.00  0.00    +0.000 C 
ATOM     70  N6  UNL A   1      15.514  53.939   2.210  1.00  0.00    +0.000 N 
ATOM     71  C51 UNL A   1      15.013  54.737   3.118  1.00  0.00    +0.000 C 
ATOM     72  C52 UNL A   1      14.009  54.431   4.189  1.00  0.00    +0.000 C 
ATOM     84  C59 UNL A   1      13.530  53.181   4.321  1.00  0.00    +0.000 C 
ATOM     85  C60 UNL A   1      12.571  52.750   5.332  1.00  0.00    +0.000 C 
ATOM     86  C61 UNL A   1      12.351  51.432   5.193  1.00  0.00    +0.000 C 
ATOM     87  C62 UNL A   1      13.138  50.935   4.064  1.00  0.00    +0.000 C 
ATOM     88  N7  UNL A   1      13.805  52.043   3.605  1.00  0.00    +0.000 N 
ATOM     89  C63 UNL A   1      15.526  56.113   3.064  1.00  0.00    +0.000 C 
ATOM     90  C64 UNL A   1      16.368  56.044   2.042  1.00  0.00    +0.000 C 
ATOM     91  C65 UNL A   1      14.939  47.841   1.120  1.00  0.00    +0.000 C 
ATOM     92  C66 UNL A   1      14.048  47.850   2.104  1.00  0.00    +0.000 C 
ATOM    121  H27 UNL A   1      17.945  50.639  -2.233  1.00  0.00    +0.000 H 
ATOM    122  H28 UNL A   1      18.410  53.189  -1.934  1.00  0.00    +0.000 H 
ATOM    123  H29 UNL A   1      15.993  51.929   1.186  1.00  0.00    +0.000 H 
ATOM    124  H30 UNL A   1      12.130  53.358   6.040  1.00  0.00    +0.000 H 
ATOM    125  H31 UNL A   1      11.728  50.863   5.786  1.00  0.00    +0.000 H 
ATOM    126  H32 UNL A   1      14.420  52.024   2.837  1.00  0.00    +0.000 H 
ATOM    127  H33 UNL A   1      15.293  56.920   3.665  1.00  0.00    +0.000 H 
ATOM    128  H34 UNL A   1      16.924  56.839   1.691  1.00  0.00    +0.000 H 
ENDROOT
BRANCH   36   35
ATOM     33  C26 UNL A   1      10.125  47.708   4.793  1.00  0.00    +0.000 C 
ATOM     34  C27 UNL A   1      10.946  48.563   4.052  1.00  0.00    +0.000 C 
ATOM     35  C28 UNL A   1      12.318  48.656   4.335  1.00  0.00    +0.000 C 
ATOM    132  H38 UNL A   1      12.458  46.374   6.795  1.00  0.00    +0.000 H 
ATOM    131  H37 UNL A   1      13.868  47.921   5.571  1.00  0.00    +0.000 H 
ATOM    119  H25 UNL A   1       9.110  47.684   4.611  1.00  0.00    +0.000 H 
ATOM    120  H26 UNL A   1      10.541  49.131   3.291  1.00  0.00    +0.000 H 
ATOM     93  C67 UNL A   1      12.862  47.856   5.349  1.00  0.00    +0.000 C 
ATOM     94  C68 UNL A   1      12.048  46.971   6.060  1.00  0.00    +0.000 C 
ATOM     32  C25 UNL A   1      10.677  46.886   5.780  1.00  0.00    +0.000 C 
BRANCH   32    2
ATOM      1  O1  UNL A   1       9.867  44.782   6.413  1.00  0.00    +0.000 O 
ATOM      2  C1  UNL A   1       9.850  45.992   6.627  1.00  0.00    +0.000 C 
BRANCH    2    3
ATOM      3  N1  UNL A   1       9.057  46.481   7.634  1.00  0.00    +0.000 N 
ATOM     95  H1  UNL A   1       8.210  46.883   7.335  1.00  0.00    +0.000 H 
BRANCH    3    4
ATOM     97  H3  UNL A   1       8.557  47.177   9.489  1.00  0.00    +0.000 H 
ATOM      4  C2  UNL A   1       9.269  46.499   9.069  1.00  0.00    +0.000 C 
ATOM     96  H2  UNL A   1       9.142  45.505   9.444  1.00  0.00    +0.000 H 
BRANCH    4    5
ATOM     98  H4  UNL A   1      11.373  46.427   8.902  1.00  0.00    +0.000 H 
ATOM     99  H5  UNL A   1      10.718  46.863  10.520  1.00  0.00    +0.000 H 
ATOM      5  C3  UNL A   1      10.657  46.993   9.460  1.00  0.00    +0.000 C 
BRANCH    5    6
ATOM    100  H6  UNL A   1      10.433  49.038   9.970  1.00  0.00    +0.000 H 
ATOM    101  H7  UNL A   1      10.601  48.676   8.219  1.00  0.00    +0.000 H 
ATOM      6  C4  UNL A   1      10.942  48.476   9.214  1.00  0.00    +0.000 C 
BRANCH    6    7
ATOM    103  H9  UNL A   1      12.695  49.009   8.212  1.00  0.00    +0.000 H 
ATOM    102  H8  UNL A   1      12.497  49.776   9.828  1.00  0.00    +0.000 H 
ATOM      7  C5  UNL A   1      12.416  48.887   9.238  1.00  0.00    +0.000 C 
BRANCH    7    8
ATOM    105  H11 UNL A   1      14.080  48.415  10.416  1.00  0.00    +0.000 H 
ATOM    104  H10 UNL A   1      12.831  47.123  10.342  1.00  0.00    +0.000 H 
ATOM      8  C6  UNL A   1      13.400  47.856   9.808  1.00  0.00    +0.000 C 
BRANCH    8    9
ATOM      9  C7  UNL A   1      14.271  47.119   8.789  1.00  0.00    +0.000 C 
ATOM    106  H12 UNL A   1      13.967  47.413   7.806  1.00  0.00    +0.000 H 
ATOM    107  H13 UNL A   1      14.137  46.070   8.953  1.00  0.00    +0.000 H 
BRANCH    9   10
ATOM     10  N2  UNL A   1      15.687  47.405   8.941  1.00  0.00    +0.000 N 
ATOM    108  H14 UNL A   1      16.257  46.649   9.211  1.00  0.00    +0.000 H 
BRANCH   10   11
ATOM     11  C8  UNL A   1      16.323  48.606   8.751  1.00  0.00    +0.000 C 
ATOM     12  O2  UNL A   1      16.885  49.169   9.688  1.00  0.00    +0.000 O 
BRANCH   11   13
ATOM     13  C9  UNL A   1      16.387  49.224   7.418  1.00  0.00    +0.000 C 
ATOM     14  C10 UNL A   1      16.556  48.375   6.316  1.00  0.00    +0.000 C 
ATOM    109  H15 UNL A   1      16.613  47.354   6.456  1.00  0.00    +0.000 H 
ATOM     15  C11 UNL A   1      16.648  48.907   5.027  1.00  0.00    +0.000 C 
ATOM     17  C13 UNL A   1      16.443  51.127   5.942  1.00  0.00    +0.000 C 
ATOM     18  C14 UNL A   1      16.349  50.610   7.242  1.00  0.00    +0.000 C 
ATOM    110  H16 UNL A   1      16.758  48.280   4.216  1.00  0.00    +0.000 H 
ATOM    112  H18 UNL A   1      16.400  52.147   5.797  1.00  0.00    +0.000 H 
ATOM     16  C12 UNL A   1      16.593  50.285   4.840  1.00  0.00    +0.000 C 
ATOM    111  H17 UNL A   1      16.662  50.682   3.890  1.00  0.00    +0.000 H 
BRANCH   18   19
ATOM     19  N3  UNL A   1      16.072  51.533   8.248  1.00  0.00    +0.000 N 
BRANCH   19   20
ATOM    113  H19 UNL A   1      14.083  51.734   7.834  1.00  0.00    +0.000 H 
ATOM     20  C15 UNL A   1      14.864  51.940   8.476  1.00  0.00    +0.000 C 
BRANCH   20   21
ATOM     26  C20 UNL A   1      11.393  50.574  12.634  1.00  0.00    +0.000 C 
ATOM    117  H23 UNL A   1      12.573  49.011  13.431  1.00  0.00    +0.000 H 
ATOM    114  H20 UNL A   1      13.354  54.007   8.836  1.00  0.00    +0.000 H 
ATOM    115  H21 UNL A   1      10.516  52.293  11.758  1.00  0.00    +0.000 H 
ATOM    116  H22 UNL A   1      10.498  50.178  12.961  1.00  0.00    +0.000 H 
ATOM     21  C16 UNL A   1      14.680  52.722   9.716  1.00  0.00    +0.000 C 
ATOM     22  C17 UNL A   1      13.544  53.437   9.674  1.00  0.00    +0.000 C 
ATOM     23  O3  UNL A   1      12.612  53.446  10.704  1.00  0.00    +0.000 O 
ATOM     24  C18 UNL A   1      12.603  52.292  11.464  1.00  0.00    +0.000 C 
ATOM    118  H24 UNL A   1      14.688  49.921  12.637  1.00  0.00    +0.000 H 
ATOM     25  C19 UNL A   1      11.398  51.784  11.929  1.00  0.00    +0.000 C 
ATOM     27  C21 UNL A   1      12.589  49.894  12.897  1.00  0.00    +0.000 C 
ATOM     28  C22 UNL A   1      13.801  50.408  12.440  1.00  0.00    +0.000 C 
ATOM     29  C23 UNL A   1      13.788  51.596  11.711  1.00  0.00    +0.000 C 
ATOM     30  C24 UNL A   1      14.985  52.086  11.020  1.00  0.00    +0.000 C 
ATOM     31  O4  UNL A   1      16.119  51.904  11.436  1.00  0.00    +0.000 O 
ENDBRANCH   20   21
ENDBRANCH   19   20
ENDBRANCH   18   19
ENDBRANCH   11   13
ENDBRANCH   10   11
ENDBRANCH    9   10
ENDBRANCH    8    9
ENDBRANCH    7    8
ENDBRANCH    6    7
ENDBRANCH    5    6
ENDBRANCH    4    5
ENDBRANCH    3    4
ENDBRANCH    2    3
ENDBRANCH   32    2
ENDBRANCH   36   35
BRANCH   40   41
ATOM     41  C33 UNL A   1      16.855  48.357  -0.951  1.00  0.00    +0.000 C 
ATOM     42  C34 UNL A   1      16.149  47.899  -2.071  1.00  0.00    +0.000 C 
ATOM     43  F1  UNL A   1      14.953  48.425  -2.376  1.00  0.00    +0.000 F 
ATOM     44  C35 UNL A   1      16.667  46.889  -2.876  1.00  0.00    +0.000 C 
ATOM     45  F2  UNL A   1      15.973  46.456  -3.937  1.00  0.00    +0.000 F 
ATOM     46  C36 UNL A   1      17.902  46.328  -2.581  1.00  0.00    +0.000 C 
ATOM     47  F3  UNL A   1      18.402  45.359  -3.361  1.00  0.00    +0.000 F 
ATOM     48  C37 UNL A   1      18.616  46.769  -1.476  1.00  0.00    +0.000 C 
ATOM     49  F4  UNL A   1      19.809  46.227  -1.192  1.00  0.00    +0.000 F 
ATOM     50  C38 UNL A   1      18.097  47.774  -0.665  1.00  0.00    +0.000 C 
ATOM     51  F5  UNL A   1      18.806  48.181   0.398  1.00  0.00    +0.000 F 
ENDBRANCH   40   41
BRANCH   57   58
ATOM     65  C48 UNL A   1      20.081  56.748  -0.047  1.00  0.00    +0.000 C 
ATOM     66  F9  UNL A   1      21.214  57.091   0.580  1.00  0.00    +0.000 F 
ATOM     67  C49 UNL A   1      19.263  55.757   0.488  1.00  0.00    +0.000 C 
ATOM     68  F10 UNL A   1      19.632  55.156   1.630  1.00  0.00    +0.000 F 
ATOM     58  C44 UNL A   1      18.073  55.386  -0.152  1.00  0.00    +0.000 C 
ATOM     59  C45 UNL A   1      17.730  56.037  -1.346  1.00  0.00    +0.000 C 
ATOM     60  F6  UNL A   1      16.608  55.699  -1.999  1.00  0.00    +0.000 F 
ATOM     61  C46 UNL A   1      18.555  57.020  -1.883  1.00  0.00    +0.000 C 
ATOM     62  F7  UNL A   1      18.222  57.615  -3.036  1.00  0.00    +0.000 F 
ATOM     63  C47 UNL A   1      19.727  57.377  -1.232  1.00  0.00    +0.000 C 
ATOM     64  F8  UNL A   1      20.522  58.322  -1.754  1.00  0.00    +0.000 F 
ENDBRANCH   57   58
BRANCH   72   73
ATOM     73  C53 UNL A   1      13.543  55.485   5.116  1.00  0.00    +0.000 C 
ATOM     74  C54 UNL A   1      14.112  55.623   6.388  1.00  0.00    +0.000 C 
ATOM     75  F11 UNL A   1      15.056  54.763   6.797  1.00  0.00    +0.000 F 
ATOM     76  C55 UNL A   1      13.699  56.638   7.248  1.00  0.00    +0.000 C 
ATOM     77  F12 UNL A   1      14.248  56.746   8.466  1.00  0.00    +0.000 F 
ATOM     78  C56 UNL A   1      12.720  57.535   6.847  1.00  0.00    +0.000 C 
ATOM     79  F13 UNL A   1      12.328  58.515   7.672  1.00  0.00    +0.000 F 
ATOM     80  C57 UNL A   1      12.144  57.413   5.591  1.00  0.00    +0.000 C 
ATOM     81  F14 UNL A   1      11.199  58.279   5.200  1.00  0.00    +0.000 F 
ATOM     82  C58 UNL A   1      12.547  56.393   4.735  1.00  0.00    +0.000 C 
ATOM     83  F15 UNL A   1      11.976  56.291   3.525  1.00  0.00    +0.000 F 
ENDBRANCH   72   73
TORSDOF 18
ENDMDL
MODEL 8
REMARK VINA RESULT:      -9.2      2.613      7.585
ROOT
ATOM    129  H35 UNL A   1      12.021  53.154   6.063  1.00  0.00    +0.000 H 
ATOM    130  H36 UNL A   1      11.641  50.641   5.736  1.00  0.00    +0.000 H 
ATOM     36  C29 UNL A   1      13.210  49.509   3.641  1.00  0.00    +0.000 C 
ATOM     37  C30 UNL A   1      13.219  50.926   4.133  1.00  0.00    +0.000 C 
ATOM     38  N4  UNL A   1      13.942  51.936   3.717  1.00  0.00    +0.000 N 
ATOM     39  C31 UNL A   1      13.551  53.023   4.484  1.00  0.00    +0.000 C 
ATOM     40  C32 UNL A   1      14.023  54.292   4.447  1.00  0.00    +0.000 C 
ATOM     52  C39 UNL A   1      15.078  54.753   3.584  1.00  0.00    +0.000 C 
ATOM     53  C40 UNL A   1      15.717  55.981   3.580  1.00  0.00    +0.000 C 
ATOM     54  C41 UNL A   1      16.644  55.988   2.530  1.00  0.00    +0.000 C 
ATOM     55  C42 UNL A   1      16.589  54.760   1.892  1.00  0.00    +0.000 C 
ATOM     56  N5  UNL A   1      15.639  54.006   2.561  1.00  0.00    +0.000 N 
ATOM     57  C43 UNL A   1      17.331  54.306   0.747  1.00  0.00    +0.000 C 
ATOM     69  C50 UNL A   1      17.323  53.038   0.273  1.00  0.00    +0.000 C 
ATOM     70  N6  UNL A   1      16.610  51.944   0.739  1.00  0.00    +0.000 N 
ATOM     71  C51 UNL A   1      16.928  50.948  -0.048  1.00  0.00    +0.000 C 
ATOM     72  C52 UNL A   1      16.444  49.530  -0.014  1.00  0.00    +0.000 C 
ATOM     84  C59 UNL A   1      15.533  49.155   0.902  1.00  0.00    +0.000 C 
ATOM     85  C60 UNL A   1      14.966  47.817   1.027  1.00  0.00    +0.000 C 
ATOM     86  C61 UNL A   1      14.062  47.815   2.020  1.00  0.00    +0.000 C 
ATOM     87  C62 UNL A   1      14.007  49.150   2.616  1.00  0.00    +0.000 C 
ATOM     88  N7  UNL A   1      14.916  49.879   1.891  1.00  0.00    +0.000 N 
ATOM     89  C63 UNL A   1      17.888  51.295  -1.106  1.00  0.00    +0.000 C 
ATOM     90  C64 UNL A   1      18.101  52.581  -0.861  1.00  0.00    +0.000 C 
ATOM     91  C65 UNL A   1      12.518  52.556   5.385  1.00  0.00    +0.000 C 
ATOM     92  C66 UNL A   1      12.294  51.257   5.225  1.00  0.00    +0.000 C 
ATOM    121  H27 UNL A   1      15.540  56.758   4.236  1.00  0.00    +0.000 H 
ATOM    122  H28 UNL A   1      17.263  56.774   2.275  1.00  0.00    +0.000 H 
ATOM    123  H29 UNL A   1      15.397  53.077   2.341  1.00  0.00    +0.000 H 
ATOM    124  H30 UNL A   1      15.218  47.001   0.446  1.00  0.00    +0.000 H 
ATOM    125  H31 UNL A   1      13.497  47.004   2.315  1.00  0.00    +0.000 H 
ATOM    126  H32 UNL A   1      15.108  50.829   2.064  1.00  0.00    +0.000 H 
ATOM    127  H33 UNL A   1      18.288  50.697  -1.845  1.00  0.00    +0.000 H 
ATOM    128  H34 UNL A   1      18.739  53.180  -1.408  1.00  0.00    +0.000 H 
ENDROOT
BRANCH   36   35
ATOM     33  C26 UNL A   1      10.078  47.596   4.569  1.00  0.00    +0.000 C 
ATOM     34  C27 UNL A   1      10.950  48.471   3.916  1.00  0.00    +0.000 C 
ATOM     35  C28 UNL A   1      12.315  48.492   4.242  1.00  0.00    +0.000 C 
ATOM    132  H38 UNL A   1      12.302  46.033   6.530  1.00  0.00    +0.000 H 
ATOM    131  H37 UNL A   1      13.801  47.610   5.461  1.00  0.00    +0.000 H 
ATOM    119  H25 UNL A   1       9.068  47.623   4.359  1.00  0.00    +0.000 H 
ATOM    120  H26 UNL A   1      10.588  49.107   3.188  1.00  0.00    +0.000 H 
ATOM     93  C67 UNL A   1      12.801  47.599   5.208  1.00  0.00    +0.000 C 
ATOM     94  C68 UNL A   1      11.935  46.696   5.830  1.00  0.00    +0.000 C 
ATOM     32  C25 UNL A   1      10.571  46.684   5.507  1.00  0.00    +0.000 C 
BRANCH   32    2
ATOM      1  O1  UNL A   1      10.033  44.592   6.413  1.00  0.00    +0.000 O 
ATOM      2  C1  UNL A   1       9.687  45.762   6.264  1.00  0.00    +0.000 C 
BRANCH    2    3
ATOM      3  N1  UNL A   1       8.491  46.178   6.791  1.00  0.00    +0.000 N 
ATOM     95  H1  UNL A   1       7.839  46.503   6.130  1.00  0.00    +0.000 H 
BRANCH    3    4
ATOM     97  H3  UNL A   1       7.237  46.921   8.222  1.00  0.00    +0.000 H 
ATOM      4  C2  UNL A   1       8.036  46.213   8.168  1.00  0.00    +0.000 C 
ATOM     96  H2  UNL A   1       7.718  45.230   8.447  1.00  0.00    +0.000 H 
BRANCH    4    5
ATOM     98  H4  UNL A   1       9.859  45.902   9.187  1.00  0.00    +0.000 H 
ATOM     99  H5  UNL A   1       8.609  46.851  10.066  1.00  0.00    +0.000 H 
ATOM      5  C3  UNL A   1       9.117  46.670   9.141  1.00  0.00    +0.000 C 
BRANCH    5    6
ATOM    100  H6  UNL A   1       9.378  48.759   9.386  1.00  0.00    +0.000 H 
ATOM    101  H7  UNL A   1       9.706  48.110   7.744  1.00  0.00    +0.000 H 
ATOM      6  C4  UNL A   1       9.825  47.983   8.800  1.00  0.00    +0.000 C 
BRANCH    6    7
ATOM    103  H9  UNL A   1      11.785  48.071   8.085  1.00  0.00    +0.000 H 
ATOM    102  H8  UNL A   1      11.540  48.850   9.688  1.00  0.00    +0.000 H 
ATOM      7  C5  UNL A   1      11.333  48.014   9.054  1.00  0.00    +0.000 C 
BRANCH    7    8
ATOM    105  H11 UNL A   1      11.774  46.888  10.762  1.00  0.00    +0.000 H 
ATOM    104  H10 UNL A   1      11.459  45.909   9.287  1.00  0.00    +0.000 H 
ATOM      8  C6  UNL A   1      11.939  46.766   9.712  1.00  0.00    +0.000 C 
BRANCH    8    9
ATOM      9  C7  UNL A   1      13.449  46.583   9.551  1.00  0.00    +0.000 C 
ATOM    106  H12 UNL A   1      13.640  45.570   9.267  1.00  0.00    +0.000 H 
ATOM    107  H13 UNL A   1      13.902  46.829  10.488  1.00  0.00    +0.000 H 
BRANCH    9   10
ATOM     10  N2  UNL A   1      14.023  47.462   8.547  1.00  0.00    +0.000 N 
ATOM    108  H14 UNL A   1      13.395  47.845   7.893  1.00  0.00    +0.000 H 
BRANCH   10   11
ATOM     11  C8  UNL A   1      15.340  47.820   8.403  1.00  0.00    +0.000 C 
ATOM     12  O2  UNL A   1      16.188  47.404   9.190  1.00  0.00    +0.000 O 
BRANCH   11   13
ATOM     13  C9  UNL A   1      15.775  48.668   7.283  1.00  0.00    +0.000 C 
ATOM     14  C10 UNL A   1      16.103  48.033   6.077  1.00  0.00    +0.000 C 
ATOM    109  H15 UNL A   1      16.018  47.008   5.995  1.00  0.00    +0.000 H 
ATOM     15  C11 UNL A   1      16.545  48.785   4.986  1.00  0.00    +0.000 C 
ATOM     17  C13 UNL A   1      16.370  50.790   6.311  1.00  0.00    +0.000 C 
ATOM     18  C14 UNL A   1      15.924  50.050   7.416  1.00  0.00    +0.000 C 
ATOM    110  H16 UNL A   1      16.772  48.318   4.095  1.00  0.00    +0.000 H 
ATOM    112  H18 UNL A   1      16.469  51.813   6.392  1.00  0.00    +0.000 H 
ATOM     16  C12 UNL A   1      16.680  50.165   5.104  1.00  0.00    +0.000 C 
ATOM    111  H17 UNL A   1      17.008  50.724   4.301  1.00  0.00    +0.000 H 
BRANCH   18   19
ATOM     19  N3  UNL A   1      15.523  50.791   8.525  1.00  0.00    +0.000 N 
BRANCH   19   20
ATOM    113  H19 UNL A   1      13.949  51.943   7.923  1.00  0.00    +0.000 H 
ATOM     20  C15 UNL A   1      14.326  51.277   8.614  1.00  0.00    +0.000 C 
BRANCH   20   21
ATOM     26  C20 UNL A   1      13.564  54.173  13.330  1.00  0.00    +0.000 C 
ATOM    117  H23 UNL A   1      12.169  55.554  12.543  1.00  0.00    +0.000 H 
ATOM    114  H20 UNL A   1      15.088  49.715  10.527  1.00  0.00    +0.000 H 
ATOM    115  H21 UNL A   1      14.815  52.560  13.898  1.00  0.00    +0.000 H 
ATOM    116  H22 UNL A   1      13.919  54.817  14.055  1.00  0.00    +0.000 H 
ATOM     21  C16 UNL A   1      13.536  50.814   9.774  1.00  0.00    +0.000 C 
ATOM     22  C17 UNL A   1      14.335  50.379  10.762  1.00  0.00    +0.000 C 
ATOM     23  O3  UNL A   1      14.198  50.781  12.085  1.00  0.00    +0.000 O 
ATOM     24  C18 UNL A   1      13.631  52.032  12.236  1.00  0.00    +0.000 C 
ATOM    118  H24 UNL A   1      11.344  54.054  10.811  1.00  0.00    +0.000 H 
ATOM     25  C19 UNL A   1      14.092  52.880  13.234  1.00  0.00    +0.000 C 
ATOM     27  C21 UNL A   1      12.560  54.604  12.452  1.00  0.00    +0.000 C 
ATOM     28  C22 UNL A   1      12.089  53.750  11.456  1.00  0.00    +0.000 C 
ATOM     29  C23 UNL A   1      12.647  52.477  11.350  1.00  0.00    +0.000 C 
ATOM     30  C24 UNL A   1      12.360  51.606  10.208  1.00  0.00    +0.000 C 
ATOM     31  O4  UNL A   1      11.290  51.604   9.620  1.00  0.00    +0.000 O 
ENDBRANCH   20   21
ENDBRANCH   19   20
ENDBRANCH   18   19
ENDBRANCH   11   13
ENDBRANCH   10   11
ENDBRANCH    9   10
ENDBRANCH    8    9
ENDBRANCH    7    8
ENDBRANCH    6    7
ENDBRANCH    5    6
ENDBRANCH    4    5
ENDBRANCH    3    4
ENDBRANCH    2    3
ENDBRANCH   32    2
ENDBRANCH   36   35
BRANCH   40   41
ATOM     41  C33 UNL A   1      13.404  55.285   5.378  1.00  0.00    +0.000 C 
ATOM     42  C34 UNL A   1      13.764  55.333   6.731  1.00  0.00    +0.000 C 
ATOM     43  F1  UNL A   1      14.633  54.441   7.231  1.00  0.00    +0.000 F 
ATOM     44  C35 UNL A   1      13.223  56.295   7.577  1.00  0.00    +0.000 C 
ATOM     45  F2  UNL A   1      13.571  56.321   8.872  1.00  0.00    +0.000 F 
ATOM     46  C36 UNL A   1      12.322  57.230   7.084  1.00  0.00    +0.000 C 
ATOM     47  F3  UNL A   1      11.806  58.159   7.901  1.00  0.00    +0.000 F 
ATOM     48  C37 UNL A   1      11.954  57.197   5.747  1.00  0.00    +0.000 C 
ATOM     49  F4  UNL A   1      11.084  58.099   5.272  1.00  0.00    +0.000 F 
ATOM     50  C38 UNL A   1      12.488  56.230   4.900  1.00  0.00    +0.000 C 
ATOM     51  F5  UNL A   1      12.115  56.219   3.611  1.00  0.00    +0.000 F 
ENDBRANCH   40   41
BRANCH   57   58
ATOM     65  C48 UNL A   1      20.183  56.669  -0.099  1.00  0.00    +0.000 C 
ATOM     66  F9  UNL A   1      21.343  57.075   0.437  1.00  0.00    +0.000 F 
ATOM     67  C49 UNL A   1      19.401  55.730   0.567  1.00  0.00    +0.000 C 
ATOM     68  F10 UNL A   1      19.829  55.242   1.741  1.00  0.00    +0.000 F 
ATOM     58  C44 UNL A   1      18.185  55.295   0.023  1.00  0.00    +0.000 C 
ATOM     59  C45 UNL A   1      17.780  55.828  -1.209  1.00  0.00    +0.000 C 
ATOM     60  F6  UNL A   1      16.631  55.425  -1.773  1.00  0.00    +0.000 F 
ATOM     61  C46 UNL A   1      18.570  56.760  -1.876  1.00  0.00    +0.000 C 
ATOM     62  F7  UNL A   1      18.177  57.241  -3.063  1.00  0.00    +0.000 F 
ATOM     63  C47 UNL A   1      19.768  57.182  -1.320  1.00  0.00    +0.000 C 
ATOM     64  F8  UNL A   1      20.529  58.076  -1.966  1.00  0.00    +0.000 F 
ENDBRANCH   57   58
BRANCH   72   73
ATOM     73  C53 UNL A   1      16.944  48.533  -0.986  1.00  0.00    +0.000 C 
ATOM     74  C54 UNL A   1      18.106  47.798  -0.724  1.00  0.00    +0.000 C 
ATOM     75  F11 UNL A   1      18.807  48.029   0.395  1.00  0.00    +0.000 F 
ATOM     76  C55 UNL A   1      18.556  46.833  -1.622  1.00  0.00    +0.000 C 
ATOM     77  F12 UNL A   1      19.678  46.148  -1.359  1.00  0.00    +0.000 F 
ATOM     78  C56 UNL A   1      17.848  46.582  -2.788  1.00  0.00    +0.000 C 
ATOM     79  F13 UNL A   1      18.280  45.649  -3.647  1.00  0.00    +0.000 F 
ATOM     80  C57 UNL A   1      16.695  47.301  -3.065  1.00  0.00    +0.000 C 
ATOM     81  F14 UNL A   1      16.009  47.060  -4.190  1.00  0.00    +0.000 F 
ATOM     82  C58 UNL A   1      16.249  48.274  -2.175  1.00  0.00    +0.000 C 
ATOM     83  F15 UNL A   1      15.133  48.960  -2.462  1.00  0.00    +0.000 F 
ENDBRANCH   72   73
TORSDOF 18
ENDMDL
MODEL 9
REMARK VINA RESULT:      -9.2     43.301     49.987
ROOT
ATOM    129  H35 UNL A   1       7.728   4.870  24.238  1.00  0.00    +0.000 H 
ATOM    130  H36 UNL A   1       9.274   2.900  23.694  1.00  0.00    +0.000 H 
ATOM     36  C29 UNL A   1      10.636   3.167  21.203  1.00  0.00    +0.000 C 
ATOM     37  C30 UNL A   1       9.703   4.147  21.849  1.00  0.00    +0.000 C 
ATOM     38  N4  UNL A   1       9.320   5.324  21.420  1.00  0.00    +0.000 N 
ATOM     39  C31 UNL A   1       8.440   5.808  22.376  1.00  0.00    +0.000 C 
ATOM     40  C32 UNL A   1       7.791   6.997  22.397  1.00  0.00    +0.000 C 
ATOM     52  C39 UNL A   1       7.926   8.025  21.400  1.00  0.00    +0.000 C 
ATOM     53  C40 UNL A   1       7.420   9.314  21.414  1.00  0.00    +0.000 C 
ATOM     54  C41 UNL A   1       7.767   9.933  20.206  1.00  0.00    +0.000 C 
ATOM     55  C42 UNL A   1       8.497   9.032  19.449  1.00  0.00    +0.000 C 
ATOM     56  N5  UNL A   1       8.604   7.874  20.201  1.00  0.00    +0.000 N 
ATOM     57  C43 UNL A   1       9.047   9.200  18.131  1.00  0.00    +0.000 C 
ATOM     69  C50 UNL A   1       9.875   8.321  17.520  1.00  0.00    +0.000 C 
ATOM     70  N6  UNL A   1      10.337   7.100  17.985  1.00  0.00    +0.000 N 
ATOM     71  C51 UNL A   1      11.099   6.620  17.036  1.00  0.00    +0.000 C 
ATOM     72  C52 UNL A   1      11.849   5.323  16.996  1.00  0.00    +0.000 C 
ATOM     84  C59 UNL A   1      11.755   4.463  18.027  1.00  0.00    +0.000 C 
ATOM     85  C60 UNL A   1      12.415   3.164  18.102  1.00  0.00    +0.000 C 
ATOM     86  C61 UNL A   1      12.066   2.562  19.250  1.00  0.00    +0.000 C 
ATOM     87  C62 UNL A   1      11.177   3.448  20.001  1.00  0.00    +0.000 C 
ATOM     88  N7  UNL A   1      11.050   4.555  19.200  1.00  0.00    +0.000 N 
ATOM     89  C63 UNL A   1      11.212   7.487  15.854  1.00  0.00    +0.000 C 
ATOM     90  C64 UNL A   1      10.451   8.515  16.204  1.00  0.00    +0.000 C 
ATOM     91  C65 UNL A   1       8.334   4.795  23.406  1.00  0.00    +0.000 C 
ATOM     92  C66 UNL A   1       9.117   3.756  23.139  1.00  0.00    +0.000 C 
ATOM    121  H27 UNL A   1       6.880   9.744  22.181  1.00  0.00    +0.000 H 
ATOM    122  H28 UNL A   1       7.520  10.896  19.928  1.00  0.00    +0.000 H 
ATOM    123  H29 UNL A   1       9.089   7.063  19.925  1.00  0.00    +0.000 H 
ATOM    124  H30 UNL A   1      13.048   2.770  17.388  1.00  0.00    +0.000 H 
ATOM    125  H31 UNL A   1      12.375   1.626  19.554  1.00  0.00    +0.000 H 
ATOM    126  H32 UNL A   1      10.507   5.339  19.444  1.00  0.00    +0.000 H 
ATOM    127  H33 UNL A   1      11.743   7.336  14.983  1.00  0.00    +0.000 H 
ATOM    128  H34 UNL A   1      10.289   9.347  15.615  1.00  0.00    +0.000 H 
ENDROOT
BRANCH   36   35
ATOM     33  C26 UNL A   1      12.586   0.379  22.863  1.00  0.00    +0.000 C 
ATOM     34  C27 UNL A   1      12.239   1.638  22.367  1.00  0.00    +0.000 C 
ATOM     35  C28 UNL A   1      10.957   1.870  21.845  1.00  0.00    +0.000 C 
ATOM    132  H38 UNL A   1       9.649  -1.171  22.410  1.00  0.00    +0.000 H 
ATOM    131  H37 UNL A   1       9.072   0.987  21.470  1.00  0.00    +0.000 H 
ATOM    119  H25 UNL A   1      13.546   0.204  23.198  1.00  0.00    +0.000 H 
ATOM    120  H26 UNL A   1      12.930   2.405  22.385  1.00  0.00    +0.000 H 
ATOM     93  C67 UNL A   1      10.016   0.831  21.857  1.00  0.00    +0.000 C 
ATOM     94  C68 UNL A   1      10.352  -0.415  22.392  1.00  0.00    +0.000 C 
ATOM     32  C25 UNL A   1      11.636  -0.645  22.905  1.00  0.00    +0.000 C 
BRANCH   32    2
ATOM      1  O1  UNL A   1      12.149  -2.903  22.551  1.00  0.00    +0.000 O 
ATOM      2  C1  UNL A   1      11.958  -2.014  23.379  1.00  0.00    +0.000 C 
BRANCH    2    3
ATOM      3  N1  UNL A   1      12.037  -2.317  24.714  1.00  0.00    +0.000 N 
ATOM     95  H1  UNL A   1      11.252  -2.783  25.080  1.00  0.00    +0.000 H 
BRANCH    3    4
ATOM     97  H3  UNL A   1      12.788  -1.231  26.273  1.00  0.00    +0.000 H 
ATOM      4  C2  UNL A   1      13.096  -2.060  25.672  1.00  0.00    +0.000 C 
ATOM     96  H2  UNL A   1      13.248  -2.943  26.257  1.00  0.00    +0.000 H 
BRANCH    4    5
ATOM     98  H4  UNL A   1      14.237  -1.568  23.965  1.00  0.00    +0.000 H 
ATOM     99  H5  UNL A   1      15.097  -2.466  25.265  1.00  0.00    +0.000 H 
ATOM      5  C3  UNL A   1      14.416  -1.680  25.013  1.00  0.00    +0.000 C 
BRANCH    5    6
ATOM    100  H6  UNL A   1      15.160   0.277  24.681  1.00  0.00    +0.000 H 
ATOM    101  H7  UNL A   1      16.017  -0.691  25.927  1.00  0.00    +0.000 H 
ATOM      6  C4  UNL A   1      15.077  -0.393  25.512  1.00  0.00    +0.000 C 
BRANCH    6    7
ATOM    103  H9  UNL A   1      13.646  -0.365  27.033  1.00  0.00    +0.000 H 
ATOM    102  H8  UNL A   1      15.075   0.685  27.335  1.00  0.00    +0.000 H 
ATOM      7  C5  UNL A   1      14.342   0.344  26.634  1.00  0.00    +0.000 C 
BRANCH    7    8
ATOM    105  H11 UNL A   1      13.722   2.321  26.926  1.00  0.00    +0.000 H 
ATOM    104  H10 UNL A   1      13.757   1.800  25.206  1.00  0.00    +0.000 H 
ATOM      8  C6  UNL A   1      13.497   1.554  26.215  1.00  0.00    +0.000 C 
BRANCH    8    9
ATOM      9  C7  UNL A   1      11.980   1.372  26.275  1.00  0.00    +0.000 C 
ATOM    106  H12 UNL A   1      11.769   0.385  26.631  1.00  0.00    +0.000 H 
ATOM    107  H13 UNL A   1      11.599   1.531  25.288  1.00  0.00    +0.000 H 
BRANCH    9   10
ATOM     10  N2  UNL A   1      11.327   2.329  27.152  1.00  0.00    +0.000 N 
ATOM    108  H14 UNL A   1      11.884   3.074  27.474  1.00  0.00    +0.000 H 
BRANCH   10   11
ATOM     11  C8  UNL A   1      10.024   2.315  27.582  1.00  0.00    +0.000 C 
ATOM     12  O2  UNL A   1       9.471   1.253  27.862  1.00  0.00    +0.000 O 
BRANCH   11   13
ATOM     13  C9  UNL A   1       9.276   3.568  27.765  1.00  0.00    +0.000 C 
ATOM     14  C10 UNL A   1       8.194   3.809  26.906  1.00  0.00    +0.000 C 
ATOM    109  H15 UNL A   1       7.939   3.110  26.191  1.00  0.00    +0.000 H 
ATOM     15  C11 UNL A   1       7.461   4.993  27.016  1.00  0.00    +0.000 C 
ATOM     17  C13 UNL A   1       8.908   5.709  28.805  1.00  0.00    +0.000 C 
ATOM     18  C14 UNL A   1       9.654   4.525  28.709  1.00  0.00    +0.000 C 
ATOM    110  H16 UNL A   1       6.657   5.162  26.393  1.00  0.00    +0.000 H 
ATOM    112  H18 UNL A   1       9.167   6.416  29.510  1.00  0.00    +0.000 H 
ATOM     16  C12 UNL A   1       7.820   5.945  27.966  1.00  0.00    +0.000 C 
ATOM    111  H17 UNL A   1       7.282   6.822  28.049  1.00  0.00    +0.000 H 
BRANCH   18   19
ATOM     19  N3  UNL A   1      10.635   4.341  29.681  1.00  0.00    +0.000 N 
BRANCH   19   20
ATOM    113  H19 UNL A   1       9.844   5.569  31.106  1.00  0.00    +0.000 H 
ATOM     20  C15 UNL A   1      10.675   5.075  30.746  1.00  0.00    +0.000 C 
BRANCH   20   21
ATOM     26  C20 UNL A   1      15.470   3.171  28.605  1.00  0.00    +0.000 C 
ATOM    117  H23 UNL A   1      15.739   4.724  27.195  1.00  0.00    +0.000 H 
ATOM    114  H20 UNL A   1      11.655   3.482  32.529  1.00  0.00    +0.000 H 
ATOM    115  H21 UNL A   1      15.058   1.863  30.220  1.00  0.00    +0.000 H 
ATOM    116  H22 UNL A   1      15.992   2.469  28.057  1.00  0.00    +0.000 H 
ATOM     21  C16 UNL A   1      11.992   5.161  31.411  1.00  0.00    +0.000 C 
ATOM     22  C17 UNL A   1      12.343   3.979  31.944  1.00  0.00    +0.000 C 
ATOM     23  O3  UNL A   1      13.588   3.394  31.745  1.00  0.00    +0.000 O 
ATOM     24  C18 UNL A   1      14.195   3.756  30.559  1.00  0.00    +0.000 C 
ATOM    118  H24 UNL A   1      14.486   6.380  28.467  1.00  0.00    +0.000 H 
ATOM     25  C19 UNL A   1      14.922   2.814  29.843  1.00  0.00    +0.000 C 
ATOM     27  C21 UNL A   1      15.317   4.470  28.101  1.00  0.00    +0.000 C 
ATOM     28  C22 UNL A   1      14.597   5.419  28.824  1.00  0.00    +0.000 C 
ATOM     29  C23 UNL A   1      14.028   5.041  30.039  1.00  0.00    +0.000 C 
ATOM     30  C24 UNL A   1      13.086   5.911  30.749  1.00  0.00    +0.000 C 
ATOM     31  O4  UNL A   1      13.147   7.130  30.718  1.00  0.00    +0.000 O 
ENDBRANCH   20   21
ENDBRANCH   19   20
ENDBRANCH   18   19
ENDBRANCH   11   13
ENDBRANCH   10   11
ENDBRANCH    9   10
ENDBRANCH    8    9
ENDBRANCH    7    8
ENDBRANCH    6    7
ENDBRANCH    5    6
ENDBRANCH    4    5
ENDBRANCH    3    4
ENDBRANCH    2    3
ENDBRANCH   32    2
ENDBRANCH   36   35
BRANCH   40   41
ATOM     41  C33 UNL A   1       6.874   7.260  23.547  1.00  0.00    +0.000 C 
ATOM     42  C34 UNL A   1       7.300   7.993  24.663  1.00  0.00    +0.000 C 
ATOM     43  F1  UNL A   1       8.569   8.421  24.745  1.00  0.00    +0.000 F 
ATOM     44  C35 UNL A   1       6.422   8.279  25.704  1.00  0.00    +0.000 C 
ATOM     45  F2  UNL A   1       6.850   8.972  26.769  1.00  0.00    +0.000 F 
ATOM     46  C36 UNL A   1       5.104   7.847  25.643  1.00  0.00    +0.000 C 
ATOM     47  F3  UNL A   1       4.260   8.128  26.645  1.00  0.00    +0.000 F 
ATOM     48  C37 UNL A   1       4.664   7.121  24.546  1.00  0.00    +0.000 C 
ATOM     49  F4  UNL A   1       3.392   6.704  24.488  1.00  0.00    +0.000 F 
ATOM     50  C38 UNL A   1       5.542   6.826  23.506  1.00  0.00    +0.000 C 
ATOM     51  F5  UNL A   1       5.093   6.121  22.458  1.00  0.00    +0.000 F 
ENDBRANCH   40   41
BRANCH   57   58
ATOM     65  C48 UNL A   1       9.146  12.747  16.772  1.00  0.00    +0.000 C 
ATOM     66  F9  UNL A   1       9.919  13.838  16.868  1.00  0.00    +0.000 F 
ATOM     67  C49 UNL A   1       9.490  11.588  17.461  1.00  0.00    +0.000 C 
ATOM     68  F10 UNL A   1      10.603  11.584  18.211  1.00  0.00    +0.000 F 
ATOM     58  C44 UNL A   1       8.693  10.439  17.373  1.00  0.00    +0.000 C 
ATOM     59  C45 UNL A   1       7.543  10.487  16.572  1.00  0.00    +0.000 C 
ATOM     60  F6  UNL A   1       6.763   9.403  16.448  1.00  0.00    +0.000 F 
ATOM     61  C46 UNL A   1       7.208  11.645  15.878  1.00  0.00    +0.000 C 
ATOM     62  F7  UNL A   1       6.117  11.665  15.100  1.00  0.00    +0.000 F 
ATOM     63  C47 UNL A   1       8.006  12.774  15.980  1.00  0.00    +0.000 C 
ATOM     64  F8  UNL A   1       7.683  13.888  15.307  1.00  0.00    +0.000 F 
ENDBRANCH   57   58
BRANCH   72   73
ATOM     73  C53 UNL A   1      12.686   4.965  15.830  1.00  0.00    +0.000 C 
ATOM     74  C54 UNL A   1      12.130   4.313  14.723  1.00  0.00    +0.000 C 
ATOM     75  F11 UNL A   1      10.836   3.963  14.731  1.00  0.00    +0.000 F 
ATOM     76  C55 UNL A   1      12.910   4.009  13.610  1.00  0.00    +0.000 C 
ATOM     77  F12 UNL A   1      12.362   3.374  12.564  1.00  0.00    +0.000 F 
ATOM     78  C56 UNL A   1      14.252   4.357  13.583  1.00  0.00    +0.000 C 
ATOM     79  F13 UNL A   1      14.999   4.070  12.509  1.00  0.00    +0.000 F 
ATOM     80  C57 UNL A   1      14.821   5.002  14.672  1.00  0.00    +0.000 C 
ATOM     81  F14 UNL A   1      16.117   5.342  14.648  1.00  0.00    +0.000 F 
ATOM     82  C58 UNL A   1      14.046   5.298  15.789  1.00  0.00    +0.000 C 
ATOM     83  F15 UNL A   1      14.615   5.919  16.833  1.00  0.00    +0.000 F 
ENDBRANCH   72   73
TORSDOF 18
ENDMDL
MODEL 10
REMARK VINA RESULT:      -9.1      3.052      7.930
ROOT
ATOM    129  H35 UNL A   1      15.561  47.216  -0.128  1.00  0.00    +0.000 H 
ATOM    130  H36 UNL A   1      13.752  47.196   1.687  1.00  0.00    +0.000 H 
ATOM     36  C29 UNL A   1      13.339  49.734   2.919  1.00  0.00    +0.000 C 
ATOM     37  C30 UNL A   1      14.275  49.400   1.796  1.00  0.00    +0.000 C 
ATOM     38  N4  UNL A   1      15.091  50.189   1.143  1.00  0.00    +0.000 N 
ATOM     39  C31 UNL A   1      15.742  49.383   0.223  1.00  0.00    +0.000 C 
ATOM     40  C32 UNL A   1      16.668  49.738  -0.700  1.00  0.00    +0.000 C 
ATOM     52  C39 UNL A   1      17.142  51.079  -0.916  1.00  0.00    +0.000 C 
ATOM     53  C40 UNL A   1      17.968  51.553  -1.921  1.00  0.00    +0.000 C 
ATOM     54  C41 UNL A   1      18.194  52.917  -1.696  1.00  0.00    +0.000 C 
ATOM     55  C42 UNL A   1      17.498  53.291  -0.559  1.00  0.00    +0.000 C 
ATOM     56  N5  UNL A   1      16.842  52.160  -0.103  1.00  0.00    +0.000 N 
ATOM     57  C43 UNL A   1      17.443  54.578   0.081  1.00  0.00    +0.000 C 
ATOM     69  C50 UNL A   1      16.621  54.897   1.108  1.00  0.00    +0.000 C 
ATOM     70  N6  UNL A   1      15.710  54.089   1.770  1.00  0.00    +0.000 N 
ATOM     71  C51 UNL A   1      15.164  54.844   2.689  1.00  0.00    +0.000 C 
ATOM     72  C52 UNL A   1      14.121  54.487   3.704  1.00  0.00    +0.000 C 
ATOM     84  C59 UNL A   1      13.649  53.229   3.765  1.00  0.00    +0.000 C 
ATOM     85  C60 UNL A   1      12.653  52.748   4.717  1.00  0.00    +0.000 C 
ATOM     86  C61 UNL A   1      12.452  51.436   4.514  1.00  0.00    +0.000 C 
ATOM     87  C62 UNL A   1      13.290  50.992   3.399  1.00  0.00    +0.000 C 
ATOM     88  N7  UNL A   1      13.964  52.123   3.014  1.00  0.00    +0.000 N 
ATOM     89  C63 UNL A   1      15.666  56.226   2.714  1.00  0.00    +0.000 C 
ATOM     90  C64 UNL A   1      16.549  56.207   1.724  1.00  0.00    +0.000 C 
ATOM     91  C65 UNL A   1      15.238  48.038   0.406  1.00  0.00    +0.000 C 
ATOM     92  C66 UNL A   1      14.308  47.999   1.352  1.00  0.00    +0.000 C 
ATOM    121  H27 UNL A   1      18.352  50.997  -2.702  1.00  0.00    +0.000 H 
ATOM    122  H28 UNL A   1      18.779  53.537  -2.278  1.00  0.00    +0.000 H 
ATOM    123  H29 UNL A   1      16.250  52.127   0.684  1.00  0.00    +0.000 H 
ATOM    124  H30 UNL A   1      12.179  53.323   5.431  1.00  0.00    +0.000 H 
ATOM    125  H31 UNL A   1      11.810  50.837   5.056  1.00  0.00    +0.000 H 
ATOM    126  H32 UNL A   1      14.610  52.141   2.272  1.00  0.00    +0.000 H 
ATOM    127  H33 UNL A   1      15.401  57.005   3.337  1.00  0.00    +0.000 H 
ATOM    128  H34 UNL A   1      17.112  57.020   1.430  1.00  0.00    +0.000 H 
ENDROOT
BRANCH   36   35
ATOM     33  C26 UNL A   1      10.268  47.779   3.960  1.00  0.00    +0.000 C 
ATOM     34  C27 UNL A   1      11.101  48.674   3.284  1.00  0.00    +0.000 C 
ATOM     35  C28 UNL A   1      12.481  48.698   3.541  1.00  0.00    +0.000 C 
ATOM    132  H38 UNL A   1      12.596  46.190   5.773  1.00  0.00    +0.000 H 
ATOM    131  H37 UNL A   1      14.031  47.801   4.666  1.00  0.00    +0.000 H 
ATOM    119  H25 UNL A   1       9.249  47.804   3.801  1.00  0.00    +0.000 H 
ATOM    120  H26 UNL A   1      10.700  49.324   2.589  1.00  0.00    +0.000 H 
ATOM     93  C67 UNL A   1      13.019  47.788   4.463  1.00  0.00    +0.000 C 
ATOM     94  C68 UNL A   1      12.191  46.866   5.106  1.00  0.00    +0.000 C 
ATOM     32  C25 UNL A   1      10.812  46.851   4.852  1.00  0.00    +0.000 C 
BRANCH   32    2
ATOM      1  O1  UNL A   1       8.781  45.797   5.352  1.00  0.00    +0.000 O 
ATOM      2  C1  UNL A   1       9.973  45.907   5.632  1.00  0.00    +0.000 C 
BRANCH    2    3
ATOM      3  N1  UNL A   1      10.489  45.164   6.663  1.00  0.00    +0.000 N 
ATOM     95  H1  UNL A   1      10.713  44.235   6.431  1.00  0.00    +0.000 H 
BRANCH    3    4
ATOM     97  H3  UNL A   1      10.321  44.779   8.662  1.00  0.00    +0.000 H 
ATOM      4  C2  UNL A   1      10.756  45.532   8.040  1.00  0.00    +0.000 C 
ATOM     96  H2  UNL A   1      11.815  45.600   8.176  1.00  0.00    +0.000 H 
BRANCH    4    5
ATOM     98  H4  UNL A   1       9.473  47.162   7.642  1.00  0.00    +0.000 H 
ATOM     99  H5  UNL A   1      10.953  47.529   8.599  1.00  0.00    +0.000 H 
ATOM      5  C3  UNL A   1      10.130  46.866   8.433  1.00  0.00    +0.000 C 
BRANCH    5    6
ATOM    100  H6  UNL A   1       9.110  45.865   9.998  1.00  0.00    +0.000 H 
ATOM    101  H7  UNL A   1       8.458  47.472   9.534  1.00  0.00    +0.000 H 
ATOM      6  C4  UNL A   1       9.326  46.880   9.735  1.00  0.00    +0.000 C 
BRANCH    6    7
ATOM    103  H9  UNL A   1      10.567  48.359  10.531  1.00  0.00    +0.000 H 
ATOM    102  H8  UNL A   1       9.247  47.822  11.629  1.00  0.00    +0.000 H 
ATOM      7  C5  UNL A   1      10.010  47.539  10.935  1.00  0.00    +0.000 C 
BRANCH    7    8
ATOM    105  H11 UNL A   1      10.965  46.987  12.713  1.00  0.00    +0.000 H 
ATOM    104  H10 UNL A   1      10.789  45.654  11.519  1.00  0.00    +0.000 H 
ATOM      8  C6  UNL A   1      11.035  46.682  11.690  1.00  0.00    +0.000 C 
BRANCH    8    9
ATOM      9  C7  UNL A   1      12.500  46.883  11.301  1.00  0.00    +0.000 C 
ATOM    106  H12 UNL A   1      12.555  47.028  10.243  1.00  0.00    +0.000 H 
ATOM    107  H13 UNL A   1      13.037  46.011  11.613  1.00  0.00    +0.000 H 
BRANCH    9   10
ATOM     10  N2  UNL A   1      13.110  48.027  11.957  1.00  0.00    +0.000 N 
ATOM    108  H14 UNL A   1      13.374  47.899  12.897  1.00  0.00    +0.000 H 
BRANCH   10   11
ATOM     11  C8  UNL A   1      13.362  49.263  11.419  1.00  0.00    +0.000 C 
ATOM     12  O2  UNL A   1      12.435  50.001  11.091  1.00  0.00    +0.000 O 
BRANCH   11   13
ATOM     13  C9  UNL A   1      14.741  49.754  11.265  1.00  0.00    +0.000 C 
ATOM     14  C10 UNL A   1      15.052  51.001  11.822  1.00  0.00    +0.000 C 
ATOM    109  H15 UNL A   1      14.330  51.532  12.334  1.00  0.00    +0.000 H 
ATOM     15  C11 UNL A   1      16.338  51.530  11.686  1.00  0.00    +0.000 C 
ATOM     17  C13 UNL A   1      16.986  49.591  10.410  1.00  0.00    +0.000 C 
ATOM     18  C14 UNL A   1      15.700  49.047  10.536  1.00  0.00    +0.000 C 
ATOM    110  H16 UNL A   1      16.570  52.441  12.110  1.00  0.00    +0.000 H 
ATOM    112  H18 UNL A   1      17.708  49.071   9.888  1.00  0.00    +0.000 H 
ATOM     16  C12 UNL A   1      17.306  50.824  10.978  1.00  0.00    +0.000 C 
ATOM    111  H17 UNL A   1      18.257  51.211  10.874  1.00  0.00    +0.000 H 
BRANCH   18   19
ATOM     19  N3  UNL A   1      15.532  47.756  10.041  1.00  0.00    +0.000 N 
BRANCH   19   20
ATOM    113  H19 UNL A   1      16.861  46.877   8.765  1.00  0.00    +0.000 H 
ATOM     20  C15 UNL A   1      15.988  47.415   8.878  1.00  0.00    +0.000 C 
BRANCH   20   21
ATOM     26  C20 UNL A   1      13.753  52.499   8.273  1.00  0.00    +0.000 C 
ATOM    117  H23 UNL A   1      15.551  53.496   7.776  1.00  0.00    +0.000 H 
ATOM    114  H20 UNL A   1      13.464  47.029   8.482  1.00  0.00    +0.000 H 
ATOM    115  H21 UNL A   1      12.091  51.228   8.601  1.00  0.00    +0.000 H 
ATOM    116  H22 UNL A   1      13.304  53.335   8.678  1.00  0.00    +0.000 H 
ATOM     21  C16 UNL A   1      15.176  47.851   7.723  1.00  0.00    +0.000 C 
ATOM     22  C17 UNL A   1      13.868  47.861   8.027  1.00  0.00    +0.000 C 
ATOM     23  O3  UNL A   1      13.032  48.939   7.760  1.00  0.00    +0.000 O 
ATOM     24  C18 UNL A   1      13.682  50.158   7.726  1.00  0.00    +0.000 C 
ATOM    118  H24 UNL A   1      16.633  51.523   6.844  1.00  0.00    +0.000 H 
ATOM     25  C19 UNL A   1      13.057  51.284   8.244  1.00  0.00    +0.000 C 
ATOM     27  C21 UNL A   1      15.055  52.591   7.761  1.00  0.00    +0.000 C 
ATOM     28  C22 UNL A   1      15.679  51.463   7.232  1.00  0.00    +0.000 C 
ATOM     29  C23 UNL A   1      14.987  50.254   7.239  1.00  0.00    +0.000 C 
ATOM     30  C24 UNL A   1      15.648  48.990   6.899  1.00  0.00    +0.000 C 
ATOM     31  O4  UNL A   1      16.556  48.906   6.087  1.00  0.00    +0.000 O 
ENDBRANCH   20   21
ENDBRANCH   19   20
ENDBRANCH   18   19
ENDBRANCH   11   13
ENDBRANCH   10   11
ENDBRANCH    9   10
ENDBRANCH    8    9
ENDBRANCH    7    8
ENDBRANCH    6    7
ENDBRANCH    5    6
ENDBRANCH    4    5
ENDBRANCH    3    4
ENDBRANCH    2    3
ENDBRANCH   32    2
ENDBRANCH   36   35
BRANCH   40   41
ATOM     41  C33 UNL A   1      17.233  48.655  -1.562  1.00  0.00    +0.000 C 
ATOM     42  C34 UNL A   1      18.262  47.823  -1.103  1.00  0.00    +0.000 C 
ATOM     43  F1  UNL A   1      18.806  48.027   0.107  1.00  0.00    +0.000 F 
ATOM     44  C35 UNL A   1      18.743  46.784  -1.892  1.00  0.00    +0.000 C 
ATOM     45  F2  UNL A   1      19.736  46.004  -1.441  1.00  0.00    +0.000 F 
ATOM     46  C36 UNL A   1      18.198  46.553  -3.148  1.00  0.00    +0.000 C 
ATOM     47  F3  UNL A   1      18.660  45.547  -3.905  1.00  0.00    +0.000 F 
ATOM     48  C37 UNL A   1      17.178  47.366  -3.619  1.00  0.00    +0.000 C 
ATOM     49  F4  UNL A   1      16.651  47.142  -4.831  1.00  0.00    +0.000 F 
ATOM     50  C38 UNL A   1      16.700  48.412  -2.835  1.00  0.00    +0.000 C 
ATOM     51  F5  UNL A   1      15.714  49.185  -3.314  1.00  0.00    +0.000 F 
ENDBRANCH   40   41
BRANCH   57   58
ATOM     65  C48 UNL A   1      18.884  57.370  -2.055  1.00  0.00    +0.000 C 
ATOM     66  F9  UNL A   1      18.561  58.057  -3.159  1.00  0.00    +0.000 F 
ATOM     67  C49 UNL A   1      18.027  56.384  -1.575  1.00  0.00    +0.000 C 
ATOM     68  F10 UNL A   1      16.883  56.142  -2.231  1.00  0.00    +0.000 F 
ATOM     58  C44 UNL A   1      18.349  55.654  -0.423  1.00  0.00    +0.000 C 
ATOM     59  C45 UNL A   1      19.553  55.946   0.234  1.00  0.00    +0.000 C 
ATOM     60  F6  UNL A   1      19.889  55.282   1.350  1.00  0.00    +0.000 F 
ATOM     61  C46 UNL A   1      20.402  56.939  -0.244  1.00  0.00    +0.000 C 
ATOM     62  F7  UNL A   1      21.538  57.218   0.410  1.00  0.00    +0.000 F 
ATOM     63  C47 UNL A   1      20.070  57.648  -1.389  1.00  0.00    +0.000 C 
ATOM     64  F8  UNL A   1      20.887  58.607  -1.845  1.00  0.00    +0.000 F 
ENDBRANCH   57   58
BRANCH   72   73
ATOM     73  C53 UNL A   1      13.608  55.497   4.655  1.00  0.00    +0.000 C 
ATOM     74  C54 UNL A   1      12.414  56.182   4.397  1.00  0.00    +0.000 C 
ATOM     75  F11 UNL A   1      11.747  55.960   3.255  1.00  0.00    +0.000 F 
ATOM     76  C55 UNL A   1      11.911  57.106   5.309  1.00  0.00    +0.000 C 
ATOM     77  F12 UNL A   1      10.772  57.759   5.039  1.00  0.00    +0.000 F 
ATOM     78  C56 UNL A   1      12.588  57.354   6.494  1.00  0.00    +0.000 C 
ATOM     79  F13 UNL A   1      12.099  58.239   7.374  1.00  0.00    +0.000 F 
ATOM     80  C57 UNL A   1      13.773  56.687   6.766  1.00  0.00    +0.000 C 
ATOM     81  F14 UNL A   1      14.428  56.923   7.911  1.00  0.00    +0.000 F 
ATOM     82  C58 UNL A   1      14.283  55.771   5.851  1.00  0.00    +0.000 C 
ATOM     83  F15 UNL A   1      15.432  55.138   6.131  1.00  0.00    +0.000 F 
ENDBRANCH   72   73
TORSDOF 18
ENDMDL
