MODEL 1
REMARK VINA RESULT:      -7.3      0.000      0.000
ROOT
ATOM    138  H39 UNL A   1      18.845  53.233  -1.379  1.00  0.00    +0.000 H 
ATOM    139  H40 UNL A   1      18.353  50.724  -1.889  1.00  0.00    +0.000 H 
ATOM    140  H41 UNL A   1      15.941  51.908   1.262  1.00  0.00    +0.000 H 
ATOM    141  H42 UNL A   1      11.687  50.456   5.797  1.00  0.00    +0.000 H 
ATOM    142  H43 UNL A   1      12.165  52.905   6.280  1.00  0.00    +0.000 H 
ATOM    143  H44 UNL A   1      14.492  51.774   3.027  1.00  0.00    +0.000 H 
ATOM    144  H45 UNL A   1      13.406  46.951   2.144  1.00  0.00    +0.000 H 
ATOM    145  H46 UNL A   1      15.213  47.012   0.332  1.00  0.00    +0.000 H 
ATOM    146  H47 UNL A   1      16.756  56.784   2.061  1.00  0.00    +0.000 H 
ATOM    147  H48 UNL A   1      15.356  56.621   4.198  1.00  0.00    +0.000 H 
ATOM     41  C29 UNL A   1      14.111  54.080   4.560  1.00  0.00    +0.000 C 
ATOM     42  C30 UNL A   1      15.093  54.481   3.495  1.00  0.00    +0.000 C 
ATOM     43  N7  UNL A   1      15.591  53.766   2.518  1.00  0.00    +0.000 N 
ATOM     44  C31 UNL A   1      16.412  54.626   1.801  1.00  0.00    +0.000 C 
ATOM     45  C32 UNL A   1      17.201  54.347   0.736  1.00  0.00    +0.000 C 
ATOM     57  C39 UNL A   1      17.328  53.042   0.144  1.00  0.00    +0.000 C 
ATOM     58  C40 UNL A   1      18.159  52.640  -0.888  1.00  0.00    +0.000 C 
ATOM     59  C41 UNL A   1      17.905  51.289  -1.151  1.00  0.00    +0.000 C 
ATOM     60  C42 UNL A   1      16.950  50.839  -0.252  1.00  0.00    +0.000 C 
ATOM     61  N8  UNL A   1      16.604  51.925   0.534  1.00  0.00    +0.000 N 
ATOM     62  C43 UNL A   1      16.395  49.517  -0.120  1.00  0.00    +0.000 C 
ATOM     74  C50 UNL A   1      15.470  49.149   0.799  1.00  0.00    +0.000 C 
ATOM     75  N9  UNL A   1      14.863  49.915   1.784  1.00  0.00    +0.000 N 
ATOM     76  C51 UNL A   1      14.029  49.116   2.401  1.00  0.00    +0.000 C 
ATOM     77  C52 UNL A   1      13.126  49.404   3.569  1.00  0.00    +0.000 C 
ATOM     89  C59 UNL A   1      13.139  50.632   4.121  1.00  0.00    +0.000 C 
ATOM     90  C60 UNL A   1      12.343  51.054   5.270  1.00  0.00    +0.000 C 
ATOM     91  C61 UNL A   1      12.602  52.345   5.530  1.00  0.00    +0.000 C 
ATOM     92  C62 UNL A   1      13.604  52.833   4.581  1.00  0.00    +0.000 C 
ATOM     93  N10 UNL A   1      13.857  51.751   3.778  1.00  0.00    +0.000 N 
ATOM     94  C63 UNL A   1      13.995  47.750   1.860  1.00  0.00    +0.000 C 
ATOM     95  C64 UNL A   1      14.921  47.813   0.914  1.00  0.00    +0.000 C 
ATOM     96  C65 UNL A   1      16.307  55.927   2.422  1.00  0.00    +0.000 C 
ATOM     97  C66 UNL A   1      15.558  55.876   3.514  1.00  0.00    +0.000 C 
ENDROOT
BRANCH   41   40
ATOM     98  C67 UNL A   1      12.512  55.844   5.320  1.00  0.00    +0.000 C 
ATOM     99  C68 UNL A   1      12.108  56.811   6.236  1.00  0.00    +0.000 C 
ATOM     37  C25 UNL A   1      12.784  56.945   7.453  1.00  0.00    +0.000 C 
ATOM     38  C26 UNL A   1      13.929  56.186   7.707  1.00  0.00    +0.000 C 
ATOM     39  C27 UNL A   1      14.375  55.266   6.757  1.00  0.00    +0.000 C 
ATOM    136  H37 UNL A   1      14.444  56.306   8.593  1.00  0.00    +0.000 H 
ATOM     40  C28 UNL A   1      13.658  55.072   5.566  1.00  0.00    +0.000 C 
ATOM    137  H38 UNL A   1      15.236  54.725   6.932  1.00  0.00    +0.000 H 
ATOM    148  H49 UNL A   1      11.966  55.694   4.457  1.00  0.00    +0.000 H 
ATOM    149  H50 UNL A   1      11.311  57.430   6.017  1.00  0.00    +0.000 H 
BRANCH   37   35
ATOM     35  C24 UNL A   1      12.327  57.902   8.485  1.00  0.00    +0.000 C 
ATOM     36  O5  UNL A   1      12.636  59.081   8.403  1.00  0.00    +0.000 O 
BRANCH   35   34
ATOM     34  N6  UNL A   1      11.569  57.457   9.538  1.00  0.00    +0.000 N 
ATOM    135  H36 UNL A   1      11.617  58.007  10.354  1.00  0.00    +0.000 H 
BRANCH   34   33
ATOM     33  C23 UNL A   1      10.706  56.294   9.621  1.00  0.00    +0.000 C 
ATOM    133  H34 UNL A   1       9.786  56.580  10.087  1.00  0.00    +0.000 H 
ATOM    134  H35 UNL A   1      10.544  55.934   8.626  1.00  0.00    +0.000 H 
BRANCH   33   32
ATOM    131  H32 UNL A   1      12.392  55.191  10.266  1.00  0.00    +0.000 H 
ATOM    132  H33 UNL A   1      11.057  55.337  11.448  1.00  0.00    +0.000 H 
ATOM     32  C22 UNL A   1      11.335  55.166  10.428  1.00  0.00    +0.000 C 
BRANCH   32   31
ATOM    129  H30 UNL A   1      10.077  53.496  10.788  1.00  0.00    +0.000 H 
ATOM    130  H31 UNL A   1      10.480  53.819   9.072  1.00  0.00    +0.000 H 
ATOM     31  C21 UNL A   1      10.834  53.762  10.080  1.00  0.00    +0.000 C 
BRANCH   31   30
ATOM     30  C20 UNL A   1      11.898  52.662  10.090  1.00  0.00    +0.000 C 
ATOM    127  H28 UNL A   1      12.359  52.656  11.057  1.00  0.00    +0.000 H 
ATOM    128  H29 UNL A   1      11.386  51.753   9.853  1.00  0.00    +0.000 H 
BRANCH   30   29
ATOM    125  H26 UNL A   1      12.941  51.979   8.371  1.00  0.00    +0.000 H 
ATOM     29  C19 UNL A   1      13.004  52.810   9.043  1.00  0.00    +0.000 C 
ATOM    126  H27 UNL A   1      12.841  53.753   8.564  1.00  0.00    +0.000 H 
BRANCH   29   28
ATOM    124  H25 UNL A   1      14.394  52.446  10.596  1.00  0.00    +0.000 H 
ATOM    123  H24 UNL A   1      14.755  53.871   9.619  1.00  0.00    +0.000 H 
ATOM     28  C18 UNL A   1      14.419  52.855   9.608  1.00  0.00    +0.000 C 
BRANCH   28   27
ATOM    122  H23 UNL A   1      16.139  52.546   8.499  1.00  0.00    +0.000 H 
ATOM     27  N5  UNL A   1      15.341  52.066   8.818  1.00  0.00    +0.000 N 
BRANCH   27   25
ATOM     25  C17 UNL A   1      15.265  50.757   8.454  1.00  0.00    +0.000 C 
ATOM     26  O4  UNL A   1      15.098  50.514   7.254  1.00  0.00    +0.000 O 
BRANCH   25   22
ATOM    118  H19 UNL A   1      15.976  49.925  10.242  1.00  0.00    +0.000 H 
ATOM     22  C15 UNL A   1      15.312  49.606   9.467  1.00  0.00    +0.000 C 
BRANCH   22   21
ATOM    117  H18 UNL A   1      13.305  48.913   9.639  1.00  0.00    +0.000 H 
ATOM     21  N4  UNL A   1      14.027  49.365  10.132  1.00  0.00    +0.000 N 
BRANCH   21   19
ATOM     19  C14 UNL A   1      13.818  49.757  11.415  1.00  0.00    +0.000 C 
ATOM     20  O2  UNL A   1      14.752  50.338  11.973  1.00  0.00    +0.000 O 
BRANCH   19   16
ATOM    113  H14 UNL A   1      11.712  49.713  11.407  1.00  0.00    +0.000 H 
ATOM     16  C12 UNL A   1      12.473  49.495  12.125  1.00  0.00    +0.000 C 
BRANCH   16   15
ATOM     15  N3  UNL A   1      12.394  48.086  12.477  1.00  0.00    +0.000 N 
ATOM    112  H13 UNL A   1      13.072  47.722  13.090  1.00  0.00    +0.000 H 
BRANCH   15   13
ATOM     13  C11 UNL A   1      11.425  47.235  12.001  1.00  0.00    +0.000 C 
ATOM     14  O1  UNL A   1      10.413  47.105  12.696  1.00  0.00    +0.000 O 
BRANCH   13    2
ATOM      2  C1  UNL A   1      11.552  46.534  10.618  1.00  0.00    +0.000 C 
ATOM    103  H4  UNL A   1      12.198  47.150  10.028  1.00  0.00    +0.000 H 
BRANCH    2    1
ATOM      1  N1  UNL A   1      12.248  45.236  10.748  1.00  0.00    +0.000 N 
ATOM    100  H1  UNL A   1      12.208  44.739   9.857  1.00  0.00    +0.000 H 
ATOM    101  H2  UNL A   1      11.793  44.677  11.470  1.00  0.00    +0.000 H 
ATOM    102  H3  UNL A   1      13.222  45.397  11.004  1.00  0.00    +0.000 H 
ENDBRANCH    2    1
BRANCH    2    3
ATOM    105  H6  UNL A   1      10.534  45.821   8.973  1.00  0.00    +0.000 H 
ATOM      3  C2  UNL A   1      10.323  46.596   9.680  1.00  0.00    +0.000 C 
ATOM    104  H5  UNL A   1       9.460  46.498  10.305  1.00  0.00    +0.000 H 
BRANCH    3    4
ATOM      4  C3  UNL A   1      10.070  47.791   8.785  1.00  0.00    +0.000 C 
ATOM      5  C4  UNL A   1      10.762  48.987   8.681  1.00  0.00    +0.000 C 
ATOM      6  N2  UNL A   1      10.244  49.703   7.632  1.00  0.00    +0.000 N 
ATOM      7  C5  UNL A   1       9.126  49.081   7.140  1.00  0.00    +0.000 C 
ATOM      8  C6  UNL A   1       8.255  49.470   6.113  1.00  0.00    +0.000 C 
ATOM      9  C7  UNL A   1       7.130  48.674   5.883  1.00  0.00    +0.000 C 
ATOM    106  H7  UNL A   1      11.538  49.288   9.291  1.00  0.00    +0.000 H 
ATOM     11  C9  UNL A   1       7.810  47.126   7.623  1.00  0.00    +0.000 C 
ATOM     12  C10 UNL A   1       8.952  47.913   7.882  1.00  0.00    +0.000 C 
ATOM     10  C8  UNL A   1       6.899  47.527   6.638  1.00  0.00    +0.000 C 
ATOM    107  H8  UNL A   1      10.622  50.543   7.283  1.00  0.00    +0.000 H 
ATOM    111  H12 UNL A   1       7.647  46.258   8.156  1.00  0.00    +0.000 H 
ATOM    108  H9  UNL A   1       8.438  50.315   5.549  1.00  0.00    +0.000 H 
ATOM    110  H11 UNL A   1       6.049  46.968   6.470  1.00  0.00    +0.000 H 
ATOM    109  H10 UNL A   1       6.462  48.940   5.143  1.00  0.00    +0.000 H 
ENDBRANCH    3    4
ENDBRANCH    2    3
ENDBRANCH   13    2
ENDBRANCH   15   13
ENDBRANCH   16   15
BRANCH   16   17
ATOM     17  C13 UNL A   1      11.956  50.510  13.156  1.00  0.00    +0.000 C 
ATOM    114  H15 UNL A   1      10.902  50.608  13.006  1.00  0.00    +0.000 H 
ATOM    115  H16 UNL A   1      12.531  51.394  12.976  1.00  0.00    +0.000 H 
BRANCH   17   18
ATOM     18  S1  UNL A   1      12.222  50.139  14.921  1.00  0.00    +0.000 S 
ATOM    116  H17 UNL A   1      13.134  49.137  15.041  1.00  0.00    +0.000 H 
ENDBRANCH   17   18
ENDBRANCH   16   17
ENDBRANCH   19   16
ENDBRANCH   21   19
ENDBRANCH   22   21
BRANCH   22   23
ATOM    119  H20 UNL A   1      16.880  48.162   9.311  1.00  0.00    +0.000 H 
ATOM     23  C16 UNL A   1      15.920  48.327   8.868  1.00  0.00    +0.000 C 
ATOM    120  H21 UNL A   1      15.996  48.466   7.809  1.00  0.00    +0.000 H 
BRANCH   23   24
ATOM    121  H22 UNL A   1      14.332  47.431   9.626  1.00  0.00    +0.000 H 
ATOM     24  O3  UNL A   1      15.105  47.178   9.100  1.00  0.00    +0.000 O 
ENDBRANCH   23   24
ENDBRANCH   22   23
ENDBRANCH   25   22
ENDBRANCH   27   25
ENDBRANCH   28   27
ENDBRANCH   29   28
ENDBRANCH   30   29
ENDBRANCH   31   30
ENDBRANCH   32   31
ENDBRANCH   33   32
ENDBRANCH   34   33
ENDBRANCH   35   34
ENDBRANCH   37   35
ENDBRANCH   41   40
BRANCH   45   46
ATOM     46  C33 UNL A   1      17.996  55.476   0.146  1.00  0.00    +0.000 C 
ATOM     47  C34 UNL A   1      17.539  56.190  -0.973  1.00  0.00    +0.000 C 
ATOM     48  F1  UNL A   1      16.392  55.842  -1.574  1.00  0.00    +0.000 F 
ATOM     49  C35 UNL A   1      18.282  57.242  -1.503  1.00  0.00    +0.000 C 
ATOM     50  F2  UNL A   1      17.849  57.878  -2.600  1.00  0.00    +0.000 F 
ATOM     51  C36 UNL A   1      19.474  57.623  -0.906  1.00  0.00    +0.000 C 
ATOM     52  F3  UNL A   1      20.184  58.639  -1.414  1.00  0.00    +0.000 F 
ATOM     53  C37 UNL A   1      19.934  56.945   0.212  1.00  0.00    +0.000 C 
ATOM     54  F4  UNL A   1      21.081  57.319   0.797  1.00  0.00    +0.000 F 
ATOM     55  C38 UNL A   1      19.208  55.874   0.728  1.00  0.00    +0.000 C 
ATOM     56  F5  UNL A   1      19.688  55.227   1.802  1.00  0.00    +0.000 F 
ENDBRANCH   45   46
BRANCH   62   63
ATOM     65  F6  UNL A   1      15.076  48.797  -2.559  1.00  0.00    +0.000 F 
ATOM     66  C46 UNL A   1      16.695  47.182  -3.119  1.00  0.00    +0.000 C 
ATOM     67  F7  UNL A   1      16.011  46.884  -4.232  1.00  0.00    +0.000 F 
ATOM     68  C47 UNL A   1      17.868  46.504  -2.824  1.00  0.00    +0.000 C 
ATOM     69  F8  UNL A   1      18.330  45.566  -3.663  1.00  0.00    +0.000 F 
ATOM     70  C48 UNL A   1      18.560  46.792  -1.658  1.00  0.00    +0.000 C 
ATOM     71  F9  UNL A   1      19.701  46.147  -1.379  1.00  0.00    +0.000 F 
ATOM     72  C49 UNL A   1      18.070  47.750  -0.776  1.00  0.00    +0.000 C 
ATOM     73  F10 UNL A   1      18.753  48.000   0.352  1.00  0.00    +0.000 F 
ATOM     63  C44 UNL A   1      16.890  48.455  -1.058  1.00  0.00    +0.000 C 
ATOM     64  C45 UNL A   1      16.217  48.161  -2.253  1.00  0.00    +0.000 C 
ENDBRANCH   62   63
BRANCH   77   78
ATOM     78  C53 UNL A   1      12.251  48.346   4.137  1.00  0.00    +0.000 C 
ATOM     79  C54 UNL A   1      10.998  48.068   3.570  1.00  0.00    +0.000 C 
ATOM     80  F11 UNL A   1      10.571  48.775   2.514  1.00  0.00    +0.000 F 
ATOM     81  C55 UNL A   1      10.165  47.092   4.111  1.00  0.00    +0.000 C 
ATOM     82  F12 UNL A   1       8.954  46.877   3.577  1.00  0.00    +0.000 F 
ATOM     83  C56 UNL A   1      10.579  46.354   5.210  1.00  0.00    +0.000 C 
ATOM     84  F13 UNL A   1       9.778  45.414   5.728  1.00  0.00    +0.000 F 
ATOM     85  C57 UNL A   1      11.821  46.599   5.775  1.00  0.00    +0.000 C 
ATOM     86  F14 UNL A   1      12.231  45.879   6.830  1.00  0.00    +0.000 F 
ATOM     87  C58 UNL A   1      12.645  47.594   5.252  1.00  0.00    +0.000 C 
ATOM     88  F15 UNL A   1      13.836  47.816   5.826  1.00  0.00    +0.000 F 
ENDBRANCH   77   78
TORSDOF 28
ENDMDL
MODEL 2
REMARK VINA RESULT:      -7.2      1.690      7.610
ROOT
ATOM    138  H39 UNL A   1      13.118  46.730   2.146  1.00  0.00    +0.000 H 
ATOM    139  H40 UNL A   1      14.957  46.856   0.300  1.00  0.00    +0.000 H 
ATOM    140  H41 UNL A   1      14.594  50.600   2.033  1.00  0.00    +0.000 H 
ATOM    141  H42 UNL A   1      16.192  56.780   2.189  1.00  0.00    +0.000 H 
ATOM    142  H43 UNL A   1      14.407  56.646   3.993  1.00  0.00    +0.000 H 
ATOM    143  H44 UNL A   1      14.855  52.848   2.364  1.00  0.00    +0.000 H 
ATOM    144  H45 UNL A   1      18.442  53.242  -1.128  1.00  0.00    +0.000 H 
ATOM    145  H46 UNL A   1      17.981  50.787  -1.691  1.00  0.00    +0.000 H 
ATOM    146  H47 UNL A   1      11.217  50.259   5.714  1.00  0.00    +0.000 H 
ATOM    147  H48 UNL A   1      11.277  52.809   5.942  1.00  0.00    +0.000 H 
ATOM     41  C29 UNL A   1      13.253  54.059   4.309  1.00  0.00    +0.000 C 
ATOM     42  C30 UNL A   1      12.860  52.608   4.332  1.00  0.00    +0.000 C 
ATOM     43  N7  UNL A   1      13.325  51.614   3.617  1.00  0.00    +0.000 N 
ATOM     44  C31 UNL A   1      12.654  50.483   4.063  1.00  0.00    +0.000 C 
ATOM     45  C32 UNL A   1      12.736  49.214   3.595  1.00  0.00    +0.000 C 
ATOM     57  C39 UNL A   1      13.573  48.810   2.497  1.00  0.00    +0.000 C 
ATOM     58  C40 UNL A   1      13.669  47.566   1.898  1.00  0.00    +0.000 C 
ATOM     59  C41 UNL A   1      14.645  47.638   0.897  1.00  0.00    +0.000 C 
ATOM     60  C42 UNL A   1      15.122  48.939   0.842  1.00  0.00    +0.000 C 
ATOM     61  N8  UNL A   1      14.458  49.645   1.831  1.00  0.00    +0.000 N 
ATOM     62  C43 UNL A   1      16.111  49.495  -0.045  1.00  0.00    +0.000 C 
ATOM     74  C50 UNL A   1      16.517  50.788  -0.045  1.00  0.00    +0.000 C 
ATOM     75  N9  UNL A   1      16.103  51.835   0.766  1.00  0.00    +0.000 N 
ATOM     76  C51 UNL A   1      16.801  52.879   0.393  1.00  0.00    +0.000 C 
ATOM     77  C52 UNL A   1      16.747  54.291   0.909  1.00  0.00    +0.000 C 
ATOM     89  C59 UNL A   1      15.866  54.602   1.879  1.00  0.00    +0.000 C 
ATOM     90  C60 UNL A   1      15.678  55.927   2.462  1.00  0.00    +0.000 C 
ATOM     91  C61 UNL A   1      14.729  55.858   3.409  1.00  0.00    +0.000 C 
ATOM     92  C62 UNL A   1      14.223  54.486   3.480  1.00  0.00    +0.000 C 
ATOM     93  N10 UNL A   1      14.962  53.809   2.543  1.00  0.00    +0.000 N 
ATOM     94  C63 UNL A   1      17.759  52.606  -0.687  1.00  0.00    +0.000 C 
ATOM     95  C64 UNL A   1      17.517  51.329  -0.944  1.00  0.00    +0.000 C 
ATOM     96  C65 UNL A   1      11.790  50.901   5.143  1.00  0.00    +0.000 C 
ATOM     97  C66 UNL A   1      11.827  52.216   5.303  1.00  0.00    +0.000 C 
ENDROOT
BRANCH   41   40
ATOM     98  C67 UNL A   1      11.436  55.689   4.845  1.00  0.00    +0.000 C 
ATOM     99  C68 UNL A   1      10.851  56.628   5.690  1.00  0.00    +0.000 C 
ATOM     37  C25 UNL A   1      11.369  56.832   6.972  1.00  0.00    +0.000 C 
ATOM     38  C26 UNL A   1      12.536  56.175   7.370  1.00  0.00    +0.000 C 
ATOM     39  C27 UNL A   1      13.163  55.286   6.497  1.00  0.00    +0.000 C 
ATOM    136  H37 UNL A   1      12.933  56.349   8.307  1.00  0.00    +0.000 H 
ATOM     40  C28 UNL A   1      12.606  55.019   5.236  1.00  0.00    +0.000 C 
ATOM    137  H38 UNL A   1      14.040  54.822   6.779  1.00  0.00    +0.000 H 
ATOM    148  H49 UNL A   1      11.008  55.484   3.929  1.00  0.00    +0.000 H 
ATOM    149  H50 UNL A   1      10.036  57.175   5.369  1.00  0.00    +0.000 H 
BRANCH   37   35
ATOM     35  C24 UNL A   1      10.719  57.758   7.925  1.00  0.00    +0.000 C 
ATOM     36  O5  UNL A   1      11.309  58.108   8.936  1.00  0.00    +0.000 O 
BRANCH   35   34
ATOM     34  N6  UNL A   1       9.447  58.209   7.677  1.00  0.00    +0.000 N 
ATOM    135  H36 UNL A   1       9.325  58.676   6.819  1.00  0.00    +0.000 H 
BRANCH   34   33
ATOM     33  C23 UNL A   1       8.256  58.095   8.498  1.00  0.00    +0.000 C 
ATOM    133  H34 UNL A   1       8.368  58.723   9.357  1.00  0.00    +0.000 H 
ATOM    134  H35 UNL A   1       7.418  58.393   7.903  1.00  0.00    +0.000 H 
BRANCH   33   32
ATOM    131  H32 UNL A   1       8.847  56.364   9.561  1.00  0.00    +0.000 H 
ATOM    132  H33 UNL A   1       7.087  56.682   9.504  1.00  0.00    +0.000 H 
ATOM     32  C22 UNL A   1       8.012  56.666   8.964  1.00  0.00    +0.000 C 
BRANCH   32   31
ATOM    129  H30 UNL A   1       6.837  55.256   7.903  1.00  0.00    +0.000 H 
ATOM    130  H31 UNL A   1       8.041  56.161   6.932  1.00  0.00    +0.000 H 
ATOM     31  C21 UNL A   1       7.834  55.640   7.844  1.00  0.00    +0.000 C 
BRANCH   31   30
ATOM     30  C20 UNL A   1       8.800  54.452   7.878  1.00  0.00    +0.000 C 
ATOM    127  H28 UNL A   1       8.246  53.568   7.636  1.00  0.00    +0.000 H 
ATOM    128  H29 UNL A   1       9.573  54.680   7.176  1.00  0.00    +0.000 H 
BRANCH   30   29
ATOM    125  H26 UNL A   1       9.624  55.165   9.701  1.00  0.00    +0.000 H 
ATOM     29  C19 UNL A   1       9.501  54.218   9.218  1.00  0.00    +0.000 C 
ATOM    126  H27 UNL A   1       8.882  53.541   9.768  1.00  0.00    +0.000 H 
BRANCH   29   28
ATOM    124  H25 UNL A   1      11.521  54.223   8.588  1.00  0.00    +0.000 H 
ATOM    123  H24 UNL A   1      10.769  52.626   8.597  1.00  0.00    +0.000 H 
ATOM     28  C18 UNL A   1      10.871  53.557   9.115  1.00  0.00    +0.000 C 
BRANCH   28   27
ATOM    122  H23 UNL A   1      10.806  53.051  11.122  1.00  0.00    +0.000 H 
ATOM     27  N5  UNL A   1      11.448  53.306  10.420  1.00  0.00    +0.000 N 
BRANCH   27   25
ATOM     25  C17 UNL A   1      12.748  53.371  10.816  1.00  0.00    +0.000 C 
ATOM     26  O4  UNL A   1      13.377  54.393  10.519  1.00  0.00    +0.000 O 
BRANCH   25   22
ATOM    118  H19 UNL A   1      13.055  52.208  12.533  1.00  0.00    +0.000 H 
ATOM     22  C15 UNL A   1      13.457  52.221  11.542  1.00  0.00    +0.000 C 
BRANCH   22   21
ATOM    117  H18 UNL A   1      13.450  50.681  10.071  1.00  0.00    +0.000 H 
ATOM     21  N4  UNL A   1      13.147  50.903  10.981  1.00  0.00    +0.000 N 
BRANCH   21   19
ATOM     19  C14 UNL A   1      12.448  49.983  11.696  1.00  0.00    +0.000 C 
ATOM     20  O2  UNL A   1      11.653  50.423  12.530  1.00  0.00    +0.000 O 
BRANCH   19   16
ATOM    113  H14 UNL A   1      11.987  48.212  10.653  1.00  0.00    +0.000 H 
ATOM     16  C12 UNL A   1      12.638  48.470  11.461  1.00  0.00    +0.000 C 
BRANCH   16   15
ATOM     15  N3  UNL A   1      14.012  48.226  11.051  1.00  0.00    +0.000 N 
ATOM    112  H13 UNL A   1      14.725  48.363  11.714  1.00  0.00    +0.000 H 
BRANCH   15   13
ATOM     13  C11 UNL A   1      14.369  47.815   9.789  1.00  0.00    +0.000 C 
ATOM     14  O1  UNL A   1      13.914  46.732   9.411  1.00  0.00    +0.000 O 
BRANCH   13    2
ATOM      2  C1  UNL A   1      15.232  48.703   8.847  1.00  0.00    +0.000 C 
ATOM    103  H4  UNL A   1      15.295  49.663   9.314  1.00  0.00    +0.000 H 
BRANCH    2    1
ATOM      1  N1  UNL A   1      16.622  48.201   8.779  1.00  0.00    +0.000 N 
ATOM    100  H1  UNL A   1      16.649  47.233   9.101  1.00  0.00    +0.000 H 
ATOM    101  H2  UNL A   1      17.219  48.775   9.375  1.00  0.00    +0.000 H 
ATOM    102  H3  UNL A   1      16.953  48.249   7.816  1.00  0.00    +0.000 H 
ENDBRANCH    2    1
BRANCH    2    3
ATOM    105  H6  UNL A   1      14.617  48.295   6.922  1.00  0.00    +0.000 H 
ATOM      3  C2  UNL A   1      14.577  49.176   7.527  1.00  0.00    +0.000 C 
ATOM    104  H5  UNL A   1      13.621  49.575   7.790  1.00  0.00    +0.000 H 
BRANCH    3    4
ATOM      4  C3  UNL A   1      15.242  50.210   6.641  1.00  0.00    +0.000 C 
ATOM      5  C4  UNL A   1      15.161  51.592   6.672  1.00  0.00    +0.000 C 
ATOM      6  N2  UNL A   1      16.051  52.104   5.762  1.00  0.00    +0.000 N 
ATOM      7  C5  UNL A   1      16.604  51.091   5.021  1.00  0.00    +0.000 C 
ATOM      8  C6  UNL A   1      17.517  51.145   3.958  1.00  0.00    +0.000 C 
ATOM      9  C7  UNL A   1      17.841  49.944   3.323  1.00  0.00    +0.000 C 
ATOM    106  H7  UNL A   1      14.536  52.145   7.278  1.00  0.00    +0.000 H 
ATOM     11  C9  UNL A   1      16.421  48.699   4.845  1.00  0.00    +0.000 C 
ATOM     12  C10 UNL A   1      16.070  49.896   5.503  1.00  0.00    +0.000 C 
ATOM     10  C8  UNL A   1      17.289  48.739   3.746  1.00  0.00    +0.000 C 
ATOM    107  H8  UNL A   1      16.262  53.060   5.657  1.00  0.00    +0.000 H 
ATOM    111  H12 UNL A   1      16.041  47.797   5.171  1.00  0.00    +0.000 H 
ATOM    108  H9  UNL A   1      17.932  52.041   3.656  1.00  0.00    +0.000 H 
ATOM    110  H11 UNL A   1      17.521  47.867   3.247  1.00  0.00    +0.000 H 
ATOM    109  H10 UNL A   1      18.500  49.952   2.528  1.00  0.00    +0.000 H 
ENDBRANCH    3    4
ENDBRANCH    2    3
ENDBRANCH   13    2
ENDBRANCH   15   13
ENDBRANCH   16   15
BRANCH   16   17
ATOM     17  C13 UNL A   1      12.007  47.471  12.443  1.00  0.00    +0.000 C 
ATOM    114  H15 UNL A   1      12.214  47.821  13.432  1.00  0.00    +0.000 H 
ATOM    115  H16 UNL A   1      12.442  46.529  12.187  1.00  0.00    +0.000 H 
BRANCH   17   18
ATOM     18  S1  UNL A   1      10.208  47.192  12.330  1.00  0.00    +0.000 S 
ATOM    116  H17 UNL A   1       9.923  45.915  12.698  1.00  0.00    +0.000 H 
ENDBRANCH   17   18
ENDBRANCH   16   17
ENDBRANCH   19   16
ENDBRANCH   21   19
ENDBRANCH   22   21
BRANCH   22   23
ATOM    119  H20 UNL A   1      15.120  53.326  12.304  1.00  0.00    +0.000 H 
ATOM     23  C16 UNL A   1      14.968  52.466  11.685  1.00  0.00    +0.000 C 
ATOM    120  H21 UNL A   1      15.370  52.614  10.704  1.00  0.00    +0.000 H 
BRANCH   23   24
ATOM    121  H22 UNL A   1      16.207  51.664  12.998  1.00  0.00    +0.000 H 
ATOM     24  O3  UNL A   1      15.645  51.354  12.271  1.00  0.00    +0.000 O 
ENDBRANCH   23   24
ENDBRANCH   22   23
ENDBRANCH   25   22
ENDBRANCH   27   25
ENDBRANCH   28   27
ENDBRANCH   29   28
ENDBRANCH   30   29
ENDBRANCH   31   30
ENDBRANCH   32   31
ENDBRANCH   33   32
ENDBRANCH   34   33
ENDBRANCH   35   34
ENDBRANCH   37   35
ENDBRANCH   41   40
BRANCH   45   46
ATOM     46  C33 UNL A   1      11.891  48.171   4.265  1.00  0.00    +0.000 C 
ATOM     47  C34 UNL A   1      10.510  48.078   4.026  1.00  0.00    +0.000 C 
ATOM     48  F1  UNL A   1       9.903  48.961   3.220  1.00  0.00    +0.000 F 
ATOM     49  C35 UNL A   1       9.740  47.098   4.649  1.00  0.00    +0.000 C 
ATOM     50  F2  UNL A   1       8.417  47.059   4.442  1.00  0.00    +0.000 F 
ATOM     51  C36 UNL A   1      10.338  46.173   5.490  1.00  0.00    +0.000 C 
ATOM     52  F3  UNL A   1       9.596  45.228   6.083  1.00  0.00    +0.000 F 
ATOM     53  C37 UNL A   1      11.703  46.234   5.725  1.00  0.00    +0.000 C 
ATOM     54  F4  UNL A   1      12.284  45.333   6.530  1.00  0.00    +0.000 F 
ATOM     55  C38 UNL A   1      12.472  47.230   5.127  1.00  0.00    +0.000 C 
ATOM     56  F5  UNL A   1      13.788  47.271   5.386  1.00  0.00    +0.000 F 
ENDBRANCH   45   46
BRANCH   62   63
ATOM     65  F6  UNL A   1      14.942  48.917  -2.596  1.00  0.00    +0.000 F 
ATOM     66  C46 UNL A   1      16.718  47.514  -3.245  1.00  0.00    +0.000 C 
ATOM     67  F7  UNL A   1      16.100  47.274  -4.410  1.00  0.00    +0.000 F 
ATOM     68  C47 UNL A   1      17.937  46.914  -2.971  1.00  0.00    +0.000 C 
ATOM     69  F8  UNL A   1      18.509  46.110  -3.879  1.00  0.00    +0.000 F 
ATOM     70  C48 UNL A   1      18.562  47.140  -1.754  1.00  0.00    +0.000 C 
ATOM     71  F9  UNL A   1      19.746  46.572  -1.493  1.00  0.00    +0.000 F 
ATOM     72  C49 UNL A   1      17.959  47.957  -0.802  1.00  0.00    +0.000 C 
ATOM     73  F10 UNL A   1      18.579  48.148   0.372  1.00  0.00    +0.000 F 
ATOM     63  C44 UNL A   1      16.730  48.582  -1.062  1.00  0.00    +0.000 C 
ATOM     64  C45 UNL A   1      16.126  48.355  -2.307  1.00  0.00    +0.000 C 
ENDBRANCH   62   63
BRANCH   77   78
ATOM     78  C53 UNL A   1      17.627  55.345   0.342  1.00  0.00    +0.000 C 
ATOM     79  C54 UNL A   1      17.244  56.065  -0.799  1.00  0.00    +0.000 C 
ATOM     80  F11 UNL A   1      16.079  55.790  -1.403  1.00  0.00    +0.000 F 
ATOM     81  C55 UNL A   1      18.074  57.039  -1.347  1.00  0.00    +0.000 C 
ATOM     82  F12 UNL A   1      17.705  57.681  -2.464  1.00  0.00    +0.000 F 
ATOM     83  C56 UNL A   1      19.291  57.334  -0.748  1.00  0.00    +0.000 C 
ATOM     84  F13 UNL A   1      20.087  58.274  -1.274  1.00  0.00    +0.000 F 
ATOM     85  C57 UNL A   1      19.681  56.649   0.392  1.00  0.00    +0.000 C 
ATOM     86  F14 UNL A   1      20.849  56.940   0.982  1.00  0.00    +0.000 F 
ATOM     87  C58 UNL A   1      18.863  55.655   0.926  1.00  0.00    +0.000 C 
ATOM     88  F15 UNL A   1      19.272  55.000   2.023  1.00  0.00    +0.000 F 
ENDBRANCH   77   78
TORSDOF 28
ENDMDL
MODEL 3
REMARK VINA RESULT:      -6.9      1.468      2.477
ROOT
ATOM    138  H39 UNL A   1      19.199  53.057  -1.784  1.00  0.00    +0.000 H 
ATOM    139  H40 UNL A   1      18.635  50.558  -2.275  1.00  0.00    +0.000 H 
ATOM    140  H41 UNL A   1      16.231  51.846   0.842  1.00  0.00    +0.000 H 
ATOM    141  H42 UNL A   1      11.893  50.568   5.350  1.00  0.00    +0.000 H 
ATOM    142  H43 UNL A   1      12.441  53.006   5.814  1.00  0.00    +0.000 H 
ATOM    143  H44 UNL A   1      14.762  51.773   2.594  1.00  0.00    +0.000 H 
ATOM    144  H45 UNL A   1      13.538  46.977   1.746  1.00  0.00    +0.000 H 
ATOM    145  H46 UNL A   1      15.363  46.965  -0.049  1.00  0.00    +0.000 H 
ATOM    146  H47 UNL A   1      17.187  56.703   1.602  1.00  0.00    +0.000 H 
ATOM    147  H48 UNL A   1      15.762  56.603   3.727  1.00  0.00    +0.000 H 
ATOM     41  C29 UNL A   1      14.438  54.105   4.102  1.00  0.00    +0.000 C 
ATOM     42  C30 UNL A   1      15.441  54.465   3.042  1.00  0.00    +0.000 C 
ATOM     43  N7  UNL A   1      15.926  53.726   2.076  1.00  0.00    +0.000 N 
ATOM     44  C31 UNL A   1      16.779  54.553   1.359  1.00  0.00    +0.000 C 
ATOM     45  C32 UNL A   1      17.570  54.240   0.305  1.00  0.00    +0.000 C 
ATOM     57  C39 UNL A   1      17.663  52.926  -0.274  1.00  0.00    +0.000 C 
ATOM     58  C40 UNL A   1      18.490  52.489  -1.294  1.00  0.00    +0.000 C 
ATOM     59  C41 UNL A   1      18.198  51.144  -1.546  1.00  0.00    +0.000 C 
ATOM     60  C42 UNL A   1      17.222  50.731  -0.652  1.00  0.00    +0.000 C 
ATOM     61  N8  UNL A   1      16.901  51.836   0.120  1.00  0.00    +0.000 N 
ATOM     62  C43 UNL A   1      16.626  49.428  -0.513  1.00  0.00    +0.000 C 
ATOM     74  C50 UNL A   1      15.681  49.098   0.400  1.00  0.00    +0.000 C 
ATOM     75  N9  UNL A   1      15.088  49.892   1.372  1.00  0.00    +0.000 N 
ATOM     76  C51 UNL A   1      14.224  49.124   1.989  1.00  0.00    +0.000 C 
ATOM     77  C52 UNL A   1      13.320  49.451   3.146  1.00  0.00    +0.000 C 
ATOM     89  C59 UNL A   1      13.365  50.683   3.686  1.00  0.00    +0.000 C 
ATOM     90  C60 UNL A   1      12.572  51.141   4.823  1.00  0.00    +0.000 C 
ATOM     91  C61 UNL A   1      12.868  52.426   5.074  1.00  0.00    +0.000 C 
ATOM     92  C62 UNL A   1      13.892  52.874   4.130  1.00  0.00    +0.000 C 
ATOM     93  N10 UNL A   1      14.120  51.777   3.339  1.00  0.00    +0.000 N 
ATOM     94  C63 UNL A   1      14.154  47.755   1.461  1.00  0.00    +0.000 C 
ATOM     95  C64 UNL A   1      15.090  47.780   0.523  1.00  0.00    +0.000 C 
ATOM     96  C65 UNL A   1      16.708  55.863   1.966  1.00  0.00    +0.000 C 
ATOM     97  C66 UNL A   1      15.949  55.846   3.052  1.00  0.00    +0.000 C 
ENDROOT
BRANCH   41   40
ATOM     98  C67 UNL A   1      12.919  55.960   4.806  1.00  0.00    +0.000 C 
ATOM     99  C68 UNL A   1      12.538  56.947   5.710  1.00  0.00    +0.000 C 
ATOM     37  C25 UNL A   1      13.172  57.037   6.953  1.00  0.00    +0.000 C 
ATOM     38  C26 UNL A   1      14.258  56.210   7.248  1.00  0.00    +0.000 C 
ATOM     39  C27 UNL A   1      14.685  55.267   6.313  1.00  0.00    +0.000 C 
ATOM    136  H37 UNL A   1      14.744  56.297   8.155  1.00  0.00    +0.000 H 
ATOM     40  C28 UNL A   1      14.005  55.120   5.093  1.00  0.00    +0.000 C 
ATOM    137  H38 UNL A   1      15.505  54.675   6.519  1.00  0.00    +0.000 H 
ATOM    148  H49 UNL A   1      12.400  55.845   3.921  1.00  0.00    +0.000 H 
ATOM    149  H50 UNL A   1      11.789  57.614   5.463  1.00  0.00    +0.000 H 
BRANCH   37   35
ATOM     35  C24 UNL A   1      12.733  58.017   7.971  1.00  0.00    +0.000 C 
ATOM     36  O5  UNL A   1      12.985  59.203   7.824  1.00  0.00    +0.000 O 
BRANCH   35   34
ATOM     34  N6  UNL A   1      12.055  57.587   9.084  1.00  0.00    +0.000 N 
ATOM    135  H36 UNL A   1      12.245  58.085   9.912  1.00  0.00    +0.000 H 
BRANCH   34   33
ATOM     33  C23 UNL A   1      11.099  56.504   9.214  1.00  0.00    +0.000 C 
ATOM    133  H34 UNL A   1      10.256  56.854   9.771  1.00  0.00    +0.000 H 
ATOM    134  H35 UNL A   1      10.816  56.196   8.229  1.00  0.00    +0.000 H 
BRANCH   33   32
ATOM    131  H32 UNL A   1      12.730  55.240   9.681  1.00  0.00    +0.000 H 
ATOM    132  H33 UNL A   1      11.509  55.446  10.972  1.00  0.00    +0.000 H 
ATOM     32  C22 UNL A   1      11.691  55.295   9.928  1.00  0.00    +0.000 C 
BRANCH   32   31
ATOM    129  H30 UNL A   1      10.175  53.834  10.183  1.00  0.00    +0.000 H 
ATOM    130  H31 UNL A   1      10.836  53.997   8.525  1.00  0.00    +0.000 H 
ATOM     31  C21 UNL A   1      11.047  53.953   9.573  1.00  0.00    +0.000 C 
BRANCH   31   30
ATOM     30  C20 UNL A   1      11.935  52.723   9.773  1.00  0.00    +0.000 C 
ATOM    127  H28 UNL A   1      12.559  52.900  10.625  1.00  0.00    +0.000 H 
ATOM    128  H29 UNL A   1      11.269  51.894   9.894  1.00  0.00    +0.000 H 
BRANCH   30   29
ATOM    125  H26 UNL A   1      12.747  51.320   8.402  1.00  0.00    +0.000 H 
ATOM     29  C19 UNL A   1      12.839  52.369   8.591  1.00  0.00    +0.000 C 
ATOM    126  H27 UNL A   1      12.515  52.976   7.771  1.00  0.00    +0.000 H 
BRANCH   29   28
ATOM    124  H25 UNL A   1      14.421  53.166   9.748  1.00  0.00    +0.000 H 
ATOM    123  H24 UNL A   1      14.650  53.319   8.004  1.00  0.00    +0.000 H 
ATOM     28  C18 UNL A   1      14.316  52.685   8.798  1.00  0.00    +0.000 C 
BRANCH   28   27
ATOM    122  H23 UNL A   1      15.627  51.306   7.982  1.00  0.00    +0.000 H 
ATOM     27  N5  UNL A   1      15.128  51.485   8.811  1.00  0.00    +0.000 N 
BRANCH   27   25
ATOM     25  C17 UNL A   1      15.301  50.570   9.804  1.00  0.00    +0.000 C 
ATOM     26  O4  UNL A   1      14.807  49.451   9.631  1.00  0.00    +0.000 O 
BRANCH   25   22
ATOM    118  H19 UNL A   1      16.283  51.929  11.063  1.00  0.00    +0.000 H 
ATOM     22  C15 UNL A   1      16.013  50.896  11.123  1.00  0.00    +0.000 C 
BRANCH   22   21
ATOM    117  H18 UNL A   1      15.108  49.949  12.803  1.00  0.00    +0.000 H 
ATOM     21  N4  UNL A   1      15.138  50.792  12.295  1.00  0.00    +0.000 N 
BRANCH   21   19
ATOM     19  C14 UNL A   1      14.367  51.838  12.689  1.00  0.00    +0.000 C 
ATOM     20  O2  UNL A   1      14.712  52.955  12.297  1.00  0.00    +0.000 O 
BRANCH   19   16
ATOM    113  H14 UNL A   1      12.314  51.413  12.902  1.00  0.00    +0.000 H 
ATOM     16  C12 UNL A   1      13.119  51.628  13.573  1.00  0.00    +0.000 C 
BRANCH   16   15
ATOM     15  N3  UNL A   1      13.337  50.471  14.427  1.00  0.00    +0.000 N 
ATOM    112  H13 UNL A   1      14.264  50.197  14.608  1.00  0.00    +0.000 H 
BRANCH   15   13
ATOM     13  C11 UNL A   1      12.320  49.742  14.996  1.00  0.00    +0.000 C 
ATOM     14  O1  UNL A   1      11.651  50.308  15.864  1.00  0.00    +0.000 O 
BRANCH   13    2
ATOM      2  C1  UNL A   1      11.970  48.304  14.516  1.00  0.00    +0.000 C 
ATOM    103  H4  UNL A   1      12.857  47.916  14.058  1.00  0.00    +0.000 H 
BRANCH    2    1
ATOM      1  N1  UNL A   1      11.695  47.417  15.666  1.00  0.00    +0.000 N 
ATOM    100  H1  UNL A   1      10.789  46.965  15.536  1.00  0.00    +0.000 H 
ATOM    101  H2  UNL A   1      11.680  47.969  16.524  1.00  0.00    +0.000 H 
ATOM    102  H3  UNL A   1      12.424  46.707  15.730  1.00  0.00    +0.000 H 
ENDBRANCH    2    1
BRANCH    2    3
ATOM    105  H6  UNL A   1      10.296  47.499  13.621  1.00  0.00    +0.000 H 
ATOM      3  C2  UNL A   1      11.049  48.178  13.279  1.00  0.00    +0.000 C 
ATOM    104  H5  UNL A   1      10.760  49.172  13.014  1.00  0.00    +0.000 H 
BRANCH    3    4
ATOM      4  C3  UNL A   1      11.525  47.516  12.002  1.00  0.00    +0.000 C 
ATOM      5  C4  UNL A   1      12.806  47.168  11.605  1.00  0.00    +0.000 C 
ATOM      6  N2  UNL A   1      12.724  46.464  10.430  1.00  0.00    +0.000 N 
ATOM      7  C5  UNL A   1      11.436  46.474   9.961  1.00  0.00    +0.000 C 
ATOM      8  C6  UNL A   1      10.899  45.930   8.787  1.00  0.00    +0.000 C 
ATOM      9  C7  UNL A   1       9.550  46.174   8.518  1.00  0.00    +0.000 C 
ATOM    106  H7  UNL A   1      13.676  47.399  12.109  1.00  0.00    +0.000 H 
ATOM     11  C9  UNL A   1       9.311  47.405  10.594  1.00  0.00    +0.000 C 
ATOM     12  C10 UNL A   1      10.671  47.180  10.890  1.00  0.00    +0.000 C 
ATOM     10  C8  UNL A   1       8.769  46.916   9.399  1.00  0.00    +0.000 C 
ATOM    107  H8  UNL A   1      13.482  46.016   9.988  1.00  0.00    +0.000 H 
ATOM    111  H12 UNL A   1       8.716  47.928  11.256  1.00  0.00    +0.000 H 
ATOM    108  H9  UNL A   1      11.481  45.370   8.143  1.00  0.00    +0.000 H 
ATOM    110  H11 UNL A   1       7.782  47.108   9.169  1.00  0.00    +0.000 H 
ATOM    109  H10 UNL A   1       9.128  45.798   7.655  1.00  0.00    +0.000 H 
ENDBRANCH    3    4
ENDBRANCH    2    3
ENDBRANCH   13    2
ENDBRANCH   15   13
ENDBRANCH   16   15
BRANCH   16   17
ATOM     17  C13 UNL A   1      12.426  52.848  14.199  1.00  0.00    +0.000 C 
ATOM    114  H15 UNL A   1      13.125  53.657  14.178  1.00  0.00    +0.000 H 
ATOM    115  H16 UNL A   1      12.130  52.520  15.173  1.00  0.00    +0.000 H 
BRANCH   17   18
ATOM     18  S1  UNL A   1      10.885  53.439  13.424  1.00  0.00    +0.000 S 
ATOM    116  H17 UNL A   1      10.077  52.378  13.155  1.00  0.00    +0.000 H 
ENDBRANCH   17   18
ENDBRANCH   16   17
ENDBRANCH   19   16
ENDBRANCH   21   19
ENDBRANCH   22   21
BRANCH   22   23
ATOM    119  H20 UNL A   1      17.090  49.119  11.621  1.00  0.00    +0.000 H 
ATOM     23  C16 UNL A   1      17.323  50.109  11.287  1.00  0.00    +0.000 C 
ATOM    120  H21 UNL A   1      17.930  50.629  11.999  1.00  0.00    +0.000 H 
BRANCH   23   24
ATOM    121  H22 UNL A   1      17.836  50.773   9.500  1.00  0.00    +0.000 H 
ATOM     24  O3  UNL A   1      18.059  50.020  10.068  1.00  0.00    +0.000 O 
ENDBRANCH   23   24
ENDBRANCH   22   23
ENDBRANCH   25   22
ENDBRANCH   27   25
ENDBRANCH   28   27
ENDBRANCH   29   28
ENDBRANCH   30   29
ENDBRANCH   31   30
ENDBRANCH   32   31
ENDBRANCH   33   32
ENDBRANCH   34   33
ENDBRANCH   35   34
ENDBRANCH   37   35
ENDBRANCH   41   40
BRANCH   45   46
ATOM     46  C33 UNL A   1      18.404  55.338  -0.288  1.00  0.00    +0.000 C 
ATOM     47  C34 UNL A   1      19.564  55.805   0.349  1.00  0.00    +0.000 C 
ATOM     48  F1  UNL A   1      19.930  55.306   1.539  1.00  0.00    +0.000 F 
ATOM     49  C35 UNL A   1      20.334  56.818  -0.218  1.00  0.00    +0.000 C 
ATOM     50  F2  UNL A   1      21.411  57.281   0.432  1.00  0.00    +0.000 F 
ATOM     51  C36 UNL A   1      19.981  57.358  -1.445  1.00  0.00    +0.000 C 
ATOM     52  F3  UNL A   1      20.726  58.328  -1.992  1.00  0.00    +0.000 F 
ATOM     53  C37 UNL A   1      18.850  56.897  -2.101  1.00  0.00    +0.000 C 
ATOM     54  F4  UNL A   1      18.512  57.410  -3.294  1.00  0.00    +0.000 F 
ATOM     55  C38 UNL A   1      18.061  55.904  -1.524  1.00  0.00    +0.000 C 
ATOM     56  F5  UNL A   1      16.964  55.491  -2.177  1.00  0.00    +0.000 F 
ENDBRANCH   45   46
BRANCH   62   63
ATOM     65  F6  UNL A   1      18.819  47.678   0.064  1.00  0.00    +0.000 F 
ATOM     66  C46 UNL A   1      18.578  46.487  -1.952  1.00  0.00    +0.000 C 
ATOM     67  F7  UNL A   1      19.627  45.720  -1.623  1.00  0.00    +0.000 F 
ATOM     68  C47 UNL A   1      17.920  46.281  -3.155  1.00  0.00    +0.000 C 
ATOM     69  F8  UNL A   1      18.320  45.303  -3.980  1.00  0.00    +0.000 F 
ATOM     70  C48 UNL A   1      16.853  47.093  -3.508  1.00  0.00    +0.000 C 
ATOM     71  F9  UNL A   1      16.208  46.887  -4.664  1.00  0.00    +0.000 F 
ATOM     72  C49 UNL A   1      16.451  48.123  -2.663  1.00  0.00    +0.000 C 
ATOM     73  F10 UNL A   1      15.424  48.901  -3.035  1.00  0.00    +0.000 F 
ATOM     63  C44 UNL A   1      17.096  48.343  -1.436  1.00  0.00    +0.000 C 
ATOM     64  C45 UNL A   1      18.160  47.497  -1.091  1.00  0.00    +0.000 C 
ENDBRANCH   62   63
BRANCH   77   78
ATOM     78  C53 UNL A   1      12.408  48.426   3.715  1.00  0.00    +0.000 C 
ATOM     79  C54 UNL A   1      11.068  48.349   3.307  1.00  0.00    +0.000 C 
ATOM     80  F11 UNL A   1      10.593  49.221   2.407  1.00  0.00    +0.000 F 
ATOM     81  C55 UNL A   1      10.203  47.404   3.853  1.00  0.00    +0.000 C 
ATOM     82  F12 UNL A   1       8.916  47.381   3.479  1.00  0.00    +0.000 F 
ATOM     83  C56 UNL A   1      10.667  46.497   4.795  1.00  0.00    +0.000 C 
ATOM     84  F13 UNL A   1       9.836  45.586   5.317  1.00  0.00    +0.000 F 
ATOM     85  C57 UNL A   1      11.993  46.542   5.199  1.00  0.00    +0.000 C 
ATOM     86  F14 UNL A   1      12.449  45.659   6.098  1.00  0.00    +0.000 F 
ATOM     87  C58 UNL A   1      12.853  47.505   4.673  1.00  0.00    +0.000 C 
ATOM     88  F15 UNL A   1      14.127  47.531   5.091  1.00  0.00    +0.000 F 
ENDBRANCH   77   78
TORSDOF 28
ENDMDL
MODEL 4
REMARK VINA RESULT:      -6.8      2.376      3.771
ROOT
ATOM    138  H39 UNL A   1      18.851  53.565  -1.300  1.00  0.00    +0.000 H 
ATOM    139  H40 UNL A   1      18.449  51.053  -1.876  1.00  0.00    +0.000 H 
ATOM    140  H41 UNL A   1      16.023  52.058   1.326  1.00  0.00    +0.000 H 
ATOM    141  H42 UNL A   1      11.869  50.320   5.853  1.00  0.00    +0.000 H 
ATOM    142  H43 UNL A   1      12.258  52.771   6.400  1.00  0.00    +0.000 H 
ATOM    143  H44 UNL A   1      14.596  51.820   3.098  1.00  0.00    +0.000 H 
ATOM    144  H45 UNL A   1      13.685  46.986   2.090  1.00  0.00    +0.000 H 
ATOM    145  H46 UNL A   1      15.472  47.165   0.266  1.00  0.00    +0.000 H 
ATOM    146  H47 UNL A   1      16.661  56.937   2.255  1.00  0.00    +0.000 H 
ATOM    147  H48 UNL A   1      15.287  56.662   4.398  1.00  0.00    +0.000 H 
ATOM     41  C29 UNL A   1      14.142  54.067   4.699  1.00  0.00    +0.000 C 
ATOM     42  C30 UNL A   1      15.099  54.533   3.637  1.00  0.00    +0.000 C 
ATOM     43  N7  UNL A   1      15.614  53.865   2.636  1.00  0.00    +0.000 N 
ATOM     44  C31 UNL A   1      16.396  54.775   1.937  1.00  0.00    +0.000 C 
ATOM     45  C32 UNL A   1      17.186  54.556   0.859  1.00  0.00    +0.000 C 
ATOM     57  C39 UNL A   1      17.357  53.274   0.230  1.00  0.00    +0.000 C 
ATOM     58  C40 UNL A   1      18.192  52.932  -0.820  1.00  0.00    +0.000 C 
ATOM     59  C41 UNL A   1      17.987  51.580  -1.119  1.00  0.00    +0.000 C 
ATOM     60  C42 UNL A   1      17.059  51.069  -0.225  1.00  0.00    +0.000 C 
ATOM     61  N8  UNL A   1      16.678  52.120   0.594  1.00  0.00    +0.000 N 
ATOM     62  C43 UNL A   1      16.555  49.724  -0.126  1.00  0.00    +0.000 C 
ATOM     74  C50 UNL A   1      15.652  49.296   0.790  1.00  0.00    +0.000 C 
ATOM     75  N9  UNL A   1      15.026  50.012   1.801  1.00  0.00    +0.000 N 
ATOM     76  C51 UNL A   1      14.228  49.164   2.402  1.00  0.00    +0.000 C 
ATOM     77  C52 UNL A   1      13.326  49.385   3.585  1.00  0.00    +0.000 C 
ATOM     89  C59 UNL A   1      13.297  50.597   4.171  1.00  0.00    +0.000 C 
ATOM     90  C60 UNL A   1      12.496  50.957   5.338  1.00  0.00    +0.000 C 
ATOM     91  C61 UNL A   1      12.709  52.250   5.632  1.00  0.00    +0.000 C 
ATOM     92  C62 UNL A   1      13.683  52.801   4.689  1.00  0.00    +0.000 C 
ATOM     93  N10 UNL A   1      13.969  51.752   3.853  1.00  0.00    +0.000 N 
ATOM     94  C63 UNL A   1      14.241  47.813   1.824  1.00  0.00    +0.000 C 
ATOM     95  C64 UNL A   1      15.155  47.938   0.872  1.00  0.00    +0.000 C 
ATOM     96  C65 UNL A   1      16.247  56.054   2.595  1.00  0.00    +0.000 C 
ATOM     97  C66 UNL A   1      15.511  55.945   3.691  1.00  0.00    +0.000 C 
ENDROOT
BRANCH   41   40
ATOM     98  C67 UNL A   1      12.512  55.782   5.500  1.00  0.00    +0.000 C 
ATOM     99  C68 UNL A   1      12.082  56.707   6.447  1.00  0.00    +0.000 C 
ATOM     37  C25 UNL A   1      12.735  56.798   7.680  1.00  0.00    +0.000 C 
ATOM     38  C26 UNL A   1      13.883  56.041   7.923  1.00  0.00    +0.000 C 
ATOM     39  C27 UNL A   1      14.355  55.165   6.946  1.00  0.00    +0.000 C 
ATOM    136  H37 UNL A   1      14.381  56.131   8.823  1.00  0.00    +0.000 H 
ATOM     40  C28 UNL A   1      13.661  55.013   5.735  1.00  0.00    +0.000 C 
ATOM    137  H38 UNL A   1      15.219  54.626   7.114  1.00  0.00    +0.000 H 
ATOM    148  H49 UNL A   1      11.983  55.662   4.622  1.00  0.00    +0.000 H 
ATOM    149  H50 UNL A   1      11.282  57.327   6.239  1.00  0.00    +0.000 H 
BRANCH   37   35
ATOM     35  C24 UNL A   1      12.250  57.708   8.741  1.00  0.00    +0.000 C 
ATOM     36  O5  UNL A   1      12.562  58.889   8.722  1.00  0.00    +0.000 O 
BRANCH   35   34
ATOM     34  N6  UNL A   1      11.462  57.218   9.752  1.00  0.00    +0.000 N 
ATOM    135  H36 UNL A   1      11.878  57.208  10.644  1.00  0.00    +0.000 H 
BRANCH   34   33
ATOM     33  C23 UNL A   1      10.103  56.712   9.693  1.00  0.00    +0.000 C 
ATOM    133  H34 UNL A   1       9.507  57.243  10.406  1.00  0.00    +0.000 H 
ATOM    134  H35 UNL A   1       9.742  56.858   8.696  1.00  0.00    +0.000 H 
BRANCH   33   32
ATOM    131  H32 UNL A   1      10.641  55.030  10.858  1.00  0.00    +0.000 H 
ATOM    132  H33 UNL A   1       8.993  55.003  10.163  1.00  0.00    +0.000 H 
ATOM     32  C22 UNL A   1      10.028  55.223  10.003  1.00  0.00    +0.000 C 
BRANCH   32   31
ATOM    129  H30 UNL A   1       9.640  54.075   8.262  1.00  0.00    +0.000 H 
ATOM    130  H31 UNL A   1      11.261  54.834   8.355  1.00  0.00    +0.000 H 
ATOM     31  C21 UNL A   1      10.490  54.301   8.872  1.00  0.00    +0.000 C 
BRANCH   31   30
ATOM     30  C20 UNL A   1      11.119  52.978   9.315  1.00  0.00    +0.000 C 
ATOM    127  H28 UNL A   1      10.848  52.809  10.337  1.00  0.00    +0.000 H 
ATOM    128  H29 UNL A   1      10.746  52.234   8.644  1.00  0.00    +0.000 H 
BRANCH   30   29
ATOM    125  H26 UNL A   1      12.904  52.061   8.620  1.00  0.00    +0.000 H 
ATOM     29  C19 UNL A   1      12.645  52.912   9.215  1.00  0.00    +0.000 C 
ATOM    126  H27 UNL A   1      12.959  53.839   8.784  1.00  0.00    +0.000 H 
BRANCH   29   28
ATOM    124  H25 UNL A   1      12.940  51.974  11.088  1.00  0.00    +0.000 H 
ATOM    123  H24 UNL A   1      13.255  53.711  11.090  1.00  0.00    +0.000 H 
ATOM     28  C18 UNL A   1      13.369  52.793  10.551  1.00  0.00    +0.000 C 
BRANCH   28   27
ATOM    122  H23 UNL A   1      15.385  53.256  10.646  1.00  0.00    +0.000 H 
ATOM     27  N5  UNL A   1      14.782  52.526  10.377  1.00  0.00    +0.000 N 
BRANCH   27   25
ATOM     25  C17 UNL A   1      15.396  51.411   9.896  1.00  0.00    +0.000 C 
ATOM     26  O4  UNL A   1      15.833  51.461   8.741  1.00  0.00    +0.000 O 
BRANCH   25   22
ATOM    118  H19 UNL A   1      15.236  50.357  11.702  1.00  0.00    +0.000 H 
ATOM     22  C15 UNL A   1      15.504  50.107  10.697  1.00  0.00    +0.000 C 
BRANCH   22   21
ATOM    117  H18 UNL A   1      14.617  48.679   9.388  1.00  0.00    +0.000 H 
ATOM     21  N4  UNL A   1      14.535  49.089  10.280  1.00  0.00    +0.000 N 
BRANCH   21   19
ATOM     19  C14 UNL A   1      13.525  48.703  11.103  1.00  0.00    +0.000 C 
ATOM     20  O2  UNL A   1      13.297  49.429  12.073  1.00  0.00    +0.000 O 
BRANCH   19   16
ATOM    113  H14 UNL A   1      13.419  46.641  10.685  1.00  0.00    +0.000 H 
ATOM     16  C12 UNL A   1      12.706  47.426  10.824  1.00  0.00    +0.000 C 
BRANCH   16   15
ATOM     15  N3  UNL A   1      11.896  47.121  11.993  1.00  0.00    +0.000 N 
ATOM    112  H13 UNL A   1      11.234  47.787  12.284  1.00  0.00    +0.000 H 
BRANCH   15   13
ATOM     13  C11 UNL A   1      12.006  45.955  12.713  1.00  0.00    +0.000 C 
ATOM     14  O1  UNL A   1      12.376  44.955  12.093  1.00  0.00    +0.000 O 
BRANCH   13    2
ATOM      2  C1  UNL A   1      11.759  45.909  14.248  1.00  0.00    +0.000 C 
ATOM    103  H4  UNL A   1      12.159  44.977  14.588  1.00  0.00    +0.000 H 
BRANCH    2    1
ATOM      1  N1  UNL A   1      12.544  46.955  14.939  1.00  0.00    +0.000 N 
ATOM    100  H1  UNL A   1      11.941  47.455  15.592  1.00  0.00    +0.000 H 
ATOM    101  H2  UNL A   1      12.917  47.610  14.251  1.00  0.00    +0.000 H 
ATOM    102  H3  UNL A   1      13.313  46.521  15.449  1.00  0.00    +0.000 H 
ENDBRANCH    2    1
BRANCH    2    3
ATOM    105  H6  UNL A   1       9.958  46.673  14.898  1.00  0.00    +0.000 H 
ATOM      3  C2  UNL A   1      10.305  45.676  14.723  1.00  0.00    +0.000 C 
ATOM    104  H5  UNL A   1       9.829  45.094  13.963  1.00  0.00    +0.000 H 
BRANCH    3    4
ATOM      4  C3  UNL A   1      10.003  44.990  16.040  1.00  0.00    +0.000 C 
ATOM      5  C4  UNL A   1      10.274  45.395  17.336  1.00  0.00    +0.000 C 
ATOM      6  N2  UNL A   1       9.685  44.512  18.204  1.00  0.00    +0.000 N 
ATOM      7  C5  UNL A   1       9.163  43.448  17.514  1.00  0.00    +0.000 C 
ATOM      8  C6  UNL A   1       8.518  42.297  17.985  1.00  0.00    +0.000 C 
ATOM      9  C7  UNL A   1       8.167  41.323  17.047  1.00  0.00    +0.000 C 
ATOM    106  H7  UNL A   1      10.828  46.224  17.604  1.00  0.00    +0.000 H 
ATOM     11  C9  UNL A   1       9.031  42.686  15.237  1.00  0.00    +0.000 C 
ATOM     12  C10 UNL A   1       9.402  43.686  16.161  1.00  0.00    +0.000 C 
ATOM     10  C8  UNL A   1       8.435  41.504  15.693  1.00  0.00    +0.000 C 
ATOM    107  H8  UNL A   1       9.642  44.627  19.181  1.00  0.00    +0.000 H 
ATOM    111  H12 UNL A   1       9.197  42.825  14.228  1.00  0.00    +0.000 H 
ATOM    108  H9  UNL A   1       8.312  42.173  18.989  1.00  0.00    +0.000 H 
ATOM    110  H11 UNL A   1       8.192  40.761  15.020  1.00  0.00    +0.000 H 
ATOM    109  H10 UNL A   1       7.702  40.457  17.363  1.00  0.00    +0.000 H 
ENDBRANCH    3    4
ENDBRANCH    2    3
ENDBRANCH   13    2
ENDBRANCH   15   13
ENDBRANCH   16   15
BRANCH   16   17
ATOM     17  C13 UNL A   1      12.055  47.235   9.445  1.00  0.00    +0.000 C 
ATOM    114  H15 UNL A   1      12.696  46.597   8.875  1.00  0.00    +0.000 H 
ATOM    115  H16 UNL A   1      11.934  48.227   9.064  1.00  0.00    +0.000 H 
BRANCH   17   18
ATOM     18  S1  UNL A   1      10.381  46.514   9.389  1.00  0.00    +0.000 S 
ATOM    116  H17 UNL A   1       9.677  47.079   8.372  1.00  0.00    +0.000 H 
ENDBRANCH   17   18
ENDBRANCH   16   17
ENDBRANCH   19   16
ENDBRANCH   21   19
ENDBRANCH   22   21
BRANCH   22   23
ATOM    119  H20 UNL A   1      17.321  49.503   9.749  1.00  0.00    +0.000 H 
ATOM     23  C16 UNL A   1      16.944  49.571  10.748  1.00  0.00    +0.000 C 
ATOM    120  H21 UNL A   1      16.920  48.613  11.224  1.00  0.00    +0.000 H 
BRANCH   23   24
ATOM    121  H22 UNL A   1      17.295  51.133  11.904  1.00  0.00    +0.000 H 
ATOM     24  O3  UNL A   1      17.810  50.414  11.508  1.00  0.00    +0.000 O 
ENDBRANCH   23   24
ENDBRANCH   22   23
ENDBRANCH   25   22
ENDBRANCH   27   25
ENDBRANCH   28   27
ENDBRANCH   29   28
ENDBRANCH   30   29
ENDBRANCH   31   30
ENDBRANCH   32   31
ENDBRANCH   33   32
ENDBRANCH   34   33
ENDBRANCH   35   34
ENDBRANCH   37   35
ENDBRANCH   41   40
BRANCH   45   46
ATOM     46  C33 UNL A   1      17.932  55.730   0.294  1.00  0.00    +0.000 C 
ATOM     47  C34 UNL A   1      17.387  56.525  -0.726  1.00  0.00    +0.000 C 
ATOM     48  F1  UNL A   1      16.194  56.219  -1.258  1.00  0.00    +0.000 F 
ATOM     49  C35 UNL A   1      18.086  57.618  -1.233  1.00  0.00    +0.000 C 
ATOM     50  F2  UNL A   1      17.567  58.333  -2.241  1.00  0.00    +0.000 F 
ATOM     51  C36 UNL A   1      19.323  57.958  -0.708  1.00  0.00    +0.000 C 
ATOM     52  F3  UNL A   1      19.992  59.013  -1.192  1.00  0.00    +0.000 F 
ATOM     53  C37 UNL A   1      19.871  57.198   0.315  1.00  0.00    +0.000 C 
ATOM     54  F4  UNL A   1      21.062  57.532   0.832  1.00  0.00    +0.000 F 
ATOM     55  C38 UNL A   1      19.187  56.088   0.805  1.00  0.00    +0.000 C 
ATOM     56  F5  UNL A   1      19.752  55.364   1.784  1.00  0.00    +0.000 F 
ENDBRANCH   45   46
BRANCH   62   63
ATOM     65  F6  UNL A   1      18.729  47.946   0.441  1.00  0.00    +0.000 F 
ATOM     66  C46 UNL A   1      18.601  46.899  -1.663  1.00  0.00    +0.000 C 
ATOM     67  F7  UNL A   1      19.638  46.115  -1.335  1.00  0.00    +0.000 F 
ATOM     68  C47 UNL A   1      18.008  46.776  -2.911  1.00  0.00    +0.000 C 
ATOM     69  F8  UNL A   1      18.457  45.860  -3.781  1.00  0.00    +0.000 F 
ATOM     70  C48 UNL A   1      16.954  47.606  -3.260  1.00  0.00    +0.000 C 
ATOM     71  F9  UNL A   1      16.371  47.479  -4.460  1.00  0.00    +0.000 F 
ATOM     72  C49 UNL A   1      16.501  48.572  -2.367  1.00  0.00    +0.000 C 
ATOM     73  F10 UNL A   1      15.489  49.371  -2.737  1.00  0.00    +0.000 F 
ATOM     63  C44 UNL A   1      17.081  48.708  -1.096  1.00  0.00    +0.000 C 
ATOM     64  C45 UNL A   1      18.132  47.844  -0.756  1.00  0.00    +0.000 C 
ENDBRANCH   62   63
BRANCH   77   78
ATOM     78  C53 UNL A   1      12.496  48.280   4.130  1.00  0.00    +0.000 C 
ATOM     79  C54 UNL A   1      11.227  48.005   3.601  1.00  0.00    +0.000 C 
ATOM     80  F11 UNL A   1      10.741  48.758   2.603  1.00  0.00    +0.000 F 
ATOM     81  C55 UNL A   1      10.436  46.983   4.121  1.00  0.00    +0.000 C 
ATOM     82  F12 UNL A   1       9.209  46.770   3.627  1.00  0.00    +0.000 F 
ATOM     83  C56 UNL A   1      10.911  46.197   5.161  1.00  0.00    +0.000 C 
ATOM     84  F13 UNL A   1      10.151  45.213   5.660  1.00  0.00    +0.000 F 
ATOM     85  C57 UNL A   1      12.170  46.439   5.688  1.00  0.00    +0.000 C 
ATOM     86  F14 UNL A   1      12.638  45.673   6.684  1.00  0.00    +0.000 F 
ATOM     87  C58 UNL A   1      12.951  47.478   5.185  1.00  0.00    +0.000 C 
ATOM     88  F15 UNL A   1      14.161  47.695   5.722  1.00  0.00    +0.000 F 
ENDBRANCH   77   78
TORSDOF 28
ENDMDL
MODEL 5
REMARK VINA RESULT:      -6.8     43.045     48.965
ROOT
ATOM    138  H39 UNL A   1      33.690  29.230  50.522  1.00  0.00    +0.000 H 
ATOM    139  H40 UNL A   1      35.592  30.377  49.156  1.00  0.00    +0.000 H 
ATOM    140  H41 UNL A   1      31.954  31.637  47.631  1.00  0.00    +0.000 H 
ATOM    141  H42 UNL A   1      28.645  34.894  43.248  1.00  0.00    +0.000 H 
ATOM    142  H43 UNL A   1      26.797  33.780  44.591  1.00  0.00    +0.000 H 
ATOM    143  H44 UNL A   1      30.436  32.613  46.226  1.00  0.00    +0.000 H 
ATOM    144  H45 UNL A   1      33.983  34.927  43.528  1.00  0.00    +0.000 H 
ATOM    145  H46 UNL A   1      35.700  33.640  44.924  1.00  0.00    +0.000 H 
ATOM    146  H47 UNL A   1      28.336  29.587  50.420  1.00  0.00    +0.000 H 
ATOM    147  H48 UNL A   1      26.613  30.435  48.726  1.00  0.00    +0.000 H 
ATOM     41  C29 UNL A   1      27.729  32.091  46.690  1.00  0.00    +0.000 C 
ATOM     42  C30 UNL A   1      28.460  31.329  47.760  1.00  0.00    +0.000 C 
ATOM     43  N7  UNL A   1      29.746  31.253  47.988  1.00  0.00    +0.000 N 
ATOM     44  C31 UNL A   1      29.883  30.456  49.118  1.00  0.00    +0.000 C 
ATOM     45  C32 UNL A   1      31.020  30.028  49.716  1.00  0.00    +0.000 C 
ATOM     57  C39 UNL A   1      32.345  30.341  49.252  1.00  0.00    +0.000 C 
ATOM     58  C40 UNL A   1      33.559  29.893  49.743  1.00  0.00    +0.000 C 
ATOM     59  C41 UNL A   1      34.580  30.498  48.999  1.00  0.00    +0.000 C 
ATOM     60  C42 UNL A   1      33.999  31.285  48.016  1.00  0.00    +0.000 C 
ATOM     61  N8  UNL A   1      32.629  31.181  48.185  1.00  0.00    +0.000 N 
ATOM     62  C43 UNL A   1      34.647  32.072  47.000  1.00  0.00    +0.000 C 
ATOM     74  C50 UNL A   1      34.006  32.809  46.060  1.00  0.00    +0.000 C 
ATOM     75  N9  UNL A   1      32.643  32.976  45.859  1.00  0.00    +0.000 N 
ATOM     76  C51 UNL A   1      32.525  33.794  44.842  1.00  0.00    +0.000 C 
ATOM     77  C52 UNL A   1      31.278  34.303  44.173  1.00  0.00    +0.000 C 
ATOM     89  C59 UNL A   1      30.078  33.885  44.617  1.00  0.00    +0.000 C 
ATOM     90  C60 UNL A   1      28.785  34.267  44.056  1.00  0.00    +0.000 C 
ATOM     91  C61 UNL A   1      27.810  33.672  44.760  1.00  0.00    +0.000 C 
ATOM     92  C62 UNL A   1      28.411  32.844  45.806  1.00  0.00    +0.000 C 
ATOM     93  N10 UNL A   1      29.760  33.038  45.651  1.00  0.00    +0.000 N 
ATOM     94  C63 UNL A   1      33.807  34.260  44.295  1.00  0.00    +0.000 C 
ATOM     95  C64 UNL A   1      34.676  33.598  45.046  1.00  0.00    +0.000 C 
ATOM     96  C65 UNL A   1      28.549  30.117  49.560  1.00  0.00    +0.000 C 
ATOM     97  C66 UNL A   1      27.635  30.573  48.716  1.00  0.00    +0.000 C 
ENDROOT
BRANCH   41   40
ATOM     98  C67 UNL A   1      25.499  33.039  47.299  1.00  0.00    +0.000 C 
ATOM     99  C68 UNL A   1      24.108  32.986  47.290  1.00  0.00    +0.000 C 
ATOM     37  C25 UNL A   1      23.451  32.013  46.530  1.00  0.00    +0.000 C 
ATOM     38  C26 UNL A   1      24.185  31.027  45.866  1.00  0.00    +0.000 C 
ATOM     39  C27 UNL A   1      25.579  31.039  45.933  1.00  0.00    +0.000 C 
ATOM    136  H37 UNL A   1      23.698  30.293  45.329  1.00  0.00    +0.000 H 
ATOM     40  C28 UNL A   1      26.247  32.057  46.632  1.00  0.00    +0.000 C 
ATOM    137  H38 UNL A   1      26.121  30.296  45.466  1.00  0.00    +0.000 H 
ATOM    148  H49 UNL A   1      25.981  33.803  47.798  1.00  0.00    +0.000 H 
ATOM    149  H50 UNL A   1      23.561  33.663  47.846  1.00  0.00    +0.000 H 
BRANCH   37   35
ATOM     35  C24 UNL A   1      21.975  31.983  46.429  1.00  0.00    +0.000 C 
ATOM     36  O5  UNL A   1      21.295  32.567  47.259  1.00  0.00    +0.000 O 
BRANCH   35   34
ATOM     34  N6  UNL A   1      21.376  31.287  45.410  1.00  0.00    +0.000 N 
ATOM    135  H36 UNL A   1      21.403  30.306  45.497  1.00  0.00    +0.000 H 
BRANCH   34   33
ATOM     33  C23 UNL A   1      20.707  31.789  44.225  1.00  0.00    +0.000 C 
ATOM    133  H34 UNL A   1      21.220  32.664  43.884  1.00  0.00    +0.000 H 
ATOM    134  H35 UNL A   1      20.724  31.014  43.486  1.00  0.00    +0.000 H 
BRANCH   33   32
ATOM    131  H32 UNL A   1      18.643  31.331  44.160  1.00  0.00    +0.000 H 
ATOM    132  H33 UNL A   1      19.177  32.333  45.542  1.00  0.00    +0.000 H 
ATOM     32  C22 UNL A   1      19.251  32.147  44.491  1.00  0.00    +0.000 C 
BRANCH   32   31
ATOM    129  H30 UNL A   1      19.519  34.164  43.896  1.00  0.00    +0.000 H 
ATOM    130  H31 UNL A   1      18.558  33.140  42.783  1.00  0.00    +0.000 H 
ATOM     31  C21 UNL A   1      18.758  33.418  43.797  1.00  0.00    +0.000 C 
BRANCH   31   30
ATOM     30  C20 UNL A   1      17.451  34.001  44.340  1.00  0.00    +0.000 C 
ATOM    127  H28 UNL A   1      16.819  34.228  43.506  1.00  0.00    +0.000 H 
ATOM    128  H29 UNL A   1      17.047  33.259  44.995  1.00  0.00    +0.000 H 
BRANCH   30   29
ATOM    125  H26 UNL A   1      18.298  35.072  45.966  1.00  0.00    +0.000 H 
ATOM     29  C19 UNL A   1      17.600  35.271  45.180  1.00  0.00    +0.000 C 
ATOM    126  H27 UNL A   1      17.927  36.039  44.510  1.00  0.00    +0.000 H 
BRANCH   29   28
ATOM    124  H25 UNL A   1      15.748  34.927  46.143  1.00  0.00    +0.000 H 
ATOM    123  H24 UNL A   1      15.761  36.337  45.081  1.00  0.00    +0.000 H 
ATOM     28  C18 UNL A   1      16.307  35.775  45.811  1.00  0.00    +0.000 C 
BRANCH   28   27
ATOM    122  H23 UNL A   1      16.720  37.572  46.753  1.00  0.00    +0.000 H 
ATOM     27  N5  UNL A   1      16.561  36.622  46.958  1.00  0.00    +0.000 N 
BRANCH   27   25
ATOM     25  C17 UNL A   1      16.612  36.295  48.278  1.00  0.00    +0.000 C 
ATOM     26  O4  UNL A   1      17.560  35.595  48.650  1.00  0.00    +0.000 O 
BRANCH   25   22
ATOM    118  H19 UNL A   1      15.616  36.025  50.103  1.00  0.00    +0.000 H 
ATOM     22  C15 UNL A   1      15.524  36.701  49.280  1.00  0.00    +0.000 C 
BRANCH   22   21
ATOM    117  H18 UNL A   1      15.262  38.808  49.457  1.00  0.00    +0.000 H 
ATOM     21  N4  UNL A   1      15.730  38.036  49.850  1.00  0.00    +0.000 N 
BRANCH   21   19
ATOM     19  C14 UNL A   1      16.557  38.226  50.911  1.00  0.00    +0.000 C 
ATOM     20  O2  UNL A   1      16.243  37.663  51.962  1.00  0.00    +0.000 O 
BRANCH   19   16
ATOM    113  H14 UNL A   1      18.472  38.783  51.588  1.00  0.00    +0.000 H 
ATOM     16  C12 UNL A   1      17.828  39.093  50.793  1.00  0.00    +0.000 C 
BRANCH   16   15
ATOM     15  N3  UNL A   1      18.479  38.804  49.525  1.00  0.00    +0.000 N 
ATOM    112  H13 UNL A   1      17.928  38.449  48.791  1.00  0.00    +0.000 H 
BRANCH   15   13
ATOM     13  C11 UNL A   1      19.820  39.000  49.295  1.00  0.00    +0.000 C 
ATOM     14  O1  UNL A   1      20.166  40.144  48.984  1.00  0.00    +0.000 O 
BRANCH   13    2
ATOM      2  C1  UNL A   1      20.865  37.865  49.495  1.00  0.00    +0.000 C 
ATOM    103  H4  UNL A   1      21.824  38.340  49.508  1.00  0.00    +0.000 H 
BRANCH    2    1
ATOM      1  N1  UNL A   1      20.712  37.239  50.826  1.00  0.00    +0.000 N 
ATOM    100  H1  UNL A   1      19.958  37.701  51.334  1.00  0.00    +0.000 H 
ATOM    101  H2  UNL A   1      21.583  37.335  51.348  1.00  0.00    +0.000 H 
ATOM    102  H3  UNL A   1      20.490  36.250  50.712  1.00  0.00    +0.000 H 
ENDBRANCH    2    1
BRANCH    2    3
ATOM    105  H6  UNL A   1      21.147  35.964  48.749  1.00  0.00    +0.000 H 
ATOM      3  C2  UNL A   1      21.132  36.931  48.291  1.00  0.00    +0.000 C 
ATOM    104  H5  UNL A   1      20.372  37.143  47.569  1.00  0.00    +0.000 H 
BRANCH    3    4
ATOM      4  C3  UNL A   1      22.450  36.958  47.546  1.00  0.00    +0.000 C 
ATOM      5  C4  UNL A   1      23.613  37.658  47.821  1.00  0.00    +0.000 C 
ATOM      6  N2  UNL A   1      24.588  37.252  46.945  1.00  0.00    +0.000 N 
ATOM      7  C5  UNL A   1      24.054  36.416  45.999  1.00  0.00    +0.000 C 
ATOM      8  C6  UNL A   1      24.658  35.804  44.892  1.00  0.00    +0.000 C 
ATOM      9  C7  UNL A   1      23.838  35.065  44.035  1.00  0.00    +0.000 C 
ATOM    106  H7  UNL A   1      23.728  38.367  48.562  1.00  0.00    +0.000 H 
ATOM     11  C9  UNL A   1      21.902  35.505  45.428  1.00  0.00    +0.000 C 
ATOM     12  C10 UNL A   1      22.703  36.262  46.309  1.00  0.00    +0.000 C 
ATOM     10  C8  UNL A   1      22.476  34.931  44.287  1.00  0.00    +0.000 C 
ATOM    107  H8  UNL A   1      25.534  37.522  46.990  1.00  0.00    +0.000 H 
ATOM    111  H12 UNL A   1      20.897  35.374  45.623  1.00  0.00    +0.000 H 
ATOM    108  H9  UNL A   1      25.671  35.897  44.717  1.00  0.00    +0.000 H 
ATOM    110  H11 UNL A   1      21.884  34.403  43.627  1.00  0.00    +0.000 H 
ATOM    109  H10 UNL A   1      24.250  34.612  43.203  1.00  0.00    +0.000 H 
ENDBRANCH    3    4
ENDBRANCH    2    3
ENDBRANCH   13    2
ENDBRANCH   15   13
ENDBRANCH   16   15
BRANCH   16   17
ATOM     17  C13 UNL A   1      17.782  40.560  51.245  1.00  0.00    +0.000 C 
ATOM    114  H15 UNL A   1      16.803  40.744  51.633  1.00  0.00    +0.000 H 
ATOM    115  H16 UNL A   1      18.044  41.120  50.372  1.00  0.00    +0.000 H 
BRANCH   17   18
ATOM     18  S1  UNL A   1      18.979  41.097  52.511  1.00  0.00    +0.000 S 
ATOM    116  H17 UNL A   1      19.574  40.006  53.064  1.00  0.00    +0.000 H 
ENDBRANCH   17   18
ENDBRANCH   16   17
ENDBRANCH   19   16
ENDBRANCH   21   19
ENDBRANCH   22   21
BRANCH   22   23
ATOM    119  H20 UNL A   1      13.737  35.556  49.027  1.00  0.00    +0.000 H 
ATOM     23  C16 UNL A   1      14.108  36.509  48.712  1.00  0.00    +0.000 C 
ATOM    120  H21 UNL A   1      14.172  36.572  47.646  1.00  0.00    +0.000 H 
BRANCH   23   24
ATOM    121  H22 UNL A   1      13.112  38.197  48.466  1.00  0.00    +0.000 H 
ATOM     24  O3  UNL A   1      13.204  37.522  49.155  1.00  0.00    +0.000 O 
ENDBRANCH   23   24
ENDBRANCH   22   23
ENDBRANCH   25   22
ENDBRANCH   27   25
ENDBRANCH   28   27
ENDBRANCH   29   28
ENDBRANCH   30   29
ENDBRANCH   31   30
ENDBRANCH   32   31
ENDBRANCH   33   32
ENDBRANCH   34   33
ENDBRANCH   35   34
ENDBRANCH   37   35
ENDBRANCH   41   40
BRANCH   45   46
ATOM     46  C33 UNL A   1      30.879  29.167  50.937  1.00  0.00    +0.000 C 
ATOM     47  C34 UNL A   1      30.858  29.719  52.228  1.00  0.00    +0.000 C 
ATOM     48  F1  UNL A   1      31.013  31.040  52.400  1.00  0.00    +0.000 F 
ATOM     49  C35 UNL A   1      30.717  28.908  53.352  1.00  0.00    +0.000 C 
ATOM     50  F2  UNL A   1      30.747  29.454  54.576  1.00  0.00    +0.000 F 
ATOM     51  C36 UNL A   1      30.558  27.539  53.207  1.00  0.00    +0.000 C 
ATOM     52  F3  UNL A   1      30.417  26.761  54.289  1.00  0.00    +0.000 F 
ATOM     53  C37 UNL A   1      30.556  26.974  51.941  1.00  0.00    +0.000 C 
ATOM     54  F4  UNL A   1      30.393  25.651  51.798  1.00  0.00    +0.000 F 
ATOM     55  C38 UNL A   1      30.726  27.778  50.816  1.00  0.00    +0.000 C 
ATOM     56  F5  UNL A   1      30.735  27.200  49.605  1.00  0.00    +0.000 F 
ENDBRANCH   45   46
BRANCH   62   63
ATOM     65  F6  UNL A   1      36.200  30.233  45.446  1.00  0.00    +0.000 F 
ATOM     66  C46 UNL A   1      38.247  31.174  46.127  1.00  0.00    +0.000 C 
ATOM     67  F7  UNL A   1      38.907  30.267  45.393  1.00  0.00    +0.000 F 
ATOM     68  C47 UNL A   1      38.952  32.115  46.862  1.00  0.00    +0.000 C 
ATOM     69  F8  UNL A   1      40.292  32.132  46.822  1.00  0.00    +0.000 F 
ATOM     70  C48 UNL A   1      38.271  33.035  47.643  1.00  0.00    +0.000 C 
ATOM     71  F9  UNL A   1      38.950  33.953  48.343  1.00  0.00    +0.000 F 
ATOM     72  C49 UNL A   1      36.881  33.005  47.703  1.00  0.00    +0.000 C 
ATOM     73  F10 UNL A   1      36.247  33.898  48.478  1.00  0.00    +0.000 F 
ATOM     63  C44 UNL A   1      36.146  32.067  46.961  1.00  0.00    +0.000 C 
ATOM     64  C45 UNL A   1      36.856  31.159  46.162  1.00  0.00    +0.000 C 
ENDBRANCH   62   63
BRANCH   77   78
ATOM     78  C53 UNL A   1      31.357  35.230  43.015  1.00  0.00    +0.000 C 
ATOM     79  C54 UNL A   1      31.186  36.611  43.186  1.00  0.00    +0.000 C 
ATOM     80  F11 UNL A   1      30.928  37.107  44.405  1.00  0.00    +0.000 F 
ATOM     81  C55 UNL A   1      31.238  37.483  42.101  1.00  0.00    +0.000 C 
ATOM     82  F12 UNL A   1      31.027  38.793  42.286  1.00  0.00    +0.000 F 
ATOM     83  C56 UNL A   1      31.492  36.994  40.828  1.00  0.00    +0.000 C 
ATOM     84  F13 UNL A   1      31.546  37.833  39.785  1.00  0.00    +0.000 F 
ATOM     85  C57 UNL A   1      31.683  35.635  40.638  1.00  0.00    +0.000 C 
ATOM     86  F14 UNL A   1      31.943  35.159  39.411  1.00  0.00    +0.000 F 
ATOM     87  C58 UNL A   1      31.605  34.758  41.719  1.00  0.00    +0.000 C 
ATOM     88  F15 UNL A   1      31.783  33.447  41.503  1.00  0.00    +0.000 F 
ENDBRANCH   77   78
TORSDOF 28
ENDMDL
MODEL 6
REMARK VINA RESULT:      -6.7      1.835      7.720
ROOT
ATOM    138  H39 UNL A   1      13.749  46.742   2.186  1.00  0.00    +0.000 H 
ATOM    139  H40 UNL A   1      15.364  47.058   0.163  1.00  0.00    +0.000 H 
ATOM    140  H41 UNL A   1      15.151  50.641   2.228  1.00  0.00    +0.000 H 
ATOM    141  H42 UNL A   1      16.672  56.823   2.715  1.00  0.00    +0.000 H 
ATOM    142  H43 UNL A   1      15.106  56.503   4.690  1.00  0.00    +0.000 H 
ATOM    143  H44 UNL A   1      15.416  52.860   2.713  1.00  0.00    +0.000 H 
ATOM    144  H45 UNL A   1      18.578  53.616  -1.115  1.00  0.00    +0.000 H 
ATOM    145  H46 UNL A   1      18.090  51.205  -1.823  1.00  0.00    +0.000 H 
ATOM    146  H47 UNL A   1      12.218  49.928   6.225  1.00  0.00    +0.000 H 
ATOM    147  H48 UNL A   1      12.269  52.451   6.655  1.00  0.00    +0.000 H 
ATOM     41  C29 UNL A   1      14.030  53.873   4.919  1.00  0.00    +0.000 C 
ATOM     42  C30 UNL A   1      13.662  52.417   4.865  1.00  0.00    +0.000 C 
ATOM     43  N7  UNL A   1      14.056  51.495   4.024  1.00  0.00    +0.000 N 
ATOM     44  C31 UNL A   1      13.456  50.317   4.447  1.00  0.00    +0.000 C 
ATOM     45  C32 UNL A   1      13.500  49.092   3.869  1.00  0.00    +0.000 C 
ATOM     57  C39 UNL A   1      14.213  48.797   2.654  1.00  0.00    +0.000 C 
ATOM     58  C40 UNL A   1      14.257  47.608   1.948  1.00  0.00    +0.000 C 
ATOM     59  C41 UNL A   1      15.112  47.783   0.853  1.00  0.00    +0.000 C 
ATOM     60  C42 UNL A   1      15.563  49.094   0.853  1.00  0.00    +0.000 C 
ATOM     61  N8  UNL A   1      15.005  49.703   1.965  1.00  0.00    +0.000 N 
ATOM     62  C43 UNL A   1      16.436  49.742  -0.090  1.00  0.00    +0.000 C 
ATOM     74  C50 UNL A   1      16.823  51.039  -0.029  1.00  0.00    +0.000 C 
ATOM     75  N9  UNL A   1      16.489  52.008   0.907  1.00  0.00    +0.000 N 
ATOM     76  C51 UNL A   1      17.126  53.095   0.546  1.00  0.00    +0.000 C 
ATOM     77  C52 UNL A   1      17.112  54.458   1.180  1.00  0.00    +0.000 C 
ATOM     89  C59 UNL A   1      16.343  54.670   2.265  1.00  0.00    +0.000 C 
ATOM     90  C60 UNL A   1      16.204  55.940   2.972  1.00  0.00    +0.000 C 
ATOM     91  C61 UNL A   1      15.370  55.772   4.011  1.00  0.00    +0.000 C 
ATOM     92  C62 UNL A   1      14.894  54.388   4.025  1.00  0.00    +0.000 C 
ATOM     93  N10 UNL A   1      15.530  53.806   2.958  1.00  0.00    +0.000 N 
ATOM     94  C63 UNL A   1      17.959  52.931  -0.653  1.00  0.00    +0.000 C 
ATOM     95  C64 UNL A   1      17.706  51.674  -0.987  1.00  0.00    +0.000 C 
ATOM     96  C65 UNL A   1      12.714  50.626   5.648  1.00  0.00    +0.000 C 
ATOM     97  C66 UNL A   1      12.752  51.924   5.911  1.00  0.00    +0.000 C 
ENDROOT
BRANCH   41   40
ATOM     98  C67 UNL A   1      12.261  55.409   5.791  1.00  0.00    +0.000 C 
ATOM     99  C68 UNL A   1      11.763  56.263   6.770  1.00  0.00    +0.000 C 
ATOM     37  C25 UNL A   1      12.424  56.379   7.997  1.00  0.00    +0.000 C 
ATOM     38  C26 UNL A   1      13.640  55.724   8.204  1.00  0.00    +0.000 C 
ATOM     39  C27 UNL A   1      14.175  54.923   7.195  1.00  0.00    +0.000 C 
ATOM    136  H37 UNL A   1      14.141  55.833   9.100  1.00  0.00    +0.000 H 
ATOM     40  C28 UNL A   1      13.479  54.741   5.989  1.00  0.00    +0.000 C 
ATOM    137  H38 UNL A   1      15.087  54.461   7.336  1.00  0.00    +0.000 H 
ATOM    148  H49 UNL A   1      11.732  55.265   4.916  1.00  0.00    +0.000 H 
ATOM    149  H50 UNL A   1      10.907  56.812   6.590  1.00  0.00    +0.000 H 
BRANCH   37   35
ATOM     35  C24 UNL A   1      11.873  57.210   9.090  1.00  0.00    +0.000 C 
ATOM     36  O5  UNL A   1      11.603  58.384   8.887  1.00  0.00    +0.000 O 
BRANCH   35   34
ATOM     34  N6  UNL A   1      11.682  56.662  10.334  1.00  0.00    +0.000 N 
ATOM    135  H36 UNL A   1      12.246  57.034  11.050  1.00  0.00    +0.000 H 
BRANCH   34   33
ATOM     33  C23 UNL A   1      10.769  55.612  10.743  1.00  0.00    +0.000 C 
ATOM    133  H34 UNL A   1      10.179  55.968  11.562  1.00  0.00    +0.000 H 
ATOM    134  H35 UNL A   1      10.156  55.364   9.900  1.00  0.00    +0.000 H 
BRANCH   33   32
ATOM    131  H32 UNL A   1      11.033  53.986  12.069  1.00  0.00    +0.000 H 
ATOM    132  H33 UNL A   1      11.430  53.666  10.354  1.00  0.00    +0.000 H 
ATOM     32  C22 UNL A   1      11.499  54.348  11.176  1.00  0.00    +0.000 C 
BRANCH   32   31
ATOM    129  H30 UNL A   1      13.534  53.904  10.777  1.00  0.00    +0.000 H 
ATOM    130  H31 UNL A   1      13.191  55.571  11.339  1.00  0.00    +0.000 H 
ATOM     31  C21 UNL A   1      12.992  54.527  11.459  1.00  0.00    +0.000 C 
BRANCH   31   30
ATOM     30  C20 UNL A   1      13.441  54.173  12.879  1.00  0.00    +0.000 C 
ATOM    127  H28 UNL A   1      14.505  54.053  12.870  1.00  0.00    +0.000 H 
ATOM    128  H29 UNL A   1      13.105  54.975  13.503  1.00  0.00    +0.000 H 
BRANCH   30   29
ATOM    125  H26 UNL A   1      12.695  53.042  14.514  1.00  0.00    +0.000 H 
ATOM     29  C19 UNL A   1      12.827  52.899  13.462  1.00  0.00    +0.000 C 
ATOM    126  H27 UNL A   1      11.907  52.740  12.938  1.00  0.00    +0.000 H 
BRANCH   29   28
ATOM    124  H25 UNL A   1      13.746  51.142  14.201  1.00  0.00    +0.000 H 
ATOM    123  H24 UNL A   1      14.619  51.913  12.875  1.00  0.00    +0.000 H 
ATOM     28  C18 UNL A   1      13.658  51.637  13.257  1.00  0.00    +0.000 C 
BRANCH   28   27
ATOM    122  H23 UNL A   1      12.099  50.482  12.536  1.00  0.00    +0.000 H 
ATOM     27  N5  UNL A   1      13.031  50.722  12.327  1.00  0.00    +0.000 N 
BRANCH   27   25
ATOM     25  C17 UNL A   1      13.542  50.146  11.205  1.00  0.00    +0.000 C 
ATOM     26  O4  UNL A   1      14.600  50.608  10.765  1.00  0.00    +0.000 O 
BRANCH   25   22
ATOM    118  H19 UNL A   1      11.911  48.850  10.969  1.00  0.00    +0.000 H 
ATOM     22  C15 UNL A   1      12.833  49.013  10.452  1.00  0.00    +0.000 C 
BRANCH   22   21
ATOM    117  H18 UNL A   1      13.089  49.233   8.348  1.00  0.00    +0.000 H 
ATOM     21  N4  UNL A   1      12.451  49.377   9.084  1.00  0.00    +0.000 N 
BRANCH   21   19
ATOM     19  C14 UNL A   1      11.231  49.911   8.815  1.00  0.00    +0.000 C 
ATOM     20  O2  UNL A   1      11.132  51.136   8.915  1.00  0.00    +0.000 O 
BRANCH   19   16
ATOM    113  H14 UNL A   1       9.193  49.391   8.937  1.00  0.00    +0.000 H 
ATOM     16  C12 UNL A   1      10.040  49.023   8.397  1.00  0.00    +0.000 C 
BRANCH   16   15
ATOM     15  N3  UNL A   1       9.799  49.199   6.974  1.00  0.00    +0.000 N 
ATOM    112  H13 UNL A   1      10.459  48.833   6.343  1.00  0.00    +0.000 H 
BRANCH   15   13
ATOM     13  C11 UNL A   1       8.701  49.849   6.461  1.00  0.00    +0.000 C 
ATOM     14  O1  UNL A   1       8.224  50.755   7.149  1.00  0.00    +0.000 O 
BRANCH   13    2
ATOM      2  C1  UNL A   1       8.136  49.521   5.049  1.00  0.00    +0.000 C 
ATOM    103  H4  UNL A   1       8.222  48.461   4.930  1.00  0.00    +0.000 H 
BRANCH    2    1
ATOM      1  N1  UNL A   1       6.688  49.813   4.982  1.00  0.00    +0.000 N 
ATOM    100  H1  UNL A   1       6.504  50.438   4.196  1.00  0.00    +0.000 H 
ATOM    101  H2  UNL A   1       6.391  50.261   5.849  1.00  0.00    +0.000 H 
ATOM    102  H3  UNL A   1       6.172  48.943   4.853  1.00  0.00    +0.000 H 
ENDBRANCH    2    1
BRANCH    2    3
ATOM    105  H6  UNL A   1       9.926  49.416   4.032  1.00  0.00    +0.000 H 
ATOM      3  C2  UNL A   1       9.003  49.920   3.832  1.00  0.00    +0.000 C 
ATOM    104  H5  UNL A   1       8.448  49.644   2.961  1.00  0.00    +0.000 H 
BRANCH    3    4
ATOM      4  C3  UNL A   1       9.455  51.350   3.616  1.00  0.00    +0.000 C 
ATOM      5  C4  UNL A   1       8.981  52.526   4.174  1.00  0.00    +0.000 C 
ATOM      6  N2  UNL A   1       9.798  53.557   3.784  1.00  0.00    +0.000 N 
ATOM      7  C5  UNL A   1      10.706  53.115   2.857  1.00  0.00    +0.000 C 
ATOM      8  C6  UNL A   1      11.694  53.819   2.156  1.00  0.00    +0.000 C 
ATOM      9  C7  UNL A   1      12.426  53.121   1.192  1.00  0.00    +0.000 C 
ATOM    106  H7  UNL A   1       8.152  52.612   4.782  1.00  0.00    +0.000 H 
ATOM     11  C9  UNL A   1      11.235  51.070   1.706  1.00  0.00    +0.000 C 
ATOM     12  C10 UNL A   1      10.477  51.751   2.682  1.00  0.00    +0.000 C 
ATOM     10  C8  UNL A   1      12.189  51.769   0.956  1.00  0.00    +0.000 C 
ATOM    107  H8  UNL A   1       9.740  54.480   4.122  1.00  0.00    +0.000 H 
ATOM    111  H12 UNL A   1      11.089  50.062   1.546  1.00  0.00    +0.000 H 
ATOM    108  H9  UNL A   1      11.873  54.819   2.343  1.00  0.00    +0.000 H 
ATOM    110  H11 UNL A   1      12.722  51.278   0.222  1.00  0.00    +0.000 H 
ATOM    109  H10 UNL A   1      13.152  53.614   0.649  1.00  0.00    +0.000 H 
ENDBRANCH    3    4
ENDBRANCH    2    3
ENDBRANCH   13    2
ENDBRANCH   15   13
ENDBRANCH   16   15
BRANCH   16   17
ATOM     17  C13 UNL A   1       9.929  47.599   8.961  1.00  0.00    +0.000 C 
ATOM    114  H15 UNL A   1      10.906  47.167   8.932  1.00  0.00    +0.000 H 
ATOM    115  H16 UNL A   1       9.195  47.122   8.346  1.00  0.00    +0.000 H 
BRANCH   17   18
ATOM     18  S1  UNL A   1       9.299  47.406  10.662  1.00  0.00    +0.000 S 
ATOM    116  H17 UNL A   1       8.125  46.722  10.636  1.00  0.00    +0.000 H 
ENDBRANCH   17   18
ENDBRANCH   16   17
ENDBRANCH   19   16
ENDBRANCH   21   19
ENDBRANCH   22   21
BRANCH   22   23
ATOM    119  H20 UNL A   1      14.442  47.813  11.184  1.00  0.00    +0.000 H 
ATOM     23  C16 UNL A   1      13.613  47.690  10.519  1.00  0.00    +0.000 C 
ATOM    120  H21 UNL A   1      13.938  47.451   9.528  1.00  0.00    +0.000 H 
BRANCH   23   24
ATOM    121  H22 UNL A   1      11.891  46.741  10.700  1.00  0.00    +0.000 H 
ATOM     24  O3  UNL A   1      12.807  46.608  10.986  1.00  0.00    +0.000 O 
ENDBRANCH   23   24
ENDBRANCH   22   23
ENDBRANCH   25   22
ENDBRANCH   27   25
ENDBRANCH   28   27
ENDBRANCH   29   28
ENDBRANCH   30   29
ENDBRANCH   31   30
ENDBRANCH   32   31
ENDBRANCH   33   32
ENDBRANCH   34   33
ENDBRANCH   35   34
ENDBRANCH   37   35
ENDBRANCH   41   40
BRANCH   45   46
ATOM     46  C33 UNL A   1      12.751  47.979   4.542  1.00  0.00    +0.000 C 
ATOM     47  C34 UNL A   1      13.170  47.451   5.774  1.00  0.00    +0.000 C 
ATOM     48  F1  UNL A   1      14.288  47.905   6.358  1.00  0.00    +0.000 F 
ATOM     49  C35 UNL A   1      12.458  46.425   6.392  1.00  0.00    +0.000 C 
ATOM     50  F2  UNL A   1      12.903  45.905   7.544  1.00  0.00    +0.000 F 
ATOM     51  C36 UNL A   1      11.300  45.933   5.811  1.00  0.00    +0.000 C 
ATOM     52  F3  UNL A   1      10.614  44.950   6.410  1.00  0.00    +0.000 F 
ATOM     53  C37 UNL A   1      10.858  46.453   4.605  1.00  0.00    +0.000 C 
ATOM     54  F4  UNL A   1       9.732  45.986   4.047  1.00  0.00    +0.000 F 
ATOM     55  C38 UNL A   1      11.582  47.460   3.969  1.00  0.00    +0.000 C 
ATOM     56  F5  UNL A   1      11.136  47.931   2.795  1.00  0.00    +0.000 F 
ENDBRANCH   45   46
BRANCH   62   63
ATOM     65  F6  UNL A   1      15.141  49.590  -2.641  1.00  0.00    +0.000 F 
ATOM     66  C46 UNL A   1      16.779  48.161  -3.542  1.00  0.00    +0.000 C 
ATOM     67  F7  UNL A   1      16.106  48.121  -4.700  1.00  0.00    +0.000 F 
ATOM     68  C47 UNL A   1      17.957  47.443  -3.401  1.00  0.00    +0.000 C 
ATOM     69  F8  UNL A   1      18.434  46.726  -4.428  1.00  0.00    +0.000 F 
ATOM     70  C48 UNL A   1      18.639  47.462  -2.194  1.00  0.00    +0.000 C 
ATOM     71  F9  UNL A   1      19.784  46.780  -2.060  1.00  0.00    +0.000 F 
ATOM     72  C49 UNL A   1      18.133  48.187  -1.119  1.00  0.00    +0.000 C 
ATOM     73  F10 UNL A   1      18.806  48.177   0.041  1.00  0.00    +0.000 F 
ATOM     63  C44 UNL A   1      16.948  48.928  -1.242  1.00  0.00    +0.000 C 
ATOM     64  C45 UNL A   1      16.286  48.911  -2.479  1.00  0.00    +0.000 C 
ENDBRANCH   62   63
BRANCH   77   78
ATOM     78  C53 UNL A   1      17.907  55.575   0.607  1.00  0.00    +0.000 C 
ATOM     79  C54 UNL A   1      19.165  55.906   1.131  1.00  0.00    +0.000 C 
ATOM     80  F11 UNL A   1      19.654  55.222   2.175  1.00  0.00    +0.000 F 
ATOM     81  C55 UNL A   1      19.905  56.965   0.611  1.00  0.00    +0.000 C 
ATOM     82  F12 UNL A   1      21.084  57.288   1.159  1.00  0.00    +0.000 F 
ATOM     83  C56 UNL A   1      19.416  57.695  -0.462  1.00  0.00    +0.000 C 
ATOM     84  F13 UNL A   1      20.130  58.712  -0.963  1.00  0.00    +0.000 F 
ATOM     85  C57 UNL A   1      18.183  57.374  -1.008  1.00  0.00    +0.000 C 
ATOM     86  F14 UNL A   1      17.712  58.069  -2.054  1.00  0.00    +0.000 F 
ATOM     87  C58 UNL A   1      17.429  56.332  -0.472  1.00  0.00    +0.000 C 
ATOM     88  F15 UNL A   1      16.235  56.051  -1.014  1.00  0.00    +0.000 F 
ENDBRANCH   77   78
TORSDOF 28
ENDMDL
MODEL 7
REMARK VINA RESULT:      -6.6     45.346     52.309
ROOT
ATOM    138  H39 UNL A   1      12.618   7.160  29.537  1.00  0.00    +0.000 H 
ATOM    139  H40 UNL A   1      11.760   9.525  28.850  1.00  0.00    +0.000 H 
ATOM    140  H41 UNL A   1       9.153   6.698  27.313  1.00  0.00    +0.000 H 
ATOM    141  H42 UNL A   1       4.067   5.261  23.731  1.00  0.00    +0.000 H 
ATOM    142  H43 UNL A   1       4.903   2.961  24.415  1.00  0.00    +0.000 H 
ATOM    143  H44 UNL A   1       7.453   5.788  26.083  1.00  0.00    +0.000 H 
ATOM    144  H45 UNL A   1       5.653  10.271  24.712  1.00  0.00    +0.000 H 
ATOM    145  H46 UNL A   1       7.695  11.297  25.865  1.00  0.00    +0.000 H 
ATOM    146  H47 UNL A   1      10.712   2.191  28.841  1.00  0.00    +0.000 H 
ATOM    147  H48 UNL A   1       8.997   1.117  27.273  1.00  0.00    +0.000 H 
ATOM     41  C29 UNL A   1       7.270   2.999  26.004  1.00  0.00    +0.000 C 
ATOM     42  C30 UNL A   1       8.459   3.285  26.878  1.00  0.00    +0.000 C 
ATOM     43  N7  UNL A   1       8.961   4.438  27.241  1.00  0.00    +0.000 N 
ATOM     44  C31 UNL A   1      10.024   4.139  28.081  1.00  0.00    +0.000 C 
ATOM     45  C32 UNL A   1      10.902   4.989  28.667  1.00  0.00    +0.000 C 
ATOM     57  C39 UNL A   1      10.878   6.417  28.499  1.00  0.00    +0.000 C 
ATOM     58  C40 UNL A   1      11.768   7.359  28.987  1.00  0.00    +0.000 C 
ATOM     59  C41 UNL A   1      11.316   8.627  28.604  1.00  0.00    +0.000 C 
ATOM     60  C42 UNL A   1      10.169   8.471  27.840  1.00  0.00    +0.000 C 
ATOM     61  N8  UNL A   1       9.911   7.112  27.786  1.00  0.00    +0.000 N 
ATOM     62  C43 UNL A   1       9.369   9.487  27.206  1.00  0.00    +0.000 C 
ATOM     74  C50 UNL A   1       8.263   9.254  26.459  1.00  0.00    +0.000 C 
ATOM     75  N9  UNL A   1       7.663   8.044  26.139  1.00  0.00    +0.000 N 
ATOM     76  C51 UNL A   1       6.613   8.341  25.414  1.00  0.00    +0.000 C 
ATOM     77  C52 UNL A   1       5.611   7.421  24.772  1.00  0.00    +0.000 C 
ATOM     89  C59 UNL A   1       5.763   6.090  24.905  1.00  0.00    +0.000 C 
ATOM     90  C60 UNL A   1       4.893   5.074  24.321  1.00  0.00    +0.000 C 
ATOM     91  C61 UNL A   1       5.340   3.859  24.675  1.00  0.00    +0.000 C 
ATOM     92  C62 UNL A   1       6.547   4.012  25.490  1.00  0.00    +0.000 C 
ATOM     93  N10 UNL A   1       6.717   5.369  25.581  1.00  0.00    +0.000 N 
ATOM     94  C63 UNL A   1       6.414   9.782  25.210  1.00  0.00    +0.000 C 
ATOM     95  C64 UNL A   1       7.469  10.290  25.831  1.00  0.00    +0.000 C 
ATOM     96  C65 UNL A   1      10.065   2.701  28.219  1.00  0.00    +0.000 C 
ATOM     97  C66 UNL A   1       9.162   2.121  27.440  1.00  0.00    +0.000 C 
ENDROOT
BRANCH   41   40
ATOM     98  C67 UNL A   1       6.156   0.881  26.724  1.00  0.00    +0.000 C 
ATOM     99  C68 UNL A   1       5.809  -0.449  26.505  1.00  0.00    +0.000 C 
ATOM     37  C25 UNL A   1       6.066  -1.043  25.266  1.00  0.00    +0.000 C 
ATOM     38  C26 UNL A   1       6.768  -0.341  24.284  1.00  0.00    +0.000 C 
ATOM     39  C27 UNL A   1       7.179   0.970  24.529  1.00  0.00    +0.000 C 
ATOM    136  H37 UNL A   1       6.982  -0.791  23.380  1.00  0.00    +0.000 H 
ATOM     40  C28 UNL A   1       6.857   1.598  25.742  1.00  0.00    +0.000 C 
ATOM    137  H38 UNL A   1       7.721   1.479  23.815  1.00  0.00    +0.000 H 
ATOM    148  H49 UNL A   1       5.897   1.342  27.611  1.00  0.00    +0.000 H 
ATOM    149  H50 UNL A   1       5.362  -0.997  27.258  1.00  0.00    +0.000 H 
BRANCH   37   35
ATOM     35  C24 UNL A   1       5.630  -2.426  24.972  1.00  0.00    +0.000 C 
ATOM     36  O5  UNL A   1       6.299  -3.372  25.360  1.00  0.00    +0.000 O 
BRANCH   35   34
ATOM     34  N6  UNL A   1       4.483  -2.641  24.251  1.00  0.00    +0.000 N 
ATOM    135  H36 UNL A   1       4.553  -3.317  23.539  1.00  0.00    +0.000 H 
BRANCH   34   33
ATOM     33  C23 UNL A   1       3.182  -2.013  24.388  1.00  0.00    +0.000 C 
ATOM    133  H34 UNL A   1       2.427  -2.727  24.133  1.00  0.00    +0.000 H 
ATOM    134  H35 UNL A   1       3.082  -1.684  25.402  1.00  0.00    +0.000 H 
BRANCH   33   32
ATOM    131  H32 UNL A   1       3.798  -0.837  22.741  1.00  0.00    +0.000 H 
ATOM    132  H33 UNL A   1       2.042  -0.844  23.081  1.00  0.00    +0.000 H 
ATOM     32  C22 UNL A   1       3.031  -0.795  23.486  1.00  0.00    +0.000 C 
BRANCH   32   31
ATOM    129  H30 UNL A   1       2.997   0.387  25.246  1.00  0.00    +0.000 H 
ATOM    130  H31 UNL A   1       4.099   0.946  23.948  1.00  0.00    +0.000 H 
ATOM     31  C21 UNL A   1       3.135   0.556  24.198  1.00  0.00    +0.000 C 
BRANCH   31   30
ATOM     30  C20 UNL A   1       2.123   1.614  23.753  1.00  0.00    +0.000 C 
ATOM    127  H28 UNL A   1       1.406   1.738  24.538  1.00  0.00    +0.000 H 
ATOM    128  H29 UNL A   1       2.691   2.498  23.548  1.00  0.00    +0.000 H 
BRANCH   30   29
ATOM    125  H26 UNL A   1       1.882   0.506  21.958  1.00  0.00    +0.000 H 
ATOM     29  C19 UNL A   1       1.363   1.292  22.465  1.00  0.00    +0.000 C 
ATOM    126  H27 UNL A   1       0.371   1.021  22.760  1.00  0.00    +0.000 H 
BRANCH   29   28
ATOM    124  H25 UNL A   1       1.102   3.356  22.075  1.00  0.00    +0.000 H 
ATOM    123  H24 UNL A   1       0.364   2.293  20.875  1.00  0.00    +0.000 H 
ATOM     28  C18 UNL A   1       1.217   2.462  21.499  1.00  0.00    +0.000 C 
BRANCH   28   27
ATOM    122  H23 UNL A   1       2.388   2.079  19.835  1.00  0.00    +0.000 H 
ATOM     27  N5  UNL A   1       2.387   2.618  20.659  1.00  0.00    +0.000 N 
BRANCH   27   25
ATOM     25  C17 UNL A   1       3.484   3.401  20.844  1.00  0.00    +0.000 C 
ATOM     26  O4  UNL A   1       3.290   4.577  21.172  1.00  0.00    +0.000 O 
BRANCH   25   22
ATOM    118  H19 UNL A   1       5.041   2.880  19.540  1.00  0.00    +0.000 H 
ATOM     22  C15 UNL A   1       4.915   2.903  20.602  1.00  0.00    +0.000 C 
BRANCH   22   21
ATOM    117  H18 UNL A   1       5.672   4.617  21.614  1.00  0.00    +0.000 H 
ATOM     21  N4  UNL A   1       5.942   3.826  21.095  1.00  0.00    +0.000 N 
BRANCH   21   19
ATOM     19  C14 UNL A   1       7.259   3.607  20.845  1.00  0.00    +0.000 C 
ATOM     20  O2  UNL A   1       7.625   3.729  19.674  1.00  0.00    +0.000 O 
BRANCH   19   16
ATOM    113  H14 UNL A   1       7.636   2.998  22.826  1.00  0.00    +0.000 H 
ATOM     16  C12 UNL A   1       8.240   3.237  21.977  1.00  0.00    +0.000 C 
BRANCH   16   15
ATOM     15  N3  UNL A   1       8.985   2.051  21.585  1.00  0.00    +0.000 N 
ATOM    112  H13 UNL A   1       8.490   1.208  21.477  1.00  0.00    +0.000 H 
BRANCH   15   13
ATOM     13  C11 UNL A   1      10.340   2.044  21.356  1.00  0.00    +0.000 C 
ATOM     14  O1  UNL A   1      10.735   2.646  20.354  1.00  0.00    +0.000 O 
BRANCH   13    2
ATOM      2  C1  UNL A   1      11.340   1.385  22.350  1.00  0.00    +0.000 C 
ATOM    103  H4  UNL A   1      11.109   0.340  22.357  1.00  0.00    +0.000 H 
BRANCH    2    1
ATOM      1  N1  UNL A   1      12.726   1.484  21.845  1.00  0.00    +0.000 N 
ATOM    100  H1  UNL A   1      13.030   0.570  21.509  1.00  0.00    +0.000 H 
ATOM    101  H2  UNL A   1      13.341   1.791  22.600  1.00  0.00    +0.000 H 
ATOM    102  H3  UNL A   1      12.762   2.157  21.081  1.00  0.00    +0.000 H 
ENDBRANCH    2    1
BRANCH    2    3
ATOM    105  H6  UNL A   1      11.548   2.606  23.998  1.00  0.00    +0.000 H 
ATOM      3  C2  UNL A   1      11.107   1.641  23.858  1.00  0.00    +0.000 C 
ATOM    104  H5  UNL A   1      10.057   1.529  24.026  1.00  0.00    +0.000 H 
BRANCH    3    4
ATOM      4  C3  UNL A   1      11.801   0.810  24.917  1.00  0.00    +0.000 C 
ATOM      5  C4  UNL A   1      13.107   0.863  25.376  1.00  0.00    +0.000 C 
ATOM      6  N2  UNL A   1      13.233   0.010  26.442  1.00  0.00    +0.000 N 
ATOM      7  C5  UNL A   1      12.084  -0.721  26.601  1.00  0.00    +0.000 C 
ATOM      8  C6  UNL A   1      11.780  -1.734  27.520  1.00  0.00    +0.000 C 
ATOM      9  C7  UNL A   1      10.545  -2.376  27.390  1.00  0.00    +0.000 C 
ATOM    106  H7  UNL A   1      13.860   1.448  24.980  1.00  0.00    +0.000 H 
ATOM     11  C9  UNL A   1       9.949  -0.953  25.518  1.00  0.00    +0.000 C 
ATOM     12  C10 UNL A   1      11.190  -0.290  25.621  1.00  0.00    +0.000 C 
ATOM     10  C8  UNL A   1       9.648  -2.004  26.392  1.00  0.00    +0.000 C 
ATOM    107  H8  UNL A   1      14.033  -0.066  27.012  1.00  0.00    +0.000 H 
ATOM    111  H12 UNL A   1       9.265  -0.664  24.802  1.00  0.00    +0.000 H 
ATOM    108  H9  UNL A   1      12.444  -1.998  28.265  1.00  0.00    +0.000 H 
ATOM    110  H11 UNL A   1       8.753  -2.509  26.297  1.00  0.00    +0.000 H 
ATOM    109  H10 UNL A   1      10.296  -3.135  28.043  1.00  0.00    +0.000 H 
ENDBRANCH    3    4
ENDBRANCH    2    3
ENDBRANCH   13    2
ENDBRANCH   15   13
ENDBRANCH   16   15
BRANCH   16   17
ATOM     17  C13 UNL A   1       9.015   4.352  22.696  1.00  0.00    +0.000 C 
ATOM    114  H15 UNL A   1      10.045   4.249  22.428  1.00  0.00    +0.000 H 
ATOM    115  H16 UNL A   1       8.792   4.211  23.732  1.00  0.00    +0.000 H 
BRANCH   17   18
ATOM     18  S1  UNL A   1       8.533   6.077  22.353  1.00  0.00    +0.000 S 
ATOM    116  H17 UNL A   1       7.199   6.133  22.097  1.00  0.00    +0.000 H 
ENDBRANCH   17   18
ENDBRANCH   16   17
ENDBRANCH   19   16
ENDBRANCH   21   19
ENDBRANCH   22   21
BRANCH   22   23
ATOM    119  H20 UNL A   1       4.197   1.100  21.497  1.00  0.00    +0.000 H 
ATOM     23  C16 UNL A   1       5.122   1.462  21.099  1.00  0.00    +0.000 C 
ATOM    120  H21 UNL A   1       5.889   1.481  21.845  1.00  0.00    +0.000 H 
BRANCH   23   24
ATOM    121  H22 UNL A   1       5.858   1.107  19.301  1.00  0.00    +0.000 H 
ATOM     24  O3  UNL A   1       5.548   0.585  20.057  1.00  0.00    +0.000 O 
ENDBRANCH   23   24
ENDBRANCH   22   23
ENDBRANCH   25   22
ENDBRANCH   27   25
ENDBRANCH   28   27
ENDBRANCH   29   28
ENDBRANCH   30   29
ENDBRANCH   31   30
ENDBRANCH   32   31
ENDBRANCH   33   32
ENDBRANCH   34   33
ENDBRANCH   35   34
ENDBRANCH   37   35
ENDBRANCH   41   40
BRANCH   45   46
ATOM     46  C33 UNL A   1      11.969   4.393  29.538  1.00  0.00    +0.000 C 
ATOM     47  C34 UNL A   1      13.065   3.706  28.992  1.00  0.00    +0.000 C 
ATOM     48  F1  UNL A   1      13.156   3.524  27.666  1.00  0.00    +0.000 F 
ATOM     49  C35 UNL A   1      14.053   3.167  29.812  1.00  0.00    +0.000 C 
ATOM     50  F2  UNL A   1      15.064   2.473  29.271  1.00  0.00    +0.000 F 
ATOM     51  C36 UNL A   1      13.986   3.335  31.186  1.00  0.00    +0.000 C 
ATOM     52  F3  UNL A   1      14.940   2.821  31.974  1.00  0.00    +0.000 F 
ATOM     53  C37 UNL A   1      12.923   4.028  31.745  1.00  0.00    +0.000 C 
ATOM     54  F4  UNL A   1      12.861   4.202  33.074  1.00  0.00    +0.000 F 
ATOM     55  C38 UNL A   1      11.918   4.544  30.931  1.00  0.00    +0.000 C 
ATOM     56  F5  UNL A   1      10.895   5.196  31.503  1.00  0.00    +0.000 F 
ENDBRANCH   45   46
BRANCH   62   63
ATOM     65  F6  UNL A   1      11.507  10.691  25.726  1.00  0.00    +0.000 F 
ATOM     66  C46 UNL A   1      11.216  12.791  26.748  1.00  0.00    +0.000 C 
ATOM     67  F7  UNL A   1      12.241  13.279  26.035  1.00  0.00    +0.000 F 
ATOM     68  C47 UNL A   1      10.545  13.609  27.645  1.00  0.00    +0.000 C 
ATOM     69  F8  UNL A   1      10.908  14.892  27.785  1.00  0.00    +0.000 F 
ATOM     70  C48 UNL A   1       9.503  13.096  28.403  1.00  0.00    +0.000 C 
ATOM     71  F9  UNL A   1       8.846  13.888  29.260  1.00  0.00    +0.000 F 
ATOM     72  C49 UNL A   1       9.140  11.759  28.275  1.00  0.00    +0.000 C 
ATOM     73  F10 UNL A   1       8.137  11.286  29.030  1.00  0.00    +0.000 F 
ATOM     63  C44 UNL A   1       9.799  10.916  27.367  1.00  0.00    +0.000 C 
ATOM     64  C45 UNL A   1      10.837  11.461  26.596  1.00  0.00    +0.000 C 
ENDBRANCH   62   63
BRANCH   77   78
ATOM     78  C53 UNL A   1       4.482   7.962  23.973  1.00  0.00    +0.000 C 
ATOM     79  C54 UNL A   1       4.613   8.174  22.593  1.00  0.00    +0.000 C 
ATOM     80  F11 UNL A   1       5.777   7.906  21.984  1.00  0.00    +0.000 F 
ATOM     81  C55 UNL A   1       3.565   8.700  21.843  1.00  0.00    +0.000 C 
ATOM     82  F12 UNL A   1       3.732   8.935  20.534  1.00  0.00    +0.000 F 
ATOM     83  C56 UNL A   1       2.354   8.997  22.452  1.00  0.00    +0.000 C 
ATOM     84  F13 UNL A   1       1.345   9.500  21.729  1.00  0.00    +0.000 F 
ATOM     85  C57 UNL A   1       2.195   8.778  23.811  1.00  0.00    +0.000 C 
ATOM     86  F14 UNL A   1       1.022   9.050  24.401  1.00  0.00    +0.000 F 
ATOM     87  C58 UNL A   1       3.252   8.276  24.568  1.00  0.00    +0.000 C 
ATOM     88  F15 UNL A   1       3.073   8.085  25.883  1.00  0.00    +0.000 F 
ENDBRANCH   77   78
TORSDOF 28
ENDMDL
MODEL 8
REMARK VINA RESULT:      -6.6     44.077     47.550
ROOT
ATOM    138  H39 UNL A   1      19.915  37.019  48.115  1.00  0.00    +0.000 H 
ATOM    139  H40 UNL A   1      18.906  39.080  49.354  1.00  0.00    +0.000 H 
ATOM    140  H41 UNL A   1      22.685  40.098  48.000  1.00  0.00    +0.000 H 
ATOM    141  H42 UNL A   1      27.494  44.288  47.713  1.00  0.00    +0.000 H 
ATOM    142  H43 UNL A   1      28.465  42.279  46.497  1.00  0.00    +0.000 H 
ATOM    143  H44 UNL A   1      24.621  41.284  47.726  1.00  0.00    +0.000 H 
ATOM    144  H45 UNL A   1      22.803  45.348  50.048  1.00  0.00    +0.000 H 
ATOM    145  H46 UNL A   1      20.729  43.950  50.590  1.00  0.00    +0.000 H 
ATOM    146  H47 UNL A   1      24.493  36.194  45.438  1.00  0.00    +0.000 H 
ATOM    147  H48 UNL A   1      26.764  37.371  45.336  1.00  0.00    +0.000 H 
ATOM     41  C29 UNL A   1      26.729  40.020  46.393  1.00  0.00    +0.000 C 
ATOM     42  C30 UNL A   1      25.618  39.008  46.408  1.00  0.00    +0.000 C 
ATOM     43  N7  UNL A   1      24.411  39.113  46.904  1.00  0.00    +0.000 N 
ATOM     44  C31 UNL A   1      23.778  37.912  46.613  1.00  0.00    +0.000 C 
ATOM     45  C32 UNL A   1      22.536  37.503  46.971  1.00  0.00    +0.000 C 
ATOM     57  C39 UNL A   1      21.623  38.288  47.757  1.00  0.00    +0.000 C 
ATOM     58  C40 UNL A   1      20.373  37.935  48.236  1.00  0.00    +0.000 C 
ATOM     59  C41 UNL A   1      19.839  39.037  48.915  1.00  0.00    +0.000 C 
ATOM     60  C42 UNL A   1      20.775  40.059  48.898  1.00  0.00    +0.000 C 
ATOM     61  N8  UNL A   1      21.862  39.587  48.182  1.00  0.00    +0.000 N 
ATOM     62  C43 UNL A   1      20.683  41.369  49.489  1.00  0.00    +0.000 C 
ATOM     74  C50 UNL A   1      21.653  42.314  49.440  1.00  0.00    +0.000 C 
ATOM     75  N9  UNL A   1      22.903  42.255  48.840  1.00  0.00    +0.000 N 
ATOM     76  C51 UNL A   1      23.460  43.423  49.049  1.00  0.00    +0.000 C 
ATOM     77  C52 UNL A   1      24.825  43.909  48.645  1.00  0.00    +0.000 C 
ATOM     89  C59 UNL A   1      25.652  43.074  47.989  1.00  0.00    +0.000 C 
ATOM     90  C60 UNL A   1      27.010  43.390  47.556  1.00  0.00    +0.000 C 
ATOM     91  C61 UNL A   1      27.525  42.325  46.921  1.00  0.00    +0.000 C 
ATOM     92  C62 UNL A   1      26.542  41.242  46.927  1.00  0.00    +0.000 C 
ATOM     93  N10 UNL A   1      25.458  41.779  47.574  1.00  0.00    +0.000 N 
ATOM     94  C63 UNL A   1      22.613  44.367  49.790  1.00  0.00    +0.000 C 
ATOM     95  C64 UNL A   1      21.541  43.629  50.039  1.00  0.00    +0.000 C 
ATOM     96  C65 UNL A   1      24.712  37.114  45.852  1.00  0.00    +0.000 C 
ATOM     97  C66 UNL A   1      25.888  37.717  45.757  1.00  0.00    +0.000 C 
ENDROOT
BRANCH   41   40
ATOM     98  C67 UNL A   1      28.913  38.807  46.365  1.00  0.00    +0.000 C 
ATOM     99  C68 UNL A   1      30.150  38.535  45.787  1.00  0.00    +0.000 C 
ATOM     37  C25 UNL A   1      30.466  39.067  44.533  1.00  0.00    +0.000 C 
ATOM     38  C26 UNL A   1      29.590  39.958  43.908  1.00  0.00    +0.000 C 
ATOM     39  C27 UNL A   1      28.380  40.285  44.521  1.00  0.00    +0.000 C 
ATOM    136  H37 UNL A   1      29.838  40.372  42.995  1.00  0.00    +0.000 H 
ATOM     40  C28 UNL A   1      28.023  39.696  45.744  1.00  0.00    +0.000 C 
ATOM    137  H38 UNL A   1      27.745  40.964  44.073  1.00  0.00    +0.000 H 
ATOM    148  H49 UNL A   1      28.650  38.353  47.254  1.00  0.00    +0.000 H 
ATOM    149  H50 UNL A   1      30.834  37.942  46.284  1.00  0.00    +0.000 H 
BRANCH   37   35
ATOM     35  C24 UNL A   1      31.735  38.728  43.852  1.00  0.00    +0.000 C 
ATOM     36  O5  UNL A   1      31.720  38.045  42.839  1.00  0.00    +0.000 O 
BRANCH   35   34
ATOM     34  N6  UNL A   1      32.926  39.170  44.370  1.00  0.00    +0.000 N 
ATOM    135  H36 UNL A   1      33.407  38.521  44.934  1.00  0.00    +0.000 H 
BRANCH   34   33
ATOM     33  C23 UNL A   1      33.577  40.455  44.206  1.00  0.00    +0.000 C 
ATOM    133  H34 UNL A   1      34.553  40.297  43.795  1.00  0.00    +0.000 H 
ATOM    134  H35 UNL A   1      32.971  41.049  43.553  1.00  0.00    +0.000 H 
BRANCH   33   32
ATOM    131  H32 UNL A   1      34.220  40.565  46.218  1.00  0.00    +0.000 H 
ATOM    132  H33 UNL A   1      34.257  42.102  45.302  1.00  0.00    +0.000 H 
ATOM     32  C22 UNL A   1      33.716  41.205  45.524  1.00  0.00    +0.000 C 
BRANCH   32   31
ATOM    129  H30 UNL A   1      32.380  42.719  46.173  1.00  0.00    +0.000 H 
ATOM    130  H31 UNL A   1      31.622  41.214  45.562  1.00  0.00    +0.000 H 
ATOM     31  C21 UNL A   1      32.396  41.649  46.159  1.00  0.00    +0.000 C 
BRANCH   31   30
ATOM     30  C20 UNL A   1      32.154  41.154  47.587  1.00  0.00    +0.000 C 
ATOM    127  H28 UNL A   1      32.279  40.090  47.595  1.00  0.00    +0.000 H 
ATOM    128  H29 UNL A   1      32.857  41.673  48.204  1.00  0.00    +0.000 H 
BRANCH   30   29
ATOM    125  H26 UNL A   1      30.763  42.497  48.464  1.00  0.00    +0.000 H 
ATOM     29  C19 UNL A   1      30.772  41.470  48.164  1.00  0.00    +0.000 C 
ATOM    126  H27 UNL A   1      30.065  41.249  47.392  1.00  0.00    +0.000 H 
BRANCH   29   28
ATOM    124  H25 UNL A   1      30.822  41.049  50.237  1.00  0.00    +0.000 H 
ATOM    123  H24 UNL A   1      30.709  39.618  49.210  1.00  0.00    +0.000 H 
ATOM     28  C18 UNL A   1      30.372  40.622  49.366  1.00  0.00    +0.000 C 
BRANCH   28   27
ATOM    122  H23 UNL A   1      28.414  40.231  48.820  1.00  0.00    +0.000 H 
ATOM     27  N5  UNL A   1      28.937  40.608  49.563  1.00  0.00    +0.000 N 
BRANCH   27   25
ATOM     25  C17 UNL A   1      28.208  41.042  50.627  1.00  0.00    +0.000 C 
ATOM     26  O4  UNL A   1      27.934  42.246  50.670  1.00  0.00    +0.000 O 
BRANCH   25   22
ATOM    118  H19 UNL A   1      26.724  40.241  51.873  1.00  0.00    +0.000 H 
ATOM     22  C15 UNL A   1      27.782  40.120  51.777  1.00  0.00    +0.000 C 
BRANCH   22   21
ATOM    117  H18 UNL A   1      28.822  38.406  51.057  1.00  0.00    +0.000 H 
ATOM     21  N4  UNL A   1      27.985  38.698  51.486  1.00  0.00    +0.000 N 
BRANCH   21   19
ATOM     19  C14 UNL A   1      27.037  37.776  51.796  1.00  0.00    +0.000 C 
ATOM     20  O2  UNL A   1      27.357  36.909  52.612  1.00  0.00    +0.000 O 
BRANCH   19   16
ATOM    113  H14 UNL A   1      25.365  38.862  51.113  1.00  0.00    +0.000 H 
ATOM     16  C12 UNL A   1      25.630  37.827  51.162  1.00  0.00    +0.000 C 
BRANCH   16   15
ATOM     15  N3  UNL A   1      25.704  37.299  49.810  1.00  0.00    +0.000 N 
ATOM    112  H13 UNL A   1      25.334  37.843  49.079  1.00  0.00    +0.000 H 
BRANCH   15   13
ATOM     13  C11 UNL A   1      26.263  36.083  49.496  1.00  0.00    +0.000 C 
ATOM     14  O1  UNL A   1      25.795  35.095  50.069  1.00  0.00    +0.000 O 
BRANCH   13    2
ATOM      2  C1  UNL A   1      27.370  35.940  48.413  1.00  0.00    +0.000 C 
ATOM    103  H4  UNL A   1      27.217  36.742  47.720  1.00  0.00    +0.000 H 
BRANCH    2    1
ATOM      1  N1  UNL A   1      28.710  36.168  48.996  1.00  0.00    +0.000 N 
ATOM    100  H1  UNL A   1      28.716  37.058  49.495  1.00  0.00    +0.000 H 
ATOM    101  H2  UNL A   1      29.406  36.191  48.250  1.00  0.00    +0.000 H 
ATOM    102  H3  UNL A   1      28.930  35.413  49.645  1.00  0.00    +0.000 H 
ENDBRANCH    2    1
BRANCH    2    3
ATOM    105  H6  UNL A   1      26.891  33.974  48.017  1.00  0.00    +0.000 H 
ATOM      3  C2  UNL A   1      27.220  34.782  47.397  1.00  0.00    +0.000 C 
ATOM    104  H5  UNL A   1      26.566  35.136  46.629  1.00  0.00    +0.000 H 
BRANCH    3    4
ATOM      4  C3  UNL A   1      28.422  34.184  46.695  1.00  0.00    +0.000 C 
ATOM      5  C4  UNL A   1      29.331  33.239  47.138  1.00  0.00    +0.000 C 
ATOM      6  N2  UNL A   1      30.162  32.908  46.098  1.00  0.00    +0.000 N 
ATOM      7  C5  UNL A   1      29.923  33.726  45.023  1.00  0.00    +0.000 C 
ATOM      8  C6  UNL A   1      30.557  33.783  43.775  1.00  0.00    +0.000 C 
ATOM      9  C7  UNL A   1      30.159  34.792  42.894  1.00  0.00    +0.000 C 
ATOM    106  H7  UNL A   1      29.377  32.848  48.092  1.00  0.00    +0.000 H 
ATOM     11  C9  UNL A   1      28.498  35.584  44.474  1.00  0.00    +0.000 C 
ATOM     12  C10 UNL A   1      28.882  34.580  45.387  1.00  0.00    +0.000 C 
ATOM     10  C8  UNL A   1      29.157  35.692  43.243  1.00  0.00    +0.000 C 
ATOM    107  H8  UNL A   1      30.833  32.187  46.120  1.00  0.00    +0.000 H 
ATOM    111  H12 UNL A   1      27.736  36.237  44.711  1.00  0.00    +0.000 H 
ATOM    108  H9  UNL A   1      31.291  33.105  43.517  1.00  0.00    +0.000 H 
ATOM    110  H11 UNL A   1      28.897  36.446  42.588  1.00  0.00    +0.000 H 
ATOM    109  H10 UNL A   1      30.615  34.870  41.971  1.00  0.00    +0.000 H 
ENDBRANCH    3    4
ENDBRANCH    2    3
ENDBRANCH   13    2
ENDBRANCH   15   13
ENDBRANCH   16   15
BRANCH   16   17
ATOM     17  C13 UNL A   1      24.409  37.434  52.008  1.00  0.00    +0.000 C 
ATOM    114  H15 UNL A   1      24.302  38.172  52.775  1.00  0.00    +0.000 H 
ATOM    115  H16 UNL A   1      24.624  36.444  52.349  1.00  0.00    +0.000 H 
BRANCH   17   18
ATOM     18  S1  UNL A   1      22.801  37.291  51.161  1.00  0.00    +0.000 S 
ATOM    116  H17 UNL A   1      21.811  37.169  52.086  1.00  0.00    +0.000 H 
ENDBRANCH   17   18
ENDBRANCH   16   17
ENDBRANCH   19   16
ENDBRANCH   21   19
ENDBRANCH   22   21
BRANCH   22   23
ATOM    119  H20 UNL A   1      28.531  41.606  53.118  1.00  0.00    +0.000 H 
ATOM     23  C16 UNL A   1      28.395  40.545  53.122  1.00  0.00    +0.000 C 
ATOM    120  H21 UNL A   1      29.327  40.031  53.233  1.00  0.00    +0.000 H 
BRANCH   23   24
ATOM    121  H22 UNL A   1      27.948  40.554  55.046  1.00  0.00    +0.000 H 
ATOM     24  O3  UNL A   1      27.568  40.193  54.230  1.00  0.00    +0.000 O 
ENDBRANCH   23   24
ENDBRANCH   22   23
ENDBRANCH   25   22
ENDBRANCH   27   25
ENDBRANCH   28   27
ENDBRANCH   29   28
ENDBRANCH   30   29
ENDBRANCH   31   30
ENDBRANCH   32   31
ENDBRANCH   33   32
ENDBRANCH   34   33
ENDBRANCH   35   34
ENDBRANCH   37   35
ENDBRANCH   41   40
BRANCH   45   46
ATOM     46  C33 UNL A   1      22.096  36.142  46.518  1.00  0.00    +0.000 C 
ATOM     47  C34 UNL A   1      22.363  34.993  47.280  1.00  0.00    +0.000 C 
ATOM     48  F1  UNL A   1      23.066  35.085  48.418  1.00  0.00    +0.000 F 
ATOM     49  C35 UNL A   1      21.939  33.737  46.853  1.00  0.00    +0.000 C 
ATOM     50  F2  UNL A   1      22.247  32.648  47.573  1.00  0.00    +0.000 F 
ATOM     51  C36 UNL A   1      21.213  33.608  45.679  1.00  0.00    +0.000 C 
ATOM     52  F3  UNL A   1      20.801  32.399  45.273  1.00  0.00    +0.000 F 
ATOM     53  C37 UNL A   1      20.921  34.732  44.922  1.00  0.00    +0.000 C 
ATOM     54  F4  UNL A   1      20.210  34.611  43.792  1.00  0.00    +0.000 F 
ATOM     55  C38 UNL A   1      21.368  35.986  45.331  1.00  0.00    +0.000 C 
ATOM     56  F5  UNL A   1      21.083  37.053  44.567  1.00  0.00    +0.000 F 
ENDBRANCH   45   46
BRANCH   62   63
ATOM     65  F6  UNL A   1      18.512  42.859  48.362  1.00  0.00    +0.000 F 
ATOM     66  C46 UNL A   1      17.220  42.724  50.325  1.00  0.00    +0.000 C 
ATOM     67  F7  UNL A   1      16.254  43.445  49.738  1.00  0.00    +0.000 F 
ATOM     68  C47 UNL A   1      17.063  42.292  51.634  1.00  0.00    +0.000 C 
ATOM     69  F8  UNL A   1      15.938  42.577  52.305  1.00  0.00    +0.000 F 
ATOM     70  C48 UNL A   1      18.074  41.571  52.250  1.00  0.00    +0.000 C 
ATOM     71  F9  UNL A   1      17.918  41.142  53.509  1.00  0.00    +0.000 F 
ATOM     72  C49 UNL A   1      19.251  41.293  51.562  1.00  0.00    +0.000 C 
ATOM     73  F10 UNL A   1      20.218  40.605  52.187  1.00  0.00    +0.000 F 
ATOM     63  C44 UNL A   1      19.428  41.712  50.235  1.00  0.00    +0.000 C 
ATOM     64  C45 UNL A   1      18.384  42.423  49.624  1.00  0.00    +0.000 C 
ENDBRANCH   62   63
BRANCH   77   78
ATOM     78  C53 UNL A   1      25.278  45.281  48.989  1.00  0.00    +0.000 C 
ATOM     79  C54 UNL A   1      25.196  46.322  48.052  1.00  0.00    +0.000 C 
ATOM     80  F11 UNL A   1      24.720  46.078  46.822  1.00  0.00    +0.000 F 
ATOM     81  C55 UNL A   1      25.639  47.606  48.362  1.00  0.00    +0.000 C 
ATOM     82  F12 UNL A   1      25.590  48.571  47.434  1.00  0.00    +0.000 F 
ATOM     83  C56 UNL A   1      26.146  47.881  49.624  1.00  0.00    +0.000 C 
ATOM     84  F13 UNL A   1      26.569  49.116  49.922  1.00  0.00    +0.000 F 
ATOM     85  C57 UNL A   1      26.219  46.872  50.571  1.00  0.00    +0.000 C 
ATOM     86  F14 UNL A   1      26.696  47.137  51.796  1.00  0.00    +0.000 F 
ATOM     87  C58 UNL A   1      25.801  45.581  50.254  1.00  0.00    +0.000 C 
ATOM     88  F15 UNL A   1      25.894  44.623  51.188  1.00  0.00    +0.000 F 
ENDBRANCH   77   78
TORSDOF 28
ENDMDL
MODEL 9
REMARK VINA RESULT:      -6.5      4.761     11.002
ROOT
ATOM    138  H39 UNL A   1      20.662  52.962  -5.853  1.00  0.00    +0.000 H 
ATOM    139  H40 UNL A   1      22.861  54.322  -6.198  1.00  0.00    +0.000 H 
ATOM    140  H41 UNL A   1      20.782  55.991  -3.029  1.00  0.00    +0.000 H 
ATOM    141  H42 UNL A   1      20.187  60.586   1.365  1.00  0.00    +0.000 H 
ATOM    142  H43 UNL A   1      18.053  59.248   1.701  1.00  0.00    +0.000 H 
ATOM    143  H44 UNL A   1      20.191  57.473  -1.391  1.00  0.00    +0.000 H 
ATOM    144  H45 UNL A   1      24.398  60.167  -1.903  1.00  0.00    +0.000 H 
ATOM    145  H46 UNL A   1      24.952  58.676  -3.909  1.00  0.00    +0.000 H 
ATOM    146  H47 UNL A   1      16.683  53.219  -2.261  1.00  0.00    +0.000 H 
ATOM    147  H48 UNL A   1      15.851  54.990  -0.610  1.00  0.00    +0.000 H 
ATOM     41  C29 UNL A   1      17.745  57.060  -0.100  1.00  0.00    +0.000 C 
ATOM     42  C30 UNL A   1      17.850  55.942  -1.099  1.00  0.00    +0.000 C 
ATOM     43  N7  UNL A   1      18.813  55.677  -1.946  1.00  0.00    +0.000 N 
ATOM     44  C31 UNL A   1      18.430  54.514  -2.600  1.00  0.00    +0.000 C 
ATOM     45  C32 UNL A   1      19.059  53.869  -3.612  1.00  0.00    +0.000 C 
ATOM     57  C39 UNL A   1      20.291  54.310  -4.210  1.00  0.00    +0.000 C 
ATOM     58  C40 UNL A   1      20.968  53.770  -5.289  1.00  0.00    +0.000 C 
ATOM     59  C41 UNL A   1      22.141  54.510  -5.484  1.00  0.00    +0.000 C 
ATOM     60  C42 UNL A   1      22.169  55.539  -4.554  1.00  0.00    +0.000 C 
ATOM     61  N8  UNL A   1      21.030  55.401  -3.778  1.00  0.00    +0.000 N 
ATOM     62  C43 UNL A   1      23.162  56.568  -4.386  1.00  0.00    +0.000 C 
ATOM     74  C50 UNL A   1      23.112  57.553  -3.457  1.00  0.00    +0.000 C 
ATOM     75  N9  UNL A   1      22.145  57.797  -2.492  1.00  0.00    +0.000 N 
ATOM     76  C51 UNL A   1      22.556  58.847  -1.825  1.00  0.00    +0.000 C 
ATOM     77  C52 UNL A   1      21.890  59.569  -0.686  1.00  0.00    +0.000 C 
ATOM     89  C59 UNL A   1      20.691  59.141  -0.249  1.00  0.00    +0.000 C 
ATOM     90  C60 UNL A   1      19.912  59.750   0.825  1.00  0.00    +0.000 C 
ATOM     91  C61 UNL A   1      18.780  59.048   0.996  1.00  0.00    +0.000 C 
ATOM     92  C62 UNL A   1      18.743  57.955   0.024  1.00  0.00    +0.000 C 
ATOM     93  N10 UNL A   1      19.922  58.082  -0.666  1.00  0.00    +0.000 N 
ATOM     94  C63 UNL A   1      23.848  59.378  -2.280  1.00  0.00    +0.000 C 
ATOM     95  C64 UNL A   1      24.123  58.580  -3.302  1.00  0.00    +0.000 C 
ATOM     96  C65 UNL A   1      17.175  54.094  -2.019  1.00  0.00    +0.000 C 
ATOM     97  C66 UNL A   1      16.738  54.979  -1.135  1.00  0.00    +0.000 C 
ENDROOT
BRANCH   41   40
ATOM     98  C67 UNL A   1      15.441  57.898   0.384  1.00  0.00    +0.000 C 
ATOM     99  C68 UNL A   1      14.347  58.034   1.234  1.00  0.00    +0.000 C 
ATOM     37  C25 UNL A   1      14.317  57.344   2.450  1.00  0.00    +0.000 C 
ATOM     38  C26 UNL A   1      15.428  56.606   2.865  1.00  0.00    +0.000 C 
ATOM     39  C27 UNL A   1      16.554  56.528   2.045  1.00  0.00    +0.000 C 
ATOM    136  H37 UNL A   1      15.416  56.121   3.776  1.00  0.00    +0.000 H 
ATOM     40  C28 UNL A   1      16.561  57.156   0.789  1.00  0.00    +0.000 C 
ATOM    137  H38 UNL A   1      17.386  56.007   2.363  1.00  0.00    +0.000 H 
ATOM    148  H49 UNL A   1      15.429  58.346  -0.546  1.00  0.00    +0.000 H 
ATOM    149  H50 UNL A   1      13.557  58.644   0.966  1.00  0.00    +0.000 H 
BRANCH   37   35
ATOM     35  C24 UNL A   1      13.132  57.396   3.334  1.00  0.00    +0.000 C 
ATOM     36  O5  UNL A   1      12.164  58.070   3.017  1.00  0.00    +0.000 O 
BRANCH   35   34
ATOM     34  N6  UNL A   1      13.132  56.698   4.515  1.00  0.00    +0.000 N 
ATOM    135  H36 UNL A   1      13.060  55.720   4.427  1.00  0.00    +0.000 H 
BRANCH   34   33
ATOM     33  C23 UNL A   1      13.224  57.195   5.875  1.00  0.00    +0.000 C 
ATOM    133  H34 UNL A   1      14.106  57.794   5.964  1.00  0.00    +0.000 H 
ATOM    134  H35 UNL A   1      12.342  57.768   6.075  1.00  0.00    +0.000 H 
BRANCH   33   32
ATOM    131  H32 UNL A   1      12.541  56.250   7.640  1.00  0.00    +0.000 H 
ATOM    132  H33 UNL A   1      13.137  55.160   6.353  1.00  0.00    +0.000 H 
ATOM     32  C22 UNL A   1      13.290  56.069   6.898  1.00  0.00    +0.000 C 
BRANCH   32   31
ATOM    129  H30 UNL A   1      15.375  55.685   6.872  1.00  0.00    +0.000 H 
ATOM    130  H31 UNL A   1      14.808  56.846   8.113  1.00  0.00    +0.000 H 
ATOM     31  C21 UNL A   1      14.636  55.918   7.610  1.00  0.00    +0.000 C 
BRANCH   31   30
ATOM     30  C20 UNL A   1      14.691  54.837   8.692  1.00  0.00    +0.000 C 
ATOM    127  H28 UNL A   1      15.637  54.913   9.189  1.00  0.00    +0.000 H 
ATOM    128  H29 UNL A   1      13.854  55.018   9.333  1.00  0.00    +0.000 H 
BRANCH   30   29
ATOM    125  H26 UNL A   1      13.526  53.266   7.864  1.00  0.00    +0.000 H 
ATOM     29  C19 UNL A   1      14.537  53.400   8.191  1.00  0.00    +0.000 C 
ATOM    126  H27 UNL A   1      15.254  53.275   7.406  1.00  0.00    +0.000 H 
BRANCH   29   28
ATOM    124  H25 UNL A   1      14.023  52.278   9.910  1.00  0.00    +0.000 H 
ATOM    123  H24 UNL A   1      15.753  52.579   9.731  1.00  0.00    +0.000 H 
ATOM     28  C18 UNL A   1      14.845  52.324   9.226  1.00  0.00    +0.000 C 
BRANCH   28   27
ATOM    122  H23 UNL A   1      14.230  50.411   8.727  1.00  0.00    +0.000 H 
ATOM     27  N5  UNL A   1      14.998  51.018   8.619  1.00  0.00    +0.000 N 
BRANCH   27   25
ATOM     25  C17 UNL A   1      16.050  50.508   7.922  1.00  0.00    +0.000 C 
ATOM     26  O4  UNL A   1      17.138  51.081   8.043  1.00  0.00    +0.000 O 
BRANCH   25   22
ATOM    118  H19 UNL A   1      14.988  49.455   6.453  1.00  0.00    +0.000 H 
ATOM     22  C15 UNL A   1      15.916  49.316   6.965  1.00  0.00    +0.000 C 
BRANCH   22   21
ATOM    117  H18 UNL A   1      17.885  49.423   6.159  1.00  0.00    +0.000 H 
ATOM     21  N4  UNL A   1      16.939  49.299   5.915  1.00  0.00    +0.000 N 
BRANCH   21   19
ATOM     19  C14 UNL A   1      16.603  49.115   4.612  1.00  0.00    +0.000 C 
ATOM     20  O2  UNL A   1      16.725  47.970   4.168  1.00  0.00    +0.000 O 
BRANCH   19   16
ATOM    113  H14 UNL A   1      16.708  50.300   2.874  1.00  0.00    +0.000 H 
ATOM     16  C12 UNL A   1      16.086  50.281   3.744  1.00  0.00    +0.000 C 
BRANCH   16   15
ATOM     15  N3  UNL A   1      14.720  49.993   3.335  1.00  0.00    +0.000 N 
ATOM    112  H13 UNL A   1      14.005  50.104   4.001  1.00  0.00    +0.000 H 
BRANCH   15   13
ATOM     13  C11 UNL A   1      14.374  49.577   2.072  1.00  0.00    +0.000 C 
ATOM     14  O1  UNL A   1      14.105  48.380   1.938  1.00  0.00    +0.000 O 
BRANCH   13    2
ATOM      2  C1  UNL A   1      14.244  50.573   0.884  1.00  0.00    +0.000 C 
ATOM    103  H4  UNL A   1      13.706  50.056   0.117  1.00  0.00    +0.000 H 
BRANCH    2    1
ATOM      1  N1  UNL A   1      13.397  51.727   1.255  1.00  0.00    +0.000 N 
ATOM    100  H1  UNL A   1      13.235  51.718   2.262  1.00  0.00    +0.000 H 
ATOM    101  H2  UNL A   1      12.503  51.664   0.766  1.00  0.00    +0.000 H 
ATOM    102  H3  UNL A   1      13.868  52.592   0.993  1.00  0.00    +0.000 H 
ENDBRANCH    2    1
BRANCH    2    3
ATOM    105  H6  UNL A   1      15.139  50.937  -0.937  1.00  0.00    +0.000 H 
ATOM      3  C2  UNL A   1      15.521  50.860   0.059  1.00  0.00    +0.000 C 
ATOM    104  H5  UNL A   1      15.979  51.719   0.500  1.00  0.00    +0.000 H 
BRANCH    3    4
ATOM      4  C3  UNL A   1      16.615  49.822  -0.092  1.00  0.00    +0.000 C 
ATOM      5  C4  UNL A   1      17.848  49.733   0.531  1.00  0.00    +0.000 C 
ATOM      6  N2  UNL A   1      18.432  48.542   0.181  1.00  0.00    +0.000 N 
ATOM      7  C5  UNL A   1      17.683  47.914  -0.781  1.00  0.00    +0.000 C 
ATOM      8  C6  UNL A   1      17.915  46.711  -1.461  1.00  0.00    +0.000 C 
ATOM      9  C7  UNL A   1      17.016  46.355  -2.469  1.00  0.00    +0.000 C 
ATOM    106  H7  UNL A   1      18.260  50.444   1.155  1.00  0.00    +0.000 H 
ATOM     11  C9  UNL A   1      15.677  48.331  -2.040  1.00  0.00    +0.000 C 
ATOM     12  C10 UNL A   1      16.571  48.720  -1.020  1.00  0.00    +0.000 C 
ATOM     10  C8  UNL A   1      15.921  47.161  -2.769  1.00  0.00    +0.000 C 
ATOM    107  H8  UNL A   1      19.268  48.190   0.565  1.00  0.00    +0.000 H 
ATOM    111  H12 UNL A   1      14.846  48.906  -2.248  1.00  0.00    +0.000 H 
ATOM    108  H9  UNL A   1      18.722  46.111  -1.227  1.00  0.00    +0.000 H 
ATOM    110  H11 UNL A   1      15.284  46.893  -3.534  1.00  0.00    +0.000 H 
ATOM    109  H10 UNL A   1      17.165  45.481  -2.998  1.00  0.00    +0.000 H 
ENDBRANCH    3    4
ENDBRANCH    2    3
ENDBRANCH   13    2
ENDBRANCH   15   13
ENDBRANCH   16   15
BRANCH   16   17
ATOM     17  C13 UNL A   1      16.412  51.725   4.152  1.00  0.00    +0.000 C 
ATOM    114  H15 UNL A   1      17.161  51.680   4.915  1.00  0.00    +0.000 H 
ATOM    115  H16 UNL A   1      15.473  52.140   4.452  1.00  0.00    +0.000 H 
BRANCH   17   18
ATOM     18  S1  UNL A   1      17.022  52.856   2.858  1.00  0.00    +0.000 S 
ATOM    116  H17 UNL A   1      18.364  53.022   2.996  1.00  0.00    +0.000 H 
ENDBRANCH   17   18
ENDBRANCH   16   17
ENDBRANCH   19   16
ENDBRANCH   21   19
ENDBRANCH   22   21
BRANCH   22   23
ATOM    119  H20 UNL A   1      15.392  48.158   8.682  1.00  0.00    +0.000 H 
ATOM     23  C16 UNL A   1      15.808  47.978   7.714  1.00  0.00    +0.000 C 
ATOM    120  H21 UNL A   1      16.792  47.561   7.782  1.00  0.00    +0.000 H 
BRANCH   23   24
ATOM    121  H22 UNL A   1      14.206  47.491   6.667  1.00  0.00    +0.000 H 
ATOM     24  O3  UNL A   1      14.983  47.037   7.027  1.00  0.00    +0.000 O 
ENDBRANCH   23   24
ENDBRANCH   22   23
ENDBRANCH   25   22
ENDBRANCH   27   25
ENDBRANCH   28   27
ENDBRANCH   29   28
ENDBRANCH   30   29
ENDBRANCH   31   30
ENDBRANCH   32   31
ENDBRANCH   33   32
ENDBRANCH   34   33
ENDBRANCH   35   34
ENDBRANCH   37   35
ENDBRANCH   41   40
BRANCH   45   46
ATOM     46  C33 UNL A   1      18.420  52.618  -4.142  1.00  0.00    +0.000 C 
ATOM     47  C34 UNL A   1      17.471  52.659  -5.175  1.00  0.00    +0.000 C 
ATOM     48  F1  UNL A   1      17.076  53.836  -5.684  1.00  0.00    +0.000 F 
ATOM     49  C35 UNL A   1      16.893  51.490  -5.664  1.00  0.00    +0.000 C 
ATOM     50  F2  UNL A   1      15.954  51.558  -6.618  1.00  0.00    +0.000 F 
ATOM     51  C36 UNL A   1      17.278  50.258  -5.157  1.00  0.00    +0.000 C 
ATOM     52  F3  UNL A   1      16.726  49.134  -5.632  1.00  0.00    +0.000 F 
ATOM     53  C37 UNL A   1      18.228  50.193  -4.150  1.00  0.00    +0.000 C 
ATOM     54  F4  UNL A   1      18.610  49.003  -3.665  1.00  0.00    +0.000 F 
ATOM     55  C38 UNL A   1      18.787  51.362  -3.639  1.00  0.00    +0.000 C 
ATOM     56  F5  UNL A   1      19.693  51.267  -2.653  1.00  0.00    +0.000 F 
ENDBRANCH   45   46
BRANCH   62   63
ATOM     65  F6  UNL A   1      23.163  57.846  -6.951  1.00  0.00    +0.000 F 
ATOM     66  C46 UNL A   1      25.389  57.232  -7.408  1.00  0.00    +0.000 C 
ATOM     67  F7  UNL A   1      25.309  57.833  -8.603  1.00  0.00    +0.000 F 
ATOM     68  C47 UNL A   1      26.564  56.599  -7.029  1.00  0.00    +0.000 C 
ATOM     69  F8  UNL A   1      27.625  56.606  -7.849  1.00  0.00    +0.000 F 
ATOM     70  C48 UNL A   1      26.638  55.953  -5.805  1.00  0.00    +0.000 C 
ATOM     71  F9  UNL A   1      27.775  55.352  -5.432  1.00  0.00    +0.000 F 
ATOM     72  C49 UNL A   1      25.530  55.925  -4.963  1.00  0.00    +0.000 C 
ATOM     73  F10 UNL A   1      25.625  55.282  -3.790  1.00  0.00    +0.000 F 
ATOM     63  C44 UNL A   1      24.334  56.567  -5.322  1.00  0.00    +0.000 C 
ATOM     64  C45 UNL A   1      24.289  57.232  -6.556  1.00  0.00    +0.000 C 
ENDBRANCH   62   63
BRANCH   77   78
ATOM     78  C53 UNL A   1      22.523  60.760  -0.064  1.00  0.00    +0.000 C 
ATOM     79  C54 UNL A   1      22.260  62.050  -0.547  1.00  0.00    +0.000 C 
ATOM     80  F11 UNL A   1      21.443  62.216  -1.597  1.00  0.00    +0.000 F 
ATOM     81  C55 UNL A   1      22.867  63.169   0.019  1.00  0.00    +0.000 C 
ATOM     82  F12 UNL A   1      22.633  64.386  -0.490  1.00  0.00    +0.000 F 
ATOM     83  C56 UNL A   1      23.726  63.022   1.099  1.00  0.00    +0.000 C 
ATOM     84  F13 UNL A   1      24.307  64.099   1.645  1.00  0.00    +0.000 F 
ATOM     85  C57 UNL A   1      23.986  61.759   1.605  1.00  0.00    +0.000 C 
ATOM     86  F14 UNL A   1      24.805  61.614   2.658  1.00  0.00    +0.000 F 
ATOM     87  C58 UNL A   1      23.400  60.636   1.023  1.00  0.00    +0.000 C 
ATOM     88  F15 UNL A   1      23.679  59.425   1.527  1.00  0.00    +0.000 F 
ENDBRANCH   77   78
TORSDOF 28
ENDMDL
MODEL 10
REMARK VINA RESULT:      -6.5     35.714     42.517
ROOT
ATOM    138  H39 UNL A   1      12.025  10.908  16.277  1.00  0.00    +0.000 H 
ATOM    139  H40 UNL A   1      12.054  13.152  14.947  1.00  0.00    +0.000 H 
ATOM    140  H41 UNL A   1      11.537  14.027  18.961  1.00  0.00    +0.000 H 
ATOM    141  H42 UNL A   1      10.455  18.305  23.576  1.00  0.00    +0.000 H 
ATOM    142  H43 UNL A   1      10.440  16.115  24.866  1.00  0.00    +0.000 H 
ATOM    143  H44 UNL A   1      11.100  15.225  20.860  1.00  0.00    +0.000 H 
ATOM    144  H45 UNL A   1      11.171  19.628  18.446  1.00  0.00    +0.000 H 
ATOM    145  H46 UNL A   1      11.401  18.287  16.277  1.00  0.00    +0.000 H 
ATOM    146  H47 UNL A   1      11.710   9.713  21.499  1.00  0.00    +0.000 H 
ATOM    147  H48 UNL A   1      10.960  10.972  23.599  1.00  0.00    +0.000 H 
ATOM     41  C29 UNL A   1      10.805  13.798  23.246  1.00  0.00    +0.000 C 
ATOM     42  C30 UNL A   1      11.085  12.754  22.201  1.00  0.00    +0.000 C 
ATOM     43  N7  UNL A   1      11.311  12.904  20.921  1.00  0.00    +0.000 N 
ATOM     44  C31 UNL A   1      11.553  11.629  20.428  1.00  0.00    +0.000 C 
ATOM     45  C32 UNL A   1      11.776  11.248  19.147  1.00  0.00    +0.000 C 
ATOM     57  C39 UNL A   1      11.794  12.150  18.027  1.00  0.00    +0.000 C 
ATOM     58  C40 UNL A   1      11.935  11.853  16.682  1.00  0.00    +0.000 C 
ATOM     59  C41 UNL A   1      11.935  13.056  15.967  1.00  0.00    +0.000 C 
ATOM     60  C42 UNL A   1      11.748  14.099  16.862  1.00  0.00    +0.000 C 
ATOM     61  N8  UNL A   1      11.666  13.528  18.122  1.00  0.00    +0.000 N 
ATOM     62  C43 UNL A   1      11.651  15.509  16.589  1.00  0.00    +0.000 C 
ATOM     74  C50 UNL A   1      11.453  16.471  17.523  1.00  0.00    +0.000 C 
ATOM     75  N9  UNL A   1      11.303  16.339  18.896  1.00  0.00    +0.000 N 
ATOM     76  C51 UNL A   1      11.157  17.555  19.362  1.00  0.00    +0.000 C 
ATOM     77  C52 UNL A   1      10.931  18.008  20.779  1.00  0.00    +0.000 C 
ATOM     89  C59 UNL A   1      10.836  17.086  21.755  1.00  0.00    +0.000 C 
ATOM     90  C60 UNL A   1      10.593  17.367  23.167  1.00  0.00    +0.000 C 
ATOM     91  C61 UNL A   1      10.576  16.209  23.847  1.00  0.00    +0.000 C 
ATOM     92  C62 UNL A   1      10.780  15.102  22.912  1.00  0.00    +0.000 C 
ATOM     93  N10 UNL A   1      10.934  15.717  21.695  1.00  0.00    +0.000 N 
ATOM     94  C63 UNL A   1      11.222  18.603  18.335  1.00  0.00    +0.000 C 
ATOM     95  C64 UNL A   1      11.361  17.887  17.228  1.00  0.00    +0.000 C 
ATOM     96  C65 UNL A   1      11.500  10.723  21.553  1.00  0.00    +0.000 C 
ATOM     97  C66 UNL A   1      11.145  11.357  22.661  1.00  0.00    +0.000 C 
ENDROOT
BRANCH   41   40
ATOM     98  C67 UNL A   1       9.321  13.053  25.113  1.00  0.00    +0.000 C 
ATOM     99  C68 UNL A   1       9.115  12.727  26.451  1.00  0.00    +0.000 C 
ATOM     37  C25 UNL A   1      10.203  12.645  27.325  1.00  0.00    +0.000 C 
ATOM     38  C26 UNL A   1      11.483  12.994  26.887  1.00  0.00    +0.000 C 
ATOM     39  C27 UNL A   1      11.678  13.389  25.563  1.00  0.00    +0.000 C 
ATOM    136  H37 UNL A   1      12.281  12.960  27.541  1.00  0.00    +0.000 H 
ATOM     40  C28 UNL A   1      10.603  13.401  24.661  1.00  0.00    +0.000 C 
ATOM    137  H38 UNL A   1      12.618  13.674  25.246  1.00  0.00    +0.000 H 
ATOM    148  H49 UNL A   1       8.529  13.039  24.452  1.00  0.00    +0.000 H 
ATOM    149  H50 UNL A   1       8.159  12.548  26.797  1.00  0.00    +0.000 H 
BRANCH   37   35
ATOM     35  C24 UNL A   1      10.029  12.215  28.730  1.00  0.00    +0.000 C 
ATOM     36  O5  UNL A   1      10.997  11.857  29.383  1.00  0.00    +0.000 O 
BRANCH   35   34
ATOM     34  N6  UNL A   1       8.776  12.208  29.290  1.00  0.00    +0.000 N 
ATOM    135  H36 UNL A   1       8.406  13.094  29.507  1.00  0.00    +0.000 H 
BRANCH   34   33
ATOM     33  C23 UNL A   1       7.920  11.081  29.607  1.00  0.00    +0.000 C 
ATOM    133  H34 UNL A   1       7.950  10.912  30.664  1.00  0.00    +0.000 H 
ATOM    134  H35 UNL A   1       6.930  11.319  29.278  1.00  0.00    +0.000 H 
BRANCH   33   32
ATOM    131  H32 UNL A   1       9.336   9.968  28.497  1.00  0.00    +0.000 H 
ATOM    132  H33 UNL A   1       8.316   9.027  29.626  1.00  0.00    +0.000 H 
ATOM     32  C22 UNL A   1       8.355   9.807  28.895  1.00  0.00    +0.000 C 
BRANCH   32   31
ATOM    129  H30 UNL A   1       7.249  10.217  27.133  1.00  0.00    +0.000 H 
ATOM    130  H31 UNL A   1       7.971   8.580  27.242  1.00  0.00    +0.000 H 
ATOM     31  C21 UNL A   1       7.445   9.363  27.748  1.00  0.00    +0.000 C 
BRANCH   31   30
ATOM     30  C20 UNL A   1       6.101   8.763  28.168  1.00  0.00    +0.000 C 
ATOM    127  H28 UNL A   1       6.285   8.045  28.941  1.00  0.00    +0.000 H 
ATOM    128  H29 UNL A   1       5.496   9.587  28.483  1.00  0.00    +0.000 H 
BRANCH   30   29
ATOM    125  H26 UNL A   1       4.292   8.360  27.131  1.00  0.00    +0.000 H 
ATOM     29  C19 UNL A   1       5.318   8.066  27.053  1.00  0.00    +0.000 C 
ATOM    126  H27 UNL A   1       5.775   8.363  26.133  1.00  0.00    +0.000 H 
BRANCH   29   28
ATOM    124  H25 UNL A   1       5.013   6.219  28.040  1.00  0.00    +0.000 H 
ATOM    123  H24 UNL A   1       6.389   6.231  26.935  1.00  0.00    +0.000 H 
ATOM     28  C18 UNL A   1       5.377   6.543  27.088  1.00  0.00    +0.000 C 
BRANCH   28   27
ATOM    122  H23 UNL A   1       3.659   6.363  25.946  1.00  0.00    +0.000 H 
ATOM     27  N5  UNL A   1       4.544   5.947  26.063  1.00  0.00    +0.000 N 
BRANCH   27   25
ATOM     25  C17 UNL A   1       4.808   4.897  25.239  1.00  0.00    +0.000 C 
ATOM     26  O4  UNL A   1       4.670   3.763  25.709  1.00  0.00    +0.000 O 
BRANCH   25   22
ATOM    118  H19 UNL A   1       5.291   4.099  23.361  1.00  0.00    +0.000 H 
ATOM     22  C15 UNL A   1       5.319   5.072  23.803  1.00  0.00    +0.000 C 
BRANCH   22   21
ATOM    117  H18 UNL A   1       3.568   5.545  22.687  1.00  0.00    +0.000 H 
ATOM     21  N4  UNL A   1       4.441   5.901  22.972  1.00  0.00    +0.000 N 
BRANCH   21   19
ATOM     19  C14 UNL A   1       4.813   7.149  22.586  1.00  0.00    +0.000 C 
ATOM     20  O2  UNL A   1       5.309   7.253  21.462  1.00  0.00    +0.000 O 
BRANCH   19   16
ATOM    113  H14 UNL A   1       4.406   7.972  24.482  1.00  0.00    +0.000 H 
ATOM     16  C12 UNL A   1       4.611   8.368  23.510  1.00  0.00    +0.000 C 
BRANCH   16   15
ATOM     15  N3  UNL A   1       5.850   9.126  23.567  1.00  0.00    +0.000 N 
ATOM    112  H13 UNL A   1       6.633   8.705  23.988  1.00  0.00    +0.000 H 
BRANCH   15   13
ATOM     13  C11 UNL A   1       5.989  10.398  23.063  1.00  0.00    +0.000 C 
ATOM     14  O1  UNL A   1       5.999  11.320  23.884  1.00  0.00    +0.000 O 
BRANCH   13    2
ATOM      2  C1  UNL A   1       6.209  10.664  21.546  1.00  0.00    +0.000 C 
ATOM    103  H4  UNL A   1       6.235   9.704  21.075  1.00  0.00    +0.000 H 
BRANCH    2    1
ATOM      1  N1  UNL A   1       5.046  11.364  20.961  1.00  0.00    +0.000 N 
ATOM    100  H1  UNL A   1       4.563  11.888  21.691  1.00  0.00    +0.000 H 
ATOM    101  H2  UNL A   1       4.407  10.681  20.554  1.00  0.00    +0.000 H 
ATOM    102  H3  UNL A   1       5.366  12.006  20.236  1.00  0.00    +0.000 H 
ENDBRANCH    2    1
BRANCH    2    3
ATOM    105  H6  UNL A   1       8.107  11.294  22.046  1.00  0.00    +0.000 H 
ATOM      3  C2  UNL A   1       7.619  11.128  21.108  1.00  0.00    +0.000 C 
ATOM    104  H5  UNL A   1       7.999  10.369  20.459  1.00  0.00    +0.000 H 
BRANCH    3    4
ATOM      4  C3  UNL A   1       7.830  12.447  20.394  1.00  0.00    +0.000 C 
ATOM      5  C4  UNL A   1       8.301  12.701  19.116  1.00  0.00    +0.000 C 
ATOM      6  N2  UNL A   1       8.182  14.044  18.864  1.00  0.00    +0.000 N 
ATOM      7  C5  UNL A   1       7.791  14.706  19.999  1.00  0.00    +0.000 C 
ATOM      8  C6  UNL A   1       7.590  16.075  20.222  1.00  0.00    +0.000 C 
ATOM      9  C7  UNL A   1       7.275  16.480  21.521  1.00  0.00    +0.000 C 
ATOM    106  H7  UNL A   1       8.678  11.997  18.463  1.00  0.00    +0.000 H 
ATOM     11  C9  UNL A   1       7.299  14.180  22.295  1.00  0.00    +0.000 C 
ATOM     12  C10 UNL A   1       7.624  13.742  20.993  1.00  0.00    +0.000 C 
ATOM     10  C8  UNL A   1       7.149  15.549  22.549  1.00  0.00    +0.000 C 
ATOM    107  H8  UNL A   1       8.353  14.471  17.993  1.00  0.00    +0.000 H 
ATOM    111  H12 UNL A   1       7.173  13.496  23.056  1.00  0.00    +0.000 H 
ATOM    108  H9  UNL A   1       7.674  16.759  19.453  1.00  0.00    +0.000 H 
ATOM    110  H11 UNL A   1       6.942  15.871  23.507  1.00  0.00    +0.000 H 
ATOM    109  H10 UNL A   1       7.134  17.482  21.721  1.00  0.00    +0.000 H 
ENDBRANCH    3    4
ENDBRANCH    2    3
ENDBRANCH   13    2
ENDBRANCH   15   13
ENDBRANCH   16   15
BRANCH   16   17
ATOM     17  C13 UNL A   1       3.299   9.164  23.431  1.00  0.00    +0.000 C 
ATOM    114  H15 UNL A   1       3.547  10.199  23.533  1.00  0.00    +0.000 H 
ATOM    115  H16 UNL A   1       2.689   8.757  24.209  1.00  0.00    +0.000 H 
BRANCH   17   18
ATOM     18  S1  UNL A   1       2.293   8.992  21.920  1.00  0.00    +0.000 S 
ATOM    116  H17 UNL A   1       0.984   8.848  22.261  1.00  0.00    +0.000 H 
ENDBRANCH   17   18
ENDBRANCH   16   17
ENDBRANCH   19   16
ENDBRANCH   21   19
ENDBRANCH   22   21
BRANCH   22   23
ATOM    119  H20 UNL A   1       7.209   5.424  24.736  1.00  0.00    +0.000 H 
ATOM     23  C16 UNL A   1       6.786   5.531  23.759  1.00  0.00    +0.000 C 
ATOM    120  H21 UNL A   1       6.800   6.551  23.435  1.00  0.00    +0.000 H 
BRANCH   23   24
ATOM    121  H22 UNL A   1       7.576   3.840  23.114  1.00  0.00    +0.000 H 
ATOM     24  O3  UNL A   1       7.565   4.769  22.838  1.00  0.00    +0.000 O 
ENDBRANCH   23   24
ENDBRANCH   22   23
ENDBRANCH   25   22
ENDBRANCH   27   25
ENDBRANCH   28   27
ENDBRANCH   29   28
ENDBRANCH   30   29
ENDBRANCH   31   30
ENDBRANCH   32   31
ENDBRANCH   33   32
ENDBRANCH   34   33
ENDBRANCH   35   34
ENDBRANCH   37   35
ENDBRANCH   41   40
BRANCH   45   46
ATOM     46  C33 UNL A   1      12.012   9.788  18.888  1.00  0.00    +0.000 C 
ATOM     47  C34 UNL A   1      13.286   9.214  19.023  1.00  0.00    +0.000 C 
ATOM     48  F1  UNL A   1      14.341   9.978  19.342  1.00  0.00    +0.000 F 
ATOM     49  C35 UNL A   1      13.487   7.856  18.789  1.00  0.00    +0.000 C 
ATOM     50  F2  UNL A   1      14.721   7.340  18.877  1.00  0.00    +0.000 F 
ATOM     51  C36 UNL A   1      12.418   7.040  18.454  1.00  0.00    +0.000 C 
ATOM     52  F3  UNL A   1      12.612   5.733  18.236  1.00  0.00    +0.000 F 
ATOM     53  C37 UNL A   1      11.147   7.583  18.336  1.00  0.00    +0.000 C 
ATOM     54  F4  UNL A   1      10.109   6.794  18.022  1.00  0.00    +0.000 F 
ATOM     55  C38 UNL A   1      10.946   8.946  18.540  1.00  0.00    +0.000 C 
ATOM     56  F5  UNL A   1       9.707   9.443  18.403  1.00  0.00    +0.000 F 
ENDBRANCH   45   46
BRANCH   62   63
ATOM     65  F6  UNL A   1      14.113  16.259  15.329  1.00  0.00    +0.000 F 
ATOM     66  C46 UNL A   1      13.082  16.682  13.256  1.00  0.00    +0.000 C 
ATOM     67  F7  UNL A   1      14.267  17.039  12.741  1.00  0.00    +0.000 F 
ATOM     68  C47 UNL A   1      11.943  16.724  12.466  1.00  0.00    +0.000 C 
ATOM     69  F8  UNL A   1      12.029  17.101  11.183  1.00  0.00    +0.000 F 
ATOM     70  C48 UNL A   1      10.713  16.381  13.007  1.00  0.00    +0.000 C 
ATOM     71  F9  UNL A   1       9.614  16.409  12.242  1.00  0.00    +0.000 F 
ATOM     72  C49 UNL A   1      10.619  16.011  14.345  1.00  0.00    +0.000 C 
ATOM     73  F10 UNL A   1       9.414  15.697  14.845  1.00  0.00    +0.000 F 
ATOM     63  C44 UNL A   1      11.759  15.952  15.160  1.00  0.00    +0.000 C 
ATOM     64  C45 UNL A   1      12.996  16.284  14.586  1.00  0.00    +0.000 C 
ENDBRANCH   62   63
BRANCH   77   78
ATOM     78  C53 UNL A   1      10.782  19.449  21.104  1.00  0.00    +0.000 C 
ATOM     79  C54 UNL A   1      11.889  20.220  21.485  1.00  0.00    +0.000 C 
ATOM     80  F11 UNL A   1      13.100  19.650  21.578  1.00  0.00    +0.000 F 
ATOM     81  C55 UNL A   1      11.751  21.567  21.812  1.00  0.00    +0.000 C 
ATOM     82  F12 UNL A   1      12.818  22.269  22.216  1.00  0.00    +0.000 F 
ATOM     83  C56 UNL A   1      10.507  22.177  21.735  1.00  0.00    +0.000 C 
ATOM     84  F13 UNL A   1      10.376  23.473  22.047  1.00  0.00    +0.000 F 
ATOM     85  C57 UNL A   1       9.401  21.439  21.343  1.00  0.00    +0.000 C 
ATOM     86  F14 UNL A   1       8.200  22.028  21.255  1.00  0.00    +0.000 F 
ATOM     87  C58 UNL A   1       9.534  20.085  21.042  1.00  0.00    +0.000 C 
ATOM     88  F15 UNL A   1       8.444  19.394  20.676  1.00  0.00    +0.000 F 
ENDBRANCH   77   78
TORSDOF 28
ENDMDL
