MODEL 1
REMARK VINA RESULT:      -7.2      0.000      0.000
ROOT
ATOM    132  H27 UNL A   1      49.326  15.421  47.717  1.00  0.00    +0.000 H 
ATOM    133  H28 UNL A   1      48.277  13.178  48.705  1.00  0.00    +0.000 H 
ATOM    134  H29 UNL A   1      46.669  13.979  44.997  1.00  0.00    +0.000 H 
ATOM    135  H30 UNL A   1      41.912  11.387  50.638  1.00  0.00    +0.000 H 
ATOM    136  H31 UNL A   1      41.379  13.763  49.975  1.00  0.00    +0.000 H 
ATOM    137  H32 UNL A   1      45.456  13.199  49.392  1.00  0.00    +0.000 H 
ATOM    138  H33 UNL A   1      47.626  10.750  50.785  1.00  0.00    +0.000 H 
ATOM    139  H34 UNL A   1      48.782  10.903  48.464  1.00  0.00    +0.000 H 
ATOM    140  H35 UNL A   1      47.732  17.403  48.919  1.00  0.00    +0.000 H 
ATOM    141  H36 UNL A   1      46.393  15.902  50.541  1.00  0.00    +0.000 H 
ATOM     27  C20 UNL A   1      43.658  15.496  49.359  1.00  0.00    +0.000 C 
ATOM     28  C21 UNL A   1      44.972  15.895  48.768  1.00  0.00    +0.000 C 
ATOM     29  N4  UNL A   1      44.993  16.404  47.565  1.00  0.00    +0.000 N 
ATOM     30  C22 UNL A   1      46.268  16.871  47.355  1.00  0.00    +0.000 C 
ATOM     31  C23 UNL A   1      46.844  16.451  46.192  1.00  0.00    +0.000 C 
ATOM     43  C30 UNL A   1      47.604  15.248  46.399  1.00  0.00    +0.000 C 
ATOM     44  C31 UNL A   1      48.510  14.888  47.377  1.00  0.00    +0.000 C 
ATOM     45  C32 UNL A   1      48.059  13.622  47.799  1.00  0.00    +0.000 C 
ATOM     46  C33 UNL A   1      47.271  13.069  46.799  1.00  0.00    +0.000 C 
ATOM     47  N5  UNL A   1      47.093  14.077  45.881  1.00  0.00    +0.000 N 
ATOM     48  C34 UNL A   1      46.529  11.845  46.662  1.00  0.00    +0.000 C 
ATOM     60  C41 UNL A   1      46.749  10.894  47.601  1.00  0.00    +0.000 C 
ATOM     61  N6  UNL A   1      45.637  10.346  48.152  1.00  0.00    +0.000 N 
ATOM     62  C42 UNL A   1      45.822  10.563  49.419  1.00  0.00    +0.000 C 
ATOM     63  C43 UNL A   1      44.704  10.561  50.365  1.00  0.00    +0.000 C 
ATOM     75  C50 UNL A   1      44.040  11.778  50.172  1.00  0.00    +0.000 C 
ATOM     76  C51 UNL A   1      42.615  12.071  50.320  1.00  0.00    +0.000 C 
ATOM     77  C52 UNL A   1      42.332  13.365  49.983  1.00  0.00    +0.000 C 
ATOM     78  C53 UNL A   1      43.541  14.128  49.632  1.00  0.00    +0.000 C 
ATOM     79  N7  UNL A   1      44.523  13.064  49.677  1.00  0.00    +0.000 N 
ATOM     80  C54 UNL A   1      47.207  10.730  49.843  1.00  0.00    +0.000 C 
ATOM     81  C55 UNL A   1      47.766  10.849  48.637  1.00  0.00    +0.000 C 
ATOM     82  C56 UNL A   1      46.866  16.893  48.687  1.00  0.00    +0.000 C 
ATOM     83  C57 UNL A   1      46.163  16.176  49.574  1.00  0.00    +0.000 C 
ENDROOT
BRANCH   27   26
ATOM    130  H25 UNL A   1      39.506  17.589  49.941  1.00  0.00    +0.000 H 
ATOM    131  H26 UNL A   1      40.981  15.921  49.020  1.00  0.00    +0.000 H 
ATOM    142  H37 UNL A   1      44.307  18.380  49.660  1.00  0.00    +0.000 H 
ATOM    143  H38 UNL A   1      42.765  20.178  50.306  1.00  0.00    +0.000 H 
ATOM     84  C58 UNL A   1      43.294  18.184  49.677  1.00  0.00    +0.000 C 
ATOM     85  C59 UNL A   1      42.378  19.248  50.084  1.00  0.00    +0.000 C 
ATOM     23  C16 UNL A   1      40.988  19.052  50.186  1.00  0.00    +0.000 C 
ATOM     24  C17 UNL A   1      40.513  17.800  49.844  1.00  0.00    +0.000 C 
ATOM     25  C18 UNL A   1      41.403  16.799  49.362  1.00  0.00    +0.000 C 
ATOM     26  C19 UNL A   1      42.844  16.902  49.307  1.00  0.00    +0.000 C 
BRANCH   23   21
ATOM     21  C15 UNL A   1      40.015  20.037  50.788  1.00  0.00    +0.000 C 
ATOM     22  O4  UNL A   1      38.827  19.740  50.892  1.00  0.00    +0.000 O 
BRANCH   21   20
ATOM    129  H24 UNL A   1      41.030  21.777  50.511  1.00  0.00    +0.000 H 
ATOM     20  N3  UNL A   1      40.424  21.316  51.135  1.00  0.00    +0.000 N 
BRANCH   20   19
ATOM     19  C14 UNL A   1      40.043  22.030  52.328  1.00  0.00    +0.000 C 
ATOM    127  H22 UNL A   1      40.747  22.822  52.476  1.00  0.00    +0.000 H 
ATOM    128  H23 UNL A   1      39.040  22.365  52.160  1.00  0.00    +0.000 H 
BRANCH   19   18
ATOM     18  C13 UNL A   1      39.994  21.194  53.617  1.00  0.00    +0.000 C 
ATOM    125  H20 UNL A   1      39.729  21.853  54.416  1.00  0.00    +0.000 H 
ATOM    126  H21 UNL A   1      39.290  20.415  53.409  1.00  0.00    +0.000 H 
BRANCH   18   17
ATOM     17  C12 UNL A   1      41.276  20.455  54.037  1.00  0.00    +0.000 C 
ATOM    123  H18 UNL A   1      41.923  20.420  53.185  1.00  0.00    +0.000 H 
ATOM    124  H19 UNL A   1      41.659  21.009  54.868  1.00  0.00    +0.000 H 
BRANCH   17   16
ATOM    121  H16 UNL A   1      40.088  18.891  54.836  1.00  0.00    +0.000 H 
ATOM    122  H17 UNL A   1      41.428  18.389  53.748  1.00  0.00    +0.000 H 
ATOM     16  C11 UNL A   1      41.112  19.021  54.552  1.00  0.00    +0.000 C 
BRANCH   16   15
ATOM    119  H14 UNL A   1      42.915  18.255  55.378  1.00  0.00    +0.000 H 
ATOM     15  C10 UNL A   1      41.984  18.628  55.750  1.00  0.00    +0.000 C 
ATOM    120  H15 UNL A   1      42.090  19.510  56.347  1.00  0.00    +0.000 H 
BRANCH   15   14
ATOM    118  H13 UNL A   1      41.283  17.975  57.646  1.00  0.00    +0.000 H 
ATOM    117  H12 UNL A   1      42.019  16.707  56.674  1.00  0.00    +0.000 H 
ATOM     14  C9  UNL A   1      41.378  17.564  56.663  1.00  0.00    +0.000 C 
BRANCH   14   13
ATOM    116  H11 UNL A   1      39.456  17.893  55.943  1.00  0.00    +0.000 H 
ATOM     13  N2  UNL A   1      40.067  17.166  56.202  1.00  0.00    +0.000 N 
BRANCH   13   11
ATOM     11  C8  UNL A   1      39.579  15.893  56.087  1.00  0.00    +0.000 C 
ATOM     12  O3  UNL A   1      40.374  14.975  56.303  1.00  0.00    +0.000 O 
BRANCH   11    8
ATOM    112  H7  UNL A   1      37.884  14.636  56.189  1.00  0.00    +0.000 H 
ATOM      8  C6  UNL A   1      38.086  15.609  55.791  1.00  0.00    +0.000 C 
BRANCH    8    7
ATOM    111  H6  UNL A   1      37.018  15.014  54.095  1.00  0.00    +0.000 H 
ATOM      7  N1  UNL A   1      37.798  15.558  54.352  1.00  0.00    +0.000 N 
BRANCH    7    5
ATOM      5  C5  UNL A   1      38.458  16.158  53.322  1.00  0.00    +0.000 C 
ATOM      6  O1  UNL A   1      38.381  17.387  53.240  1.00  0.00    +0.000 O 
BRANCH    5    4
ATOM      4  C4  UNL A   1      39.190  15.338  52.275  1.00  0.00    +0.000 C 
ATOM    109  H4  UNL A   1      38.487  14.677  51.811  1.00  0.00    +0.000 H 
ATOM    110  H5  UNL A   1      39.620  16.031  51.582  1.00  0.00    +0.000 H 
BRANCH    4    3
ATOM      2  C2  UNL A   1      41.613  14.923  53.123  1.00  0.00    +0.000 C 
ATOM      3  C3  UNL A   1      40.316  14.518  52.825  1.00  0.00    +0.000 C 
ATOM     98  N8  UNL A   1      42.298  13.830  53.655  1.00  0.00    +0.000 N 
ATOM    144  H39 UNL A   1      39.433  12.521  52.924  1.00  0.00    +0.000 H 
ATOM     86  C60 UNL A   1      40.247  13.129  53.102  1.00  0.00    +0.000 C 
ATOM     87  C61 UNL A   1      41.450  12.721  53.648  1.00  0.00    +0.000 C 
BRANCH    2    1
ATOM      1  C1  UNL A   1      42.246  16.245  52.819  1.00  0.00    +0.000 C 
ATOM    106  H1  UNL A   1      42.286  16.385  51.758  1.00  0.00    +0.000 H 
ATOM    107  H2  UNL A   1      43.238  16.266  53.220  1.00  0.00    +0.000 H 
ATOM    108  H3  UNL A   1      41.666  17.027  53.260  1.00  0.00    +0.000 H 
ENDBRANCH    2    1
BRANCH   87   88
ATOM     97  C68 UNL A   1      42.137  11.324  55.584  1.00  0.00    +0.000 C 
ATOM    145  H40 UNL A   1      41.433  10.297  52.473  1.00  0.00    +0.000 H 
ATOM    146  H41 UNL A   1      41.933   8.138  53.467  1.00  0.00    +0.000 H 
ATOM    150  H45 UNL A   1      42.715  10.026  57.150  1.00  0.00    +0.000 H 
ATOM    151  H46 UNL A   1      42.208  12.181  56.154  1.00  0.00    +0.000 H 
ATOM     88  C62 UNL A   1      41.748  11.411  54.242  1.00  0.00    +0.000 C 
ATOM     89  C63 UNL A   1      41.691  10.239  53.471  1.00  0.00    +0.000 C 
ATOM     90  C64 UNL A   1      41.982   8.995  54.038  1.00  0.00    +0.000 C 
ATOM     91  C65 UNL A   1      42.339   8.925  55.386  1.00  0.00    +0.000 C 
ATOM     96  C67 UNL A   1      42.431  10.085  56.159  1.00  0.00    +0.000 C 
BRANCH   91   92
ATOM     92  S1  UNL A   1      42.744   7.347  56.093  1.00  0.00    +0.000 S 
ATOM     94  O5  UNL A   1      41.673   6.986  56.985  1.00  0.00    +0.000 O 
ATOM     95  O6  UNL A   1      43.137   6.465  54.997  1.00  0.00    +0.000 O 
BRANCH   92   93
ATOM    149  H44 UNL A   1      43.935   7.742  58.089  1.00  0.00    +0.000 H 
ATOM    147  H42 UNL A   1      44.656   8.569  56.729  1.00  0.00    +0.000 H 
ATOM    148  H43 UNL A   1      44.891   6.850  56.930  1.00  0.00    +0.000 H 
ATOM     93  C66 UNL A   1      44.201   7.658  57.056  1.00  0.00    +0.000 C 
ENDBRANCH   92   93
ENDBRANCH   91   92
ENDBRANCH   87   88
BRANCH   98   99
ATOM     99  C69 UNL A   1      43.649  13.817  54.091  1.00  0.00    +0.000 C 
ATOM    100  C70 UNL A   1      44.638  13.263  53.266  1.00  0.00    +0.000 C 
ATOM    101  C71 UNL A   1      45.962  13.210  53.705  1.00  0.00    +0.000 C 
ATOM    102  C72 UNL A   1      46.292  13.693  54.971  1.00  0.00    +0.000 C 
ATOM    103  C73 UNL A   1      45.299  14.229  55.786  1.00  0.00    +0.000 C 
ATOM    104  F16 UNL A   1      45.620  14.673  57.009  1.00  0.00    +0.000 F 
ATOM    105  C74 UNL A   1      43.978  14.299  55.361  1.00  0.00    +0.000 C 
ATOM    152  H47 UNL A   1      44.387  12.896  52.335  1.00  0.00    +0.000 H 
ATOM    153  H48 UNL A   1      46.693  12.813  53.096  1.00  0.00    +0.000 H 
ATOM    154  H49 UNL A   1      47.269  13.655  55.301  1.00  0.00    +0.000 H 
ATOM    155  H50 UNL A   1      43.250  14.701  55.974  1.00  0.00    +0.000 H 
ENDBRANCH   98   99
ENDBRANCH    4    3
ENDBRANCH    5    4
ENDBRANCH    7    5
ENDBRANCH    8    7
BRANCH    8    9
ATOM      9  C7  UNL A   1      37.163  16.609  56.502  1.00  0.00    +0.000 C 
ATOM    114  H9  UNL A   1      36.601  16.061  57.229  1.00  0.00    +0.000 H 
ATOM    113  H8  UNL A   1      37.767  17.368  56.952  1.00  0.00    +0.000 H 
BRANCH    9   10
ATOM     10  O2  UNL A   1      36.230  17.231  55.626  1.00  0.00    +0.000 O 
ATOM    115  H10 UNL A   1      35.352  17.230  56.038  1.00  0.00    +0.000 H 
ENDBRANCH    9   10
ENDBRANCH    8    9
ENDBRANCH   11    8
ENDBRANCH   13   11
ENDBRANCH   14   13
ENDBRANCH   15   14
ENDBRANCH   16   15
ENDBRANCH   17   16
ENDBRANCH   18   17
ENDBRANCH   19   18
ENDBRANCH   20   19
ENDBRANCH   21   20
ENDBRANCH   23   21
ENDBRANCH   27   26
BRANCH   31   32
ATOM     33  C25 UNL A   1      46.402  17.727  44.096  1.00  0.00    +0.000 C 
ATOM     34  F1  UNL A   1      47.591  18.328  44.255  1.00  0.00    +0.000 F 
ATOM     35  C26 UNL A   1      45.580  18.121  43.039  1.00  0.00    +0.000 C 
ATOM     36  F2  UNL A   1      45.998  19.067  42.186  1.00  0.00    +0.000 F 
ATOM     37  C27 UNL A   1      44.332  17.541  42.866  1.00  0.00    +0.000 C 
ATOM     38  F3  UNL A   1      43.529  17.947  41.872  1.00  0.00    +0.000 F 
ATOM     39  C28 UNL A   1      43.932  16.513  43.700  1.00  0.00    +0.000 C 
ATOM     40  F4  UNL A   1      42.737  15.928  43.529  1.00  0.00    +0.000 F 
ATOM     41  C29 UNL A   1      44.779  16.071  44.710  1.00  0.00    +0.000 C 
ATOM     42  F5  UNL A   1      44.409  14.979  45.398  1.00  0.00    +0.000 F 
ATOM     32  C24 UNL A   1      46.006  16.715  44.975  1.00  0.00    +0.000 C 
ENDBRANCH   31   32
BRANCH   48   49
ATOM     49  C35 UNL A   1      45.427  11.572  45.659  1.00  0.00    +0.000 C 
ATOM     50  C36 UNL A   1      44.107  12.082  45.689  1.00  0.00    +0.000 C 
ATOM     51  F6  UNL A   1      43.746  13.060  46.533  1.00  0.00    +0.000 F 
ATOM     52  C37 UNL A   1      43.116  11.610  44.823  1.00  0.00    +0.000 C 
ATOM     53  F7  UNL A   1      41.858  12.064  44.926  1.00  0.00    +0.000 F 
ATOM     54  C38 UNL A   1      43.428  10.672  43.856  1.00  0.00    +0.000 C 
ATOM     55  F8  UNL A   1      42.484  10.226  43.016  1.00  0.00    +0.000 F 
ATOM     56  C39 UNL A   1      44.728  10.212  43.752  1.00  0.00    +0.000 C 
ATOM     57  F9  UNL A   1      45.056   9.342  42.786  1.00  0.00    +0.000 F 
ATOM     58  C40 UNL A   1      45.704  10.642  44.648  1.00  0.00    +0.000 C 
ATOM     59  F10 UNL A   1      46.945  10.150  44.518  1.00  0.00    +0.000 F 
ENDBRANCH   48   49
BRANCH   63   64
ATOM     65  C45 UNL A   1      44.609   7.945  50.270  1.00  0.00    +0.000 C 
ATOM     66  F11 UNL A   1      44.223   7.948  48.986  1.00  0.00    +0.000 F 
ATOM     67  C46 UNL A   1      45.053   6.695  50.739  1.00  0.00    +0.000 C 
ATOM     68  F12 UNL A   1      45.118   5.642  49.906  1.00  0.00    +0.000 F 
ATOM     69  C47 UNL A   1      45.498   6.568  52.032  1.00  0.00    +0.000 C 
ATOM     70  F13 UNL A   1      45.995   5.399  52.467  1.00  0.00    +0.000 F 
ATOM     71  C48 UNL A   1      45.456   7.684  52.856  1.00  0.00    +0.000 C 
ATOM     72  F14 UNL A   1      45.895   7.558  54.118  1.00  0.00    +0.000 F 
ATOM     73  C49 UNL A   1      45.038   8.954  52.374  1.00  0.00    +0.000 C 
ATOM     74  F15 UNL A   1      45.128   9.995  53.212  1.00  0.00    +0.000 F 
ATOM     64  C44 UNL A   1      44.637   9.161  51.047  1.00  0.00    +0.000 C 
ENDBRANCH   63   64
TORSDOF 26
ENDMDL
MODEL 2
REMARK VINA RESULT:      -7.2     17.947     23.588
ROOT
ATOM    132  H27 UNL A   1      46.755  27.927  24.805  1.00  0.00    +0.000 H 
ATOM    133  H28 UNL A   1      44.890  26.055  25.156  1.00  0.00    +0.000 H 
ATOM    134  H29 UNL A   1      43.854  29.484  27.192  1.00  0.00    +0.000 H 
ATOM    135  H30 UNL A   1      42.655  22.582  30.670  1.00  0.00    +0.000 H 
ATOM    136  H31 UNL A   1      44.425  23.937  31.852  1.00  0.00    +0.000 H 
ATOM    137  H32 UNL A   1      44.567  24.958  27.825  1.00  0.00    +0.000 H 
ATOM    138  H33 UNL A   1      43.359  23.178  24.993  1.00  0.00    +0.000 H 
ATOM    139  H34 UNL A   1      42.860  25.563  24.095  1.00  0.00    +0.000 H 
ATOM    140  H35 UNL A   1      48.655  27.248  26.765  1.00  0.00    +0.000 H 
ATOM    141  H36 UNL A   1      47.637  25.002  27.541  1.00  0.00    +0.000 H 
ATOM     27  C20 UNL A   1      46.236  25.493  30.157  1.00  0.00    +0.000 C 
ATOM     28  C21 UNL A   1      46.651  26.397  29.040  1.00  0.00    +0.000 C 
ATOM     29  N4  UNL A   1      46.655  27.688  29.244  1.00  0.00    +0.000 N 
ATOM     30  C22 UNL A   1      47.268  28.257  28.154  1.00  0.00    +0.000 C 
ATOM     31  C23 UNL A   1      46.570  29.279  27.578  1.00  0.00    +0.000 C 
ATOM     43  C30 UNL A   1      45.730  28.793  26.517  1.00  0.00    +0.000 C 
ATOM     44  C31 UNL A   1      45.972  27.917  25.477  1.00  0.00    +0.000 C 
ATOM     45  C32 UNL A   1      44.897  27.008  25.550  1.00  0.00    +0.000 C 
ATOM     46  C33 UNL A   1      43.850  27.605  26.240  1.00  0.00    +0.000 C 
ATOM     47  N5  UNL A   1      44.369  28.775  26.742  1.00  0.00    +0.000 N 
ATOM     48  C34 UNL A   1      42.539  27.178  26.645  1.00  0.00    +0.000 C 
ATOM     60  C41 UNL A   1      42.088  26.016  26.114  1.00  0.00    +0.000 C 
ATOM     61  N6  UNL A   1      41.568  25.130  27.001  1.00  0.00    +0.000 N 
ATOM     62  C42 UNL A   1      42.285  24.069  26.783  1.00  0.00    +0.000 C 
ATOM     63  C43 UNL A   1      42.405  23.011  27.787  1.00  0.00    +0.000 C 
ATOM     75  C50 UNL A   1      43.284  23.504  28.759  1.00  0.00    +0.000 C 
ATOM     76  C51 UNL A   1      43.299  23.233  30.195  1.00  0.00    +0.000 C 
ATOM     77  C52 UNL A   1      44.274  23.949  30.831  1.00  0.00    +0.000 C 
ATOM     78  C53 UNL A   1      45.085  24.742  29.892  1.00  0.00    +0.000 C 
ATOM     79  N7  UNL A   1      44.355  24.492  28.666  1.00  0.00    +0.000 N 
ATOM     80  C54 UNL A   1      42.892  23.969  25.462  1.00  0.00    +0.000 C 
ATOM     81  C55 UNL A   1      42.660  25.215  25.046  1.00  0.00    +0.000 C 
ATOM     82  C56 UNL A   1      47.923  27.138  27.483  1.00  0.00    +0.000 C 
ATOM     83  C57 UNL A   1      47.465  25.952  27.907  1.00  0.00    +0.000 C 
ENDROOT
BRANCH   27   26
ATOM    130  H25 UNL A   1      47.072  25.699  34.763  1.00  0.00    +0.000 H 
ATOM    131  H26 UNL A   1      45.785  26.133  32.773  1.00  0.00    +0.000 H 
ATOM    142  H37 UNL A   1      49.191  25.732  30.374  1.00  0.00    +0.000 H 
ATOM    143  H38 UNL A   1      50.533  25.597  32.425  1.00  0.00    +0.000 H 
ATOM     84  C58 UNL A   1      48.709  25.760  31.286  1.00  0.00    +0.000 C 
ATOM     85  C59 UNL A   1      49.507  25.656  32.507  1.00  0.00    +0.000 C 
ATOM     23  C16 UNL A   1      48.928  25.634  33.790  1.00  0.00    +0.000 C 
ATOM     24  C17 UNL A   1      47.552  25.752  33.850  1.00  0.00    +0.000 C 
ATOM     25  C18 UNL A   1      46.793  25.943  32.661  1.00  0.00    +0.000 C 
ATOM     26  C19 UNL A   1      47.308  25.897  31.310  1.00  0.00    +0.000 C 
BRANCH   23   21
ATOM     21  C15 UNL A   1      49.668  25.328  35.070  1.00  0.00    +0.000 C 
ATOM     22  O4  UNL A   1      50.106  24.197  35.270  1.00  0.00    +0.000 O 
BRANCH   21   20
ATOM    129  H24 UNL A   1      49.117  27.013  36.064  1.00  0.00    +0.000 H 
ATOM     20  N3  UNL A   1      49.774  26.281  36.071  1.00  0.00    +0.000 N 
BRANCH   20   19
ATOM     19  C14 UNL A   1      50.761  26.295  37.122  1.00  0.00    +0.000 C 
ATOM    127  H22 UNL A   1      51.429  25.474  36.957  1.00  0.00    +0.000 H 
ATOM    128  H23 UNL A   1      51.232  27.255  37.069  1.00  0.00    +0.000 H 
BRANCH   19   18
ATOM     18  C13 UNL A   1      50.212  26.176  38.552  1.00  0.00    +0.000 C 
ATOM    125  H20 UNL A   1      51.004  25.811  39.170  1.00  0.00    +0.000 H 
ATOM    126  H21 UNL A   1      49.858  27.158  38.789  1.00  0.00    +0.000 H 
BRANCH   18   17
ATOM     17  C12 UNL A   1      48.995  25.261  38.776  1.00  0.00    +0.000 C 
ATOM    123  H18 UNL A   1      48.263  25.824  39.315  1.00  0.00    +0.000 H 
ATOM    124  H19 UNL A   1      48.694  24.953  37.797  1.00  0.00    +0.000 H 
BRANCH   17   16
ATOM    121  H16 UNL A   1      50.144  24.078  40.109  1.00  0.00    +0.000 H 
ATOM    122  H17 UNL A   1      48.367  23.814  40.149  1.00  0.00    +0.000 H 
ATOM     16  C11 UNL A   1      49.240  23.960  39.548  1.00  0.00    +0.000 C 
BRANCH   16   15
ATOM    119  H14 UNL A   1      48.760  21.930  39.141  1.00  0.00    +0.000 H 
ATOM     15  C10 UNL A   1      49.376  22.687  38.704  1.00  0.00    +0.000 C 
ATOM    120  H15 UNL A   1      49.080  22.953  37.711  1.00  0.00    +0.000 H 
BRANCH   15   14
ATOM    118  H13 UNL A   1      50.978  21.498  39.434  1.00  0.00    +0.000 H 
ATOM    117  H12 UNL A   1      51.489  22.954  38.590  1.00  0.00    +0.000 H 
ATOM     14  C9  UNL A   1      50.797  22.138  38.596  1.00  0.00    +0.000 C 
BRANCH   14   13
ATOM    116  H11 UNL A   1      51.772  21.564  36.851  1.00  0.00    +0.000 H 
ATOM     13  N2  UNL A   1      50.968  21.366  37.385  1.00  0.00    +0.000 N 
BRANCH   13   11
ATOM     11  C8  UNL A   1      50.140  20.394  36.897  1.00  0.00    +0.000 C 
ATOM     12  O3  UNL A   1      50.027  19.371  37.579  1.00  0.00    +0.000 O 
BRANCH   11    8
ATOM    112  H7  UNL A   1      49.278  21.647  35.431  1.00  0.00    +0.000 H 
ATOM      8  C6  UNL A   1      49.310  20.592  35.605  1.00  0.00    +0.000 C 
BRANCH    8    7
ATOM    111  H6  UNL A   1      47.804  19.300  36.264  1.00  0.00    +0.000 H 
ATOM      7  N1  UNL A   1      47.923  20.133  35.752  1.00  0.00    +0.000 N 
BRANCH    7    5
ATOM      5  C5  UNL A   1      46.776  20.699  35.280  1.00  0.00    +0.000 C 
ATOM      6  O1  UNL A   1      46.727  20.957  34.075  1.00  0.00    +0.000 O 
BRANCH    5    4
ATOM      4  C4  UNL A   1      45.640  21.068  36.218  1.00  0.00    +0.000 C 
ATOM    109  H4  UNL A   1      44.762  20.540  35.907  1.00  0.00    +0.000 H 
ATOM    110  H5  UNL A   1      45.952  20.799  37.205  1.00  0.00    +0.000 H 
BRANCH    4    3
ATOM      2  C2  UNL A   1      44.402  23.230  35.472  1.00  0.00    +0.000 C 
ATOM      3  C3  UNL A   1      45.326  22.532  36.243  1.00  0.00    +0.000 C 
ATOM     98  N8  UNL A   1      44.424  24.566  35.871  1.00  0.00    +0.000 N 
ATOM    144  H39 UNL A   1      46.763  23.292  37.704  1.00  0.00    +0.000 H 
ATOM     86  C60 UNL A   1      45.979  23.488  37.062  1.00  0.00    +0.000 C 
ATOM     87  C61 UNL A   1      45.395  24.724  36.861  1.00  0.00    +0.000 C 
BRANCH    2    1
ATOM      1  C1  UNL A   1      43.605  22.710  34.316  1.00  0.00    +0.000 C 
ATOM    106  H1  UNL A   1      44.267  22.292  33.586  1.00  0.00    +0.000 H 
ATOM    107  H2  UNL A   1      43.050  23.512  33.876  1.00  0.00    +0.000 H 
ATOM    108  H3  UNL A   1      42.930  21.956  34.660  1.00  0.00    +0.000 H 
ENDBRANCH    2    1
BRANCH   87   88
ATOM     97  C68 UNL A   1      45.131  26.074  38.931  1.00  0.00    +0.000 C 
ATOM    145  H40 UNL A   1      46.699  26.956  36.104  1.00  0.00    +0.000 H 
ATOM    146  H41 UNL A   1      47.093  28.980  37.388  1.00  0.00    +0.000 H 
ATOM    150  H45 UNL A   1      44.975  27.322  40.630  1.00  0.00    +0.000 H 
ATOM    151  H46 UNL A   1      44.589  25.299  39.344  1.00  0.00    +0.000 H 
ATOM     88  C62 UNL A   1      45.640  25.950  37.632  1.00  0.00    +0.000 C 
ATOM     89  C63 UNL A   1      46.344  27.027  37.071  1.00  0.00    +0.000 C 
ATOM     90  C64 UNL A   1      46.570  28.195  37.805  1.00  0.00    +0.000 C 
ATOM     91  C65 UNL A   1      46.080  28.287  39.109  1.00  0.00    +0.000 C 
ATOM     96  C67 UNL A   1      45.350  27.238  39.672  1.00  0.00    +0.000 C 
BRANCH   91   92
ATOM     92  S1  UNL A   1      46.337  29.787  40.026  1.00  0.00    +0.000 S 
ATOM     94  O5  UNL A   1      45.967  30.884  39.169  1.00  0.00    +0.000 O 
ATOM     95  O6  UNL A   1      45.711  29.613  41.334  1.00  0.00    +0.000 O 
BRANCH   92   93
ATOM    149  H44 UNL A   1      48.475  30.777  39.938  1.00  0.00    +0.000 H 
ATOM    147  H42 UNL A   1      48.557  29.040  39.763  1.00  0.00    +0.000 H 
ATOM    148  H43 UNL A   1      48.294  29.748  41.338  1.00  0.00    +0.000 H 
ATOM     93  C66 UNL A   1      48.090  29.844  40.292  1.00  0.00    +0.000 C 
ENDBRANCH   92   93
ENDBRANCH   91   92
ENDBRANCH   87   88
BRANCH   98   99
ATOM     99  C69 UNL A   1      43.629  25.615  35.337  1.00  0.00    +0.000 C 
ATOM    100  C70 UNL A   1      42.494  26.049  36.038  1.00  0.00    +0.000 C 
ATOM    101  C71 UNL A   1      41.685  27.050  35.499  1.00  0.00    +0.000 C 
ATOM    102  C72 UNL A   1      41.998  27.603  34.258  1.00  0.00    +0.000 C 
ATOM    103  C73 UNL A   1      43.120  27.154  33.566  1.00  0.00    +0.000 C 
ATOM    104  F16 UNL A   1      43.403  27.673  32.364  1.00  0.00    +0.000 F 
ATOM    105  C74 UNL A   1      43.943  26.164  34.091  1.00  0.00    +0.000 C 
ATOM    152  H47 UNL A   1      42.260  25.630  36.951  1.00  0.00    +0.000 H 
ATOM    153  H48 UNL A   1      40.857  27.380  36.018  1.00  0.00    +0.000 H 
ATOM    154  H49 UNL A   1      41.402  28.342  33.854  1.00  0.00    +0.000 H 
ATOM    155  H50 UNL A   1      44.772  25.840  33.569  1.00  0.00    +0.000 H 
ENDBRANCH   98   99
ENDBRANCH    4    3
ENDBRANCH    5    4
ENDBRANCH    7    5
ENDBRANCH    8    7
BRANCH    8    9
ATOM      9  C7  UNL A   1      49.981  19.935  34.390  1.00  0.00    +0.000 C 
ATOM    114  H9  UNL A   1      50.674  19.210  34.763  1.00  0.00    +0.000 H 
ATOM    113  H8  UNL A   1      49.222  19.488  33.783  1.00  0.00    +0.000 H 
BRANCH    9   10
ATOM     10  O2  UNL A   1      50.718  20.853  33.592  1.00  0.00    +0.000 O 
ATOM    115  H10 UNL A   1      51.464  20.393  33.177  1.00  0.00    +0.000 H 
ENDBRANCH    9   10
ENDBRANCH    8    9
ENDBRANCH   11    8
ENDBRANCH   13   11
ENDBRANCH   14   13
ENDBRANCH   15   14
ENDBRANCH   16   15
ENDBRANCH   17   16
ENDBRANCH   18   17
ENDBRANCH   19   18
ENDBRANCH   20   19
ENDBRANCH   21   20
ENDBRANCH   23   21
ENDBRANCH   27   26
BRANCH   31   32
ATOM     33  C25 UNL A   1      46.819  31.587  28.488  1.00  0.00    +0.000 C 
ATOM     34  F1  UNL A   1      47.666  31.852  27.482  1.00  0.00    +0.000 F 
ATOM     35  C26 UNL A   1      46.595  32.562  29.460  1.00  0.00    +0.000 C 
ATOM     36  F2  UNL A   1      47.204  33.752  29.362  1.00  0.00    +0.000 F 
ATOM     37  C27 UNL A   1      45.747  32.308  30.528  1.00  0.00    +0.000 C 
ATOM     38  F3  UNL A   1      45.563  33.233  31.481  1.00  0.00    +0.000 F 
ATOM     39  C28 UNL A   1      45.061  31.109  30.589  1.00  0.00    +0.000 C 
ATOM     40  F4  UNL A   1      44.221  30.859  31.605  1.00  0.00    +0.000 F 
ATOM     41  C29 UNL A   1      45.229  30.163  29.583  1.00  0.00    +0.000 C 
ATOM     42  F5  UNL A   1      44.435  29.080  29.610  1.00  0.00    +0.000 F 
ATOM     32  C24 UNL A   1      46.165  30.353  28.545  1.00  0.00    +0.000 C 
ENDBRANCH   31   32
BRANCH   48   49
ATOM     49  C35 UNL A   1      41.675  27.822  27.710  1.00  0.00    +0.000 C 
ATOM     50  C36 UNL A   1      41.725  27.580  29.104  1.00  0.00    +0.000 C 
ATOM     51  F6  UNL A   1      42.720  26.877  29.664  1.00  0.00    +0.000 F 
ATOM     52  C37 UNL A   1      40.752  28.082  29.973  1.00  0.00    +0.000 C 
ATOM     53  F7  UNL A   1      40.790  27.774  31.278  1.00  0.00    +0.000 F 
ATOM     54  C38 UNL A   1      39.746  28.898  29.491  1.00  0.00    +0.000 C 
ATOM     55  F8  UNL A   1      38.817  29.392  30.323  1.00  0.00    +0.000 F 
ATOM     56  C39 UNL A   1      39.715  29.216  28.145  1.00  0.00    +0.000 C 
ATOM     57  F9  UNL A   1      38.776  30.048  27.674  1.00  0.00    +0.000 F 
ATOM     58  C40 UNL A   1      40.654  28.674  27.270  1.00  0.00    +0.000 C 
ATOM     59  F10 UNL A   1      40.569  28.996  25.971  1.00  0.00    +0.000 F 
ENDBRANCH   48   49
BRANCH   63   64
ATOM     65  C45 UNL A   1      40.024  22.178  27.081  1.00  0.00    +0.000 C 
ATOM     66  F11 UNL A   1      39.450  23.338  27.430  1.00  0.00    +0.000 F 
ATOM     67  C46 UNL A   1      39.214  21.347  26.285  1.00  0.00    +0.000 C 
ATOM     68  F12 UNL A   1      37.997  21.762  25.890  1.00  0.00    +0.000 F 
ATOM     69  C47 UNL A   1      39.697  20.140  25.841  1.00  0.00    +0.000 C 
ATOM     70  F13 UNL A   1      38.962  19.375  25.019  1.00  0.00    +0.000 F 
ATOM     71  C48 UNL A   1      40.971  19.758  26.234  1.00  0.00    +0.000 C 
ATOM     72  F14 UNL A   1      41.444  18.580  25.796  1.00  0.00    +0.000 F 
ATOM     73  C49 UNL A   1      41.803  20.609  27.011  1.00  0.00    +0.000 C 
ATOM     74  F15 UNL A   1      43.055  20.200  27.255  1.00  0.00    +0.000 F 
ATOM     64  C44 UNL A   1      41.391  21.880  27.435  1.00  0.00    +0.000 C 
ENDBRANCH   63   64
TORSDOF 26
ENDMDL
MODEL 3
REMARK VINA RESULT:      -7.0     38.006     45.465
ROOT
ATOM    132  H27 UNL A   1      47.746  55.015  15.775  1.00  0.00    +0.000 H 
ATOM    133  H28 UNL A   1      48.902  54.210  18.039  1.00  0.00    +0.000 H 
ATOM    134  H29 UNL A   1      50.292  51.976  14.868  1.00  0.00    +0.000 H 
ATOM    135  H30 UNL A   1      48.728  48.317  21.603  1.00  0.00    +0.000 H 
ATOM    136  H31 UNL A   1      47.152  47.615  19.761  1.00  0.00    +0.000 H 
ATOM    137  H32 UNL A   1      48.266  51.547  19.004  1.00  0.00    +0.000 H 
ATOM    138  H33 UNL A   1      49.602  53.989  21.218  1.00  0.00    +0.000 H 
ATOM    139  H34 UNL A   1      50.921  54.730  19.107  1.00  0.00    +0.000 H 
ATOM    140  H35 UNL A   1      45.319  53.594  15.809  1.00  0.00    +0.000 H 
ATOM    141  H36 UNL A   1      45.483  52.591  18.186  1.00  0.00    +0.000 H 
ATOM     27  C20 UNL A   1      46.288  49.707  17.904  1.00  0.00    +0.000 C 
ATOM     28  C21 UNL A   1      46.412  50.891  16.999  1.00  0.00    +0.000 C 
ATOM     29  N4  UNL A   1      46.704  50.693  15.741  1.00  0.00    +0.000 N 
ATOM     30  C22 UNL A   1      46.547  51.900  15.104  1.00  0.00    +0.000 C 
ATOM     31  C23 UNL A   1      47.610  52.282  14.338  1.00  0.00    +0.000 C 
ATOM     43  C30 UNL A   1      48.521  53.099  15.093  1.00  0.00    +0.000 C 
ATOM     44  C31 UNL A   1      48.312  54.168  15.943  1.00  0.00    +0.000 C 
ATOM     45  C32 UNL A   1      49.055  53.830  17.092  1.00  0.00    +0.000 C 
ATOM     46  C33 UNL A   1      50.024  52.899  16.743  1.00  0.00    +0.000 C 
ATOM     47  N5  UNL A   1      49.730  52.541  15.448  1.00  0.00    +0.000 N 
ATOM     48  C34 UNL A   1      51.036  52.179  17.467  1.00  0.00    +0.000 C 
ATOM     60  C41 UNL A   1      51.274  52.582  18.738  1.00  0.00    +0.000 C 
ATOM     61  N6  UNL A   1      51.309  51.594  19.668  1.00  0.00    +0.000 N 
ATOM     62  C42 UNL A   1      50.410  51.986  20.519  1.00  0.00    +0.000 C 
ATOM     63  C43 UNL A   1      49.772  51.045  21.443  1.00  0.00    +0.000 C 
ATOM     75  C50 UNL A   1      48.849  50.324  20.676  1.00  0.00    +0.000 C 
ATOM     76  C51 UNL A   1      48.415  48.938  20.840  1.00  0.00    +0.000 C 
ATOM     77  C52 UNL A   1      47.543  48.565  19.855  1.00  0.00    +0.000 C 
ATOM     78  C53 UNL A   1      47.226  49.676  18.943  1.00  0.00    +0.000 C 
ATOM     79  N7  UNL A   1      48.135  50.681  19.453  1.00  0.00    +0.000 N 
ATOM     80  C54 UNL A   1      50.135  53.417  20.545  1.00  0.00    +0.000 C 
ATOM     81  C55 UNL A   1      50.785  53.760  19.432  1.00  0.00    +0.000 C 
ATOM     82  C56 UNL A   1      45.799  52.715  16.058  1.00  0.00    +0.000 C 
ATOM     83  C57 UNL A   1      45.807  52.192  17.291  1.00  0.00    +0.000 C 
ENDROOT
BRANCH   27   26
ATOM    130  H25 UNL A   1      44.687  45.433  16.841  1.00  0.00    +0.000 H 
ATOM    131  H26 UNL A   1      46.369  47.156  16.931  1.00  0.00    +0.000 H 
ATOM    142  H37 UNL A   1      43.436  50.131  17.184  1.00  0.00    +0.000 H 
ATOM    143  H38 UNL A   1      41.744  48.398  16.783  1.00  0.00    +0.000 H 
ATOM     84  C58 UNL A   1      43.742  49.151  17.085  1.00  0.00    +0.000 C 
ATOM     85  C59 UNL A   1      42.732  48.116  16.869  1.00  0.00    +0.000 C 
ATOM     23  C16 UNL A   1      43.056  46.750  16.775  1.00  0.00    +0.000 C 
ATOM     24  C17 UNL A   1      44.397  46.424  16.861  1.00  0.00    +0.000 C 
ATOM     25  C18 UNL A   1      45.380  47.447  16.980  1.00  0.00    +0.000 C 
ATOM     26  C19 UNL A   1      45.117  48.858  17.161  1.00  0.00    +0.000 C 
BRANCH   23   21
ATOM     21  C15 UNL A   1      42.055  45.620  16.756  1.00  0.00    +0.000 C 
ATOM     22  O4  UNL A   1      41.192  45.581  15.882  1.00  0.00    +0.000 O 
BRANCH   21   20
ATOM    129  H24 UNL A   1      42.793  44.052  17.819  1.00  0.00    +0.000 H 
ATOM     20  N3  UNL A   1      42.032  44.676  17.770  1.00  0.00    +0.000 N 
BRANCH   20   19
ATOM     19  C14 UNL A   1      40.995  44.525  18.760  1.00  0.00    +0.000 C 
ATOM    127  H22 UNL A   1      40.769  45.495  19.151  1.00  0.00    +0.000 H 
ATOM    128  H23 UNL A   1      40.175  44.058  18.256  1.00  0.00    +0.000 H 
BRANCH   19   18
ATOM     18  C13 UNL A   1      41.336  43.607  19.946  1.00  0.00    +0.000 C 
ATOM    125  H20 UNL A   1      41.188  44.172  20.841  1.00  0.00    +0.000 H 
ATOM    126  H21 UNL A   1      40.693  42.759  19.825  1.00  0.00    +0.000 H 
BRANCH   18   17
ATOM     17  C12 UNL A   1      42.754  43.014  20.005  1.00  0.00    +0.000 C 
ATOM    123  H18 UNL A   1      42.690  42.074  20.512  1.00  0.00    +0.000 H 
ATOM    124  H19 UNL A   1      43.074  42.953  18.986  1.00  0.00    +0.000 H 
BRANCH   17   16
ATOM    121  H16 UNL A   1      43.339  44.695  21.157  1.00  0.00    +0.000 H 
ATOM    122  H17 UNL A   1      44.286  43.190  21.417  1.00  0.00    +0.000 H 
ATOM     16  C11 UNL A   1      43.825  43.851  20.713  1.00  0.00    +0.000 C 
BRANCH   16   15
ATOM    119  H14 UNL A   1      44.549  44.693  18.901  1.00  0.00    +0.000 H 
ATOM     15  C10 UNL A   1      44.966  44.375  19.833  1.00  0.00    +0.000 C 
ATOM    120  H15 UNL A   1      45.429  45.168  20.382  1.00  0.00    +0.000 H 
BRANCH   15   14
ATOM    118  H13 UNL A   1      46.937  43.887  19.208  1.00  0.00    +0.000 H 
ATOM    117  H12 UNL A   1      45.726  42.686  18.776  1.00  0.00    +0.000 H 
ATOM     14  C9  UNL A   1      46.066  43.358  19.536  1.00  0.00    +0.000 C 
BRANCH   14   13
ATOM    116  H11 UNL A   1      45.849  41.810  20.908  1.00  0.00    +0.000 H 
ATOM     13  N2  UNL A   1      46.408  42.599  20.719  1.00  0.00    +0.000 N 
BRANCH   13   11
ATOM     11  C8  UNL A   1      47.420  42.852  21.604  1.00  0.00    +0.000 C 
ATOM     12  O3  UNL A   1      48.507  42.320  21.366  1.00  0.00    +0.000 O 
BRANCH   11    8
ATOM    112  H7  UNL A   1      47.939  43.507  23.544  1.00  0.00    +0.000 H 
ATOM      8  C6  UNL A   1      47.247  43.827  22.793  1.00  0.00    +0.000 C 
BRANCH    8    7
ATOM    111  H6  UNL A   1      45.339  43.017  23.068  1.00  0.00    +0.000 H 
ATOM      7  N1  UNL A   1      45.903  43.759  23.385  1.00  0.00    +0.000 N 
BRANCH    7    5
ATOM      5  C5  UNL A   1      45.330  44.579  24.309  1.00  0.00    +0.000 C 
ATOM      6  O1  UNL A   1      44.417  45.315  23.925  1.00  0.00    +0.000 O 
BRANCH    5    4
ATOM      4  C4  UNL A   1      45.849  44.639  25.735  1.00  0.00    +0.000 C 
ATOM    109  H4  UNL A   1      46.919  44.604  25.705  1.00  0.00    +0.000 H 
ATOM    110  H5  UNL A   1      45.481  45.548  26.162  1.00  0.00    +0.000 H 
BRANCH    4    3
ATOM      2  C2  UNL A   1      45.067  43.552  27.964  1.00  0.00    +0.000 C 
ATOM      3  C3  UNL A   1      45.364  43.521  26.605  1.00  0.00    +0.000 C 
ATOM     98  N8  UNL A   1      44.609  42.288  28.336  1.00  0.00    +0.000 N 
ATOM    144  H39 UNL A   1      45.361  41.825  25.226  1.00  0.00    +0.000 H 
ATOM     86  C60 UNL A   1      45.164  42.186  26.172  1.00  0.00    +0.000 C 
ATOM     87  C61 UNL A   1      44.662  41.445  27.226  1.00  0.00    +0.000 C 
BRANCH    2    1
ATOM      1  C1  UNL A   1      45.310  44.675  28.922  1.00  0.00    +0.000 C 
ATOM    106  H1  UNL A   1      46.362  44.780  29.090  1.00  0.00    +0.000 H 
ATOM    107  H2  UNL A   1      44.820  44.465  29.850  1.00  0.00    +0.000 H 
ATOM    108  H3  UNL A   1      44.921  45.583  28.512  1.00  0.00    +0.000 H 
ENDBRANCH    2    1
BRANCH   87   88
ATOM     97  C68 UNL A   1      45.013  38.988  27.361  1.00  0.00    +0.000 C 
ATOM    145  H40 UNL A   1      42.154  40.609  26.706  1.00  0.00    +0.000 H 
ATOM    146  H41 UNL A   1      41.314  38.332  26.610  1.00  0.00    +0.000 H 
ATOM    150  H45 UNL A   1      45.179  36.883  27.448  1.00  0.00    +0.000 H 
ATOM    151  H46 UNL A   1      46.013  39.161  27.549  1.00  0.00    +0.000 H 
ATOM     88  C62 UNL A   1      44.146  40.071  27.169  1.00  0.00    +0.000 C 
ATOM     89  C63 UNL A   1      42.795  39.819  26.878  1.00  0.00    +0.000 C 
ATOM     90  C64 UNL A   1      42.309  38.510  26.818  1.00  0.00    +0.000 C 
ATOM     91  C65 UNL A   1      43.183  37.445  27.044  1.00  0.00    +0.000 C 
ATOM     96  C67 UNL A   1      44.536  37.677  27.302  1.00  0.00    +0.000 C 
BRANCH   91   92
ATOM     92  S1  UNL A   1      42.569  35.782  26.929  1.00  0.00    +0.000 S 
ATOM     94  O5  UNL A   1      41.244  35.772  27.494  1.00  0.00    +0.000 O 
ATOM     95  O6  UNL A   1      42.805  35.321  25.563  1.00  0.00    +0.000 O 
BRANCH   92   93
ATOM    149  H44 UNL A   1      44.092  34.053  27.426  1.00  0.00    +0.000 H 
ATOM    147  H42 UNL A   1      43.072  34.431  28.794  1.00  0.00    +0.000 H 
ATOM    148  H43 UNL A   1      44.403  35.484  28.379  1.00  0.00    +0.000 H 
ATOM     93  C66 UNL A   1      43.641  34.844  27.987  1.00  0.00    +0.000 C 
ENDBRANCH   92   93
ENDBRANCH   91   92
ENDBRANCH   87   88
BRANCH   98   99
ATOM     99  C69 UNL A   1      44.197  41.895  29.638  1.00  0.00    +0.000 C 
ATOM    100  C70 UNL A   1      45.156  41.465  30.566  1.00  0.00    +0.000 C 
ATOM    101  C71 UNL A   1      44.755  41.038  31.833  1.00  0.00    +0.000 C 
ATOM    102  C72 UNL A   1      43.401  41.025  32.164  1.00  0.00    +0.000 C 
ATOM    103  C73 UNL A   1      42.458  41.442  31.229  1.00  0.00    +0.000 C 
ATOM    104  F16 UNL A   1      41.157  41.407  31.546  1.00  0.00    +0.000 F 
ATOM    105  C74 UNL A   1      42.840  41.880  29.966  1.00  0.00    +0.000 C 
ATOM    152  H47 UNL A   1      46.157  41.465  30.313  1.00  0.00    +0.000 H 
ATOM    153  H48 UNL A   1      45.459  40.732  32.522  1.00  0.00    +0.000 H 
ATOM    154  H49 UNL A   1      43.099  40.708  33.099  1.00  0.00    +0.000 H 
ATOM    155  H50 UNL A   1      42.131  42.188  29.282  1.00  0.00    +0.000 H 
ENDBRANCH   98   99
ENDBRANCH    4    3
ENDBRANCH    5    4
ENDBRANCH    7    5
ENDBRANCH    8    7
BRANCH    8    9
ATOM      9  C7  UNL A   1      47.606  45.268  22.407  1.00  0.00    +0.000 C 
ATOM    114  H9  UNL A   1      48.065  45.234  21.441  1.00  0.00    +0.000 H 
ATOM    113  H8  UNL A   1      46.709  45.853  22.403  1.00  0.00    +0.000 H 
BRANCH    9   10
ATOM     10  O2  UNL A   1      48.536  45.873  23.297  1.00  0.00    +0.000 O 
ATOM    115  H10 UNL A   1      49.138  45.195  23.643  1.00  0.00    +0.000 H 
ENDBRANCH    9   10
ENDBRANCH    8    9
ENDBRANCH   11    8
ENDBRANCH   13   11
ENDBRANCH   14   13
ENDBRANCH   15   14
ENDBRANCH   16   15
ENDBRANCH   17   16
ENDBRANCH   18   17
ENDBRANCH   19   18
ENDBRANCH   20   19
ENDBRANCH   21   20
ENDBRANCH   23   21
ENDBRANCH   27   26
BRANCH   31   32
ATOM     33  C25 UNL A   1      47.738  51.441  11.995  1.00  0.00    +0.000 C 
ATOM     34  F1  UNL A   1      47.226  52.612  11.586  1.00  0.00    +0.000 F 
ATOM     35  C26 UNL A   1      47.972  50.438  11.053  1.00  0.00    +0.000 C 
ATOM     36  F2  UNL A   1      47.712  50.666   9.758  1.00  0.00    +0.000 F 
ATOM     37  C27 UNL A   1      48.474  49.207  11.448  1.00  0.00    +0.000 C 
ATOM     38  F3  UNL A   1      48.663  48.233  10.547  1.00  0.00    +0.000 F 
ATOM     39  C28 UNL A   1      48.814  48.998  12.772  1.00  0.00    +0.000 C 
ATOM     40  F4  UNL A   1      49.321  47.819  13.163  1.00  0.00    +0.000 F 
ATOM     41  C29 UNL A   1      48.648  50.020  13.699  1.00  0.00    +0.000 C 
ATOM     42  F5  UNL A   1      49.125  49.818  14.938  1.00  0.00    +0.000 F 
ATOM     32  C24 UNL A   1      48.041  51.243  13.345  1.00  0.00    +0.000 C 
ENDBRANCH   31   32
BRANCH   48   49
ATOM     49  C35 UNL A   1      51.756  50.930  17.000  1.00  0.00    +0.000 C 
ATOM     50  C36 UNL A   1      51.340  49.590  17.188  1.00  0.00    +0.000 C 
ATOM     51  F6  UNL A   1      50.115  49.288  17.640  1.00  0.00    +0.000 F 
ATOM     52  C37 UNL A   1      52.178  48.512  16.888  1.00  0.00    +0.000 C 
ATOM     53  F7  UNL A   1      51.779  47.257  17.145  1.00  0.00    +0.000 F 
ATOM     54  C38 UNL A   1      53.421  48.733  16.326  1.00  0.00    +0.000 C 
ATOM     55  F8  UNL A   1      54.222  47.701  16.026  1.00  0.00    +0.000 F 
ATOM     56  C39 UNL A   1      53.824  50.029  16.059  1.00  0.00    +0.000 C 
ATOM     57  F9  UNL A   1      55.004  50.255  15.465  1.00  0.00    +0.000 F 
ATOM     58  C40 UNL A   1      53.012  51.107  16.404  1.00  0.00    +0.000 C 
ATOM     59  F10 UNL A   1      53.457  52.345  16.143  1.00  0.00    +0.000 F 
ENDBRANCH   48   49
BRANCH   63   64
ATOM     65  C45 UNL A   1      49.985  51.946  23.893  1.00  0.00    +0.000 C 
ATOM     66  F11 UNL A   1      49.137  52.957  23.657  1.00  0.00    +0.000 F 
ATOM     67  C46 UNL A   1      50.242  51.710  25.257  1.00  0.00    +0.000 C 
ATOM     68  F12 UNL A   1      49.613  52.433  26.200  1.00  0.00    +0.000 F 
ATOM     69  C47 UNL A   1      51.076  50.685  25.629  1.00  0.00    +0.000 C 
ATOM     70  F13 UNL A   1      51.268  50.403  26.928  1.00  0.00    +0.000 F 
ATOM     71  C48 UNL A   1      51.679  49.932  24.633  1.00  0.00    +0.000 C 
ATOM     72  F14 UNL A   1      52.491  48.927  24.999  1.00  0.00    +0.000 F 
ATOM     73  C49 UNL A   1      51.397  50.147  23.256  1.00  0.00    +0.000 C 
ATOM     74  F15 UNL A   1      51.944  49.305  22.371  1.00  0.00    +0.000 F 
ATOM     64  C44 UNL A   1      50.502  51.133  22.818  1.00  0.00    +0.000 C 
ENDBRANCH   63   64
TORSDOF 26
ENDMDL
MODEL 4
REMARK VINA RESULT:      -7.0     18.871     25.206
ROOT
ATOM    132  H27 UNL A   1      47.371  27.369  24.528  1.00  0.00    +0.000 H 
ATOM    133  H28 UNL A   1      45.466  25.551  24.947  1.00  0.00    +0.000 H 
ATOM    134  H29 UNL A   1      44.345  29.173  26.560  1.00  0.00    +0.000 H 
ATOM    135  H30 UNL A   1      42.855  22.663  30.631  1.00  0.00    +0.000 H 
ATOM    136  H31 UNL A   1      44.565  24.121  31.779  1.00  0.00    +0.000 H 
ATOM    137  H32 UNL A   1      44.967  24.731  27.687  1.00  0.00    +0.000 H 
ATOM    138  H33 UNL A   1      43.916  22.680  24.978  1.00  0.00    +0.000 H 
ATOM    139  H34 UNL A   1      43.500  24.966  23.816  1.00  0.00    +0.000 H 
ATOM    140  H35 UNL A   1      49.138  26.881  26.661  1.00  0.00    +0.000 H 
ATOM    141  H36 UNL A   1      48.048  24.731  27.593  1.00  0.00    +0.000 H 
ATOM     27  C20 UNL A   1      46.494  25.489  30.054  1.00  0.00    +0.000 C 
ATOM     28  C21 UNL A   1      46.988  26.274  28.880  1.00  0.00    +0.000 C 
ATOM     29  N4  UNL A   1      46.993  27.579  28.953  1.00  0.00    +0.000 N 
ATOM     30  C22 UNL A   1      47.679  28.032  27.852  1.00  0.00    +0.000 C 
ATOM     31  C23 UNL A   1      47.030  28.994  27.134  1.00  0.00    +0.000 C 
ATOM     43  C30 UNL A   1      46.251  28.409  26.077  1.00  0.00    +0.000 C 
ATOM     44  C31 UNL A   1      46.547  27.431  25.147  1.00  0.00    +0.000 C 
ATOM     45  C32 UNL A   1      45.460  26.540  25.243  1.00  0.00    +0.000 C 
ATOM     46  C33 UNL A   1      44.379  27.208  25.803  1.00  0.00    +0.000 C 
ATOM     47  N5  UNL A   1      44.879  28.420  26.217  1.00  0.00    +0.000 N 
ATOM     48  C34 UNL A   1      43.040  26.831  26.166  1.00  0.00    +0.000 C 
ATOM     60  C41 UNL A   1      42.610  25.623  25.727  1.00  0.00    +0.000 C 
ATOM     61  N6  UNL A   1      42.026  24.834  26.664  1.00  0.00    +0.000 N 
ATOM     62  C42 UNL A   1      42.743  23.753  26.599  1.00  0.00    +0.000 C 
ATOM     63  C43 UNL A   1      42.789  22.800  27.710  1.00  0.00    +0.000 C 
ATOM     75  C50 UNL A   1      43.612  23.385  28.680  1.00  0.00    +0.000 C 
ATOM     76  C51 UNL A   1      43.535  23.259  30.134  1.00  0.00    +0.000 C 
ATOM     77  C52 UNL A   1      44.477  24.031  30.755  1.00  0.00    +0.000 C 
ATOM     78  C53 UNL A   1      45.353  24.721  29.794  1.00  0.00    +0.000 C 
ATOM     79  N7  UNL A   1      44.698  24.353  28.556  1.00  0.00    +0.000 N 
ATOM     80  C54 UNL A   1      43.430  23.517  25.335  1.00  0.00    +0.000 C 
ATOM     81  C55 UNL A   1      43.238  24.717  24.782  1.00  0.00    +0.000 C 
ATOM     82  C56 UNL A   1      48.362  26.848  27.339  1.00  0.00    +0.000 C 
ATOM     83  C57 UNL A   1      47.865  25.713  27.850  1.00  0.00    +0.000 C 
ENDROOT
BRANCH   27   26
ATOM    130  H25 UNL A   1      47.690  25.104  34.568  1.00  0.00    +0.000 H 
ATOM    131  H26 UNL A   1      46.135  25.452  32.761  1.00  0.00    +0.000 H 
ATOM    142  H37 UNL A   1      49.231  26.639  30.206  1.00  0.00    +0.000 H 
ATOM    143  H38 UNL A   1      50.751  26.576  32.133  1.00  0.00    +0.000 H 
ATOM     84  C58 UNL A   1      48.861  26.339  31.121  1.00  0.00    +0.000 C 
ATOM     85  C59 UNL A   1      49.771  26.279  32.264  1.00  0.00    +0.000 C 
ATOM     23  C16 UNL A   1      49.363  25.831  33.534  1.00  0.00    +0.000 C 
ATOM     24  C17 UNL A   1      48.033  25.479  33.669  1.00  0.00    +0.000 C 
ATOM     25  C18 UNL A   1      47.135  25.627  32.574  1.00  0.00    +0.000 C 
ATOM     26  C19 UNL A   1      47.497  26.002  31.226  1.00  0.00    +0.000 C 
BRANCH   23   21
ATOM     21  C15 UNL A   1      50.288  25.555  34.695  1.00  0.00    +0.000 C 
ATOM     22  O4  UNL A   1      51.145  26.379  35.005  1.00  0.00    +0.000 O 
BRANCH   21   20
ATOM    129  H24 UNL A   1      49.977  23.550  34.830  1.00  0.00    +0.000 H 
ATOM     20  N3  UNL A   1      50.252  24.336  35.355  1.00  0.00    +0.000 N 
BRANCH   20   19
ATOM     19  C14 UNL A   1      50.579  24.117  36.741  1.00  0.00    +0.000 C 
ATOM    127  H22 UNL A   1      50.653  23.061  36.900  1.00  0.00    +0.000 H 
ATOM    128  H23 UNL A   1      51.494  24.646  36.913  1.00  0.00    +0.000 H 
BRANCH   19   18
ATOM     18  C13 UNL A   1      49.574  24.678  37.760  1.00  0.00    +0.000 C 
ATOM    125  H20 UNL A   1      50.089  24.792  38.689  1.00  0.00    +0.000 H 
ATOM    126  H21 UNL A   1      49.217  25.585  37.317  1.00  0.00    +0.000 H 
BRANCH   18   17
ATOM     17  C12 UNL A   1      48.303  23.856  38.036  1.00  0.00    +0.000 C 
ATOM    123  H18 UNL A   1      48.446  23.343  38.964  1.00  0.00    +0.000 H 
ATOM    124  H19 UNL A   1      47.504  24.567  38.034  1.00  0.00    +0.000 H 
BRANCH   17   16
ATOM    121  H16 UNL A   1      48.740  22.698  36.314  1.00  0.00    +0.000 H 
ATOM    122  H17 UNL A   1      47.672  21.926  37.536  1.00  0.00    +0.000 H 
ATOM     16  C11 UNL A   1      47.914  22.810  36.984  1.00  0.00    +0.000 C 
BRANCH   16   15
ATOM    119  H14 UNL A   1      46.767  24.120  35.764  1.00  0.00    +0.000 H 
ATOM     15  C10 UNL A   1      46.669  23.125  36.146  1.00  0.00    +0.000 C 
ATOM    120  H15 UNL A   1      46.627  22.380  35.379  1.00  0.00    +0.000 H 
BRANCH   15   14
ATOM    118  H13 UNL A   1      45.541  22.656  37.884  1.00  0.00    +0.000 H 
ATOM    117  H12 UNL A   1      44.681  22.388  36.373  1.00  0.00    +0.000 H 
ATOM     14  C9  UNL A   1      45.346  23.038  36.904  1.00  0.00    +0.000 C 
BRANCH   14   13
ATOM    116  H11 UNL A   1      44.328  24.548  37.907  1.00  0.00    +0.000 H 
ATOM     13  N2  UNL A   1      44.730  24.340  37.032  1.00  0.00    +0.000 N 
BRANCH   13   11
ATOM     11  C8  UNL A   1      44.643  25.314  36.076  1.00  0.00    +0.000 C 
ATOM     12  O3  UNL A   1      45.506  26.196  36.107  1.00  0.00    +0.000 O 
BRANCH   11    8
ATOM    112  H7  UNL A   1      44.113  25.337  34.031  1.00  0.00    +0.000 H 
ATOM      8  C6  UNL A   1      43.577  25.273  34.955  1.00  0.00    +0.000 C 
BRANCH    8    7
ATOM    111  H6  UNL A   1      42.389  26.784  34.132  1.00  0.00    +0.000 H 
ATOM      7  N1  UNL A   1      42.662  26.421  35.006  1.00  0.00    +0.000 N 
BRANCH    7    5
ATOM      5  C5  UNL A   1      42.138  27.054  36.093  1.00  0.00    +0.000 C 
ATOM      6  O1  UNL A   1      41.342  26.418  36.789  1.00  0.00    +0.000 O 
BRANCH    5    4
ATOM      4  C4  UNL A   1      42.462  28.508  36.386  1.00  0.00    +0.000 C 
ATOM    109  H4  UNL A   1      42.105  28.742  37.367  1.00  0.00    +0.000 H 
ATOM    110  H5  UNL A   1      43.523  28.614  36.300  1.00  0.00    +0.000 H 
BRANCH    4    3
ATOM      2  C2  UNL A   1      42.447  30.107  34.335  1.00  0.00    +0.000 C 
ATOM      3  C3  UNL A   1      41.847  29.473  35.418  1.00  0.00    +0.000 C 
ATOM     98  N8  UNL A   1      41.478  30.881  33.695  1.00  0.00    +0.000 N 
ATOM    144  H39 UNL A   1      39.827  29.711  36.217  1.00  0.00    +0.000 H 
ATOM     86  C60 UNL A   1      40.513  29.946  35.483  1.00  0.00    +0.000 C 
ATOM     87  C61 UNL A   1      40.279  30.776  34.402  1.00  0.00    +0.000 C 
BRANCH    2    1
ATOM      1  C1  UNL A   1      43.897  30.098  33.964  1.00  0.00    +0.000 C 
ATOM    106  H1  UNL A   1      44.298  31.085  34.071  1.00  0.00    +0.000 H 
ATOM    107  H2  UNL A   1      44.003  29.779  32.948  1.00  0.00    +0.000 H 
ATOM    108  H3  UNL A   1      44.424  29.426  34.606  1.00  0.00    +0.000 H 
ENDBRANCH    2    1
BRANCH   87   88
ATOM     97  C68 UNL A   1      38.108  30.564  33.213  1.00  0.00    +0.000 C 
ATOM    145  H40 UNL A   1      39.286  33.240  34.851  1.00  0.00    +0.000 H 
ATOM    146  H41 UNL A   1      37.148  34.153  34.149  1.00  0.00    +0.000 H 
ATOM    150  H45 UNL A   1      36.233  30.513  32.237  1.00  0.00    +0.000 H 
ATOM    151  H46 UNL A   1      38.369  29.602  32.946  1.00  0.00    +0.000 H 
ATOM     88  C62 UNL A   1      38.987  31.334  33.984  1.00  0.00    +0.000 C 
ATOM     89  C63 UNL A   1      38.632  32.654  34.308  1.00  0.00    +0.000 C 
ATOM     90  C64 UNL A   1      37.405  33.185  33.902  1.00  0.00    +0.000 C 
ATOM     91  C65 UNL A   1      36.528  32.391  33.161  1.00  0.00    +0.000 C 
ATOM     96  C67 UNL A   1      36.879  31.087  32.802  1.00  0.00    +0.000 C 
BRANCH   91   92
ATOM     92  S1  UNL A   1      34.985  33.082  32.616  1.00  0.00    +0.000 S 
ATOM     94  O5  UNL A   1      34.590  32.371  31.427  1.00  0.00    +0.000 O 
ATOM     95  O6  UNL A   1      34.102  33.149  33.777  1.00  0.00    +0.000 O 
BRANCH   92   93
ATOM    149  H44 UNL A   1      35.054  35.416  32.940  1.00  0.00    +0.000 H 
ATOM    147  H42 UNL A   1      34.899  35.000  31.250  1.00  0.00    +0.000 H 
ATOM    148  H43 UNL A   1      36.444  34.844  32.049  1.00  0.00    +0.000 H 
ATOM     93  C66 UNL A   1      35.385  34.751  32.170  1.00  0.00    +0.000 C 
ENDBRANCH   92   93
ENDBRANCH   91   92
ENDBRANCH   87   88
BRANCH   98   99
ATOM     99  C69 UNL A   1      41.675  31.687  32.542  1.00  0.00    +0.000 C 
ATOM    100  C70 UNL A   1      41.357  31.172  31.276  1.00  0.00    +0.000 C 
ATOM    101  C71 UNL A   1      41.587  31.942  30.135  1.00  0.00    +0.000 C 
ATOM    102  C72 UNL A   1      42.146  33.213  30.257  1.00  0.00    +0.000 C 
ATOM    103  C73 UNL A   1      42.469  33.708  31.518  1.00  0.00    +0.000 C 
ATOM    104  F16 UNL A   1      43.025  34.921  31.626  1.00  0.00    +0.000 F 
ATOM    105  C74 UNL A   1      42.238  32.959  32.666  1.00  0.00    +0.000 C 
ATOM    152  H47 UNL A   1      40.955  30.226  31.190  1.00  0.00    +0.000 H 
ATOM    153  H48 UNL A   1      41.344  31.571  29.204  1.00  0.00    +0.000 H 
ATOM    154  H49 UNL A   1      42.319  33.786  29.416  1.00  0.00    +0.000 H 
ATOM    155  H50 UNL A   1      42.480  33.337  33.596  1.00  0.00    +0.000 H 
ENDBRANCH   98   99
ENDBRANCH    4    3
ENDBRANCH    5    4
ENDBRANCH    7    5
ENDBRANCH    8    7
BRANCH    8    9
ATOM      9  C7  UNL A   1      42.799  23.949  34.956  1.00  0.00    +0.000 C 
ATOM    114  H9  UNL A   1      42.909  23.516  35.928  1.00  0.00    +0.000 H 
ATOM    113  H8  UNL A   1      41.775  24.156  34.724  1.00  0.00    +0.000 H 
BRANCH    9   10
ATOM     10  O2  UNL A   1      43.295  23.006  34.014  1.00  0.00    +0.000 O 
ATOM    115  H10 UNL A   1      43.182  22.109  34.366  1.00  0.00    +0.000 H 
ENDBRANCH    9   10
ENDBRANCH    8    9
ENDBRANCH   11    8
ENDBRANCH   13   11
ENDBRANCH   14   13
ENDBRANCH   15   14
ENDBRANCH   16   15
ENDBRANCH   17   16
ENDBRANCH   18   17
ENDBRANCH   19   18
ENDBRANCH   20   19
ENDBRANCH   21   20
ENDBRANCH   23   21
ENDBRANCH   27   26
BRANCH   31   32
ATOM     33  C25 UNL A   1      47.194  31.401  27.763  1.00  0.00    +0.000 C 
ATOM     34  F1  UNL A   1      48.046  31.572  26.742  1.00  0.00    +0.000 F 
ATOM     35  C26 UNL A   1      46.926  32.478  28.609  1.00  0.00    +0.000 C 
ATOM     36  F2  UNL A   1      47.498  33.667  28.375  1.00  0.00    +0.000 F 
ATOM     37  C27 UNL A   1      46.072  32.325  29.692  1.00  0.00    +0.000 C 
ATOM     38  F3  UNL A   1      45.846  33.351  30.525  1.00  0.00    +0.000 F 
ATOM     39  C28 UNL A   1      45.423  31.121  29.889  1.00  0.00    +0.000 C 
ATOM     40  F4  UNL A   1      44.577  30.967  30.919  1.00  0.00    +0.000 F 
ATOM     41  C29 UNL A   1      45.634  30.068  29.006  1.00  0.00    +0.000 C 
ATOM     42  F5  UNL A   1      44.875  28.970  29.154  1.00  0.00    +0.000 F 
ATOM     32  C24 UNL A   1      46.578  30.162  27.961  1.00  0.00    +0.000 C 
ENDBRANCH   31   32
BRANCH   48   49
ATOM     49  C35 UNL A   1      42.120  27.583  27.105  1.00  0.00    +0.000 C 
ATOM     50  C36 UNL A   1      42.111  27.516  28.519  1.00  0.00    +0.000 C 
ATOM     51  F6  UNL A   1      43.091  26.909  29.204  1.00  0.00    +0.000 F 
ATOM     52  C37 UNL A   1      41.092  28.101  29.276  1.00  0.00    +0.000 C 
ATOM     53  F7  UNL A   1      41.076  27.958  30.610  1.00  0.00    +0.000 F 
ATOM     54  C38 UNL A   1      40.096  28.831  28.654  1.00  0.00    +0.000 C 
ATOM     55  F8  UNL A   1      39.124  29.404  29.378  1.00  0.00    +0.000 F 
ATOM     56  C39 UNL A   1      40.121  28.979  27.280  1.00  0.00    +0.000 C 
ATOM     57  F9  UNL A   1      39.191  29.727  26.669  1.00  0.00    +0.000 F 
ATOM     58  C40 UNL A   1      41.106  28.353  26.519  1.00  0.00    +0.000 C 
ATOM     59  F10 UNL A   1      41.075  28.510  25.188  1.00  0.00    +0.000 F 
ENDBRANCH   48   49
BRANCH   63   64
ATOM     65  C45 UNL A   1      40.381  21.903  27.204  1.00  0.00    +0.000 C 
ATOM     66  F11 UNL A   1      39.804  23.024  27.657  1.00  0.00    +0.000 F 
ATOM     67  C46 UNL A   1      39.526  21.072  26.456  1.00  0.00    +0.000 C 
ATOM     68  F12 UNL A   1      38.262  21.454  26.200  1.00  0.00    +0.000 F 
ATOM     69  C47 UNL A   1      40.005  19.904  25.915  1.00  0.00    +0.000 C 
ATOM     70  F13 UNL A   1      39.219  19.143  25.137  1.00  0.00    +0.000 F 
ATOM     71  C48 UNL A   1      41.325  19.557  26.165  1.00  0.00    +0.000 C 
ATOM     72  F14 UNL A   1      41.793  18.417  25.633  1.00  0.00    +0.000 F 
ATOM     73  C49 UNL A   1      42.199  20.409  26.893  1.00  0.00    +0.000 C 
ATOM     74  F15 UNL A   1      43.482  20.041  26.995  1.00  0.00    +0.000 F 
ATOM     64  C44 UNL A   1      41.785  21.645  27.410  1.00  0.00    +0.000 C 
ENDBRANCH   63   64
TORSDOF 26
ENDMDL
MODEL 5
REMARK VINA RESULT:      -7.0     33.143     39.332
ROOT
ATOM    132  H27 UNL A   1      35.273 -14.286  24.555  1.00  0.00    +0.000 H 
ATOM    133  H28 UNL A   1      34.556 -12.004  23.380  1.00  0.00    +0.000 H 
ATOM    134  H29 UNL A   1      34.060 -11.711  27.460  1.00  0.00    +0.000 H 
ATOM    135  H30 UNL A   1      28.562  -8.656  22.810  1.00  0.00    +0.000 H 
ATOM    136  H31 UNL A   1      27.694 -10.628  24.125  1.00  0.00    +0.000 H 
ATOM    137  H32 UNL A   1      31.751 -11.261  23.477  1.00  0.00    +0.000 H 
ATOM    138  H33 UNL A   1      33.904  -9.831  21.034  1.00  0.00    +0.000 H 
ATOM    139  H34 UNL A   1      35.660  -9.984  22.942  1.00  0.00    +0.000 H 
ATOM    140  H35 UNL A   1      32.941 -15.840  24.308  1.00  0.00    +0.000 H 
ATOM    141  H36 UNL A   1      31.573 -14.260  22.787  1.00  0.00    +0.000 H 
ATOM     27  C20 UNL A   1      29.545 -12.863  24.513  1.00  0.00    +0.000 C 
ATOM     28  C21 UNL A   1      30.837 -13.554  24.817  1.00  0.00    +0.000 C 
ATOM     29  N4  UNL A   1      31.110 -13.859  26.058  1.00  0.00    +0.000 N 
ATOM     30  C22 UNL A   1      32.227 -14.658  26.030  1.00  0.00    +0.000 C 
ATOM     31  C23 UNL A   1      33.227 -14.267  26.872  1.00  0.00    +0.000 C 
ATOM     43  C30 UNL A   1      34.157 -13.400  26.199  1.00  0.00    +0.000 C 
ATOM     44  C31 UNL A   1      34.766 -13.485  24.962  1.00  0.00    +0.000 C 
ATOM     45  C32 UNL A   1      34.533 -12.219  24.389  1.00  0.00    +0.000 C 
ATOM     46  C33 UNL A   1      34.266 -11.308  25.402  1.00  0.00    +0.000 C 
ATOM     47  N5  UNL A   1      34.144 -12.065  26.544  1.00  0.00    +0.000 N 
ATOM     48  C34 UNL A   1      33.934  -9.910  25.438  1.00  0.00    +0.000 C 
ATOM     60  C41 UNL A   1      34.075  -9.223  24.278  1.00  0.00    +0.000 C 
ATOM     61  N6  UNL A   1      33.017  -8.450  23.925  1.00  0.00    +0.000 N 
ATOM     62  C42 UNL A   1      32.732  -8.898  22.740  1.00  0.00    +0.000 C 
ATOM     63  C43 UNL A   1      31.410  -8.695  22.145  1.00  0.00    +0.000 C 
ATOM     75  C50 UNL A   1      30.560  -9.607  22.784  1.00  0.00    +0.000 C 
ATOM     76  C51 UNL A   1      29.137  -9.468  23.085  1.00  0.00    +0.000 C 
ATOM     77  C52 UNL A   1      28.663 -10.547  23.777  1.00  0.00    +0.000 C 
ATOM     78  C53 UNL A   1      29.691 -11.582  23.968  1.00  0.00    +0.000 C 
ATOM     79  N7  UNL A   1      30.840 -10.891  23.421  1.00  0.00    +0.000 N 
ATOM     80  C54 UNL A   1      33.824  -9.543  22.021  1.00  0.00    +0.000 C 
ATOM     81  C55 UNL A   1      34.688  -9.647  23.033  1.00  0.00    +0.000 C 
ATOM     82  C56 UNL A   1      32.348 -15.060  24.632  1.00  0.00    +0.000 C 
ATOM     83  C57 UNL A   1      31.601 -14.303  23.817  1.00  0.00    +0.000 C 
ENDROOT
BRANCH   27   26
ATOM    130  H25 UNL A   1      28.539 -17.393  25.164  1.00  0.00    +0.000 H 
ATOM    131  H26 UNL A   1      29.175 -15.484  23.839  1.00  0.00    +0.000 H 
ATOM    142  H37 UNL A   1      27.438 -12.871  26.609  1.00  0.00    +0.000 H 
ATOM    143  H38 UNL A   1      26.534 -14.829  27.783  1.00  0.00    +0.000 H 
ATOM     84  C58 UNL A   1      27.667 -13.813  26.255  1.00  0.00    +0.000 C 
ATOM     85  C59 UNL A   1      27.148 -14.979  26.968  1.00  0.00    +0.000 C 
ATOM     23  C16 UNL A   1      27.453 -16.298  26.584  1.00  0.00    +0.000 C 
ATOM     24  C17 UNL A   1      28.249 -16.449  25.465  1.00  0.00    +0.000 C 
ATOM     25  C18 UNL A   1      28.675 -15.309  24.725  1.00  0.00    +0.000 C 
ATOM     26  C19 UNL A   1      28.467 -13.928  25.102  1.00  0.00    +0.000 C 
BRANCH   23   21
ATOM     21  C15 UNL A   1      27.121 -17.533  27.386  1.00  0.00    +0.000 C 
ATOM     22  O4  UNL A   1      26.092 -18.161  27.147  1.00  0.00    +0.000 O 
BRANCH   21   20
ATOM    129  H24 UNL A   1      28.548 -18.651  28.308  1.00  0.00    +0.000 H 
ATOM     20  N3  UNL A   1      27.911 -17.915  28.459  1.00  0.00    +0.000 N 
BRANCH   20   19
ATOM     19  C14 UNL A   1      27.884 -17.332  29.777  1.00  0.00    +0.000 C 
ATOM    127  H22 UNL A   1      26.934 -16.857  29.908  1.00  0.00    +0.000 H 
ATOM    128  H23 UNL A   1      28.063 -18.139  30.458  1.00  0.00    +0.000 H 
BRANCH   19   18
ATOM     18  C13 UNL A   1      28.977 -16.291  30.066  1.00  0.00    +0.000 C 
ATOM    125  H20 UNL A   1      29.838 -16.562  29.492  1.00  0.00    +0.000 H 
ATOM    126  H21 UNL A   1      28.531 -15.351  29.811  1.00  0.00    +0.000 H 
BRANCH   18   17
ATOM     17  C12 UNL A   1      29.433 -16.120  31.526  1.00  0.00    +0.000 C 
ATOM    123  H18 UNL A   1      28.961 -16.887  32.103  1.00  0.00    +0.000 H 
ATOM    124  H19 UNL A   1      30.501 -16.175  31.493  1.00  0.00    +0.000 H 
BRANCH   17   16
ATOM    121  H16 UNL A   1      28.457 -14.968  33.014  1.00  0.00    +0.000 H 
ATOM    122  H17 UNL A   1      30.068 -14.373  32.484  1.00  0.00    +0.000 H 
ATOM     16  C11 UNL A   1      29.120 -14.778  32.196  1.00  0.00    +0.000 C 
BRANCH   16   15
ATOM    119  H14 UNL A   1      29.230 -13.295  30.677  1.00  0.00    +0.000 H 
ATOM     15  C10 UNL A   1      28.472 -13.711  31.305  1.00  0.00    +0.000 C 
ATOM    120  H15 UNL A   1      27.695 -14.206  30.760  1.00  0.00    +0.000 H 
BRANCH   15   14
ATOM    118  H13 UNL A   1      27.709 -12.845  33.089  1.00  0.00    +0.000 H 
ATOM    117  H12 UNL A   1      26.838 -12.381  31.633  1.00  0.00    +0.000 H 
ATOM     14  C9  UNL A   1      27.802 -12.565  32.061  1.00  0.00    +0.000 C 
BRANCH   14   13
ATOM    116  H11 UNL A   1      29.443 -11.359  32.478  1.00  0.00    +0.000 H 
ATOM     13  N2  UNL A   1      28.591 -11.357  31.983  1.00  0.00    +0.000 N 
BRANCH   13   11
ATOM     11  C8  UNL A   1      28.290 -10.211  31.301  1.00  0.00    +0.000 C 
ATOM     12  O3  UNL A   1      29.204  -9.394  31.162  1.00  0.00    +0.000 O 
BRANCH   11    8
ATOM    112  H7  UNL A   1      26.187 -10.411  31.320  1.00  0.00    +0.000 H 
ATOM      8  C6  UNL A   1      26.903  -9.981  30.652  1.00  0.00    +0.000 C 
BRANCH    8    7
ATOM    111  H6  UNL A   1      27.498 -10.522  28.722  1.00  0.00    +0.000 H 
ATOM      7  N1  UNL A   1      26.764 -10.671  29.363  1.00  0.00    +0.000 N 
BRANCH    7    5
ATOM      5  C5  UNL A   1      25.763 -11.488  28.929  1.00  0.00    +0.000 C 
ATOM      6  O1  UNL A   1      25.843 -12.684  29.221  1.00  0.00    +0.000 O 
BRANCH    5    4
ATOM      4  C4  UNL A   1      24.641 -10.957  28.055  1.00  0.00    +0.000 C 
ATOM    109  H4  UNL A   1      23.718 -11.075  28.584  1.00  0.00    +0.000 H 
ATOM    110  H5  UNL A   1      24.866  -9.932  27.848  1.00  0.00    +0.000 H 
BRANCH    4    3
ATOM      2  C2  UNL A   1      24.858 -11.174  25.473  1.00  0.00    +0.000 C 
ATOM      3  C3  UNL A   1      24.520 -11.653  26.734  1.00  0.00    +0.000 C 
ATOM     98  N8  UNL A   1      24.614 -12.186  24.545  1.00  0.00    +0.000 N 
ATOM    144  H39 UNL A   1      23.576 -13.545  27.289  1.00  0.00    +0.000 H 
ATOM     86  C60 UNL A   1      23.978 -12.950  26.548  1.00  0.00    +0.000 C 
ATOM     87  C61 UNL A   1      24.076 -13.288  25.211  1.00  0.00    +0.000 C 
BRANCH    2    1
ATOM      1  C1  UNL A   1      25.281  -9.784  25.111  1.00  0.00    +0.000 C 
ATOM    106  H1  UNL A   1      25.676  -9.294  25.978  1.00  0.00    +0.000 H 
ATOM    107  H2  UNL A   1      24.436  -9.238  24.747  1.00  0.00    +0.000 H 
ATOM    108  H3  UNL A   1      26.032  -9.827  24.352  1.00  0.00    +0.000 H 
ENDBRANCH    2    1
BRANCH   87   88
ATOM     97  C68 UNL A   1      22.482 -15.018  24.413  1.00  0.00    +0.000 C 
ATOM    145  H40 UNL A   1      25.829 -15.185  24.443  1.00  0.00    +0.000 H 
ATOM    146  H41 UNL A   1      25.363 -17.356  23.459  1.00  0.00    +0.000 H 
ATOM    150  H45 UNL A   1      21.233 -16.569  23.704  1.00  0.00    +0.000 H 
ATOM    151  H46 UNL A   1      21.703 -14.398  24.682  1.00  0.00    +0.000 H 
ATOM     88  C62 UNL A   1      23.803 -14.601  24.613  1.00  0.00    +0.000 C 
ATOM     89  C63 UNL A   1      24.852 -15.472  24.274  1.00  0.00    +0.000 C 
ATOM     90  C64 UNL A   1      24.588 -16.724  23.710  1.00  0.00    +0.000 C 
ATOM     91  C65 UNL A   1      23.264 -17.109  23.491  1.00  0.00    +0.000 C 
ATOM     96  C67 UNL A   1      22.209 -16.268  23.852  1.00  0.00    +0.000 C 
BRANCH   91   92
ATOM     92  S1  UNL A   1      22.933 -18.715  22.809  1.00  0.00    +0.000 S 
ATOM     94  O5  UNL A   1      23.081 -18.617  21.380  1.00  0.00    +0.000 O 
ATOM     95  O6  UNL A   1      23.708 -19.686  23.579  1.00  0.00    +0.000 O 
BRANCH   92   93
ATOM    149  H44 UNL A   1      20.980 -20.026  22.972  1.00  0.00    +0.000 H 
ATOM    147  H42 UNL A   1      20.614 -18.364  22.580  1.00  0.00    +0.000 H 
ATOM    148  H43 UNL A   1      21.043 -18.801  24.215  1.00  0.00    +0.000 H 
ATOM     93  C66 UNL A   1      21.223 -19.006  23.181  1.00  0.00    +0.000 C 
ENDBRANCH   92   93
ENDBRANCH   91   92
ENDBRANCH   87   88
BRANCH   98   99
ATOM     99  C69 UNL A   1      24.828 -12.108  23.142  1.00  0.00    +0.000 C 
ATOM    100  C70 UNL A   1      26.091 -12.417  22.617  1.00  0.00    +0.000 C 
ATOM    101  C71 UNL A   1      26.320 -12.303  21.245  1.00  0.00    +0.000 C 
ATOM    102  C72 UNL A   1      25.297 -11.865  20.405  1.00  0.00    +0.000 C 
ATOM    103  C73 UNL A   1      24.052 -11.548  20.940  1.00  0.00    +0.000 C 
ATOM    104  F16 UNL A   1      23.080 -11.108  20.131  1.00  0.00    +0.000 F 
ATOM    105  C74 UNL A   1      23.803 -11.665  22.303  1.00  0.00    +0.000 C 
ATOM    152  H47 UNL A   1      26.848 -12.730  23.244  1.00  0.00    +0.000 H 
ATOM    153  H48 UNL A   1      27.244 -12.541  20.854  1.00  0.00    +0.000 H 
ATOM    154  H49 UNL A   1      25.462 -11.777  19.390  1.00  0.00    +0.000 H 
ATOM    155  H50 UNL A   1      22.874 -11.429  22.688  1.00  0.00    +0.000 H 
ENDBRANCH   98   99
ENDBRANCH    4    3
ENDBRANCH    5    4
ENDBRANCH    7    5
ENDBRANCH    8    7
BRANCH    8    9
ATOM      9  C7  UNL A   1      26.580  -8.486  30.514  1.00  0.00    +0.000 C 
ATOM    114  H9  UNL A   1      25.527  -8.372  30.672  1.00  0.00    +0.000 H 
ATOM    113  H8  UNL A   1      27.154  -7.945  31.236  1.00  0.00    +0.000 H 
BRANCH    9   10
ATOM     10  O2  UNL A   1      26.871  -7.966  29.222  1.00  0.00    +0.000 O 
ATOM    115  H10 UNL A   1      27.309  -8.650  28.691  1.00  0.00    +0.000 H 
ENDBRANCH    9   10
ENDBRANCH    8    9
ENDBRANCH   11    8
ENDBRANCH   13   11
ENDBRANCH   14   13
ENDBRANCH   15   14
ENDBRANCH   16   15
ENDBRANCH   17   16
ENDBRANCH   18   17
ENDBRANCH   19   18
ENDBRANCH   20   19
ENDBRANCH   21   20
ENDBRANCH   23   21
ENDBRANCH   27   26
BRANCH   31   32
ATOM     33  C25 UNL A   1      32.192 -12.861  28.651  1.00  0.00    +0.000 C 
ATOM     34  F1  UNL A   1      31.884 -11.959  27.708  1.00  0.00    +0.000 F 
ATOM     35  C26 UNL A   1      31.905 -12.570  29.986  1.00  0.00    +0.000 C 
ATOM     36  F2  UNL A   1      31.304 -11.414  30.302  1.00  0.00    +0.000 F 
ATOM     37  C27 UNL A   1      32.239 -13.469  30.988  1.00  0.00    +0.000 C 
ATOM     38  F3  UNL A   1      31.996 -13.171  32.272  1.00  0.00    +0.000 F 
ATOM     39  C28 UNL A   1      32.789 -14.693  30.656  1.00  0.00    +0.000 C 
ATOM     40  F4  UNL A   1      33.095 -15.581  31.614  1.00  0.00    +0.000 F 
ATOM     41  C29 UNL A   1      33.011 -15.014  29.321  1.00  0.00    +0.000 C 
ATOM     42  F5  UNL A   1      33.411 -16.264  29.041  1.00  0.00    +0.000 F 
ATOM     32  C24 UNL A   1      32.781 -14.076  28.292  1.00  0.00    +0.000 C 
ENDBRANCH   31   32
BRANCH   48   49
ATOM     49  C35 UNL A   1      33.311  -9.166  26.601  1.00  0.00    +0.000 C 
ATOM     50  C36 UNL A   1      31.929  -9.012  26.867  1.00  0.00    +0.000 C 
ATOM     51  F6  UNL A   1      30.999  -9.710  26.200  1.00  0.00    +0.000 F 
ATOM     52  C37 UNL A   1      31.464  -8.142  27.857  1.00  0.00    +0.000 C 
ATOM     53  F7  UNL A   1      30.145  -7.967  28.036  1.00  0.00    +0.000 F 
ATOM     54  C38 UNL A   1      32.359  -7.457  28.657  1.00  0.00    +0.000 C 
ATOM     55  F8  UNL A   1      31.917  -6.631  29.616  1.00  0.00    +0.000 F 
ATOM     56  C39 UNL A   1      33.717  -7.646  28.472  1.00  0.00    +0.000 C 
ATOM     57  F9  UNL A   1      34.595  -7.030  29.275  1.00  0.00    +0.000 F 
ATOM     58  C40 UNL A   1      34.182  -8.473  27.452  1.00  0.00    +0.000 C 
ATOM     59  F10 UNL A   1      35.508  -8.607  27.300  1.00  0.00    +0.000 F 
ENDBRANCH   48   49
BRANCH   63   64
ATOM     65  C45 UNL A   1      31.755  -6.137  21.703  1.00  0.00    +0.000 C 
ATOM     66  F11 UNL A   1      31.549  -5.827  22.991  1.00  0.00    +0.000 F 
ATOM     67  C46 UNL A   1      32.329  -5.102  20.942  1.00  0.00    +0.000 C 
ATOM     68  F12 UNL A   1      32.675  -3.942  21.527  1.00  0.00    +0.000 F 
ATOM     69  C47 UNL A   1      32.611  -5.304  19.613  1.00  0.00    +0.000 C 
ATOM     70  F13 UNL A   1      33.228  -4.350  18.897  1.00  0.00    +0.000 F 
ATOM     71  C48 UNL A   1      32.277  -6.526  19.048  1.00  0.00    +0.000 C 
ATOM     72  F14 UNL A   1      32.557  -6.724  17.750  1.00  0.00    +0.000 F 
ATOM     73  C49 UNL A   1      31.727  -7.584  19.823  1.00  0.00    +0.000 C 
ATOM     74  F15 UNL A   1      31.533  -8.762  19.215  1.00  0.00    +0.000 F 
ATOM     64  C44 UNL A   1      31.480  -7.460  21.197  1.00  0.00    +0.000 C 
ENDBRANCH   63   64
TORSDOF 26
ENDMDL
MODEL 6
REMARK VINA RESULT:      -6.9     38.228     42.565
ROOT
ATOM    132  H27 UNL A   1       4.368  17.550  39.830  1.00  0.00    +0.000 H 
ATOM    133  H28 UNL A   1       4.858  15.141  38.800  1.00  0.00    +0.000 H 
ATOM    134  H29 UNL A   1       0.794  15.755  39.093  1.00  0.00    +0.000 H 
ATOM    135  H30 UNL A   1       3.646   8.724  40.993  1.00  0.00    +0.000 H 
ATOM    136  H31 UNL A   1       2.688   9.924  42.995  1.00  0.00    +0.000 H 
ATOM    137  H32 UNL A   1       4.129  12.822  40.388  1.00  0.00    +0.000 H 
ATOM    138  H33 UNL A   1       6.507  12.524  37.760  1.00  0.00    +0.000 H 
ATOM    139  H34 UNL A   1       5.003  14.306  36.616  1.00  0.00    +0.000 H 
ATOM    140  H35 UNL A   1       4.570  17.067  42.594  1.00  0.00    +0.000 H 
ATOM    141  H36 UNL A   1       5.443  14.636  42.507  1.00  0.00    +0.000 H 
ATOM     27  C20 UNL A   1       3.131  12.815  43.129  1.00  0.00    +0.000 C 
ATOM     28  C21 UNL A   1       3.212  14.227  42.641  1.00  0.00    +0.000 C 
ATOM     29  N4  UNL A   1       2.136  14.967  42.679  1.00  0.00    +0.000 N 
ATOM     30  C22 UNL A   1       2.530  16.250  42.383  1.00  0.00    +0.000 C 
ATOM     31  C23 UNL A   1       1.800  16.858  41.404  1.00  0.00    +0.000 C 
ATOM     43  C30 UNL A   1       2.403  16.659  40.114  1.00  0.00    +0.000 C 
ATOM     44  C31 UNL A   1       3.711  16.768  39.682  1.00  0.00    +0.000 C 
ATOM     45  C32 UNL A   1       3.935  15.561  38.991  1.00  0.00    +0.000 C 
ATOM     46  C33 UNL A   1       2.711  15.027  38.610  1.00  0.00    +0.000 C 
ATOM     47  N5  UNL A   1       1.767  15.803  39.240  1.00  0.00    +0.000 N 
ATOM     48  C34 UNL A   1       2.304  13.833  37.921  1.00  0.00    +0.000 C 
ATOM     60  C41 UNL A   1       3.284  13.113  37.323  1.00  0.00    +0.000 C 
ATOM     61  N6  UNL A   1       3.272  11.781  37.579  1.00  0.00    +0.000 N 
ATOM     62  C42 UNL A   1       4.463  11.582  38.056  1.00  0.00    +0.000 C 
ATOM     63  C43 UNL A   1       4.767  10.413  38.885  1.00  0.00    +0.000 C 
ATOM     75  C50 UNL A   1       4.220  10.686  40.145  1.00  0.00    +0.000 C 
ATOM     76  C51 UNL A   1       3.662   9.748  41.117  1.00  0.00    +0.000 C 
ATOM     77  C52 UNL A   1       3.165  10.398  42.212  1.00  0.00    +0.000 C 
ATOM     78  C53 UNL A   1       3.388  11.851  42.147  1.00  0.00    +0.000 C 
ATOM     79  N7  UNL A   1       3.946  11.954  40.815  1.00  0.00    +0.000 N 
ATOM     80  C54 UNL A   1       5.481  12.545  37.656  1.00  0.00    +0.000 C 
ATOM     81  C55 UNL A   1       4.678  13.463  37.114  1.00  0.00    +0.000 C 
ATOM     82  C56 UNL A   1       3.984  16.221  42.522  1.00  0.00    +0.000 C 
ATOM     83  C57 UNL A   1       4.468  14.973  42.545  1.00  0.00    +0.000 C 
ENDROOT
BRANCH   27   26
ATOM    130  H25 UNL A   1       0.618  11.050  46.668  1.00  0.00    +0.000 H 
ATOM    131  H26 UNL A   1       0.951  11.759  44.390  1.00  0.00    +0.000 H 
ATOM    142  H37 UNL A   1       4.100  14.266  45.535  1.00  0.00    +0.000 H 
ATOM    143  H38 UNL A   1       3.551  13.770  47.876  1.00  0.00    +0.000 H 
ATOM     84  C58 UNL A   1       3.336  13.604  45.736  1.00  0.00    +0.000 C 
ATOM     85  C59 UNL A   1       3.024  13.290  47.130  1.00  0.00    +0.000 C 
ATOM     23  C16 UNL A   1       2.032  12.360  47.493  1.00  0.00    +0.000 C 
ATOM     24  C17 UNL A   1       1.328  11.771  46.460  1.00  0.00    +0.000 C 
ATOM     25  C18 UNL A   1       1.577  12.149  45.110  1.00  0.00    +0.000 C 
ATOM     26  C19 UNL A   1       2.629  13.034  44.659  1.00  0.00    +0.000 C 
BRANCH   23   21
ATOM     21  C15 UNL A   1       1.798  11.844  48.892  1.00  0.00    +0.000 C 
ATOM     22  O4  UNL A   1       0.812  12.214  49.526  1.00  0.00    +0.000 O 
BRANCH   21   20
ATOM    129  H24 UNL A   1       2.816  10.108  49.184  1.00  0.00    +0.000 H 
ATOM     20  N3  UNL A   1       2.735  11.032  49.514  1.00  0.00    +0.000 N 
BRANCH   20   19
ATOM     19  C14 UNL A   1       3.599  11.419  50.600  1.00  0.00    +0.000 C 
ATOM    127  H22 UNL A   1       3.047  12.073  51.244  1.00  0.00    +0.000 H 
ATOM    128  H23 UNL A   1       3.907  10.508  51.069  1.00  0.00    +0.000 H 
BRANCH   19   18
ATOM     18  C13 UNL A   1       4.895  12.140  50.195  1.00  0.00    +0.000 C 
ATOM    125  H20 UNL A   1       4.686  13.188  50.175  1.00  0.00    +0.000 H 
ATOM    126  H21 UNL A   1       5.617  11.828  50.922  1.00  0.00    +0.000 H 
BRANCH   18   17
ATOM     17  C12 UNL A   1       5.524  11.770  48.840  1.00  0.00    +0.000 C 
ATOM    123  H18 UNL A   1       5.036  10.884  48.490  1.00  0.00    +0.000 H 
ATOM    124  H19 UNL A   1       5.385  12.632  48.223  1.00  0.00    +0.000 H 
BRANCH   17   16
ATOM    121  H16 UNL A   1       7.235  10.733  49.541  1.00  0.00    +0.000 H 
ATOM    122  H17 UNL A   1       7.268  11.240  47.817  1.00  0.00    +0.000 H 
ATOM     16  C11 UNL A   1       7.033  11.504  48.827  1.00  0.00    +0.000 C 
BRANCH   16   15
ATOM    119  H14 UNL A   1       7.926  12.838  50.221  1.00  0.00    +0.000 H 
ATOM     15  C10 UNL A   1       7.933  12.699  49.160  1.00  0.00    +0.000 C 
ATOM    120  H15 UNL A   1       8.902  12.464  48.771  1.00  0.00    +0.000 H 
BRANCH   15   14
ATOM    118  H13 UNL A   1       6.647  13.841  47.912  1.00  0.00    +0.000 H 
ATOM    117  H12 UNL A   1       8.323  14.375  47.900  1.00  0.00    +0.000 H 
ATOM     14  C9  UNL A   1       7.518  14.017  48.507  1.00  0.00    +0.000 C 
BRANCH   14   13
ATOM    116  H11 UNL A   1       7.108  14.693  50.430  1.00  0.00    +0.000 H 
ATOM     13  N2  UNL A   1       7.199  15.015  49.504  1.00  0.00    +0.000 N 
BRANCH   13   11
ATOM     11  C8  UNL A   1       7.010  16.355  49.305  1.00  0.00    +0.000 C 
ATOM     12  O3  UNL A   1       7.916  17.102  49.682  1.00  0.00    +0.000 O 
BRANCH   11    8
ATOM    112  H7  UNL A   1       5.189  16.057  48.276  1.00  0.00    +0.000 H 
ATOM      8  C6  UNL A   1       5.769  16.909  48.565  1.00  0.00    +0.000 C 
BRANCH    8    7
ATOM    111  H6  UNL A   1       6.816  18.323  47.436  1.00  0.00    +0.000 H 
ATOM      7  N1  UNL A   1       6.123  17.630  47.335  1.00  0.00    +0.000 N 
BRANCH    7    5
ATOM      5  C5  UNL A   1       5.629  17.474  46.075  1.00  0.00    +0.000 C 
ATOM      6  O1  UNL A   1       6.057  16.526  45.412  1.00  0.00    +0.000 O 
BRANCH    5    4
ATOM      4  C4  UNL A   1       4.651  18.476  45.486  1.00  0.00    +0.000 C 
ATOM    109  H4  UNL A   1       4.904  19.449  45.853  1.00  0.00    +0.000 H 
ATOM    110  H5  UNL A   1       4.735  18.404  44.422  1.00  0.00    +0.000 H 
BRANCH    4    3
ATOM      2  C2  UNL A   1       2.221  19.111  46.158  1.00  0.00    +0.000 C 
ATOM      3  C3  UNL A   1       3.219  18.200  45.830  1.00  0.00    +0.000 C 
ATOM     98  N8  UNL A   1       1.036  18.403  46.358  1.00  0.00    +0.000 N 
ATOM    144  H39 UNL A   1       3.144  16.016  45.798  1.00  0.00    +0.000 H 
ATOM     86  C60 UNL A   1       2.642  16.909  45.921  1.00  0.00    +0.000 C 
ATOM     87  C61 UNL A   1       1.295  17.040  46.204  1.00  0.00    +0.000 C 
BRANCH    2    1
ATOM      1  C1  UNL A   1       2.373  20.580  46.401  1.00  0.00    +0.000 C 
ATOM    106  H1  UNL A   1       2.923  20.738  47.306  1.00  0.00    +0.000 H 
ATOM    107  H2  UNL A   1       1.406  21.030  46.488  1.00  0.00    +0.000 H 
ATOM    108  H3  UNL A   1       2.899  21.023  45.582  1.00  0.00    +0.000 H 
ENDBRANCH    2    1
BRANCH   87   88
ATOM     97  C68 UNL A   1      -0.304  15.564  45.005  1.00  0.00    +0.000 C 
ATOM    145  H40 UNL A   1       0.281  15.688  48.302  1.00  0.00    +0.000 H 
ATOM    146  H41 UNL A   1      -1.390  13.925  48.293  1.00  0.00    +0.000 H 
ATOM    150  H45 UNL A   1      -1.700  14.256  44.105  1.00  0.00    +0.000 H 
ATOM    151  H46 UNL A   1      -0.025  16.013  44.119  1.00  0.00    +0.000 H 
ATOM     88  C62 UNL A   1       0.288  15.971  46.206  1.00  0.00    +0.000 C 
ATOM     89  C63 UNL A   1      -0.129  15.375  47.408  1.00  0.00    +0.000 C 
ATOM     90  C64 UNL A   1      -1.093  14.362  47.407  1.00  0.00    +0.000 C 
ATOM     91  C65 UNL A   1      -1.649  13.949  46.195  1.00  0.00    +0.000 C 
ATOM     96  C67 UNL A   1      -1.269  14.554  44.994  1.00  0.00    +0.000 C 
BRANCH   91   92
ATOM     92  S1  UNL A   1      -2.900  12.689  46.202  1.00  0.00    +0.000 S 
ATOM     94  O5  UNL A   1      -4.032  13.200  45.474  1.00  0.00    +0.000 O 
ATOM     95  O6  UNL A   1      -2.261  11.435  45.811  1.00  0.00    +0.000 O 
BRANCH   92   93
ATOM    149  H44 UNL A   1      -3.908  11.625  48.050  1.00  0.00    +0.000 H 
ATOM    147  H42 UNL A   1      -3.953  13.366  48.199  1.00  0.00    +0.000 H 
ATOM    148  H43 UNL A   1      -2.468  12.501  48.512  1.00  0.00    +0.000 H 
ATOM     93  C66 UNL A   1      -3.352  12.529  47.910  1.00  0.00    +0.000 C 
ENDBRANCH   92   93
ENDBRANCH   91   92
ENDBRANCH   87   88
BRANCH   98   99
ATOM     99  C69 UNL A   1      -0.225  18.957  46.707  1.00  0.00    +0.000 C 
ATOM    100  C70 UNL A   1      -0.607  19.011  48.056  1.00  0.00    +0.000 C 
ATOM    101  C71 UNL A   1      -1.861  19.516  48.404  1.00  0.00    +0.000 C 
ATOM    102  C72 UNL A   1      -2.735  19.949  47.407  1.00  0.00    +0.000 C 
ATOM    103  C73 UNL A   1      -2.349  19.877  46.072  1.00  0.00    +0.000 C 
ATOM    104  F16 UNL A   1      -3.202  20.275  45.118  1.00  0.00    +0.000 F 
ATOM    105  C74 UNL A   1      -1.100  19.386  45.707  1.00  0.00    +0.000 C 
ATOM    152  H47 UNL A   1       0.039  18.679  48.789  1.00  0.00    +0.000 H 
ATOM    153  H48 UNL A   1      -2.140  19.568  49.395  1.00  0.00    +0.000 H 
ATOM    154  H49 UNL A   1      -3.664  20.321  47.659  1.00  0.00    +0.000 H 
ATOM    155  H50 UNL A   1      -0.825  19.340  44.713  1.00  0.00    +0.000 H 
ENDBRANCH   98   99
ENDBRANCH    4    3
ENDBRANCH    5    4
ENDBRANCH    7    5
ENDBRANCH    8    7
BRANCH    8    9
ATOM      9  C7  UNL A   1       4.899  17.780  49.482  1.00  0.00    +0.000 C 
ATOM    114  H9  UNL A   1       5.124  17.503  50.491  1.00  0.00    +0.000 H 
ATOM    113  H8  UNL A   1       5.125  18.808  49.290  1.00  0.00    +0.000 H 
BRANCH    9   10
ATOM     10  O2  UNL A   1       3.504  17.579  49.289  1.00  0.00    +0.000 O 
ATOM    115  H10 UNL A   1       3.342  16.654  49.048  1.00  0.00    +0.000 H 
ENDBRANCH    9   10
ENDBRANCH    8    9
ENDBRANCH   11    8
ENDBRANCH   13   11
ENDBRANCH   14   13
ENDBRANCH   15   14
ENDBRANCH   16   15
ENDBRANCH   17   16
ENDBRANCH   18   17
ENDBRANCH   19   18
ENDBRANCH   20   19
ENDBRANCH   21   20
ENDBRANCH   23   21
ENDBRANCH   27   26
BRANCH   31   32
ATOM     33  C25 UNL A   1      -0.408  15.713  41.235  1.00  0.00    +0.000 C 
ATOM     34  F1  UNL A   1       0.233  14.624  40.783  1.00  0.00    +0.000 F 
ATOM     35  C26 UNL A   1      -1.802  15.702  41.293  1.00  0.00    +0.000 C 
ATOM     36  F2  UNL A   1      -2.476  14.603  40.927  1.00  0.00    +0.000 F 
ATOM     37  C27 UNL A   1      -2.495  16.822  41.728  1.00  0.00    +0.000 C 
ATOM     38  F3  UNL A   1      -3.836  16.823  41.748  1.00  0.00    +0.000 F 
ATOM     39  C28 UNL A   1      -1.798  17.928  42.177  1.00  0.00    +0.000 C 
ATOM     40  F4  UNL A   1      -2.456  19.010  42.622  1.00  0.00    +0.000 F 
ATOM     41  C29 UNL A   1      -0.408  17.915  42.187  1.00  0.00    +0.000 C 
ATOM     42  F5  UNL A   1       0.220  18.951  42.764  1.00  0.00    +0.000 F 
ATOM     32  C24 UNL A   1       0.320  16.831  41.650  1.00  0.00    +0.000 C 
ENDBRANCH   31   32
BRANCH   48   49
ATOM     49  C35 UNL A   1       0.915  13.227  37.920  1.00  0.00    +0.000 C 
ATOM     50  C36 UNL A   1       0.419  12.241  38.806  1.00  0.00    +0.000 C 
ATOM     51  F6  UNL A   1       1.093  11.875  39.905  1.00  0.00    +0.000 F 
ATOM     52  C37 UNL A   1      -0.812  11.613  38.592  1.00  0.00    +0.000 C 
ATOM     53  F7  UNL A   1      -1.219  10.631  39.411  1.00  0.00    +0.000 F 
ATOM     54  C38 UNL A   1      -1.615  12.001  37.536  1.00  0.00    +0.000 C 
ATOM     55  F8  UNL A   1      -2.801  11.410  37.335  1.00  0.00    +0.000 F 
ATOM     56  C39 UNL A   1      -1.192  13.017  36.699  1.00  0.00    +0.000 C 
ATOM     57  F9  UNL A   1      -1.983  13.439  35.703  1.00  0.00    +0.000 F 
ATOM     58  C40 UNL A   1       0.057  13.607  36.879  1.00  0.00    +0.000 C 
ATOM     59  F10 UNL A   1       0.431  14.574  36.028  1.00  0.00    +0.000 F 
ENDBRANCH   48   49
BRANCH   63   64
ATOM     65  C45 UNL A   1       6.801   8.960  38.101  1.00  0.00    +0.000 C 
ATOM     66  F11 UNL A   1       7.688   9.792  38.666  1.00  0.00    +0.000 F 
ATOM     67  C46 UNL A   1       7.331   7.709  37.734  1.00  0.00    +0.000 C 
ATOM     68  F12 UNL A   1       8.613   7.410  38.007  1.00  0.00    +0.000 F 
ATOM     69  C47 UNL A   1       6.516   6.760  37.168  1.00  0.00    +0.000 C 
ATOM     70  F13 UNL A   1       6.993   5.537  36.884  1.00  0.00    +0.000 F 
ATOM     71  C48 UNL A   1       5.188   7.086  36.935  1.00  0.00    +0.000 C 
ATOM     72  F14 UNL A   1       4.392   6.155  36.385  1.00  0.00    +0.000 F 
ATOM     73  C49 UNL A   1       4.643   8.337  37.334  1.00  0.00    +0.000 C 
ATOM     74  F15 UNL A   1       3.328   8.524  37.163  1.00  0.00    +0.000 F 
ATOM     64  C44 UNL A   1       5.408   9.319  37.978  1.00  0.00    +0.000 C 
ENDBRANCH   63   64
TORSDOF 26
ENDMDL
MODEL 7
REMARK VINA RESULT:      -6.9     43.867     48.279
ROOT
ATOM    132  H27 UNL A   1       7.764  -5.610  26.169  1.00  0.00    +0.000 H 
ATOM    133  H28 UNL A   1       9.300  -3.561  26.909  1.00  0.00    +0.000 H 
ATOM    134  H29 UNL A   1       5.978  -2.185  24.896  1.00  0.00    +0.000 H 
ATOM    135  H30 UNL A   1      12.888   1.165  23.408  1.00  0.00    +0.000 H 
ATOM    136  H31 UNL A   1      12.004  -0.099  21.411  1.00  0.00    +0.000 H 
ATOM    137  H32 UNL A   1      10.600  -2.027  24.815  1.00  0.00    +0.000 H 
ATOM    138  H33 UNL A   1      11.824  -1.908  28.152  1.00  0.00    +0.000 H 
ATOM    139  H34 UNL A   1       9.306  -2.116  28.753  1.00  0.00    +0.000 H 
ATOM    140  H35 UNL A   1       8.976  -6.424  23.765  1.00  0.00    +0.000 H 
ATOM    141  H36 UNL A   1      11.074  -4.916  23.850  1.00  0.00    +0.000 H 
ATOM     27  C20 UNL A   1      10.623  -2.622  21.959  1.00  0.00    +0.000 C 
ATOM     28  C21 UNL A   1       9.694  -3.569  22.649  1.00  0.00    +0.000 C 
ATOM     29  N4  UNL A   1       8.454  -3.640  22.244  1.00  0.00    +0.000 N 
ATOM     30  C22 UNL A   1       7.890  -4.715  22.887  1.00  0.00    +0.000 C 
ATOM     31  C23 UNL A   1       6.705  -4.447  23.509  1.00  0.00    +0.000 C 
ATOM     43  C30 UNL A   1       6.916  -4.075  24.881  1.00  0.00    +0.000 C 
ATOM     44  C31 UNL A   1       7.706  -4.623  25.874  1.00  0.00    +0.000 C 
ATOM     45  C32 UNL A   1       8.411  -3.516  26.388  1.00  0.00    +0.000 C 
ATOM     46  C33 UNL A   1       7.714  -2.356  26.077  1.00  0.00    +0.000 C 
ATOM     47  N5  UNL A   1       6.716  -2.753  25.219  1.00  0.00    +0.000 N 
ATOM     48  C34 UNL A   1       7.941  -0.954  26.303  1.00  0.00    +0.000 C 
ATOM     60  C41 UNL A   1       8.941  -0.632  27.159  1.00  0.00    +0.000 C 
ATOM     61  N6  UNL A   1       9.810   0.312  26.715  1.00  0.00    +0.000 N 
ATOM     62  C42 UNL A   1      10.952  -0.299  26.809  1.00  0.00    +0.000 C 
ATOM     63  C43 UNL A   1      12.116   0.137  26.035  1.00  0.00    +0.000 C 
ATOM     75  C50 UNL A   1      11.894  -0.309  24.727  1.00  0.00    +0.000 C 
ATOM     76  C51 UNL A   1      12.315   0.309  23.471  1.00  0.00    +0.000 C 
ATOM     77  C52 UNL A   1      11.856  -0.390  22.389  1.00  0.00    +0.000 C 
ATOM     78  C53 UNL A   1      11.125  -1.606  22.781  1.00  0.00    +0.000 C 
ATOM     79  N7  UNL A   1      11.109  -1.430  24.219  1.00  0.00    +0.000 N 
ATOM     80  C54 UNL A   1      11.017  -1.386  27.778  1.00  0.00    +0.000 C 
ATOM     81  C55 UNL A   1       9.712  -1.498  28.033  1.00  0.00    +0.000 C 
ATOM     82  C56 UNL A   1       9.030  -5.452  23.425  1.00  0.00    +0.000 C 
ATOM     83  C57 UNL A   1      10.154  -4.722  23.426  1.00  0.00    +0.000 C 
ENDROOT
BRANCH   27   26
ATOM    130  H25 UNL A   1      10.846  -6.360  19.143  1.00  0.00    +0.000 H 
ATOM    131  H26 UNL A   1      11.669  -4.899  20.873  1.00  0.00    +0.000 H 
ATOM    142  H37 UNL A   1       9.347  -1.732  19.427  1.00  0.00    +0.000 H 
ATOM    143  H38 UNL A   1       8.758  -3.135  17.500  1.00  0.00    +0.000 H 
ATOM     84  C58 UNL A   1       9.709  -2.697  19.386  1.00  0.00    +0.000 C 
ATOM     85  C59 UNL A   1       9.340  -3.540  18.250  1.00  0.00    +0.000 C 
ATOM     23  C16 UNL A   1       9.746  -4.883  18.141  1.00  0.00    +0.000 C 
ATOM     24  C17 UNL A   1      10.554  -5.370  19.151  1.00  0.00    +0.000 C 
ATOM     25  C18 UNL A   1      10.982  -4.514  20.206  1.00  0.00    +0.000 C 
ATOM     26  C19 UNL A   1      10.542  -3.154  20.425  1.00  0.00    +0.000 C 
BRANCH   23   21
ATOM     21  C15 UNL A   1       9.240  -5.861  17.108  1.00  0.00    +0.000 C 
ATOM     22  O4  UNL A   1       9.371  -5.612  15.912  1.00  0.00    +0.000 O 
BRANCH   21   20
ATOM    129  H24 UNL A   1       9.065  -7.762  17.807  1.00  0.00    +0.000 H 
ATOM     20  N3  UNL A   1       8.537  -6.994  17.489  1.00  0.00    +0.000 N 
BRANCH   20   19
ATOM     19  C14 UNL A   1       7.104  -7.147  17.463  1.00  0.00    +0.000 C 
ATOM    127  H22 UNL A   1       6.761  -6.864  16.490  1.00  0.00    +0.000 H 
ATOM    128  H23 UNL A   1       6.915  -8.171  17.709  1.00  0.00    +0.000 H 
BRANCH   19   18
ATOM     18  C13 UNL A   1       6.327  -6.317  18.498  1.00  0.00    +0.000 C 
ATOM    125  H20 UNL A   1       6.459  -5.286  18.245  1.00  0.00    +0.000 H 
ATOM    126  H21 UNL A   1       5.322  -6.681  18.437  1.00  0.00    +0.000 H 
BRANCH   18   17
ATOM     17  C12 UNL A   1       6.711  -6.482  19.978  1.00  0.00    +0.000 C 
ATOM    123  H18 UNL A   1       7.502  -5.791  20.185  1.00  0.00    +0.000 H 
ATOM    124  H19 UNL A   1       5.807  -6.304  20.522  1.00  0.00    +0.000 H 
BRANCH   17   16
ATOM    121  H16 UNL A   1       6.633  -8.597  19.856  1.00  0.00    +0.000 H 
ATOM    122  H17 UNL A   1       8.237  -7.886  20.248  1.00  0.00    +0.000 H 
ATOM     16  C11 UNL A   1       7.181  -7.872  20.421  1.00  0.00    +0.000 C 
BRANCH   16   15
ATOM    119  H14 UNL A   1       7.742  -8.929  22.178  1.00  0.00    +0.000 H 
ATOM     15  C10 UNL A   1       7.003  -8.204  21.907  1.00  0.00    +0.000 C 
ATOM    120  H15 UNL A   1       7.104  -7.279  22.436  1.00  0.00    +0.000 H 
BRANCH   15   14
ATOM    118  H13 UNL A   1       5.439  -9.622  21.671  1.00  0.00    +0.000 H 
ATOM    117  H12 UNL A   1       4.890  -8.011  22.115  1.00  0.00    +0.000 H 
ATOM     14  C9  UNL A   1       5.632  -8.764  22.280  1.00  0.00    +0.000 C 
BRANCH   14   13
ATOM    116  H11 UNL A   1       4.926  -9.853  23.905  1.00  0.00    +0.000 H 
ATOM     13  N2  UNL A   1       5.593  -9.168  23.668  1.00  0.00    +0.000 N 
BRANCH   13   11
ATOM     11  C8  UNL A   1       6.377  -8.707  24.689  1.00  0.00    +0.000 C 
ATOM     12  O3  UNL A   1       6.161  -7.554  25.072  1.00  0.00    +0.000 O 
BRANCH   11    8
ATOM    112  H7  UNL A   1       7.245 -10.600  25.043  1.00  0.00    +0.000 H 
ATOM      8  C6  UNL A   1       7.420  -9.605  25.396  1.00  0.00    +0.000 C 
BRANCH    8    7
ATOM    111  H6  UNL A   1       7.906  -9.099  27.365  1.00  0.00    +0.000 H 
ATOM      7  N1  UNL A   1       7.249  -9.625  26.855  1.00  0.00    +0.000 N 
BRANCH    7    5
ATOM      5  C5  UNL A   1       6.307 -10.269  27.600  1.00  0.00    +0.000 C 
ATOM      6  O1  UNL A   1       5.855 -11.326  27.152  1.00  0.00    +0.000 O 
BRANCH    5    4
ATOM      4  C4  UNL A   1       5.781  -9.666  28.890  1.00  0.00    +0.000 C 
ATOM    109  H4  UNL A   1       5.030 -10.318  29.285  1.00  0.00    +0.000 H 
ATOM    110  H5  UNL A   1       6.618  -9.559  29.548  1.00  0.00    +0.000 H 
BRANCH    4    3
ATOM      2  C2  UNL A   1       5.387  -7.169  29.501  1.00  0.00    +0.000 C 
ATOM      3  C3  UNL A   1       5.181  -8.303  28.722  1.00  0.00    +0.000 C 
ATOM     98  N8  UNL A   1       4.655  -6.121  28.942  1.00  0.00    +0.000 N 
ATOM    144  H39 UNL A   1       3.827  -8.595  27.032  1.00  0.00    +0.000 H 
ATOM     86  C60 UNL A   1       4.235  -7.951  27.727  1.00  0.00    +0.000 C 
ATOM     87  C61 UNL A   1       3.947  -6.604  27.840  1.00  0.00    +0.000 C 
BRANCH    2    1
ATOM      1  C1  UNL A   1       6.140  -7.075  30.791  1.00  0.00    +0.000 C 
ATOM    106  H1  UNL A   1       6.283  -6.046  31.047  1.00  0.00    +0.000 H 
ATOM    107  H2  UNL A   1       7.092  -7.552  30.683  1.00  0.00    +0.000 H 
ATOM    108  H3  UNL A   1       5.584  -7.561  31.564  1.00  0.00    +0.000 H 
ENDBRANCH    2    1
BRANCH   87   88
ATOM     97  C68 UNL A   1       3.732  -4.659  26.309  1.00  0.00    +0.000 C 
ATOM    145  H40 UNL A   1       1.381  -6.918  27.082  1.00  0.00    +0.000 H 
ATOM    146  H41 UNL A   1       0.090  -5.560  25.536  1.00  0.00    +0.000 H 
ATOM    150  H45 UNL A   1       3.420  -3.041  24.984  1.00  0.00    +0.000 H 
ATOM    151  H46 UNL A   1       4.709  -4.404  26.525  1.00  0.00    +0.000 H 
ATOM     88  C62 UNL A   1       3.161  -5.790  26.904  1.00  0.00    +0.000 C 
ATOM     89  C63 UNL A   1       1.820  -6.102  26.626  1.00  0.00    +0.000 C 
ATOM     90  C64 UNL A   1       1.073  -5.322  25.740  1.00  0.00    +0.000 C 
ATOM     91  C65 UNL A   1       1.670  -4.215  25.133  1.00  0.00    +0.000 C 
ATOM     96  C67 UNL A   1       2.993  -3.872  25.423  1.00  0.00    +0.000 C 
BRANCH   91   92
ATOM     92  S1  UNL A   1       0.705  -3.204  24.036  1.00  0.00    +0.000 S 
ATOM     94  O5  UNL A   1       0.338  -4.021  22.908  1.00  0.00    +0.000 O 
ATOM     95  O6  UNL A   1      -0.313  -2.535  24.841  1.00  0.00    +0.000 O 
BRANCH   92   93
ATOM    149  H44 UNL A   1       1.328  -1.013  23.429  1.00  0.00    +0.000 H 
ATOM    147  H42 UNL A   1       2.211  -2.215  22.517  1.00  0.00    +0.000 H 
ATOM    148  H43 UNL A   1       2.650  -1.880  24.174  1.00  0.00    +0.000 H 
ATOM     93  C66 UNL A   1       1.836  -1.953  23.484  1.00  0.00    +0.000 C 
ENDBRANCH   92   93
ENDBRANCH   91   92
ENDBRANCH   87   88
BRANCH   98   99
ATOM     99  C69 UNL A   1       4.591  -4.788  29.430  1.00  0.00    +0.000 C 
ATOM    100  C70 UNL A   1       3.502  -4.392  30.219  1.00  0.00    +0.000 C 
ATOM    101  C71 UNL A   1       3.411  -3.073  30.668  1.00  0.00    +0.000 C 
ATOM    102  C72 UNL A   1       4.396  -2.151  30.315  1.00  0.00    +0.000 C 
ATOM    103  C73 UNL A   1       5.465  -2.554  29.520  1.00  0.00    +0.000 C 
ATOM    104  F16 UNL A   1       6.396  -1.659  29.167  1.00  0.00    +0.000 F 
ATOM    105  C74 UNL A   1       5.577  -3.866  29.072  1.00  0.00    +0.000 C 
ATOM    152  H47 UNL A   1       2.769  -5.075  30.469  1.00  0.00    +0.000 H 
ATOM    153  H48 UNL A   1       2.617  -2.782  31.258  1.00  0.00    +0.000 H 
ATOM    154  H49 UNL A   1       4.332  -1.175  30.642  1.00  0.00    +0.000 H 
ATOM    155  H50 UNL A   1       6.376  -4.153  28.484  1.00  0.00    +0.000 H 
ENDBRANCH   98   99
ENDBRANCH    4    3
ENDBRANCH    5    4
ENDBRANCH    7    5
ENDBRANCH    8    7
BRANCH    8    9
ATOM      9  C7  UNL A   1       8.857  -9.219  25.016  1.00  0.00    +0.000 C 
ATOM    114  H9  UNL A   1       9.476 -10.070  25.205  1.00  0.00    +0.000 H 
ATOM    113  H8  UNL A   1       8.871  -8.934  23.985  1.00  0.00    +0.000 H 
BRANCH    9   10
ATOM     10  O2  UNL A   1       9.371  -8.142  25.791  1.00  0.00    +0.000 O 
ATOM    115  H10 UNL A   1       9.829  -8.495  26.569  1.00  0.00    +0.000 H 
ENDBRANCH    9   10
ENDBRANCH    8    9
ENDBRANCH   11    8
ENDBRANCH   13   11
ENDBRANCH   14   13
ENDBRANCH   15   14
ENDBRANCH   16   15
ENDBRANCH   17   16
ENDBRANCH   18   17
ENDBRANCH   19   18
ENDBRANCH   20   19
ENDBRANCH   21   20
ENDBRANCH   23   21
ENDBRANCH   27   26
BRANCH   31   32
ATOM     33  C25 UNL A   1       4.592  -4.568  22.190  1.00  0.00    +0.000 C 
ATOM     34  F1  UNL A   1       4.380  -5.786  22.711  1.00  0.00    +0.000 F 
ATOM     35  C26 UNL A   1       3.703  -4.076  21.234  1.00  0.00    +0.000 C 
ATOM     36  F2  UNL A   1       2.640  -4.809  20.873  1.00  0.00    +0.000 F 
ATOM     37  C27 UNL A   1       3.912  -2.833  20.654  1.00  0.00    +0.000 C 
ATOM     38  F3  UNL A   1       3.077  -2.379  19.709  1.00  0.00    +0.000 F 
ATOM     39  C28 UNL A   1       4.965  -2.045  21.081  1.00  0.00    +0.000 C 
ATOM     40  F4  UNL A   1       5.164  -0.832  20.545  1.00  0.00    +0.000 F 
ATOM     41  C29 UNL A   1       5.811  -2.504  22.084  1.00  0.00    +0.000 C 
ATOM     42  F5  UNL A   1       6.727  -1.648  22.564  1.00  0.00    +0.000 F 
ATOM     32  C24 UNL A   1       5.685  -3.806  22.613  1.00  0.00    +0.000 C 
ENDBRANCH   31   32
BRANCH   48   49
ATOM     49  C35 UNL A   1       7.272   0.191  25.573  1.00  0.00    +0.000 C 
ATOM     50  C36 UNL A   1       7.708   0.805  24.374  1.00  0.00    +0.000 C 
ATOM     51  F6  UNL A   1       8.688   0.277  23.627  1.00  0.00    +0.000 F 
ATOM     52  C37 UNL A   1       7.122   1.980  23.895  1.00  0.00    +0.000 C 
ATOM     53  F7  UNL A   1       7.607   2.574  22.793  1.00  0.00    +0.000 F 
ATOM     54  C38 UNL A   1       6.041   2.536  24.552  1.00  0.00    +0.000 C 
ATOM     55  F8  UNL A   1       5.469   3.657  24.089  1.00  0.00    +0.000 F 
ATOM     56  C39 UNL A   1       5.543   1.917  25.684  1.00  0.00    +0.000 C 
ATOM     57  F9  UNL A   1       4.463   2.416  26.301  1.00  0.00    +0.000 F 
ATOM     58  C40 UNL A   1       6.158   0.775  26.192  1.00  0.00    +0.000 C 
ATOM     59  F10 UNL A   1       5.649   0.222  27.304  1.00  0.00    +0.000 F 
ENDBRANCH   48   49
BRANCH   63   64
ATOM     65  C45 UNL A   1      14.403   0.751  27.156  1.00  0.00    +0.000 C 
ATOM     66  F11 UNL A   1      14.901  -0.476  26.947  1.00  0.00    +0.000 F 
ATOM     67  C46 UNL A   1      15.365   1.717  27.503  1.00  0.00    +0.000 C 
ATOM     68  F12 UNL A   1      16.669   1.390  27.547  1.00  0.00    +0.000 F 
ATOM     69  C47 UNL A   1      14.983   3.018  27.719  1.00  0.00    +0.000 C 
ATOM     70  F13 UNL A   1      15.903   3.963  27.975  1.00  0.00    +0.000 F 
ATOM     71  C48 UNL A   1      13.635   3.332  27.627  1.00  0.00    +0.000 C 
ATOM     72  F14 UNL A   1      13.264   4.605  27.835  1.00  0.00    +0.000 F 
ATOM     73  C49 UNL A   1      12.665   2.365  27.246  1.00  0.00    +0.000 C 
ATOM     74  F15 UNL A   1      11.403   2.782  27.083  1.00  0.00    +0.000 F 
ATOM     64  C44 UNL A   1      13.004   1.038  26.947  1.00  0.00    +0.000 C 
ENDBRANCH   63   64
TORSDOF 26
ENDMDL
MODEL 8
REMARK VINA RESULT:      -6.9     60.644     66.793
ROOT
ATOM    132  H27 UNL A   1       8.278  34.994  -2.476  1.00  0.00    +0.000 H 
ATOM    133  H28 UNL A   1      10.732  34.303  -1.697  1.00  0.00    +0.000 H 
ATOM    134  H29 UNL A   1       9.195  31.441  -4.231  1.00  0.00    +0.000 H 
ATOM    135  H30 UNL A   1      13.208  29.082   2.055  1.00  0.00    +0.000 H 
ATOM    136  H31 UNL A   1      10.771  28.441   2.198  1.00  0.00    +0.000 H 
ATOM    137  H32 UNL A   1      10.998  31.960  -0.003  1.00  0.00    +0.000 H 
ATOM    138  H33 UNL A   1      13.593  34.389  -0.130  1.00  0.00    +0.000 H 
ATOM    139  H34 UNL A   1      12.869  34.579  -2.617  1.00  0.00    +0.000 H 
ATOM    140  H35 UNL A   1       6.693  34.066  -0.345  1.00  0.00    +0.000 H 
ATOM    141  H36 UNL A   1       8.582  33.381   1.281  1.00  0.00    +0.000 H 
ATOM     27  C20 UNL A   1       8.839  30.386   1.169  1.00  0.00    +0.000 C 
ATOM     28  C21 UNL A   1       8.257  31.393   0.229  1.00  0.00    +0.000 C 
ATOM     29  N4  UNL A   1       7.490  30.976  -0.743  1.00  0.00    +0.000 N 
ATOM     30  C22 UNL A   1       6.929  32.094  -1.311  1.00  0.00    +0.000 C 
ATOM     31  C23 UNL A   1       7.049  32.165  -2.668  1.00  0.00    +0.000 C 
ATOM     43  C30 UNL A   1       8.230  32.893  -3.043  1.00  0.00    +0.000 C 
ATOM     44  C31 UNL A   1       8.759  34.087  -2.591  1.00  0.00    +0.000 C 
ATOM     45  C32 UNL A   1      10.107  33.776  -2.326  1.00  0.00    +0.000 C 
ATOM     46  C33 UNL A   1      10.457  32.643  -3.048  1.00  0.00    +0.000 C 
ATOM     47  N5  UNL A   1       9.278  32.174  -3.577  1.00  0.00    +0.000 N 
ATOM     48  C34 UNL A   1      11.652  31.853  -3.164  1.00  0.00    +0.000 C 
ATOM     60  C41 UNL A   1      12.779  32.373  -2.620  1.00  0.00    +0.000 C 
ATOM     61  N6  UNL A   1      13.488  31.531  -1.826  1.00  0.00    +0.000 N 
ATOM     62  C42 UNL A   1      13.553  32.194  -0.712  1.00  0.00    +0.000 C 
ATOM     63  C43 UNL A   1      13.819  31.522   0.562  1.00  0.00    +0.000 C 
ATOM     75  C50 UNL A   1      12.622  30.887   0.916  1.00  0.00    +0.000 C 
ATOM     76  C51 UNL A   1      12.437  29.641   1.656  1.00  0.00    +0.000 C 
ATOM     77  C52 UNL A   1      11.115  29.307   1.753  1.00  0.00    +0.000 C 
ATOM     78  C53 UNL A   1      10.238  30.323   1.150  1.00  0.00    +0.000 C 
ATOM     79  N7  UNL A   1      11.237  31.201   0.578  1.00  0.00    +0.000 N 
ATOM     80  C54 UNL A   1      13.421  33.642  -0.821  1.00  0.00    +0.000 C 
ATOM     81  C55 UNL A   1      13.007  33.704  -2.088  1.00  0.00    +0.000 C 
ATOM     82  C56 UNL A   1       7.179  33.155  -0.339  1.00  0.00    +0.000 C 
ATOM     83  C57 UNL A   1       8.108  32.811   0.562  1.00  0.00    +0.000 C 
ENDROOT
BRANCH   27   26
ATOM    130  H25 UNL A   1       6.828  26.340   2.409  1.00  0.00    +0.000 H 
ATOM    131  H26 UNL A   1       8.010  27.798   0.899  1.00  0.00    +0.000 H 
ATOM    142  H37 UNL A   1       6.536  31.183   2.870  1.00  0.00    +0.000 H 
ATOM    143  H38 UNL A   1       5.103  29.698   4.200  1.00  0.00    +0.000 H 
ATOM     84  C58 UNL A   1       6.603  30.165   2.722  1.00  0.00    +0.000 C 
ATOM     85  C59 UNL A   1       5.767  29.279   3.530  1.00  0.00    +0.000 C 
ATOM     23  C16 UNL A   1       5.831  27.876   3.431  1.00  0.00    +0.000 C 
ATOM     24  C17 UNL A   1       6.709  27.363   2.495  1.00  0.00    +0.000 C 
ATOM     25  C18 UNL A   1       7.454  28.234   1.650  1.00  0.00    +0.000 C 
ATOM     26  C19 UNL A   1       7.497  29.676   1.749  1.00  0.00    +0.000 C 
BRANCH   23   21
ATOM     21  C15 UNL A   1       5.150  26.908   4.367  1.00  0.00    +0.000 C 
ATOM     22  O4  UNL A   1       5.823  26.153   5.065  1.00  0.00    +0.000 O 
BRANCH   21   20
ATOM    129  H24 UNL A   1       3.316  26.910   5.244  1.00  0.00    +0.000 H 
ATOM     20  N3  UNL A   1       3.769  26.786   4.378  1.00  0.00    +0.000 N 
BRANCH   20   19
ATOM     19  C14 UNL A   1       2.937  26.495   3.238  1.00  0.00    +0.000 C 
ATOM    127  H22 UNL A   1       3.423  25.734   2.662  1.00  0.00    +0.000 H 
ATOM    128  H23 UNL A   1       1.988  26.200   3.635  1.00  0.00    +0.000 H 
BRANCH   19   18
ATOM     18  C13 UNL A   1       2.649  27.682   2.304  1.00  0.00    +0.000 C 
ATOM    125  H20 UNL A   1       1.592  27.842   2.307  1.00  0.00    +0.000 H 
ATOM    126  H21 UNL A   1       3.238  28.485   2.697  1.00  0.00    +0.000 H 
BRANCH   18   17
ATOM     17  C12 UNL A   1       3.092  27.559   0.836  1.00  0.00    +0.000 C 
ATOM    123  H18 UNL A   1       3.550  26.599   0.717  1.00  0.00    +0.000 H 
ATOM    124  H19 UNL A   1       2.202  27.706   0.262  1.00  0.00    +0.000 H 
BRANCH   17   16
ATOM    121  H16 UNL A   1       4.258  29.308   1.113  1.00  0.00    +0.000 H 
ATOM    122  H17 UNL A   1       4.948  28.065   0.015  1.00  0.00    +0.000 H 
ATOM     16  C11 UNL A   1       4.080  28.611   0.321  1.00  0.00    +0.000 C 
BRANCH   16   15
ATOM    119  H14 UNL A   1       4.498  29.901  -1.316  1.00  0.00    +0.000 H 
ATOM     15  C10 UNL A   1       3.639  29.407  -0.913  1.00  0.00    +0.000 C 
ATOM    120  H15 UNL A   1       3.203  28.699  -1.587  1.00  0.00    +0.000 H 
BRANCH   15   14
ATOM    118  H13 UNL A   1       3.025  31.428  -0.688  1.00  0.00    +0.000 H 
ATOM    117  H12 UNL A   1       2.139  30.290   0.319  1.00  0.00    +0.000 H 
ATOM     14  C9  UNL A   1       2.568  30.462  -0.647  1.00  0.00    +0.000 C 
BRANCH   14   13
ATOM    116  H11 UNL A   1       1.065  29.541  -1.750  1.00  0.00    +0.000 H 
ATOM     13  N2  UNL A   1       1.521  30.407  -1.644  1.00  0.00    +0.000 N 
BRANCH   13   11
ATOM     11  C8  UNL A   1       1.094  31.422  -2.455  1.00  0.00    +0.000 C 
ATOM     12  O3  UNL A   1       1.712  31.581  -3.511  1.00  0.00    +0.000 O 
BRANCH   11    8
ATOM    112  H7  UNL A   1      -0.557  32.595  -3.057  1.00  0.00    +0.000 H 
ATOM      8  C6  UNL A   1      -0.155  32.273  -2.119  1.00  0.00    +0.000 C 
BRANCH    8    7
ATOM    111  H6  UNL A   1       0.312  33.344  -0.385  1.00  0.00    +0.000 H 
ATOM      7  N1  UNL A   1       0.177  33.480  -1.352  1.00  0.00    +0.000 N 
BRANCH    7    5
ATOM      5  C5  UNL A   1       0.327  34.762  -1.789  1.00  0.00    +0.000 C 
ATOM      6  O1  UNL A   1       0.796  35.580  -0.993  1.00  0.00    +0.000 O 
BRANCH    5    4
ATOM      4  C4  UNL A   1      -0.141  35.179  -3.172  1.00  0.00    +0.000 C 
ATOM    109  H4  UNL A   1      -0.629  34.343  -3.629  1.00  0.00    +0.000 H 
ATOM    110  H5  UNL A   1      -0.796  36.014  -3.040  1.00  0.00    +0.000 H 
BRANCH    4    3
ATOM      2  C2  UNL A   1       1.109  36.857  -4.717  1.00  0.00    +0.000 C 
ATOM      3  C3  UNL A   1       0.966  35.631  -4.075  1.00  0.00    +0.000 C 
ATOM     98  N8  UNL A   1       2.315  36.842  -5.417  1.00  0.00    +0.000 N 
ATOM    144  H39 UNL A   1       2.215  33.842  -4.214  1.00  0.00    +0.000 H 
ATOM     86  C60 UNL A   1       2.067  34.831  -4.471  1.00  0.00    +0.000 C 
ATOM     87  C61 UNL A   1       2.911  35.590  -5.259  1.00  0.00    +0.000 C 
BRANCH    2    1
ATOM      1  C1  UNL A   1       0.110  37.970  -4.784  1.00  0.00    +0.000 C 
ATOM    106  H1  UNL A   1       0.437  38.781  -4.166  1.00  0.00    +0.000 H 
ATOM    107  H2  UNL A   1      -0.839  37.619  -4.439  1.00  0.00    +0.000 H 
ATOM    108  H3  UNL A   1       0.019  38.306  -5.795  1.00  0.00    +0.000 H 
ENDBRANCH    2    1
BRANCH   87   88
ATOM     97  C68 UNL A   1       5.383  35.605  -5.007  1.00  0.00    +0.000 C 
ATOM    145  H40 UNL A   1       3.592  34.231  -7.484  1.00  0.00    +0.000 H 
ATOM    146  H41 UNL A   1       5.812  33.620  -8.256  1.00  0.00    +0.000 H 
ATOM    150  H45 UNL A   1       7.494  35.549  -4.911  1.00  0.00    +0.000 H 
ATOM    151  H46 UNL A   1       5.273  36.153  -4.140  1.00  0.00    +0.000 H 
ATOM     88  C62 UNL A   1       4.250  35.214  -5.731  1.00  0.00    +0.000 C 
ATOM     89  C63 UNL A   1       4.420  34.500  -6.928  1.00  0.00    +0.000 C 
ATOM     90  C64 UNL A   1       5.696  34.149  -7.378  1.00  0.00    +0.000 C 
ATOM     91  C65 UNL A   1       6.812  34.523  -6.626  1.00  0.00    +0.000 C 
ATOM     96  C67 UNL A   1       6.663  35.261  -5.450  1.00  0.00    +0.000 C 
BRANCH   91   92
ATOM     92  S1  UNL A   1       8.433  34.108  -7.221  1.00  0.00    +0.000 S 
ATOM     94  O5  UNL A   1       9.351  34.279  -6.124  1.00  0.00    +0.000 O 
ATOM     95  O6  UNL A   1       8.329  32.829  -7.919  1.00  0.00    +0.000 O 
BRANCH   92   93
ATOM    149  H44 UNL A   1       8.427  36.292  -8.107  1.00  0.00    +0.000 H 
ATOM    147  H42 UNL A   1       8.289  35.083  -9.361  1.00  0.00    +0.000 H 
ATOM    148  H43 UNL A   1       9.836  35.392  -8.613  1.00  0.00    +0.000 H 
ATOM     93  C66 UNL A   1       8.781  35.342  -8.447  1.00  0.00    +0.000 C 
ENDBRANCH   92   93
ENDBRANCH   91   92
ENDBRANCH   87   88
BRANCH   98   99
ATOM     99  C69 UNL A   1       2.841  37.900  -6.205  1.00  0.00    +0.000 C 
ATOM    100  C70 UNL A   1       3.604  38.905  -5.592  1.00  0.00    +0.000 C 
ATOM    101  C71 UNL A   1       4.090  39.970  -6.352  1.00  0.00    +0.000 C 
ATOM    102  C72 UNL A   1       3.800  40.039  -7.714  1.00  0.00    +0.000 C 
ATOM    103  C73 UNL A   1       3.031  39.042  -8.308  1.00  0.00    +0.000 C 
ATOM    104  F16 UNL A   1       2.738  39.126  -9.612  1.00  0.00    +0.000 F 
ATOM    105  C74 UNL A   1       2.547  37.969  -7.569  1.00  0.00    +0.000 C 
ATOM    152  H47 UNL A   1       3.807  38.856  -4.582  1.00  0.00    +0.000 H 
ATOM    153  H48 UNL A   1       4.661  40.704  -5.907  1.00  0.00    +0.000 H 
ATOM    154  H49 UNL A   1       4.155  40.826  -8.280  1.00  0.00    +0.000 H 
ATOM    155  H50 UNL A   1       1.978  37.235  -8.021  1.00  0.00    +0.000 H 
ENDBRANCH   98   99
ENDBRANCH    4    3
ENDBRANCH    5    4
ENDBRANCH    7    5
ENDBRANCH    8    7
BRANCH    8    9
ATOM      9  C7  UNL A   1      -1.233  31.446  -1.405  1.00  0.00    +0.000 C 
ATOM    114  H9  UNL A   1      -0.803  30.494  -1.173  1.00  0.00    +0.000 H 
ATOM    113  H8  UNL A   1      -1.537  31.972  -0.525  1.00  0.00    +0.000 H 
BRANCH    9   10
ATOM     10  O2  UNL A   1      -2.381  31.206  -2.210  1.00  0.00    +0.000 O 
ATOM    115  H10 UNL A   1      -2.262  30.380  -2.704  1.00  0.00    +0.000 H 
ENDBRANCH    9   10
ENDBRANCH    8    9
ENDBRANCH   11    8
ENDBRANCH   13   11
ENDBRANCH   14   13
ENDBRANCH   15   14
ENDBRANCH   16   15
ENDBRANCH   17   16
ENDBRANCH   18   17
ENDBRANCH   19   18
ENDBRANCH   20   19
ENDBRANCH   21   20
ENDBRANCH   23   21
ENDBRANCH   27   26
BRANCH   31   32
ATOM     33  C25 UNL A   1       5.359  31.015  -4.096  1.00  0.00    +0.000 C 
ATOM     34  F1  UNL A   1       4.758  32.201  -4.275  1.00  0.00    +0.000 F 
ATOM     35  C26 UNL A   1       4.776  29.871  -4.643  1.00  0.00    +0.000 C 
ATOM     36  F2  UNL A   1       3.648  29.975  -5.358  1.00  0.00    +0.000 F 
ATOM     37  C27 UNL A   1       5.358  28.627  -4.451  1.00  0.00    +0.000 C 
ATOM     38  F3  UNL A   1       4.777  27.525  -4.946  1.00  0.00    +0.000 F 
ATOM     39  C28 UNL A   1       6.562  28.529  -3.779  1.00  0.00    +0.000 C 
ATOM     40  F4  UNL A   1       7.147  27.334  -3.606  1.00  0.00    +0.000 F 
ATOM     41  C29 UNL A   1       7.180  29.676  -3.294  1.00  0.00    +0.000 C 
ATOM     42  F5  UNL A   1       8.413  29.547  -2.777  1.00  0.00    +0.000 F 
ATOM     32  C24 UNL A   1       6.558  30.939  -3.382  1.00  0.00    +0.000 C 
ENDBRANCH   31   32
BRANCH   48   49
ATOM     49  C35 UNL A   1      11.745  30.441  -3.706  1.00  0.00    +0.000 C 
ATOM     50  C36 UNL A   1      11.540  29.240  -2.985  1.00  0.00    +0.000 C 
ATOM     51  F6  UNL A   1      11.025  29.239  -1.747  1.00  0.00    +0.000 F 
ATOM     52  C37 UNL A   1      11.843  27.992  -3.536  1.00  0.00    +0.000 C 
ATOM     53  F7  UNL A   1      11.704  26.878  -2.799  1.00  0.00    +0.000 F 
ATOM     54  C38 UNL A   1      12.286  27.897  -4.842  1.00  0.00    +0.000 C 
ATOM     55  F8  UNL A   1      12.565  26.701  -5.377  1.00  0.00    +0.000 F 
ATOM     56  C39 UNL A   1      12.422  29.048  -5.597  1.00  0.00    +0.000 C 
ATOM     57  F9  UNL A   1      12.800  28.966  -6.880  1.00  0.00    +0.000 F 
ATOM     58  C40 UNL A   1      12.171  30.297  -5.033  1.00  0.00    +0.000 C 
ATOM     59  F10 UNL A   1      12.337  31.384  -5.801  1.00  0.00    +0.000 F 
ENDBRANCH   48   49
BRANCH   63   64
ATOM     65  C45 UNL A   1      16.333  30.907   0.157  1.00  0.00    +0.000 C 
ATOM     66  F11 UNL A   1      16.012  29.786  -0.505  1.00  0.00    +0.000 F 
ATOM     67  C46 UNL A   1      17.673  31.309   0.003  1.00  0.00    +0.000 C 
ATOM     68  F12 UNL A   1      18.500  30.618  -0.802  1.00  0.00    +0.000 F 
ATOM     69  C47 UNL A   1      18.118  32.456   0.613  1.00  0.00    +0.000 C 
ATOM     70  F13 UNL A   1      19.373  32.889   0.411  1.00  0.00    +0.000 F 
ATOM     71  C48 UNL A   1      17.230  33.167   1.405  1.00  0.00    +0.000 C 
ATOM     72  F14 UNL A   1      17.666  34.291   1.997  1.00  0.00    +0.000 F 
ATOM     73  C49 UNL A   1      15.868  32.781   1.536  1.00  0.00    +0.000 C 
ATOM     74  F15 UNL A   1      15.059  33.585   2.238  1.00  0.00    +0.000 F 
ATOM     64  C44 UNL A   1      15.339  31.659   0.884  1.00  0.00    +0.000 C 
ENDBRANCH   63   64
TORSDOF 26
ENDMDL
MODEL 9
REMARK VINA RESULT:      -6.8     38.266     45.851
ROOT
ATOM    132  H27 UNL A   1      47.740  55.024  15.803  1.00  0.00    +0.000 H 
ATOM    133  H28 UNL A   1      48.884  54.214  18.071  1.00  0.00    +0.000 H 
ATOM    134  H29 UNL A   1      50.313  52.008  14.898  1.00  0.00    +0.000 H 
ATOM    135  H30 UNL A   1      48.722  48.299  21.599  1.00  0.00    +0.000 H 
ATOM    136  H31 UNL A   1      47.165  47.597  19.741  1.00  0.00    +0.000 H 
ATOM    137  H32 UNL A   1      48.258  51.541  19.016  1.00  0.00    +0.000 H 
ATOM    138  H33 UNL A   1      49.561  53.979  21.254  1.00  0.00    +0.000 H 
ATOM    139  H34 UNL A   1      50.891  54.741  19.158  1.00  0.00    +0.000 H 
ATOM    140  H35 UNL A   1      45.321  53.587  15.810  1.00  0.00    +0.000 H 
ATOM    141  H36 UNL A   1      45.474  52.571  18.182  1.00  0.00    +0.000 H 
ATOM     27  C20 UNL A   1      46.301  49.694  17.889  1.00  0.00    +0.000 C 
ATOM     28  C21 UNL A   1      46.424  50.884  16.992  1.00  0.00    +0.000 C 
ATOM     29  N4  UNL A   1      46.727  50.696  15.735  1.00  0.00    +0.000 N 
ATOM     30  C22 UNL A   1      46.567  51.906  15.105  1.00  0.00    +0.000 C 
ATOM     31  C23 UNL A   1      47.632  52.299  14.349  1.00  0.00    +0.000 C 
ATOM     43  C30 UNL A   1      48.532  53.118  15.116  1.00  0.00    +0.000 C 
ATOM     44  C31 UNL A   1      48.310  54.180  15.971  1.00  0.00    +0.000 C 
ATOM     45  C32 UNL A   1      49.046  53.840  17.123  1.00  0.00    +0.000 C 
ATOM     46  C33 UNL A   1      50.024  52.918  16.776  1.00  0.00    +0.000 C 
ATOM     47  N5  UNL A   1      49.743  52.565  15.477  1.00  0.00    +0.000 N 
ATOM     48  C34 UNL A   1      51.035  52.200  17.504  1.00  0.00    +0.000 C 
ATOM     60  C41 UNL A   1      51.261  52.597  18.779  1.00  0.00    +0.000 C 
ATOM     61  N6  UNL A   1      51.295  51.604  19.704  1.00  0.00    +0.000 N 
ATOM     62  C42 UNL A   1      50.387  51.985  20.550  1.00  0.00    +0.000 C 
ATOM     63  C43 UNL A   1      49.749  51.034  21.463  1.00  0.00    +0.000 C 
ATOM     75  C50 UNL A   1      48.836  50.312  20.685  1.00  0.00    +0.000 C 
ATOM     76  C51 UNL A   1      48.411  48.922  20.837  1.00  0.00    +0.000 C 
ATOM     77  C52 UNL A   1      47.549  48.549  19.843  1.00  0.00    +0.000 C 
ATOM     78  C53 UNL A   1      47.231  49.663  18.935  1.00  0.00    +0.000 C 
ATOM     79  N7  UNL A   1      48.130  50.671  19.459  1.00  0.00    +0.000 N 
ATOM     80  C54 UNL A   1      50.103  53.414  20.582  1.00  0.00    +0.000 C 
ATOM     81  C55 UNL A   1      50.759  53.768  19.475  1.00  0.00    +0.000 C 
ATOM     82  C56 UNL A   1      45.806  52.710  16.057  1.00  0.00    +0.000 C 
ATOM     83  C57 UNL A   1      45.808  52.180  17.288  1.00  0.00    +0.000 C 
ENDROOT
BRANCH   27   26
ATOM    130  H25 UNL A   1      44.794  45.421  16.696  1.00  0.00    +0.000 H 
ATOM    131  H26 UNL A   1      46.432  47.182  16.825  1.00  0.00    +0.000 H 
ATOM    142  H37 UNL A   1      43.429  50.070  17.223  1.00  0.00    +0.000 H 
ATOM    143  H38 UNL A   1      41.775  48.309  16.783  1.00  0.00    +0.000 H 
ATOM     84  C58 UNL A   1      43.758  49.102  17.085  1.00  0.00    +0.000 C 
ATOM     85  C59 UNL A   1      42.772  48.049  16.846  1.00  0.00    +0.000 C 
ATOM     23  C16 UNL A   1      43.129  46.696  16.699  1.00  0.00    +0.000 C 
ATOM     24  C17 UNL A   1      44.479  46.403  16.756  1.00  0.00    +0.000 C 
ATOM     25  C18 UNL A   1      45.438  47.446  16.898  1.00  0.00    +0.000 C 
ATOM     26  C19 UNL A   1      45.142  48.842  17.133  1.00  0.00    +0.000 C 
BRANCH   23   21
ATOM     21  C15 UNL A   1      42.157  45.542  16.653  1.00  0.00    +0.000 C 
ATOM     22  O4  UNL A   1      41.203  45.575  15.879  1.00  0.00    +0.000 O 
BRANCH   21   20
ATOM    129  H24 UNL A   1      42.492  43.604  17.168  1.00  0.00    +0.000 H 
ATOM     20  N3  UNL A   1      42.267  44.486  17.544  1.00  0.00    +0.000 N 
BRANCH   20   19
ATOM     19  C14 UNL A   1      42.083  44.563  18.972  1.00  0.00    +0.000 C 
ATOM    127  H22 UNL A   1      42.759  45.300  19.352  1.00  0.00    +0.000 H 
ATOM    128  H23 UNL A   1      41.051  44.803  19.121  1.00  0.00    +0.000 H 
BRANCH   19   18
ATOM     18  C13 UNL A   1      42.325  43.256  19.745  1.00  0.00    +0.000 C 
ATOM    125  H20 UNL A   1      41.413  42.699  19.725  1.00  0.00    +0.000 H 
ATOM    126  H21 UNL A   1      43.156  42.797  19.249  1.00  0.00    +0.000 H 
BRANCH   18   17
ATOM     17  C12 UNL A   1      42.764  43.368  21.215  1.00  0.00    +0.000 C 
ATOM    123  H18 UNL A   1      43.527  42.635  21.380  1.00  0.00    +0.000 H 
ATOM    124  H19 UNL A   1      43.083  44.382  21.335  1.00  0.00    +0.000 H 
BRANCH   17   16
ATOM    121  H16 UNL A   1      41.132  44.072  22.370  1.00  0.00    +0.000 H 
ATOM    122  H17 UNL A   1      41.099  42.328  21.936  1.00  0.00    +0.000 H 
ATOM     16  C11 UNL A   1      41.681  43.158  22.279  1.00  0.00    +0.000 C 
BRANCH   16   15
ATOM    119  H14 UNL A   1      43.243  42.744  23.660  1.00  0.00    +0.000 H 
ATOM     15  C10 UNL A   1      42.173  42.765  23.677  1.00  0.00    +0.000 C 
ATOM    120  H15 UNL A   1      41.775  43.493  24.352  1.00  0.00    +0.000 H 
BRANCH   15   14
ATOM    118  H13 UNL A   1      42.042  40.651  23.505  1.00  0.00    +0.000 H 
ATOM    117  H12 UNL A   1      40.611  41.409  24.193  1.00  0.00    +0.000 H 
ATOM     14  C9  UNL A   1      41.681  41.407  24.172  1.00  0.00    +0.000 C 
BRANCH   14   13
ATOM    116  H11 UNL A   1      43.139  41.281  25.649  1.00  0.00    +0.000 H 
ATOM     13  N2  UNL A   1      42.178  41.123  25.500  1.00  0.00    +0.000 N 
BRANCH   13   11
ATOM     11  C8  UNL A   1      41.466  40.661  26.571  1.00  0.00    +0.000 C 
ATOM     12  O3  UNL A   1      40.294  41.038  26.659  1.00  0.00    +0.000 O 
BRANCH   11    8
ATOM    112  H7  UNL A   1      41.335  38.863  27.674  1.00  0.00    +0.000 H 
ATOM      8  C6  UNL A   1      42.060  39.645  27.577  1.00  0.00    +0.000 C 
BRANCH    8    7
ATOM    111  H6  UNL A   1      41.433  40.367  29.436  1.00  0.00    +0.000 H 
ATOM      7  N1  UNL A   1      42.255  40.224  28.913  1.00  0.00    +0.000 N 
BRANCH    7    5
ATOM      5  C5  UNL A   1      43.413  40.591  29.529  1.00  0.00    +0.000 C 
ATOM      6  O1  UNL A   1      43.939  39.767  30.281  1.00  0.00    +0.000 O 
BRANCH    5    4
ATOM      4  C4  UNL A   1      43.987  41.986  29.356  1.00  0.00    +0.000 C 
ATOM    109  H4  UNL A   1      43.177  42.663  29.176  1.00  0.00    +0.000 H 
ATOM    110  H5  UNL A   1      44.521  42.216  30.255  1.00  0.00    +0.000 H 
BRANCH    4    3
ATOM      2  C2  UNL A   1      46.254  41.595  28.144  1.00  0.00    +0.000 C 
ATOM      3  C3  UNL A   1      44.962  42.105  28.226  1.00  0.00    +0.000 C 
ATOM     98  N8  UNL A   1      46.769  41.917  26.888  1.00  0.00    +0.000 N 
ATOM    144  H39 UNL A   1      43.883  43.373  26.810  1.00  0.00    +0.000 H 
ATOM     86  C60 UNL A   1      44.729  42.824  27.027  1.00  0.00    +0.000 C 
ATOM     87  C61 UNL A   1      45.822  42.671  26.194  1.00  0.00    +0.000 C 
BRANCH    2    1
ATOM      1  C1  UNL A   1      47.041  40.934  29.232  1.00  0.00    +0.000 C 
ATOM    106  H1  UNL A   1      47.073  39.878  29.059  1.00  0.00    +0.000 H 
ATOM    107  H2  UNL A   1      46.576  41.126  30.177  1.00  0.00    +0.000 H 
ATOM    108  H3  UNL A   1      48.036  41.325  29.240  1.00  0.00    +0.000 H 
ENDBRANCH    2    1
BRANCH   87   88
ATOM     97  C68 UNL A   1      45.821  42.149  23.765  1.00  0.00    +0.000 C 
ATOM    145  H40 UNL A   1      46.283  45.137  25.211  1.00  0.00    +0.000 H 
ATOM    146  H41 UNL A   1      46.458  45.824  22.888  1.00  0.00    +0.000 H 
ATOM    150  H45 UNL A   1      45.845  41.837  21.674  1.00  0.00    +0.000 H 
ATOM    151  H46 UNL A   1      45.665  41.156  23.997  1.00  0.00    +0.000 H 
ATOM     88  C62 UNL A   1      45.926  43.095  24.792  1.00  0.00    +0.000 C 
ATOM     89  C63 UNL A   1      46.175  44.437  24.460  1.00  0.00    +0.000 C 
ATOM     90  C64 UNL A   1      46.281  44.836  23.124  1.00  0.00    +0.000 C 
ATOM     91  C65 UNL A   1      46.143  43.882  22.113  1.00  0.00    +0.000 C 
ATOM     96  C67 UNL A   1      45.927  42.538  22.427  1.00  0.00    +0.000 C 
BRANCH   91   92
ATOM     92  S1  UNL A   1      46.315  44.387  20.419  1.00  0.00    +0.000 S 
ATOM     94  O5  UNL A   1      46.181  43.208  19.602  1.00  0.00    +0.000 O 
ATOM     95  O6  UNL A   1      45.444  45.542  20.216  1.00  0.00    +0.000 O 
BRANCH   92   93
ATOM    149  H44 UNL A   1      48.285  45.390  21.239  1.00  0.00    +0.000 H 
ATOM    147  H42 UNL A   1      48.050  45.716  19.539  1.00  0.00    +0.000 H 
ATOM    148  H43 UNL A   1      48.632  44.153  20.055  1.00  0.00    +0.000 H 
ATOM     93  C66 UNL A   1      47.986  44.969  20.302  1.00  0.00    +0.000 C 
ENDBRANCH   92   93
ENDBRANCH   91   92
ENDBRANCH   87   88
BRANCH   98   99
ATOM     99  C69 UNL A   1      48.059  41.580  26.399  1.00  0.00    +0.000 C 
ATOM    100  C70 UNL A   1      49.078  42.544  26.413  1.00  0.00    +0.000 C 
ATOM    101  C71 UNL A   1      50.336  42.233  25.896  1.00  0.00    +0.000 C 
ATOM    102  C72 UNL A   1      50.570  40.971  25.352  1.00  0.00    +0.000 C 
ATOM    103  C73 UNL A   1      49.547  40.027  25.332  1.00  0.00    +0.000 C 
ATOM    104  F16 UNL A   1      49.772  38.824  24.788  1.00  0.00    +0.000 F 
ATOM    105  C74 UNL A   1      48.290  40.316  25.851  1.00  0.00    +0.000 C 
ATOM    152  H47 UNL A   1      48.897  43.480  26.807  1.00  0.00    +0.000 H 
ATOM    153  H48 UNL A   1      51.090  42.936  25.916  1.00  0.00    +0.000 H 
ATOM    154  H49 UNL A   1      51.498  40.737  24.966  1.00  0.00    +0.000 H 
ATOM    155  H50 UNL A   1      47.540  39.607  25.832  1.00  0.00    +0.000 H 
ENDBRANCH   98   99
ENDBRANCH    4    3
ENDBRANCH    5    4
ENDBRANCH    7    5
ENDBRANCH    8    7
BRANCH    8    9
ATOM      9  C7  UNL A   1      43.360  39.018  27.054  1.00  0.00    +0.000 C 
ATOM    114  H9  UNL A   1      43.651  39.568  26.184  1.00  0.00    +0.000 H 
ATOM    113  H8  UNL A   1      44.098  39.071  27.827  1.00  0.00    +0.000 H 
BRANCH    9   10
ATOM     10  O2  UNL A   1      43.210  37.658  26.664  1.00  0.00    +0.000 O 
ATOM    115  H10 UNL A   1      43.415  37.082  27.417  1.00  0.00    +0.000 H 
ENDBRANCH    9   10
ENDBRANCH    8    9
ENDBRANCH   11    8
ENDBRANCH   13   11
ENDBRANCH   14   13
ENDBRANCH   15   14
ENDBRANCH   16   15
ENDBRANCH   17   16
ENDBRANCH   18   17
ENDBRANCH   19   18
ENDBRANCH   20   19
ENDBRANCH   21   20
ENDBRANCH   23   21
ENDBRANCH   27   26
BRANCH   31   32
ATOM     33  C25 UNL A   1      47.734  51.444  12.010  1.00  0.00    +0.000 C 
ATOM     34  F1  UNL A   1      47.167  52.590  11.605  1.00  0.00    +0.000 F 
ATOM     35  C26 UNL A   1      47.983  50.443  11.069  1.00  0.00    +0.000 C 
ATOM     36  F2  UNL A   1      47.681  50.649   9.780  1.00  0.00    +0.000 F 
ATOM     37  C27 UNL A   1      48.541  49.235  11.462  1.00  0.00    +0.000 C 
ATOM     38  F3  UNL A   1      48.745  48.261  10.563  1.00  0.00    +0.000 F 
ATOM     39  C28 UNL A   1      48.923  49.050  12.777  1.00  0.00    +0.000 C 
ATOM     40  F4  UNL A   1      49.485  47.895  13.165  1.00  0.00    +0.000 F 
ATOM     41  C29 UNL A   1      48.741  50.073  13.701  1.00  0.00    +0.000 C 
ATOM     42  F5  UNL A   1      49.257  49.901  14.929  1.00  0.00    +0.000 F 
ATOM     32  C24 UNL A   1      48.079  51.269  13.353  1.00  0.00    +0.000 C 
ENDBRANCH   31   32
BRANCH   48   49
ATOM     49  C35 UNL A   1      51.767  50.959  17.035  1.00  0.00    +0.000 C 
ATOM     50  C36 UNL A   1      51.354  49.616  17.203  1.00  0.00    +0.000 C 
ATOM     51  F6  UNL A   1      50.124  49.304  17.635  1.00  0.00    +0.000 F 
ATOM     52  C37 UNL A   1      52.200  48.544  16.905  1.00  0.00    +0.000 C 
ATOM     53  F7  UNL A   1      51.803  47.285  17.144  1.00  0.00    +0.000 F 
ATOM     54  C38 UNL A   1      53.451  48.776  16.363  1.00  0.00    +0.000 C 
ATOM     55  F8  UNL A   1      54.260  47.750  16.065  1.00  0.00    +0.000 F 
ATOM     56  C39 UNL A   1      53.852  50.076  16.115  1.00  0.00    +0.000 C 
ATOM     57  F9  UNL A   1      55.040  50.313  15.541  1.00  0.00    +0.000 F 
ATOM     58  C40 UNL A   1      53.031  51.147  16.459  1.00  0.00    +0.000 C 
ATOM     59  F10 UNL A   1      53.474  52.390  16.217  1.00  0.00    +0.000 F 
ENDBRANCH   48   49
BRANCH   63   64
ATOM     65  C45 UNL A   1      51.761  50.517  23.058  1.00  0.00    +0.000 C 
ATOM     66  F11 UNL A   1      52.211  49.533  22.267  1.00  0.00    +0.000 F 
ATOM     67  C46 UNL A   1      52.683  50.948  24.030  1.00  0.00    +0.000 C 
ATOM     68  F12 UNL A   1      53.919  50.419  24.074  1.00  0.00    +0.000 F 
ATOM     69  C47 UNL A   1      52.349  51.968  24.887  1.00  0.00    +0.000 C 
ATOM     70  F13 UNL A   1      53.248  52.437  25.766  1.00  0.00    +0.000 F 
ATOM     71  C48 UNL A   1      51.080  52.519  24.791  1.00  0.00    +0.000 C 
ATOM     72  F14 UNL A   1      50.757  53.519  25.626  1.00  0.00    +0.000 F 
ATOM     73  C49 UNL A   1      50.159  52.108  23.789  1.00  0.00    +0.000 C 
ATOM     74  F15 UNL A   1      48.996  52.767  23.707  1.00  0.00    +0.000 F 
ATOM     64  C44 UNL A   1      50.467  51.119  22.844  1.00  0.00    +0.000 C 
ENDBRANCH   63   64
TORSDOF 26
ENDMDL
MODEL 10
REMARK VINA RESULT:      -6.8     41.952     46.644
ROOT
ATOM    132  H27 UNL A   1      10.760  -6.040  24.260  1.00  0.00    +0.000 H 
ATOM    133  H28 UNL A   1      11.567  -3.874  25.589  1.00  0.00    +0.000 H 
ATOM    134  H29 UNL A   1       7.530  -3.629  24.804  1.00  0.00    +0.000 H 
ATOM    135  H30 UNL A   1      11.883   2.817  23.981  1.00  0.00    +0.000 H 
ATOM    136  H31 UNL A   1      10.971   2.008  21.772  1.00  0.00    +0.000 H 
ATOM    137  H32 UNL A   1      11.497  -1.331  24.191  1.00  0.00    +0.000 H 
ATOM    138  H33 UNL A   1      13.542  -1.741  27.071  1.00  0.00    +0.000 H 
ATOM    139  H34 UNL A   1      11.595  -3.273  27.853  1.00  0.00    +0.000 H 
ATOM    140  H35 UNL A   1      11.393  -5.376  21.600  1.00  0.00    +0.000 H 
ATOM    141  H36 UNL A   1      12.695  -3.186  22.040  1.00  0.00    +0.000 H 
ATOM     27  C20 UNL A   1      10.869  -0.891  21.376  1.00  0.00    +0.000 C 
ATOM     28  C21 UNL A   1      10.617  -2.326  21.715  1.00  0.00    +0.000 C 
ATOM     29  N4  UNL A   1       9.434  -2.829  21.485  1.00  0.00    +0.000 N 
ATOM     30  C22 UNL A   1       9.536  -4.185  21.681  1.00  0.00    +0.000 C 
ATOM     31  C23 UNL A   1       8.587  -4.713  22.507  1.00  0.00    +0.000 C 
ATOM     43  C30 UNL A   1       9.052  -4.750  23.867  1.00  0.00    +0.000 C 
ATOM     44  C31 UNL A   1      10.251  -5.156  24.421  1.00  0.00    +0.000 C 
ATOM     45  C32 UNL A   1      10.612  -4.082  25.257  1.00  0.00    +0.000 C 
ATOM     46  C33 UNL A   1       9.475  -3.346  25.562  1.00  0.00    +0.000 C 
ATOM     47  N5  UNL A   1       8.487  -3.860  24.756  1.00  0.00    +0.000 N 
ATOM     48  C34 UNL A   1       9.220  -2.157  26.328  1.00  0.00    +0.000 C 
ATOM     60  C41 UNL A   1      10.237  -1.703  27.100  1.00  0.00    +0.000 C 
ATOM     61  N6  UNL A   1      10.511  -0.378  26.988  1.00  0.00    +0.000 N 
ATOM     62  C42 UNL A   1      11.768  -0.384  26.664  1.00  0.00    +0.000 C 
ATOM     63  C43 UNL A   1      12.390   0.765  26.002  1.00  0.00    +0.000 C 
ATOM     75  C50 UNL A   1      11.963   0.715  24.669  1.00  0.00    +0.000 C 
ATOM     76  C51 UNL A   1      11.719   1.825  23.750  1.00  0.00    +0.000 C 
ATOM     77  C52 UNL A   1      11.247   1.384  22.545  1.00  0.00    +0.000 C 
ATOM     78  C53 UNL A   1      11.179  -0.085  22.477  1.00  0.00    +0.000 C 
ATOM     79  N7  UNL A   1      11.538  -0.411  23.842  1.00  0.00    +0.000 N 
ATOM     80  C54 UNL A   1      12.526  -1.563  27.063  1.00  0.00    +0.000 C 
ATOM     81  C55 UNL A   1      11.501  -2.342  27.416  1.00  0.00    +0.000 C 
ATOM     82  C56 UNL A   1      10.974  -4.438  21.701  1.00  0.00    +0.000 C 
ATOM     83  C57 UNL A   1      11.687  -3.316  21.863  1.00  0.00    +0.000 C 
ENDROOT
BRANCH   27   26
ATOM    130  H25 UNL A   1       8.011   0.753  18.046  1.00  0.00    +0.000 H 
ATOM    131  H26 UNL A   1       8.498  -0.351  20.131  1.00  0.00    +0.000 H 
ATOM    142  H37 UNL A   1      12.371  -1.276  18.840  1.00  0.00    +0.000 H 
ATOM    143  H38 UNL A   1      11.759  -0.423  16.621  1.00  0.00    +0.000 H 
ATOM     84  C58 UNL A   1      11.427  -0.882  18.702  1.00  0.00    +0.000 C 
ATOM     85  C59 UNL A   1      11.071  -0.353  17.387  1.00  0.00    +0.000 C 
ATOM     23  C16 UNL A   1       9.825   0.248  17.124  1.00  0.00    +0.000 C 
ATOM     24  C17 UNL A   1       8.924   0.285  18.171  1.00  0.00    +0.000 C 
ATOM     25  C18 UNL A   1       9.246  -0.313  19.422  1.00  0.00    +0.000 C 
ATOM     26  C19 UNL A   1      10.529  -0.875  19.786  1.00  0.00    +0.000 C 
BRANCH   23   21
ATOM     21  C15 UNL A   1       9.469   0.989  15.858  1.00  0.00    +0.000 C 
ATOM     22  O4  UNL A   1      10.280   1.053  14.937  1.00  0.00    +0.000 O 
BRANCH   21   20
ATOM    129  H24 UNL A   1       7.512   1.211  15.356  1.00  0.00    +0.000 H 
ATOM     20  N3  UNL A   1       8.275   1.686  15.757  1.00  0.00    +0.000 N 
BRANCH   20   19
ATOM     19  C14 UNL A   1       8.051   3.044  16.186  1.00  0.00    +0.000 C 
ATOM    127  H22 UNL A   1       7.685   3.598  15.347  1.00  0.00    +0.000 H 
ATOM    128  H23 UNL A   1       7.360   2.983  17.001  1.00  0.00    +0.000 H 
BRANCH   19   18
ATOM     18  C13 UNL A   1       9.284   3.780  16.736  1.00  0.00    +0.000 C 
ATOM    125  H20 UNL A   1      10.090   3.079  16.761  1.00  0.00    +0.000 H 
ATOM    126  H21 UNL A   1       9.418   4.614  16.078  1.00  0.00    +0.000 H 
BRANCH   18   17
ATOM     17  C12 UNL A   1       9.175   4.406  18.137  1.00  0.00    +0.000 C 
ATOM    123  H18 UNL A   1       9.644   5.367  18.099  1.00  0.00    +0.000 H 
ATOM    124  H19 UNL A   1       8.127   4.426  18.354  1.00  0.00    +0.000 H 
BRANCH   17   16
ATOM    121  H16 UNL A   1       9.667   2.583  19.103  1.00  0.00    +0.000 H 
ATOM    122  H17 UNL A   1      10.834   3.933  19.319  1.00  0.00    +0.000 H 
ATOM     16  C11 UNL A   1       9.809   3.627  19.295  1.00  0.00    +0.000 C 
BRANCH   16   15
ATOM    119  H14 UNL A   1      10.084   3.998  21.370  1.00  0.00    +0.000 H 
ATOM     15  C10 UNL A   1       9.258   3.926  20.694  1.00  0.00    +0.000 C 
ATOM    120  H15 UNL A   1       8.700   4.835  20.609  1.00  0.00    +0.000 H 
BRANCH   15   14
ATOM    118  H13 UNL A   1       8.708   2.462  22.132  1.00  0.00    +0.000 H 
ATOM    117  H12 UNL A   1       8.146   2.116  20.501  1.00  0.00    +0.000 H 
ATOM     14  C9  UNL A   1       8.290   2.878  21.239  1.00  0.00    +0.000 C 
BRANCH   14   13
ATOM    116  H11 UNL A   1       6.218   3.037  21.167  1.00  0.00    +0.000 H 
ATOM     13  N2  UNL A   1       7.010   3.468  21.563  1.00  0.00    +0.000 N 
BRANCH   13   11
ATOM     11  C8  UNL A   1       6.775   4.556  22.357  1.00  0.00    +0.000 C 
ATOM     12  O3  UNL A   1       7.338   4.570  23.455  1.00  0.00    +0.000 O 
BRANCH   11    8
ATOM    112  H7  UNL A   1       6.230   5.957  20.873  1.00  0.00    +0.000 H 
ATOM      8  C6  UNL A   1       5.922   5.756  21.878  1.00  0.00    +0.000 C 
BRANCH    8    7
ATOM    111  H6  UNL A   1       5.734   7.007  23.542  1.00  0.00    +0.000 H 
ATOM      7  N1  UNL A   1       6.173   6.973  22.661  1.00  0.00    +0.000 N 
BRANCH    7    5
ATOM      5  C5  UNL A   1       6.929   8.060  22.340  1.00  0.00    +0.000 C 
ATOM      6  O1  UNL A   1       6.390   8.948  21.674  1.00  0.00    +0.000 O 
BRANCH    5    4
ATOM      4  C4  UNL A   1       8.397   8.136  22.721  1.00  0.00    +0.000 C 
ATOM    109  H4  UNL A   1       8.518   8.920  23.440  1.00  0.00    +0.000 H 
ATOM    110  H5  UNL A   1       8.667   7.177  23.111  1.00  0.00    +0.000 H 
BRANCH    4    3
ATOM      2  C2  UNL A   1      10.074   9.546  21.321  1.00  0.00    +0.000 C 
ATOM      3  C3  UNL A   1       9.310   8.409  21.566  1.00  0.00    +0.000 C 
ATOM     98  N8  UNL A   1      10.801   9.336  20.150  1.00  0.00    +0.000 N 
ATOM    144  H39 UNL A   1       9.040   6.630  20.326  1.00  0.00    +0.000 H 
ATOM     86  C60 UNL A   1       9.517   7.533  20.471  1.00  0.00    +0.000 C 
ATOM     87  C61 UNL A   1      10.462   8.087  19.628  1.00  0.00    +0.000 C 
BRANCH    2    1
ATOM      1  C1  UNL A   1      10.048  10.839  22.075  1.00  0.00    +0.000 C 
ATOM    106  H1  UNL A   1       9.216  11.427  21.746  1.00  0.00    +0.000 H 
ATOM    107  H2  UNL A   1      10.957  11.375  21.894  1.00  0.00    +0.000 H 
ATOM    108  H3  UNL A   1       9.954  10.640  23.121  1.00  0.00    +0.000 H 
ENDBRANCH    2    1
BRANCH   87   88
ATOM     97  C68 UNL A   1      12.233   6.635  18.662  1.00  0.00    +0.000 C 
ATOM    145  H40 UNL A   1       9.804   8.258  17.021  1.00  0.00    +0.000 H 
ATOM    146  H41 UNL A   1      10.874   7.184  15.123  1.00  0.00    +0.000 H 
ATOM    150  H45 UNL A   1      13.687   5.425  17.718  1.00  0.00    +0.000 H 
ATOM    151  H46 UNL A   1      12.611   6.497  19.612  1.00  0.00    +0.000 H 
ATOM     88  C62 UNL A   1      11.101   7.438  18.475  1.00  0.00    +0.000 C 
ATOM     89  C63 UNL A   1      10.621   7.645  17.172  1.00  0.00    +0.000 C 
ATOM     90  C64 UNL A   1      11.236   7.031  16.077  1.00  0.00    +0.000 C 
ATOM     91  C65 UNL A   1      12.345   6.210  16.288  1.00  0.00    +0.000 C 
ATOM     96  C67 UNL A   1      12.855   6.019  17.574  1.00  0.00    +0.000 C 
BRANCH   91   92
ATOM     92  S1  UNL A   1      13.145   5.462  14.890  1.00  0.00    +0.000 S 
ATOM     94  O5  UNL A   1      13.107   6.414  13.810  1.00  0.00    +0.000 O 
ATOM     95  O6  UNL A   1      14.414   4.909  15.356  1.00  0.00    +0.000 O 
BRANCH   92   93
ATOM    149  H44 UNL A   1      11.385   4.396  13.740  1.00  0.00    +0.000 H 
ATOM    147  H42 UNL A   1      11.599   3.744  15.347  1.00  0.00    +0.000 H 
ATOM    148  H43 UNL A   1      12.702   3.298  14.069  1.00  0.00    +0.000 H 
ATOM     93  C66 UNL A   1      12.104   4.089  14.469  1.00  0.00    +0.000 C 
ENDBRANCH   92   93
ENDBRANCH   91   92
ENDBRANCH   87   88
BRANCH   98   99
ATOM     99  C69 UNL A   1      11.707  10.250  19.548  1.00  0.00    +0.000 C 
ATOM    100  C70 UNL A   1      13.048  10.267  19.958  1.00  0.00    +0.000 C 
ATOM    101  C71 UNL A   1      13.934  11.190  19.402  1.00  0.00    +0.000 C 
ATOM    102  C72 UNL A   1      13.478  12.104  18.453  1.00  0.00    +0.000 C 
ATOM    103  C73 UNL A   1      12.142  12.086  18.063  1.00  0.00    +0.000 C 
ATOM    104  F16 UNL A   1      11.705  12.980  17.167  1.00  0.00    +0.000 F 
ATOM    105  C74 UNL A   1      11.247  11.167  18.600  1.00  0.00    +0.000 C 
ATOM    152  H47 UNL A   1      13.379   9.596  20.670  1.00  0.00    +0.000 H 
ATOM    153  H48 UNL A   1      14.923  11.197  19.693  1.00  0.00    +0.000 H 
ATOM    154  H49 UNL A   1      14.129  12.790  18.040  1.00  0.00    +0.000 H 
ATOM    155  H50 UNL A   1      10.258  11.162  18.302  1.00  0.00    +0.000 H 
ENDBRANCH   98   99
ENDBRANCH    4    3
ENDBRANCH    5    4
ENDBRANCH    7    5
ENDBRANCH    8    7
BRANCH    8    9
ATOM      9  C7  UNL A   1       4.425   5.417  21.852  1.00  0.00    +0.000 C 
ATOM    114  H9  UNL A   1       4.315   4.502  21.309  1.00  0.00    +0.000 H 
ATOM    113  H8  UNL A   1       4.079   5.329  22.860  1.00  0.00    +0.000 H 
BRANCH    9   10
ATOM     10  O2  UNL A   1       3.639   6.400  21.187  1.00  0.00    +0.000 O 
ATOM    115  H10 UNL A   1       4.141   6.764  20.441  1.00  0.00    +0.000 H 
ENDBRANCH    9   10
ENDBRANCH    8    9
ENDBRANCH   11    8
ENDBRANCH   13   11
ENDBRANCH   14   13
ENDBRANCH   15   14
ENDBRANCH   16   15
ENDBRANCH   17   16
ENDBRANCH   18   17
ENDBRANCH   19   18
ENDBRANCH   20   19
ENDBRANCH   21   20
ENDBRANCH   23   21
ENDBRANCH   27   26
BRANCH   31   32
ATOM     33  C25 UNL A   1       6.408  -5.341  21.471  1.00  0.00    +0.000 C 
ATOM     34  F1  UNL A   1       6.860  -6.600  21.372  1.00  0.00    +0.000 F 
ATOM     35  C26 UNL A   1       5.157  -5.027  20.939  1.00  0.00    +0.000 C 
ATOM     36  F2  UNL A   1       4.416  -5.986  20.367  1.00  0.00    +0.000 F 
ATOM     37  C27 UNL A   1       4.674  -3.728  21.000  1.00  0.00    +0.000 C 
ATOM     38  F3  UNL A   1       3.488  -3.421  20.455  1.00  0.00    +0.000 F 
ATOM     39  C28 UNL A   1       5.404  -2.755  21.657  1.00  0.00    +0.000 C 
ATOM     40  F4  UNL A   1       4.938  -1.500  21.742  1.00  0.00    +0.000 F 
ATOM     41  C29 UNL A   1       6.619  -3.082  22.249  1.00  0.00    +0.000 C 
ATOM     42  F5  UNL A   1       7.219  -2.142  22.997  1.00  0.00    +0.000 F 
ATOM     32  C24 UNL A   1       7.181  -4.368  22.110  1.00  0.00    +0.000 C 
ENDBRANCH   31   32
BRANCH   48   49
ATOM     49  C35 UNL A   1       7.983  -1.286  26.247  1.00  0.00    +0.000 C 
ATOM     50  C36 UNL A   1       7.761  -0.208  25.357  1.00  0.00    +0.000 C 
ATOM     51  F6  UNL A   1       8.575   0.030  24.319  1.00  0.00    +0.000 F 
ATOM     52  C37 UNL A   1       6.666   0.650  25.500  1.00  0.00    +0.000 C 
ATOM     53  F7  UNL A   1       6.525   1.704  24.682  1.00  0.00    +0.000 F 
ATOM     54  C38 UNL A   1       5.725   0.416  26.485  1.00  0.00    +0.000 C 
ATOM     55  F8  UNL A   1       4.668   1.229  26.618  1.00  0.00    +0.000 F 
ATOM     56  C39 UNL A   1       5.874  -0.675  27.322  1.00  0.00    +0.000 C 
ATOM     57  F9  UNL A   1       4.942  -0.943  28.246  1.00  0.00    +0.000 F 
ATOM     58  C40 UNL A   1       6.991  -1.500  27.214  1.00  0.00    +0.000 C 
ATOM     59  F10 UNL A   1       7.100  -2.534  28.062  1.00  0.00    +0.000 F 
ENDBRANCH   48   49
BRANCH   63   64
ATOM     65  C45 UNL A   1      14.550   1.692  27.158  1.00  0.00    +0.000 C 
ATOM     66  F11 UNL A   1      15.320   0.738  26.617  1.00  0.00    +0.000 F 
ATOM     67  C46 UNL A   1      15.265   2.772  27.710  1.00  0.00    +0.000 C 
ATOM     68  F12 UNL A   1      16.605   2.814  27.618  1.00  0.00    +0.000 F 
ATOM     69  C47 UNL A   1      14.588   3.825  28.273  1.00  0.00    +0.000 C 
ATOM     70  F13 UNL A   1      15.257   4.894  28.733  1.00  0.00    +0.000 F 
ATOM     71  C48 UNL A   1      13.202   3.769  28.317  1.00  0.00    +0.000 C 
ATOM     72  F14 UNL A   1      12.542   4.802  28.865  1.00  0.00    +0.000 F 
ATOM     73  C49 UNL A   1      12.477   2.696  27.733  1.00  0.00    +0.000 C 
ATOM     74  F15 UNL A   1      11.140   2.777  27.731  1.00  0.00    +0.000 F 
ATOM     64  C44 UNL A   1      13.110   1.626  27.084  1.00  0.00    +0.000 C 
ENDBRANCH   63   64
TORSDOF 26
ENDMDL
