MODEL 1
REMARK VINA RESULT:     -10.4      0.000      0.000
ROOT
ATOM     30  C24 UNL A   1      25.413  33.058  46.496  1.00  0.00    +0.000 C 
ATOM     31  C25 UNL A   1      26.339  31.998  47.102  1.00  0.00    +0.000 C 
ATOM     32  N4  UNL A   1      27.394  32.134  47.848  1.00  0.00    +0.000 N 
ATOM     33  C26 UNL A   1      27.944  30.850  48.043  1.00  0.00    +0.000 C 
ATOM     34  C27 UNL A   1      29.193  30.631  48.552  1.00  0.00    +0.000 C 
ATOM     46  C34 UNL A   1      29.814  31.858  48.919  1.00  0.00    +0.000 C 
ATOM     47  C35 UNL A   1      29.685  32.674  50.010  1.00  0.00    +0.000 C 
ATOM     48  C36 UNL A   1      30.007  33.961  49.532  1.00  0.00    +0.000 C 
ATOM     49  C37 UNL A   1      30.393  33.872  48.191  1.00  0.00    +0.000 C 
ATOM     50  N5  UNL A   1      30.523  32.524  47.952  1.00  0.00    +0.000 N 
ATOM     51  C38 UNL A   1      30.466  34.770  47.059  1.00  0.00    +0.000 C 
ATOM     63  C45 UNL A   1      30.076  36.054  47.254  1.00  0.00    +0.000 C 
ATOM     64  N6  UNL A   1      29.299  36.684  46.305  1.00  0.00    +0.000 N 
ATOM     65  C46 UNL A   1      28.383  37.262  47.025  1.00  0.00    +0.000 C 
ATOM     66  C47 UNL A   1      27.090  37.750  46.508  1.00  0.00    +0.000 C 
ATOM     78  C54 UNL A   1      26.353  36.628  46.240  1.00  0.00    +0.000 C 
ATOM     79  C55 UNL A   1      25.031  36.547  45.652  1.00  0.00    +0.000 C 
ATOM     80  C56 UNL A   1      24.603  35.272  45.665  1.00  0.00    +0.000 C 
ATOM     81  C57 UNL A   1      25.611  34.389  46.277  1.00  0.00    +0.000 C 
ATOM     82  N7  UNL A   1      26.650  35.268  46.513  1.00  0.00    +0.000 N 
ATOM     83  C58 UNL A   1      28.646  37.342  48.467  1.00  0.00    +0.000 C 
ATOM     84  C59 UNL A   1      29.821  36.722  48.507  1.00  0.00    +0.000 C 
ATOM     85  C60 UNL A   1      27.004  29.915  47.504  1.00  0.00    +0.000 C 
ATOM     86  C61 UNL A   1      26.016  30.562  46.881  1.00  0.00    +0.000 C 
ATOM    114  H26 UNL A   1      29.414  32.407  50.969  1.00  0.00    +0.000 H 
ATOM    115  H27 UNL A   1      29.964  34.832  50.084  1.00  0.00    +0.000 H 
ATOM    116  H28 UNL A   1      31.034  32.110  47.219  1.00  0.00    +0.000 H 
ATOM    117  H29 UNL A   1      24.499  37.348  45.278  1.00  0.00    +0.000 H 
ATOM    118  H30 UNL A   1      23.692  34.956  45.296  1.00  0.00    +0.000 H 
ATOM    119  H31 UNL A   1      27.529  34.973  46.845  1.00  0.00    +0.000 H 
ATOM    120  H32 UNL A   1      28.084  37.757  49.226  1.00  0.00    +0.000 H 
ATOM    121  H33 UNL A   1      30.460  36.720  49.318  1.00  0.00    +0.000 H 
ATOM    122  H34 UNL A   1      27.079  28.889  47.585  1.00  0.00    +0.000 H 
ATOM    123  H35 UNL A   1      25.216  30.160  46.369  1.00  0.00    +0.000 H 
ENDROOT
BRANCH   30   29
ATOM    124  H36 UNL A   1      24.538  32.448  44.021  1.00  0.00    +0.000 H 
ATOM     29  C23 UNL A   1      24.093  32.525  46.091  1.00  0.00    +0.000 C 
ATOM    112  H24 UNL A   1      21.241  31.417  47.448  1.00  0.00    +0.000 H 
ATOM    113  H25 UNL A   1      23.307  32.537  48.056  1.00  0.00    +0.000 H 
ATOM     87  C62 UNL A   1      23.840  32.221  44.746  1.00  0.00    +0.000 C 
ATOM     88  C63 UNL A   1      22.641  31.611  44.398  1.00  0.00    +0.000 C 
ATOM     26  C20 UNL A   1      21.726  31.261  45.395  1.00  0.00    +0.000 C 
ATOM     27  C21 UNL A   1      21.951  31.622  46.727  1.00  0.00    +0.000 C 
ATOM     28  C22 UNL A   1      23.135  32.261  47.077  1.00  0.00    +0.000 C 
ATOM    125  H37 UNL A   1      22.427  31.419  43.406  1.00  0.00    +0.000 H 
BRANCH   26   24
ATOM     25  O2  UNL A   1      20.500  29.319  44.955  1.00  0.00    +0.000 O 
ATOM     24  C19 UNL A   1      20.480  30.532  45.078  1.00  0.00    +0.000 C 
BRANCH   24   23
ATOM    111  H23 UNL A   1      19.094  31.914  45.553  1.00  0.00    +0.000 H 
ATOM     23  N3  UNL A   1      19.308  31.226  44.881  1.00  0.00    +0.000 N 
BRANCH   23   22
ATOM    110  H22 UNL A   1      17.367  31.052  44.217  1.00  0.00    +0.000 H 
ATOM    109  H21 UNL A   1      18.557  30.152  43.282  1.00  0.00    +0.000 H 
ATOM     22  C18 UNL A   1      18.351  31.067  43.798  1.00  0.00    +0.000 C 
BRANCH   22   21
ATOM    107  H19 UNL A   1      19.384  32.700  42.928  1.00  0.00    +0.000 H 
ATOM    108  H20 UNL A   1      18.302  31.805  41.833  1.00  0.00    +0.000 H 
ATOM     21  C17 UNL A   1      18.434  32.223  42.808  1.00  0.00    +0.000 C 
BRANCH   21   20
ATOM    105  H17 UNL A   1      17.516  34.055  42.274  1.00  0.00    +0.000 H 
ATOM    106  H18 UNL A   1      16.417  32.751  42.859  1.00  0.00    +0.000 H 
ATOM     20  C16 UNL A   1      17.340  33.279  42.989  1.00  0.00    +0.000 C 
BRANCH   20   19
ATOM     19  C15 UNL A   1      17.237  33.934  44.367  1.00  0.00    +0.000 C 
ATOM    103  H15 UNL A   1      16.721  33.254  45.013  1.00  0.00    +0.000 H 
ATOM    104  H16 UNL A   1      18.244  34.142  44.661  1.00  0.00    +0.000 H 
BRANCH   19   18
ATOM     18  C14 UNL A   1      16.506  35.279  44.425  1.00  0.00    +0.000 C 
ATOM    101  H13 UNL A   1      16.746  35.819  43.533  1.00  0.00    +0.000 H 
ATOM    102  H14 UNL A   1      15.469  35.036  44.528  1.00  0.00    +0.000 H 
BRANCH   18   17
ATOM     17  C13 UNL A   1      16.836  36.177  45.617  1.00  0.00    +0.000 C 
ATOM     99  H11 UNL A   1      17.890  36.134  45.789  1.00  0.00    +0.000 H 
ATOM    100  H12 UNL A   1      16.499  37.160  45.364  1.00  0.00    +0.000 H 
BRANCH   17   16
ATOM     98  H10 UNL A   1      15.455  35.115  46.830  1.00  0.00    +0.000 H 
ATOM     16  N2  UNL A   1      16.157  35.804  46.843  1.00  0.00    +0.000 N 
BRANCH   16    2
ATOM      1  O1  UNL A   1      15.813  36.361  49.049  1.00  0.00    +0.000 O 
ATOM      2  C1  UNL A   1      16.503  36.423  48.034  1.00  0.00    +0.000 C 
BRANCH    2    3
ATOM     89  H1  UNL A   1      17.533  38.219  48.369  1.00  0.00    +0.000 H 
ATOM     90  H2  UNL A   1      18.049  37.235  46.938  1.00  0.00    +0.000 H 
ATOM      3  C2  UNL A   1      17.768  37.254  47.970  1.00  0.00    +0.000 C 
BRANCH    3    4
ATOM      4  C3  UNL A   1      18.982  36.748  48.702  1.00  0.00    +0.000 C 
ATOM      5  C4  UNL A   1      19.112  36.695  50.087  1.00  0.00    +0.000 C 
ATOM      6  C5  UNL A   1      20.330  36.065  50.404  1.00  0.00    +0.000 C 
ATOM      7  C6  UNL A   1      20.929  35.738  49.213  1.00  0.00    +0.000 C 
ATOM      8  N1  UNL A   1      20.126  36.163  48.174  1.00  0.00    +0.000 N 
ATOM     91  H3  UNL A   1      18.426  37.058  50.768  1.00  0.00    +0.000 H 
ATOM     92  H4  UNL A   1      20.703  35.886  51.350  1.00  0.00    +0.000 H 
ATOM     93  H5  UNL A   1      21.833  35.251  49.111  1.00  0.00    +0.000 H 
BRANCH    8    9
ATOM     97  H9  UNL A   1      20.500  33.945  44.271  1.00  0.00    +0.000 H 
ATOM      9  C7  UNL A   1      20.544  36.090  46.839  1.00  0.00    +0.000 C 
ATOM     10  C8  UNL A   1      21.072  37.213  46.203  1.00  0.00    +0.000 C 
ATOM     11  C9  UNL A   1      21.430  37.117  44.855  1.00  0.00    +0.000 C 
ATOM     12  C10 UNL A   1      21.237  35.921  44.154  1.00  0.00    +0.000 C 
ATOM     13  C11 UNL A   1      20.662  34.822  44.791  1.00  0.00    +0.000 C 
ATOM     14  C12 UNL A   1      20.309  34.916  46.132  1.00  0.00    +0.000 C 
ATOM     15  F1  UNL A   1      19.740  33.865  46.740  1.00  0.00    +0.000 F 
ATOM     94  H6  UNL A   1      21.197  38.098  46.718  1.00  0.00    +0.000 H 
ATOM     95  H7  UNL A   1      21.840  37.933  44.374  1.00  0.00    +0.000 H 
ATOM     96  H8  UNL A   1      21.520  35.853  43.164  1.00  0.00    +0.000 H 
ENDBRANCH    8    9
ENDBRANCH    3    4
ENDBRANCH    2    3
ENDBRANCH   16    2
ENDBRANCH   17   16
ENDBRANCH   18   17
ENDBRANCH   19   18
ENDBRANCH   20   19
ENDBRANCH   21   20
ENDBRANCH   22   21
ENDBRANCH   23   22
ENDBRANCH   24   23
ENDBRANCH   26   24
ENDBRANCH   30   29
BRANCH   34   35
ATOM     35  C28 UNL A   1      30.032  29.385  48.623  1.00  0.00    +0.000 C 
ATOM     36  C29 UNL A   1      31.215  29.210  47.894  1.00  0.00    +0.000 C 
ATOM     37  F2  UNL A   1      31.533  30.033  46.887  1.00  0.00    +0.000 F 
ATOM     38  C30 UNL A   1      32.150  28.229  48.247  1.00  0.00    +0.000 C 
ATOM     39  F3  UNL A   1      33.289  28.117  47.550  1.00  0.00    +0.000 F 
ATOM     40  C31 UNL A   1      31.944  27.417  49.351  1.00  0.00    +0.000 C 
ATOM     41  F4  UNL A   1      32.888  26.551  49.743  1.00  0.00    +0.000 F 
ATOM     42  C32 UNL A   1      30.768  27.531  50.065  1.00  0.00    +0.000 C 
ATOM     43  F5  UNL A   1      30.565  26.772  51.151  1.00  0.00    +0.000 F 
ATOM     44  C33 UNL A   1      29.815  28.477  49.688  1.00  0.00    +0.000 C 
ATOM     45  F6  UNL A   1      28.692  28.534  50.422  1.00  0.00    +0.000 F 
ENDBRANCH   34   35
BRANCH   51   52
ATOM     52  C39 UNL A   1      30.492  34.369  45.600  1.00  0.00    +0.000 C 
ATOM     53  C40 UNL A   1      29.351  33.974  44.881  1.00  0.00    +0.000 C 
ATOM     54  F7  UNL A   1      28.185  33.798  45.499  1.00  0.00    +0.000 F 
ATOM     55  C41 UNL A   1      29.378  33.744  43.506  1.00  0.00    +0.000 C 
ATOM     56  F8  UNL A   1      28.263  33.351  42.870  1.00  0.00    +0.000 F 
ATOM     57  C42 UNL A   1      30.553  33.916  42.801  1.00  0.00    +0.000 C 
ATOM     58  F9  UNL A   1      30.583  33.697  41.480  1.00  0.00    +0.000 F 
ATOM     59  C43 UNL A   1      31.700  34.303  43.477  1.00  0.00    +0.000 C 
ATOM     60  F10 UNL A   1      32.843  34.467  42.799  1.00  0.00    +0.000 F 
ATOM     61  C44 UNL A   1      31.672  34.521  44.856  1.00  0.00    +0.000 C 
ATOM     62  F11 UNL A   1      32.806  34.889  45.471  1.00  0.00    +0.000 F 
ENDBRANCH   51   52
BRANCH   66   67
ATOM     67  C48 UNL A   1      26.857  39.249  46.506  1.00  0.00    +0.000 C 
ATOM     68  C49 UNL A   1      27.644  40.090  45.667  1.00  0.00    +0.000 C 
ATOM     69  F12 UNL A   1      28.419  39.586  44.697  1.00  0.00    +0.000 F 
ATOM     70  C50 UNL A   1      27.680  41.481  45.783  1.00  0.00    +0.000 C 
ATOM     71  F13 UNL A   1      28.530  42.189  45.026  1.00  0.00    +0.000 F 
ATOM     72  C51 UNL A   1      26.865  42.117  46.688  1.00  0.00    +0.000 C 
ATOM     73  F14 UNL A   1      26.915  43.448  46.828  1.00  0.00    +0.000 F 
ATOM     74  C52 UNL A   1      25.986  41.357  47.433  1.00  0.00    +0.000 C 
ATOM     75  F15 UNL A   1      25.138  41.969  48.272  1.00  0.00    +0.000 F 
ATOM     76  C53 UNL A   1      25.976  39.954  47.338  1.00  0.00    +0.000 C 
ATOM     77  F16 UNL A   1      25.053  39.331  48.072  1.00  0.00    +0.000 F 
ENDBRANCH   66   67
TORSDOF 17
ENDMDL
MODEL 2
REMARK VINA RESULT:     -10.4     18.291     23.961
ROOT
ATOM     30  C24 UNL A   1      40.105  29.214  29.020  1.00  0.00    +0.000 C 
ATOM     31  C25 UNL A   1      38.878  30.131  29.068  1.00  0.00    +0.000 C 
ATOM     32  N4  UNL A   1      38.801  31.423  29.176  1.00  0.00    +0.000 N 
ATOM     33  C26 UNL A   1      37.435  31.759  29.285  1.00  0.00    +0.000 C 
ATOM     34  C27 UNL A   1      36.987  32.989  29.672  1.00  0.00    +0.000 C 
ATOM     46  C34 UNL A   1      38.074  33.886  29.870  1.00  0.00    +0.000 C 
ATOM     47  C35 UNL A   1      38.846  34.614  29.006  1.00  0.00    +0.000 C 
ATOM     48  C36 UNL A   1      40.084  34.756  29.668  1.00  0.00    +0.000 C 
ATOM     49  C37 UNL A   1      39.997  34.178  30.938  1.00  0.00    +0.000 C 
ATOM     50  N5  UNL A   1      38.659  33.911  31.111  1.00  0.00    +0.000 N 
ATOM     51  C38 UNL A   1      40.923  33.654  31.917  1.00  0.00    +0.000 C 
ATOM     63  C45 UNL A   1      42.244  33.688  31.609  1.00  0.00    +0.000 C 
ATOM     64  N6  UNL A   1      43.039  32.598  31.888  1.00  0.00    +0.000 N 
ATOM     65  C46 UNL A   1      43.726  32.457  30.793  1.00  0.00    +0.000 C 
ATOM     66  C47 UNL A   1      44.447  31.231  30.403  1.00  0.00    +0.000 C 
ATOM     78  C54 UNL A   1      43.478  30.326  30.063  1.00  0.00    +0.000 C 
ATOM     79  C55 UNL A   1      43.646  28.942  29.669  1.00  0.00    +0.000 C 
ATOM     80  C56 UNL A   1      42.461  28.425  29.299  1.00  0.00    +0.000 C 
ATOM     81  C57 UNL A   1      41.394  29.435  29.406  1.00  0.00    +0.000 C 
ATOM     82  N7  UNL A   1      42.075  30.508  29.946  1.00  0.00    +0.000 N 
ATOM     83  C58 UNL A   1      43.692  33.588  29.857  1.00  0.00    +0.000 C 
ATOM     84  C59 UNL A   1      42.884  34.401  30.530  1.00  0.00    +0.000 C 
ATOM     85  C60 UNL A   1      36.697  30.557  29.037  1.00  0.00    +0.000 C 
ATOM     86  C61 UNL A   1      37.528  29.518  28.933  1.00  0.00    +0.000 C 
ATOM    114  H26 UNL A   1      38.582  34.979  28.077  1.00  0.00    +0.000 H 
ATOM    115  H27 UNL A   1      40.922  35.214  29.276  1.00  0.00    +0.000 H 
ATOM    116  H28 UNL A   1      38.202  33.763  31.971  1.00  0.00    +0.000 H 
ATOM    117  H29 UNL A   1      44.541  28.429  29.675  1.00  0.00    +0.000 H 
ATOM    118  H30 UNL A   1      42.319  27.453  28.981  1.00  0.00    +0.000 H 
ATOM    119  H31 UNL A   1      41.623  31.336  30.230  1.00  0.00    +0.000 H 
ATOM    120  H32 UNL A   1      44.157  33.713  28.945  1.00  0.00    +0.000 H 
ATOM    121  H33 UNL A   1      42.736  35.399  30.312  1.00  0.00    +0.000 H 
ATOM    122  H34 UNL A   1      35.670  30.503  28.951  1.00  0.00    +0.000 H 
ATOM    123  H35 UNL A   1      37.290  28.525  28.791  1.00  0.00    +0.000 H 
ENDROOT
BRANCH   30   29
ATOM    124  H36 UNL A   1      40.587  28.307  26.529  1.00  0.00    +0.000 H 
ATOM     29  C23 UNL A   1      39.820  27.876  28.456  1.00  0.00    +0.000 C 
ATOM    112  H24 UNL A   1      38.694  24.871  29.408  1.00  0.00    +0.000 H 
ATOM    113  H25 UNL A   1      38.923  27.144  30.228  1.00  0.00    +0.000 H 
ATOM     87  C62 UNL A   1      40.192  27.574  27.139  1.00  0.00    +0.000 C 
ATOM     88  C63 UNL A   1      40.027  26.279  26.662  1.00  0.00    +0.000 C 
ATOM     26  C20 UNL A   1      39.541  25.283  27.514  1.00  0.00    +0.000 C 
ATOM     27  C21 UNL A   1      39.111  25.599  28.807  1.00  0.00    +0.000 C 
ATOM     28  C22 UNL A   1      39.245  26.900  29.279  1.00  0.00    +0.000 C 
ATOM    125  H37 UNL A   1      40.261  26.055  25.682  1.00  0.00    +0.000 H 
BRANCH   26   24
ATOM     25  O2  UNL A   1      40.276  23.065  27.422  1.00  0.00    +0.000 O 
ATOM     24  C19 UNL A   1      39.434  23.876  27.076  1.00  0.00    +0.000 C 
BRANCH   24   23
ATOM    111  H23 UNL A   1      37.705  24.164  26.083  1.00  0.00    +0.000 H 
ATOM     23  N3  UNL A   1      38.407  23.492  26.243  1.00  0.00    +0.000 N 
BRANCH   23   22
ATOM    110  H22 UNL A   1      38.424  21.433  26.278  1.00  0.00    +0.000 H 
ATOM    109  H21 UNL A   1      38.926  22.157  24.752  1.00  0.00    +0.000 H 
ATOM     22  C18 UNL A   1      38.238  22.214  25.571  1.00  0.00    +0.000 C 
BRANCH   22   21
ATOM    107  H19 UNL A   1      36.677  21.025  24.769  1.00  0.00    +0.000 H 
ATOM    108  H20 UNL A   1      36.158  22.368  25.816  1.00  0.00    +0.000 H 
ATOM     21  C17 UNL A   1      36.819  22.051  25.038  1.00  0.00    +0.000 C 
BRANCH   21   20
ATOM    105  H17 UNL A   1      37.322  23.599  23.684  1.00  0.00    +0.000 H 
ATOM    106  H18 UNL A   1      36.372  22.224  23.008  1.00  0.00    +0.000 H 
ATOM     20  C16 UNL A   1      36.509  22.916  23.813  1.00  0.00    +0.000 C 
BRANCH   20   19
ATOM     19  C15 UNL A   1      35.219  23.736  23.860  1.00  0.00    +0.000 C 
ATOM    103  H15 UNL A   1      35.323  24.547  23.170  1.00  0.00    +0.000 H 
ATOM    104  H16 UNL A   1      34.435  23.050  23.618  1.00  0.00    +0.000 H 
BRANCH   19   18
ATOM     18  C14 UNL A   1      34.841  24.328  25.222  1.00  0.00    +0.000 C 
ATOM    101  H13 UNL A   1      35.687  24.220  25.870  1.00  0.00    +0.000 H 
ATOM    102  H14 UNL A   1      34.563  25.342  25.025  1.00  0.00    +0.000 H 
BRANCH   18   17
ATOM     17  C13 UNL A   1      33.635  23.701  25.921  1.00  0.00    +0.000 C 
ATOM     99  H11 UNL A   1      33.204  22.977  25.263  1.00  0.00    +0.000 H 
ATOM    100  H12 UNL A   1      33.996  23.270  26.831  1.00  0.00    +0.000 H 
BRANCH   17   16
ATOM     98  H10 UNL A   1      32.817  25.403  26.891  1.00  0.00    +0.000 H 
ATOM     16  N2  UNL A   1      32.605  24.654  26.289  1.00  0.00    +0.000 N 
BRANCH   16    2
ATOM      1  O1  UNL A   1      30.613  23.532  26.037  1.00  0.00    +0.000 O 
ATOM      2  C1  UNL A   1      31.322  24.504  25.789  1.00  0.00    +0.000 C 
BRANCH    2    3
ATOM     89  H1  UNL A   1      30.584  26.436  25.438  1.00  0.00    +0.000 H 
ATOM     90  H2  UNL A   1      30.109  25.151  24.253  1.00  0.00    +0.000 H 
ATOM      3  C2  UNL A   1      30.882  25.600  24.840  1.00  0.00    +0.000 C 
BRANCH    3    4
ATOM      4  C3  UNL A   1      31.879  26.103  23.831  1.00  0.00    +0.000 C 
ATOM      5  C4  UNL A   1      32.164  25.485  22.617  1.00  0.00    +0.000 C 
ATOM      6  C5  UNL A   1      33.059  26.296  21.894  1.00  0.00    +0.000 C 
ATOM      7  C6  UNL A   1      33.308  27.400  22.671  1.00  0.00    +0.000 C 
ATOM      8  N1  UNL A   1      32.609  27.284  23.855  1.00  0.00    +0.000 N 
ATOM     91  H3  UNL A   1      31.780  24.580  22.300  1.00  0.00    +0.000 H 
ATOM     92  H4  UNL A   1      33.453  26.099  20.961  1.00  0.00    +0.000 H 
ATOM     93  H5  UNL A   1      33.919  28.191  22.411  1.00  0.00    +0.000 H 
BRANCH    8    9
ATOM     97  H9  UNL A   1      31.234  30.843  26.252  1.00  0.00    +0.000 H 
ATOM      9  C7  UNL A   1      32.778  28.197  24.905  1.00  0.00    +0.000 C 
ATOM     10  C8  UNL A   1      33.808  28.026  25.829  1.00  0.00    +0.000 C 
ATOM     11  C9  UNL A   1      33.914  28.927  26.893  1.00  0.00    +0.000 C 
ATOM     12  C10 UNL A   1      32.985  29.963  27.039  1.00  0.00    +0.000 C 
ATOM     13  C11 UNL A   1      31.932  30.091  26.134  1.00  0.00    +0.000 C 
ATOM     14  C12 UNL A   1      31.828  29.198  25.074  1.00  0.00    +0.000 C 
ATOM     15  F1  UNL A   1      30.805  29.309  24.215  1.00  0.00    +0.000 F 
ATOM     94  H6  UNL A   1      34.481  27.250  25.729  1.00  0.00    +0.000 H 
ATOM     95  H7  UNL A   1      34.681  28.826  27.576  1.00  0.00    +0.000 H 
ATOM     96  H8  UNL A   1      33.080  30.634  27.818  1.00  0.00    +0.000 H 
ENDBRANCH    8    9
ENDBRANCH    3    4
ENDBRANCH    2    3
ENDBRANCH   16    2
ENDBRANCH   17   16
ENDBRANCH   18   17
ENDBRANCH   19   18
ENDBRANCH   20   19
ENDBRANCH   21   20
ENDBRANCH   22   21
ENDBRANCH   23   22
ENDBRANCH   24   23
ENDBRANCH   26   24
ENDBRANCH   30   29
BRANCH   34   35
ATOM     35  C28 UNL A   1      35.617  33.470  30.064  1.00  0.00    +0.000 C 
ATOM     36  C29 UNL A   1      35.178  33.550  31.392  1.00  0.00    +0.000 C 
ATOM     37  F2  UNL A   1      35.859  32.955  32.380  1.00  0.00    +0.000 F 
ATOM     38  C30 UNL A   1      34.071  34.329  31.748  1.00  0.00    +0.000 C 
ATOM     39  F3  UNL A   1      33.705  34.414  33.034  1.00  0.00    +0.000 F 
ATOM     40  C31 UNL A   1      33.388  35.069  30.795  1.00  0.00    +0.000 C 
ATOM     41  F4  UNL A   1      32.393  35.890  31.157  1.00  0.00    +0.000 F 
ATOM     42  C32 UNL A   1      33.764  34.977  29.470  1.00  0.00    +0.000 C 
ATOM     43  F5  UNL A   1      33.131  35.706  28.539  1.00  0.00    +0.000 F 
ATOM     44  C33 UNL A   1      34.839  34.166  29.107  1.00  0.00    +0.000 C 
ATOM     45  F6  UNL A   1      35.150  34.118  27.802  1.00  0.00    +0.000 F 
ENDBRANCH   34   35
BRANCH   51   52
ATOM     52  C39 UNL A   1      40.595  32.680  33.028  1.00  0.00    +0.000 C 
ATOM     53  C40 UNL A   1      40.088  31.388  32.806  1.00  0.00    +0.000 C 
ATOM     54  F7  UNL A   1      39.736  30.998  31.583  1.00  0.00    +0.000 F 
ATOM     55  C41 UNL A   1      39.925  30.463  33.836  1.00  0.00    +0.000 C 
ATOM     56  F8  UNL A   1      39.420  29.248  33.572  1.00  0.00    +0.000 F 
ATOM     57  C42 UNL A   1      40.280  30.801  35.128  1.00  0.00    +0.000 C 
ATOM     58  F9  UNL A   1      40.126  29.914  36.121  1.00  0.00    +0.000 F 
ATOM     59  C43 UNL A   1      40.781  32.066  35.386  1.00  0.00    +0.000 C 
ATOM     60  F10 UNL A   1      41.121  32.400  36.638  1.00  0.00    +0.000 F 
ATOM     61  C44 UNL A   1      40.931  32.995  34.353  1.00  0.00    +0.000 C 
ATOM     62  F11 UNL A   1      41.415  34.211  34.649  1.00  0.00    +0.000 F 
ENDBRANCH   51   52
BRANCH   66   67
ATOM     67  C48 UNL A   1      45.962  31.292  30.361  1.00  0.00    +0.000 C 
ATOM     68  C49 UNL A   1      46.702  31.430  31.571  1.00  0.00    +0.000 C 
ATOM     69  F12 UNL A   1      46.126  31.266  32.769  1.00  0.00    +0.000 F 
ATOM     70  C50 UNL A   1      48.061  31.750  31.613  1.00  0.00    +0.000 C 
ATOM     71  F13 UNL A   1      48.656  31.969  32.794  1.00  0.00    +0.000 F 
ATOM     72  C51 UNL A   1      48.777  31.862  30.446  1.00  0.00    +0.000 C 
ATOM     73  F14 UNL A   1      50.073  32.198  30.475  1.00  0.00    +0.000 F 
ATOM     74  C52 UNL A   1      48.137  31.605  29.250  1.00  0.00    +0.000 C 
ATOM     75  F15 UNL A   1      48.838  31.646  28.108  1.00  0.00    +0.000 F 
ATOM     76  C53 UNL A   1      46.761  31.318  29.210  1.00  0.00    +0.000 C 
ATOM     77  F16 UNL A   1      46.263  31.043  28.003  1.00  0.00    +0.000 F 
ENDBRANCH   66   67
TORSDOF 17
ENDMDL
MODEL 3
REMARK VINA RESULT:     -10.4     21.485     25.728
ROOT
ATOM     30  C24 UNL A   1      40.823  27.745  29.124  1.00  0.00    +0.000 C 
ATOM     31  C25 UNL A   1      41.007  26.340  28.542  1.00  0.00    +0.000 C 
ATOM     32  N4  UNL A   1      41.815  25.385  28.896  1.00  0.00    +0.000 N 
ATOM     33  C26 UNL A   1      41.665  24.336  27.966  1.00  0.00    +0.000 C 
ATOM     34  C27 UNL A   1      42.530  23.284  27.865  1.00  0.00    +0.000 C 
ATOM     46  C34 UNL A   1      43.541  23.361  28.864  1.00  0.00    +0.000 C 
ATOM     47  C35 UNL A   1      43.558  23.042  30.195  1.00  0.00    +0.000 C 
ATOM     48  C36 UNL A   1      44.525  23.902  30.755  1.00  0.00    +0.000 C 
ATOM     49  C37 UNL A   1      45.115  24.658  29.738  1.00  0.00    +0.000 C 
ATOM     50  N5  UNL A   1      44.670  24.083  28.570  1.00  0.00    +0.000 N 
ATOM     51  C38 UNL A   1      45.836  25.908  29.645  1.00  0.00    +0.000 C 
ATOM     63  C45 UNL A   1      46.038  26.600  30.793  1.00  0.00    +0.000 C 
ATOM     64  N6  UNL A   1      45.863  27.967  30.807  1.00  0.00    +0.000 N 
ATOM     65  C46 UNL A   1      45.174  28.156  31.894  1.00  0.00    +0.000 C 
ATOM     66  C47 UNL A   1      44.394  29.371  32.196  1.00  0.00    +0.000 C 
ATOM     78  C54 UNL A   1      43.309  29.329  31.362  1.00  0.00    +0.000 C 
ATOM     79  C55 UNL A   1      42.261  30.318  31.208  1.00  0.00    +0.000 C 
ATOM     80  C56 UNL A   1      41.311  29.852  30.378  1.00  0.00    +0.000 C 
ATOM     81  C57 UNL A   1      41.645  28.495  29.912  1.00  0.00    +0.000 C 
ATOM     82  N7  UNL A   1      42.888  28.299  30.482  1.00  0.00    +0.000 N 
ATOM     83  C58 UNL A   1      45.118  27.027  32.830  1.00  0.00    +0.000 C 
ATOM     84  C59 UNL A   1      45.843  26.145  32.148  1.00  0.00    +0.000 C 
ATOM     85  C60 UNL A   1      40.549  24.680  27.137  1.00  0.00    +0.000 C 
ATOM     86  C61 UNL A   1      40.127  25.914  27.420  1.00  0.00    +0.000 C 
ATOM    114  H26 UNL A   1      42.989  22.330  30.680  1.00  0.00    +0.000 H 
ATOM    115  H27 UNL A   1      44.759  23.964  31.759  1.00  0.00    +0.000 H 
ATOM    116  H28 UNL A   1      45.087  24.173  27.683  1.00  0.00    +0.000 H 
ATOM    117  H29 UNL A   1      42.248  31.243  31.666  1.00  0.00    +0.000 H 
ATOM    118  H30 UNL A   1      40.463  30.374  30.106  1.00  0.00    +0.000 H 
ATOM    119  H31 UNL A   1      43.440  27.506  30.291  1.00  0.00    +0.000 H 
ATOM    120  H32 UNL A   1      44.652  26.942  33.746  1.00  0.00    +0.000 H 
ATOM    121  H33 UNL A   1      46.213  25.262  32.533  1.00  0.00    +0.000 H 
ATOM    122  H34 UNL A   1      40.131  24.061  26.425  1.00  0.00    +0.000 H 
ATOM    123  H35 UNL A   1      39.368  26.446  26.968  1.00  0.00    +0.000 H 
ENDROOT
BRANCH   30   29
ATOM    124  H36 UNL A   1      38.515  27.764  30.515  1.00  0.00    +0.000 H 
ATOM     29  C23 UNL A   1      39.532  28.370  28.759  1.00  0.00    +0.000 C 
ATOM    112  H24 UNL A   1      38.201  30.325  26.390  1.00  0.00    +0.000 H 
ATOM    113  H25 UNL A   1      40.220  29.070  26.883  1.00  0.00    +0.000 H 
ATOM     87  C62 UNL A   1      38.447  28.313  29.645  1.00  0.00    +0.000 C 
ATOM     88  C63 UNL A   1      37.281  29.005  29.341  1.00  0.00    +0.000 C 
ATOM     26  C20 UNL A   1      37.220  29.790  28.186  1.00  0.00    +0.000 C 
ATOM     27  C21 UNL A   1      38.279  29.794  27.271  1.00  0.00    +0.000 C 
ATOM     28  C22 UNL A   1      39.437  29.079  27.554  1.00  0.00    +0.000 C 
ATOM    125  H37 UNL A   1      36.462  28.939  29.967  1.00  0.00    +0.000 H 
BRANCH   26   24
ATOM     25  O2  UNL A   1      36.133  31.824  27.808  1.00  0.00    +0.000 O 
ATOM     24  C19 UNL A   1      36.033  30.611  27.871  1.00  0.00    +0.000 C 
BRANCH   24   23
ATOM    111  H23 UNL A   1      34.725  29.087  28.029  1.00  0.00    +0.000 H 
ATOM     23  N3  UNL A   1      34.809  30.009  27.691  1.00  0.00    +0.000 N 
BRANCH   23   22
ATOM    110  H22 UNL A   1      33.896  31.496  26.598  1.00  0.00    +0.000 H 
ATOM    109  H21 UNL A   1      32.875  30.730  27.812  1.00  0.00    +0.000 H 
ATOM     22  C18 UNL A   1      33.624  30.572  27.064  1.00  0.00    +0.000 C 
BRANCH   22   21
ATOM    107  H19 UNL A   1      32.030  29.474  26.199  1.00  0.00    +0.000 H 
ATOM    108  H20 UNL A   1      33.229  30.121  25.051  1.00  0.00    +0.000 H 
ATOM     21  C17 UNL A   1      33.067  29.640  25.993  1.00  0.00    +0.000 C 
BRANCH   21   20
ATOM    105  H17 UNL A   1      34.077  28.127  24.911  1.00  0.00    +0.000 H 
ATOM    106  H18 UNL A   1      34.566  28.339  26.633  1.00  0.00    +0.000 H 
ATOM     20  C16 UNL A   1      33.767  28.280  25.923  1.00  0.00    +0.000 C 
BRANCH   20   19
ATOM     19  C15 UNL A   1      32.945  27.062  26.345  1.00  0.00    +0.000 C 
ATOM    103  H15 UNL A   1      33.549  26.192  26.191  1.00  0.00    +0.000 H 
ATOM    104  H16 UNL A   1      32.676  27.237  27.365  1.00  0.00    +0.000 H 
BRANCH   19   18
ATOM     18  C14 UNL A   1      31.621  26.847  25.603  1.00  0.00    +0.000 C 
ATOM    101  H13 UNL A   1      30.992  27.689  25.809  1.00  0.00    +0.000 H 
ATOM    102  H14 UNL A   1      31.887  26.737  24.572  1.00  0.00    +0.000 H 
BRANCH   18   17
ATOM     17  C13 UNL A   1      30.842  25.583  25.962  1.00  0.00    +0.000 C 
ATOM     99  H11 UNL A   1      29.964  25.870  26.500  1.00  0.00    +0.000 H 
ATOM    100  H12 UNL A   1      30.617  25.088  25.041  1.00  0.00    +0.000 H 
BRANCH   17   16
ATOM     98  H10 UNL A   1      32.233  24.965  27.440  1.00  0.00    +0.000 H 
ATOM     16  N2  UNL A   1      31.587  24.640  26.774  1.00  0.00    +0.000 N 
BRANCH   16    2
ATOM      1  O1  UNL A   1      30.342  22.711  26.929  1.00  0.00    +0.000 O 
ATOM      2  C1  UNL A   1      31.383  23.280  26.606  1.00  0.00    +0.000 C 
BRANCH    2    3
ATOM     89  H1  UNL A   1      32.404  21.484  26.244  1.00  0.00    +0.000 H 
ATOM     90  H2  UNL A   1      33.417  22.950  26.569  1.00  0.00    +0.000 H 
ATOM      3  C2  UNL A   1      32.577  22.524  26.062  1.00  0.00    +0.000 C 
BRANCH    3    4
ATOM      4  C3  UNL A   1      32.902  22.675  24.600  1.00  0.00    +0.000 C 
ATOM      5  C4  UNL A   1      31.959  22.742  23.578  1.00  0.00    +0.000 C 
ATOM      6  C5  UNL A   1      32.624  22.995  22.363  1.00  0.00    +0.000 C 
ATOM      7  C6  UNL A   1      33.963  23.083  22.656  1.00  0.00    +0.000 C 
ATOM      8  N1  UNL A   1      34.142  22.874  24.008  1.00  0.00    +0.000 N 
ATOM     91  H3  UNL A   1      30.940  22.626  23.693  1.00  0.00    +0.000 H 
ATOM     92  H4  UNL A   1      32.191  23.092  21.432  1.00  0.00    +0.000 H 
ATOM     93  H5  UNL A   1      34.713  23.276  21.974  1.00  0.00    +0.000 H 
BRANCH    8    9
ATOM     97  H9  UNL A   1      37.551  24.584  26.408  1.00  0.00    +0.000 H 
ATOM      9  C7  UNL A   1      35.419  22.768  24.576  1.00  0.00    +0.000 C 
ATOM     10  C8  UNL A   1      36.107  21.556  24.540  1.00  0.00    +0.000 C 
ATOM     11  C9  UNL A   1      37.356  21.473  25.164  1.00  0.00    +0.000 C 
ATOM     12  C10 UNL A   1      37.890  22.580  25.831  1.00  0.00    +0.000 C 
ATOM     13  C11 UNL A   1      37.167  23.771  25.899  1.00  0.00    +0.000 C 
ATOM     14  C12 UNL A   1      35.927  23.855  25.277  1.00  0.00    +0.000 C 
ATOM     15  F1  UNL A   1      35.224  24.994  25.359  1.00  0.00    +0.000 F 
ATOM     94  H6  UNL A   1      35.703  20.735  24.063  1.00  0.00    +0.000 H 
ATOM     95  H7  UNL A   1      37.887  20.588  25.131  1.00  0.00    +0.000 H 
ATOM     96  H8  UNL A   1      38.821  22.516  26.273  1.00  0.00    +0.000 H 
ENDBRANCH    8    9
ENDBRANCH    3    4
ENDBRANCH    2    3
ENDBRANCH   16    2
ENDBRANCH   17   16
ENDBRANCH   18   17
ENDBRANCH   19   18
ENDBRANCH   20   19
ENDBRANCH   21   20
ENDBRANCH   22   21
ENDBRANCH   23   22
ENDBRANCH   24   23
ENDBRANCH   26   24
ENDBRANCH   30   29
BRANCH   34   35
ATOM     35  C28 UNL A   1      42.675  22.213  26.819  1.00  0.00    +0.000 C 
ATOM     36  C29 UNL A   1      43.682  22.217  25.845  1.00  0.00    +0.000 C 
ATOM     37  F2  UNL A   1      44.419  23.312  25.620  1.00  0.00    +0.000 F 
ATOM     38  C30 UNL A   1      44.016  21.055  25.139  1.00  0.00    +0.000 C 
ATOM     39  F3  UNL A   1      45.012  21.088  24.242  1.00  0.00    +0.000 F 
ATOM     40  C31 UNL A   1      43.376  19.855  25.403  1.00  0.00    +0.000 C 
ATOM     41  F4  UNL A   1      43.769  18.727  24.796  1.00  0.00    +0.000 F 
ATOM     42  C32 UNL A   1      42.347  19.825  26.323  1.00  0.00    +0.000 C 
ATOM     43  F5  UNL A   1      41.736  18.667  26.610  1.00  0.00    +0.000 F 
ATOM     44  C33 UNL A   1      41.982  20.990  26.996  1.00  0.00    +0.000 C 
ATOM     45  F6  UNL A   1      40.972  20.894  27.875  1.00  0.00    +0.000 F 
ENDBRANCH   34   35
BRANCH   51   52
ATOM     52  C39 UNL A   1      46.001  26.755  28.401  1.00  0.00    +0.000 C 
ATOM     53  C40 UNL A   1      44.924  27.312  27.690  1.00  0.00    +0.000 C 
ATOM     54  F7  UNL A   1      43.669  27.002  28.006  1.00  0.00    +0.000 F 
ATOM     55  C41 UNL A   1      45.109  28.200  26.632  1.00  0.00    +0.000 C 
ATOM     56  F8  UNL A   1      44.046  28.690  25.974  1.00  0.00    +0.000 F 
ATOM     57  C42 UNL A   1      46.386  28.571  26.257  1.00  0.00    +0.000 C 
ATOM     58  F9  UNL A   1      46.567  29.425  25.241  1.00  0.00    +0.000 F 
ATOM     59  C43 UNL A   1      47.473  28.040  26.933  1.00  0.00    +0.000 C 
ATOM     60  F10 UNL A   1      48.713  28.392  26.571  1.00  0.00    +0.000 F 
ATOM     61  C44 UNL A   1      47.284  27.141  27.986  1.00  0.00    +0.000 C 
ATOM     62  F11 UNL A   1      48.365  26.647  28.609  1.00  0.00    +0.000 F 
ENDBRANCH   51   52
BRANCH   66   67
ATOM     67  C48 UNL A   1      44.873  30.245  33.339  1.00  0.00    +0.000 C 
ATOM     68  C49 UNL A   1      44.090  30.359  34.524  1.00  0.00    +0.000 C 
ATOM     69  F12 UNL A   1      43.063  29.534  34.769  1.00  0.00    +0.000 F 
ATOM     70  C50 UNL A   1      44.315  31.323  35.509  1.00  0.00    +0.000 C 
ATOM     71  F13 UNL A   1      43.465  31.431  36.540  1.00  0.00    +0.000 F 
ATOM     72  C51 UNL A   1      45.390  32.173  35.407  1.00  0.00    +0.000 C 
ATOM     73  F14 UNL A   1      45.596  33.120  36.330  1.00  0.00    +0.000 F 
ATOM     74  C52 UNL A   1      46.257  32.016  34.344  1.00  0.00    +0.000 C 
ATOM     75  F15 UNL A   1      47.347  32.793  34.266  1.00  0.00    +0.000 F 
ATOM     76  C53 UNL A   1      46.008  31.067  33.337  1.00  0.00    +0.000 C 
ATOM     77  F16 UNL A   1      46.940  30.976  32.386  1.00  0.00    +0.000 F 
ENDBRANCH   66   67
TORSDOF 17
ENDMDL
MODEL 4
REMARK VINA RESULT:     -10.3     21.750     25.618
ROOT
ATOM     30  C24 UNL A   1      40.721  27.758  29.140  1.00  0.00    +0.000 C 
ATOM     31  C25 UNL A   1      40.921  26.353  28.561  1.00  0.00    +0.000 C 
ATOM     32  N4  UNL A   1      41.728  25.403  28.926  1.00  0.00    +0.000 N 
ATOM     33  C26 UNL A   1      41.596  24.353  27.993  1.00  0.00    +0.000 C 
ATOM     34  C27 UNL A   1      42.469  23.306  27.905  1.00  0.00    +0.000 C 
ATOM     46  C34 UNL A   1      43.464  23.387  28.918  1.00  0.00    +0.000 C 
ATOM     47  C35 UNL A   1      43.463  23.068  30.249  1.00  0.00    +0.000 C 
ATOM     48  C36 UNL A   1      44.418  23.932  30.824  1.00  0.00    +0.000 C 
ATOM     49  C37 UNL A   1      45.019  24.691  29.816  1.00  0.00    +0.000 C 
ATOM     50  N5  UNL A   1      44.594  24.114  28.642  1.00  0.00    +0.000 N 
ATOM     51  C38 UNL A   1      45.735  25.945  29.733  1.00  0.00    +0.000 C 
ATOM     63  C45 UNL A   1      45.917  26.638  30.884  1.00  0.00    +0.000 C 
ATOM     64  N6  UNL A   1      45.735  28.004  30.896  1.00  0.00    +0.000 N 
ATOM     65  C46 UNL A   1      45.030  28.189  31.973  1.00  0.00    +0.000 C 
ATOM     66  C47 UNL A   1      44.239  29.400  32.264  1.00  0.00    +0.000 C 
ATOM     78  C54 UNL A   1      43.166  29.353  31.415  1.00  0.00    +0.000 C 
ATOM     79  C55 UNL A   1      42.117  30.337  31.245  1.00  0.00    +0.000 C 
ATOM     80  C56 UNL A   1      41.181  29.867  30.402  1.00  0.00    +0.000 C 
ATOM     81  C57 UNL A   1      41.528  28.512  29.940  1.00  0.00    +0.000 C 
ATOM     82  N7  UNL A   1      42.764  28.322  30.528  1.00  0.00    +0.000 N 
ATOM     83  C58 UNL A   1      44.965  27.059  32.908  1.00  0.00    +0.000 C 
ATOM     84  C59 UNL A   1      45.704  26.181  32.236  1.00  0.00    +0.000 C 
ATOM     85  C60 UNL A   1      40.491  24.692  27.149  1.00  0.00    +0.000 C 
ATOM     86  C61 UNL A   1      40.059  25.924  27.426  1.00  0.00    +0.000 C 
ATOM    114  H26 UNL A   1      42.891  22.353  30.726  1.00  0.00    +0.000 H 
ATOM    115  H27 UNL A   1      44.637  23.995  31.831  1.00  0.00    +0.000 H 
ATOM    116  H28 UNL A   1      45.023  24.207  27.760  1.00  0.00    +0.000 H 
ATOM    117  H29 UNL A   1      42.092  31.262  31.703  1.00  0.00    +0.000 H 
ATOM    118  H30 UNL A   1      40.334  30.385  30.118  1.00  0.00    +0.000 H 
ATOM    119  H31 UNL A   1      43.322  27.531  30.345  1.00  0.00    +0.000 H 
ATOM    120  H32 UNL A   1      44.486  26.972  33.817  1.00  0.00    +0.000 H 
ATOM    121  H33 UNL A   1      46.073  25.300  32.627  1.00  0.00    +0.000 H 
ATOM    122  H34 UNL A   1      40.086  24.072  26.430  1.00  0.00    +0.000 H 
ATOM    123  H35 UNL A   1      39.304  26.453  26.963  1.00  0.00    +0.000 H 
ENDROOT
BRANCH   30   29
ATOM    124  H36 UNL A   1      38.402  27.795  30.513  1.00  0.00    +0.000 H 
ATOM     29  C23 UNL A   1      39.433  28.377  28.756  1.00  0.00    +0.000 C 
ATOM    112  H24 UNL A   1      38.119  30.297  26.349  1.00  0.00    +0.000 H 
ATOM    113  H25 UNL A   1      40.134  29.051  26.876  1.00  0.00    +0.000 H 
ATOM     87  C62 UNL A   1      38.341  28.332  29.634  1.00  0.00    +0.000 C 
ATOM     88  C63 UNL A   1      37.177  29.019  29.313  1.00  0.00    +0.000 C 
ATOM     26  C20 UNL A   1      37.125  29.786  28.145  1.00  0.00    +0.000 C 
ATOM     27  C21 UNL A   1      38.190  29.778  27.239  1.00  0.00    +0.000 C 
ATOM     28  C22 UNL A   1      39.346  29.068  27.541  1.00  0.00    +0.000 C 
ATOM    125  H37 UNL A   1      36.353  28.960  29.933  1.00  0.00    +0.000 H 
BRANCH   26   24
ATOM     25  O2  UNL A   1      36.012  31.819  27.837  1.00  0.00    +0.000 O 
ATOM     24  C19 UNL A   1      35.939  30.603  27.810  1.00  0.00    +0.000 C 
BRANCH   24   23
ATOM    111  H23 UNL A   1      33.942  30.372  27.930  1.00  0.00    +0.000 H 
ATOM     23  N3  UNL A   1      34.745  29.988  27.510  1.00  0.00    +0.000 N 
BRANCH   23   22
ATOM    110  H22 UNL A   1      35.374  28.190  26.727  1.00  0.00    +0.000 H 
ATOM    109  H21 UNL A   1      34.412  29.182  25.635  1.00  0.00    +0.000 H 
ATOM     22  C18 UNL A   1      34.529  28.841  26.643  1.00  0.00    +0.000 C 
BRANCH   22   21
ATOM    107  H19 UNL A   1      33.592  27.191  27.588  1.00  0.00    +0.000 H 
ATOM    108  H20 UNL A   1      32.687  28.724  27.645  1.00  0.00    +0.000 H 
ATOM     21  C17 UNL A   1      33.283  28.063  27.051  1.00  0.00    +0.000 C 
BRANCH   21   20
ATOM    105  H17 UNL A   1      33.064  27.324  25.079  1.00  0.00    +0.000 H 
ATOM    106  H18 UNL A   1      31.793  26.836  26.261  1.00  0.00    +0.000 H 
ATOM     20  C16 UNL A   1      32.411  27.620  25.873  1.00  0.00    +0.000 C 
BRANCH   20   19
ATOM     19  C15 UNL A   1      31.437  28.656  25.310  1.00  0.00    +0.000 C 
ATOM    103  H15 UNL A   1      30.674  28.818  26.042  1.00  0.00    +0.000 H 
ATOM    104  H16 UNL A   1      32.032  29.520  25.095  1.00  0.00    +0.000 H 
BRANCH   19   18
ATOM     18  C14 UNL A   1      30.750  28.293  23.990  1.00  0.00    +0.000 C 
ATOM    101  H13 UNL A   1      30.114  27.452  24.174  1.00  0.00    +0.000 H 
ATOM    102  H14 UNL A   1      30.232  29.179  23.685  1.00  0.00    +0.000 H 
BRANCH   18   17
ATOM     17  C13 UNL A   1      31.670  27.936  22.823  1.00  0.00    +0.000 C 
ATOM     99  H11 UNL A   1      31.456  28.598  22.011  1.00  0.00    +0.000 H 
ATOM    100  H12 UNL A   1      32.673  28.032  23.181  1.00  0.00    +0.000 H 
BRANCH   17   16
ATOM     98  H10 UNL A   1      30.715  26.304  21.858  1.00  0.00    +0.000 H 
ATOM     16  N2  UNL A   1      31.523  26.572  22.351  1.00  0.00    +0.000 N 
BRANCH   16    2
ATOM      1  O1  UNL A   1      33.717  25.881  22.401  1.00  0.00    +0.000 O 
ATOM      2  C1  UNL A   1      32.526  25.649  22.598  1.00  0.00    +0.000 C 
BRANCH    2    3
ATOM     89  H1  UNL A   1      32.695  23.559  22.644  1.00  0.00    +0.000 H 
ATOM     90  H2  UNL A   1      31.021  24.246  22.728  1.00  0.00    +0.000 H 
ATOM      3  C2  UNL A   1      32.037  24.292  23.061  1.00  0.00    +0.000 C 
BRANCH    3    4
ATOM      4  C3  UNL A   1      31.960  24.037  24.542  1.00  0.00    +0.000 C 
ATOM      5  C4  UNL A   1      30.845  24.287  25.337  1.00  0.00    +0.000 C 
ATOM      6  C5  UNL A   1      31.104  23.823  26.641  1.00  0.00    +0.000 C 
ATOM      7  C6  UNL A   1      32.370  23.292  26.628  1.00  0.00    +0.000 C 
ATOM      8  N1  UNL A   1      32.904  23.432  25.363  1.00  0.00    +0.000 N 
ATOM     91  H3  UNL A   1      29.973  24.739  25.021  1.00  0.00    +0.000 H 
ATOM     92  H4  UNL A   1      30.467  23.874  27.451  1.00  0.00    +0.000 H 
ATOM     93  H5  UNL A   1      32.846  22.858  27.434  1.00  0.00    +0.000 H 
BRANCH    8    9
ATOM     97  H9  UNL A   1      37.254  24.554  25.026  1.00  0.00    +0.000 H 
ATOM      9  C7  UNL A   1      34.238  23.107  25.083  1.00  0.00    +0.000 C 
ATOM     10  C8  UNL A   1      34.602  21.785  24.830  1.00  0.00    +0.000 C 
ATOM     11  C9  UNL A   1      35.951  21.490  24.608  1.00  0.00    +0.000 C 
ATOM     12  C10 UNL A   1      36.916  22.500  24.663  1.00  0.00    +0.000 C 
ATOM     13  C11 UNL A   1      36.541  23.809  24.965  1.00  0.00    +0.000 C 
ATOM     14  C12 UNL A   1      35.201  24.104  25.184  1.00  0.00    +0.000 C 
ATOM     15  F1  UNL A   1      34.843  25.358  25.493  1.00  0.00    +0.000 F 
ATOM     94  H6  UNL A   1      33.891  21.038  24.808  1.00  0.00    +0.000 H 
ATOM     95  H7  UNL A   1      36.236  20.519  24.401  1.00  0.00    +0.000 H 
ATOM     96  H8  UNL A   1      37.907  22.277  24.480  1.00  0.00    +0.000 H 
ENDBRANCH    8    9
ENDBRANCH    3    4
ENDBRANCH    2    3
ENDBRANCH   16    2
ENDBRANCH   17   16
ENDBRANCH   18   17
ENDBRANCH   19   18
ENDBRANCH   20   19
ENDBRANCH   21   20
ENDBRANCH   22   21
ENDBRANCH   23   22
ENDBRANCH   24   23
ENDBRANCH   26   24
ENDBRANCH   30   29
BRANCH   34   35
ATOM     35  C28 UNL A   1      42.633  22.236  26.861  1.00  0.00    +0.000 C 
ATOM     36  C29 UNL A   1      43.621  22.272  25.868  1.00  0.00    +0.000 C 
ATOM     37  F2  UNL A   1      44.313  23.392  25.625  1.00  0.00    +0.000 F 
ATOM     38  C30 UNL A   1      43.986  21.121  25.161  1.00  0.00    +0.000 C 
ATOM     39  F3  UNL A   1      44.963  21.186  24.246  1.00  0.00    +0.000 F 
ATOM     40  C31 UNL A   1      43.396  19.898  25.442  1.00  0.00    +0.000 C 
ATOM     41  F4  UNL A   1      43.819  18.783  24.832  1.00  0.00    +0.000 F 
ATOM     42  C32 UNL A   1      42.386  19.834  26.381  1.00  0.00    +0.000 C 
ATOM     43  F5  UNL A   1      41.823  18.656  26.684  1.00  0.00    +0.000 F 
ATOM     44  C33 UNL A   1      41.990  20.989  27.056  1.00  0.00    +0.000 C 
ATOM     45  F6  UNL A   1      41.000  20.859  27.953  1.00  0.00    +0.000 F 
ENDBRANCH   34   35
BRANCH   51   52
ATOM     52  C39 UNL A   1      45.914  26.793  28.493  1.00  0.00    +0.000 C 
ATOM     53  C40 UNL A   1      44.845  27.343  27.765  1.00  0.00    +0.000 C 
ATOM     54  F7  UNL A   1      43.587  27.025  28.061  1.00  0.00    +0.000 F 
ATOM     55  C41 UNL A   1      45.040  28.232  26.709  1.00  0.00    +0.000 C 
ATOM     56  F8  UNL A   1      43.985  28.716  26.035  1.00  0.00    +0.000 F 
ATOM     57  C42 UNL A   1      46.321  28.612  26.355  1.00  0.00    +0.000 C 
ATOM     58  F9  UNL A   1      46.513  29.467  25.342  1.00  0.00    +0.000 F 
ATOM     59  C43 UNL A   1      47.400  28.088  27.048  1.00  0.00    +0.000 C 
ATOM     60  F10 UNL A   1      48.644  28.448  26.705  1.00  0.00    +0.000 F 
ATOM     61  C44 UNL A   1      47.201  27.187  28.098  1.00  0.00    +0.000 C 
ATOM     62  F11 UNL A   1      48.275  26.700  28.737  1.00  0.00    +0.000 F 
ENDBRANCH   51   52
BRANCH   66   67
ATOM     67  C48 UNL A   1      44.697  30.276  33.414  1.00  0.00    +0.000 C 
ATOM     68  C49 UNL A   1      45.894  31.040  33.295  1.00  0.00    +0.000 C 
ATOM     69  F12 UNL A   1      46.506  31.204  32.115  1.00  0.00    +0.000 F 
ATOM     70  C50 UNL A   1      46.523  31.664  34.374  1.00  0.00    +0.000 C 
ATOM     71  F13 UNL A   1      47.705  32.270  34.194  1.00  0.00    +0.000 F 
ATOM     72  C51 UNL A   1      45.944  31.633  35.620  1.00  0.00    +0.000 C 
ATOM     73  F14 UNL A   1      46.555  32.202  36.666  1.00  0.00    +0.000 F 
ATOM     74  C52 UNL A   1      44.715  31.019  35.762  1.00  0.00    +0.000 C 
ATOM     75  F15 UNL A   1      44.106  31.039  36.956  1.00  0.00    +0.000 F 
ATOM     76  C53 UNL A   1      44.101  30.363  34.681  1.00  0.00    +0.000 C 
ATOM     77  F16 UNL A   1      42.896  29.846  34.927  1.00  0.00    +0.000 F 
ENDBRANCH   66   67
TORSDOF 17
ENDMDL
MODEL 5
REMARK VINA RESULT:     -10.3     17.919     23.489
ROOT
ATOM     30  C24 UNL A   1      39.973  29.360  29.426  1.00  0.00    +0.000 C 
ATOM     31  C25 UNL A   1      38.779  30.319  29.365  1.00  0.00    +0.000 C 
ATOM     32  N4  UNL A   1      38.733  31.610  29.506  1.00  0.00    +0.000 N 
ATOM     33  C26 UNL A   1      37.376  31.992  29.471  1.00  0.00    +0.000 C 
ATOM     34  C27 UNL A   1      36.928  33.226  29.845  1.00  0.00    +0.000 C 
ATOM     46  C34 UNL A   1      38.014  34.076  30.194  1.00  0.00    +0.000 C 
ATOM     47  C35 UNL A   1      38.904  34.800  29.448  1.00  0.00    +0.000 C 
ATOM     48  C36 UNL A   1      40.062  34.878  30.250  1.00  0.00    +0.000 C 
ATOM     49  C37 UNL A   1      39.811  34.267  31.482  1.00  0.00    +0.000 C 
ATOM     50  N5  UNL A   1      38.454  34.044  31.493  1.00  0.00    +0.000 N 
ATOM     51  C38 UNL A   1      40.602  33.681  32.542  1.00  0.00    +0.000 C 
ATOM     63  C45 UNL A   1      41.949  33.675  32.387  1.00  0.00    +0.000 C 
ATOM     64  N6  UNL A   1      42.670  32.548  32.718  1.00  0.00    +0.000 N 
ATOM     65  C46 UNL A   1      43.473  32.415  31.704  1.00  0.00    +0.000 C 
ATOM     66  C47 UNL A   1      44.193  31.174  31.357  1.00  0.00    +0.000 C 
ATOM     78  C54 UNL A   1      43.239  30.316  30.880  1.00  0.00    +0.000 C 
ATOM     79  C55 UNL A   1      43.405  28.938  30.463  1.00  0.00    +0.000 C 
ATOM     80  C56 UNL A   1      42.254  28.477  29.943  1.00  0.00    +0.000 C 
ATOM     81  C57 UNL A   1      41.216  29.522  29.963  1.00  0.00    +0.000 C 
ATOM     82  N7  UNL A   1      41.866  30.553  30.612  1.00  0.00    +0.000 N 
ATOM     83  C58 UNL A   1      43.584  33.572  30.808  1.00  0.00    +0.000 C 
ATOM     84  C59 UNL A   1      42.731  34.395  31.411  1.00  0.00    +0.000 C 
ATOM     85  C60 UNL A   1      36.631  30.826  29.101  1.00  0.00    +0.000 C 
ATOM     86  C61 UNL A   1      37.434  29.761  29.058  1.00  0.00    +0.000 C 
ATOM    114  H26 UNL A   1      38.760  35.201  28.508  1.00  0.00    +0.000 H 
ATOM    115  H27 UNL A   1      40.954  35.316  29.971  1.00  0.00    +0.000 H 
ATOM    116  H28 UNL A   1      37.897  33.888  32.290  1.00  0.00    +0.000 H 
ATOM    117  H29 UNL A   1      44.276  28.393  30.552  1.00  0.00    +0.000 H 
ATOM    118  H30 UNL A   1      42.117  27.520  29.579  1.00  0.00    +0.000 H 
ATOM    119  H31 UNL A   1      41.412  31.388  30.869  1.00  0.00    +0.000 H 
ATOM    120  H32 UNL A   1      44.154  33.707  29.959  1.00  0.00    +0.000 H 
ATOM    121  H33 UNL A   1      42.642  35.403  31.211  1.00  0.00    +0.000 H 
ATOM    122  H34 UNL A   1      35.620  30.812  28.897  1.00  0.00    +0.000 H 
ATOM    123  H35 UNL A   1      37.181  28.781  28.857  1.00  0.00    +0.000 H 
ENDROOT
BRANCH   30   29
ATOM    124  H36 UNL A   1      40.445  28.606  26.882  1.00  0.00    +0.000 H 
ATOM     29  C23 UNL A   1      39.709  28.050  28.789  1.00  0.00    +0.000 C 
ATOM    112  H24 UNL A   1      38.659  24.972  29.580  1.00  0.00    +0.000 H 
ATOM    113  H25 UNL A   1      38.849  27.199  30.526  1.00  0.00    +0.000 H 
ATOM     87  C62 UNL A   1      40.073  27.831  27.453  1.00  0.00    +0.000 C 
ATOM     88  C63 UNL A   1      39.930  26.563  26.905  1.00  0.00    +0.000 C 
ATOM     26  C20 UNL A   1      39.475  25.509  27.704  1.00  0.00    +0.000 C 
ATOM     27  C21 UNL A   1      39.053  25.742  29.017  1.00  0.00    +0.000 C 
ATOM     28  C22 UNL A   1      39.165  27.016  29.561  1.00  0.00    +0.000 C 
ATOM    125  H37 UNL A   1      40.157  26.399  25.911  1.00  0.00    +0.000 H 
BRANCH   26   24
ATOM     25  O2  UNL A   1      40.096  23.255  27.668  1.00  0.00    +0.000 O 
ATOM     24  C19 UNL A   1      39.393  24.127  27.187  1.00  0.00    +0.000 C 
BRANCH   24   23
ATOM    111  H23 UNL A   1      38.373  24.573  25.508  1.00  0.00    +0.000 H 
ATOM     23  N3  UNL A   1      38.554  23.836  26.136  1.00  0.00    +0.000 N 
BRANCH   23   22
ATOM    110  H22 UNL A   1      38.195  21.859  26.587  1.00  0.00    +0.000 H 
ATOM    109  H21 UNL A   1      38.203  22.241  24.867  1.00  0.00    +0.000 H 
ATOM     22  C18 UNL A   1      37.903  22.569  25.842  1.00  0.00    +0.000 C 
BRANCH   22   21
ATOM    107  H19 UNL A   1      35.960  21.814  25.457  1.00  0.00    +0.000 H 
ATOM    108  H20 UNL A   1      36.110  22.852  26.897  1.00  0.00    +0.000 H 
ATOM     21  C17 UNL A   1      36.385  22.703  25.874  1.00  0.00    +0.000 C 
BRANCH   21   20
ATOM    105  H17 UNL A   1      36.601  24.665  25.107  1.00  0.00    +0.000 H 
ATOM    106  H18 UNL A   1      35.613  23.525  24.120  1.00  0.00    +0.000 H 
ATOM     20  C16 UNL A   1      35.848  23.905  25.093  1.00  0.00    +0.000 C 
BRANCH   20   19
ATOM     19  C15 UNL A   1      34.549  24.532  25.603  1.00  0.00    +0.000 C 
ATOM    103  H15 UNL A   1      34.810  25.380  26.201  1.00  0.00    +0.000 H 
ATOM    104  H16 UNL A   1      33.982  24.768  24.727  1.00  0.00    +0.000 H 
BRANCH   19   18
ATOM     18  C14 UNL A   1      33.645  23.626  26.445  1.00  0.00    +0.000 C 
ATOM    101  H13 UNL A   1      33.792  22.619  26.113  1.00  0.00    +0.000 H 
ATOM    102  H14 UNL A   1      33.933  23.802  27.461  1.00  0.00    +0.000 H 
BRANCH   18   17
ATOM     17  C13 UNL A   1      32.147  23.923  26.387  1.00  0.00    +0.000 C 
ATOM     99  H11 UNL A   1      31.721  23.349  25.592  1.00  0.00    +0.000 H 
ATOM    100  H12 UNL A   1      31.745  23.666  27.344  1.00  0.00    +0.000 H 
BRANCH   17   16
ATOM     98  H10 UNL A   1      32.522  26.010  26.282  1.00  0.00    +0.000 H 
ATOM     16  N2  UNL A   1      31.830  25.321  26.162  1.00  0.00    +0.000 N 
BRANCH   16    2
ATOM      1  O1  UNL A   1      29.539  25.303  26.366  1.00  0.00    +0.000 O 
ATOM      2  C1  UNL A   1      30.549  25.679  25.776  1.00  0.00    +0.000 C 
BRANCH    2    3
ATOM     89  H1  UNL A   1      30.089  27.472  24.788  1.00  0.00    +0.000 H 
ATOM     90  H2  UNL A   1      29.873  25.940  23.846  1.00  0.00    +0.000 H 
ATOM      3  C2  UNL A   1      30.479  26.514  24.514  1.00  0.00    +0.000 C 
BRANCH    3    4
ATOM      4  C3  UNL A   1      31.757  26.751  23.753  1.00  0.00    +0.000 C 
ATOM      5  C4  UNL A   1      32.137  26.067  22.603  1.00  0.00    +0.000 C 
ATOM      6  C5  UNL A   1      33.330  26.632  22.112  1.00  0.00    +0.000 C 
ATOM      7  C6  UNL A   1      33.663  27.655  22.965  1.00  0.00    +0.000 C 
ATOM      8  N1  UNL A   1      32.723  27.725  23.973  1.00  0.00    +0.000 N 
ATOM     91  H3  UNL A   1      31.627  25.275  22.179  1.00  0.00    +0.000 H 
ATOM     92  H4  UNL A   1      33.854  26.333  21.275  1.00  0.00    +0.000 H 
ATOM     93  H5  UNL A   1      34.483  28.273  22.867  1.00  0.00    +0.000 H 
BRANCH    8    9
ATOM     97  H9  UNL A   1      31.395  31.255  26.437  1.00  0.00    +0.000 H 
ATOM      9  C7  UNL A   1      32.877  28.585  25.068  1.00  0.00    +0.000 C 
ATOM     10  C8  UNL A   1      33.842  28.323  26.040  1.00  0.00    +0.000 C 
ATOM     11  C9  UNL A   1      33.931  29.174  27.146  1.00  0.00    +0.000 C 
ATOM     12  C10 UNL A   1      33.050  30.252  27.284  1.00  0.00    +0.000 C 
ATOM     13  C11 UNL A   1      32.059  30.471  26.327  1.00  0.00    +0.000 C 
ATOM     14  C12 UNL A   1      31.972  29.628  25.226  1.00  0.00    +0.000 C 
ATOM     15  F1  UNL A   1      31.007  29.827  24.317  1.00  0.00    +0.000 F 
ATOM     94  H6  UNL A   1      34.479  27.517  25.945  1.00  0.00    +0.000 H 
ATOM     95  H7  UNL A   1      34.652  29.005  27.865  1.00  0.00    +0.000 H 
ATOM     96  H8  UNL A   1      33.134  30.886  28.094  1.00  0.00    +0.000 H 
ENDBRANCH    8    9
ENDBRANCH    3    4
ENDBRANCH    2    3
ENDBRANCH   16    2
ENDBRANCH   17   16
ENDBRANCH   18   17
ENDBRANCH   19   18
ENDBRANCH   20   19
ENDBRANCH   21   20
ENDBRANCH   22   21
ENDBRANCH   23   22
ENDBRANCH   24   23
ENDBRANCH   26   24
ENDBRANCH   30   29
BRANCH   34   35
ATOM     35  C28 UNL A   1      35.538  33.745  30.095  1.00  0.00    +0.000 C 
ATOM     36  C29 UNL A   1      34.980  33.869  31.374  1.00  0.00    +0.000 C 
ATOM     37  F2  UNL A   1      35.551  33.285  32.434  1.00  0.00    +0.000 F 
ATOM     38  C30 UNL A   1      33.862  34.680  31.605  1.00  0.00    +0.000 C 
ATOM     39  F3  UNL A   1      33.380  34.805  32.849  1.00  0.00    +0.000 F 
ATOM     40  C31 UNL A   1      33.289  35.409  30.575  1.00  0.00    +0.000 C 
ATOM     41  F4  UNL A   1      32.284  36.260  30.823  1.00  0.00    +0.000 F 
ATOM     42  C32 UNL A   1      33.784  35.275  29.294  1.00  0.00    +0.000 C 
ATOM     43  F5  UNL A   1      33.259  35.994  28.291  1.00  0.00    +0.000 F 
ATOM     44  C33 UNL A   1      34.870  34.434  29.052  1.00  0.00    +0.000 C 
ATOM     45  F6  UNL A   1      35.301  34.345  27.784  1.00  0.00    +0.000 F 
ENDBRANCH   34   35
BRANCH   51   52
ATOM     52  C39 UNL A   1      40.117  32.687  33.575  1.00  0.00    +0.000 C 
ATOM     53  C40 UNL A   1      40.149  32.926  34.960  1.00  0.00    +0.000 C 
ATOM     54  F7  UNL A   1      40.747  34.010  35.448  1.00  0.00    +0.000 F 
ATOM     55  C41 UNL A   1      39.570  32.054  35.881  1.00  0.00    +0.000 C 
ATOM     56  F8  UNL A   1      39.644  32.321  37.195  1.00  0.00    +0.000 F 
ATOM     57  C42 UNL A   1      38.925  30.915  35.441  1.00  0.00    +0.000 C 
ATOM     58  F9  UNL A   1      38.367  30.075  36.323  1.00  0.00    +0.000 F 
ATOM     59  C43 UNL A   1      38.876  30.644  34.083  1.00  0.00    +0.000 C 
ATOM     60  F10 UNL A   1      38.256  29.538  33.651  1.00  0.00    +0.000 F 
ATOM     61  C44 UNL A   1      39.467  31.514  33.163  1.00  0.00    +0.000 C 
ATOM     62  F11 UNL A   1      39.401  31.210  31.858  1.00  0.00    +0.000 F 
ENDBRANCH   51   52
BRANCH   66   67
ATOM     67  C48 UNL A   1      45.703  31.181  31.489  1.00  0.00    +0.000 C 
ATOM     68  C49 UNL A   1      46.520  31.147  30.323  1.00  0.00    +0.000 C 
ATOM     69  F12 UNL A   1      46.009  31.354  29.102  1.00  0.00    +0.000 F 
ATOM     70  C50 UNL A   1      47.894  30.894  30.348  1.00  0.00    +0.000 C 
ATOM     71  F13 UNL A   1      48.568  30.771  29.196  1.00  0.00    +0.000 F 
ATOM     72  C51 UNL A   1      48.544  30.747  31.549  1.00  0.00    +0.000 C 
ATOM     73  F14 UNL A   1      49.854  30.474  31.582  1.00  0.00    +0.000 F 
ATOM     74  C52 UNL A   1      47.821  30.904  32.715  1.00  0.00    +0.000 C 
ATOM     75  F15 UNL A   1      48.454  30.830  33.894  1.00  0.00    +0.000 F 
ATOM     76  C53 UNL A   1      46.433  31.124  32.685  1.00  0.00    +0.000 C 
ATOM     77  F16 UNL A   1      45.851  31.305  33.872  1.00  0.00    +0.000 F 
ENDBRANCH   66   67
TORSDOF 17
ENDMDL
MODEL 6
REMARK VINA RESULT:     -10.3     21.306     25.485
ROOT
ATOM     30  C24 UNL A   1      40.755  27.756  29.128  1.00  0.00    +0.000 C 
ATOM     31  C25 UNL A   1      40.951  26.351  28.548  1.00  0.00    +0.000 C 
ATOM     32  N4  UNL A   1      41.758  25.399  28.911  1.00  0.00    +0.000 N 
ATOM     33  C26 UNL A   1      41.622  24.349  27.979  1.00  0.00    +0.000 C 
ATOM     34  C27 UNL A   1      42.492  23.301  27.888  1.00  0.00    +0.000 C 
ATOM     46  C34 UNL A   1      43.491  23.381  28.898  1.00  0.00    +0.000 C 
ATOM     47  C35 UNL A   1      43.494  23.062  30.229  1.00  0.00    +0.000 C 
ATOM     48  C36 UNL A   1      44.452  23.925  30.800  1.00  0.00    +0.000 C 
ATOM     49  C37 UNL A   1      45.051  24.683  29.790  1.00  0.00    +0.000 C 
ATOM     50  N5  UNL A   1      44.621  24.107  28.617  1.00  0.00    +0.000 N 
ATOM     51  C38 UNL A   1      45.768  25.936  29.705  1.00  0.00    +0.000 C 
ATOM     63  C45 UNL A   1      45.955  26.629  30.855  1.00  0.00    +0.000 C 
ATOM     64  N6  UNL A   1      45.775  27.995  30.867  1.00  0.00    +0.000 N 
ATOM     65  C46 UNL A   1      45.073  28.182  31.946  1.00  0.00    +0.000 C 
ATOM     66  C47 UNL A   1      44.285  29.394  32.239  1.00  0.00    +0.000 C 
ATOM     78  C54 UNL A   1      43.209  29.348  31.394  1.00  0.00    +0.000 C 
ATOM     79  C55 UNL A   1      42.161  30.333  31.228  1.00  0.00    +0.000 C 
ATOM     80  C56 UNL A   1      41.222  29.864  30.387  1.00  0.00    +0.000 C 
ATOM     81  C57 UNL A   1      41.566  28.508  29.925  1.00  0.00    +0.000 C 
ATOM     82  N7  UNL A   1      42.803  28.317  30.508  1.00  0.00    +0.000 N 
ATOM     83  C58 UNL A   1      45.010  27.052  32.881  1.00  0.00    +0.000 C 
ATOM     84  C59 UNL A   1      45.746  26.173  32.208  1.00  0.00    +0.000 C 
ATOM     85  C60 UNL A   1      40.514  24.689  27.138  1.00  0.00    +0.000 C 
ATOM     86  C61 UNL A   1      40.085  25.922  27.416  1.00  0.00    +0.000 C 
ATOM    114  H26 UNL A   1      42.923  22.348  30.707  1.00  0.00    +0.000 H 
ATOM    115  H27 UNL A   1      44.675  23.988  31.806  1.00  0.00    +0.000 H 
ATOM    116  H28 UNL A   1      45.047  24.199  27.734  1.00  0.00    +0.000 H 
ATOM    117  H29 UNL A   1      42.139  31.258  31.685  1.00  0.00    +0.000 H 
ATOM    118  H30 UNL A   1      40.375  30.383  30.106  1.00  0.00    +0.000 H 
ATOM    119  H31 UNL A   1      43.359  27.526  30.324  1.00  0.00    +0.000 H 
ATOM    120  H32 UNL A   1      44.534  26.966  33.793  1.00  0.00    +0.000 H 
ATOM    121  H33 UNL A   1      46.115  25.291  32.597  1.00  0.00    +0.000 H 
ATOM    122  H34 UNL A   1      40.106  24.070  26.420  1.00  0.00    +0.000 H 
ATOM    123  H35 UNL A   1      39.329  26.452  26.955  1.00  0.00    +0.000 H 
ENDROOT
BRANCH   30   29
ATOM    124  H36 UNL A   1      38.432  27.770  30.495  1.00  0.00    +0.000 H 
ATOM     29  C23 UNL A   1      39.466  28.376  28.748  1.00  0.00    +0.000 C 
ATOM    112  H24 UNL A   1      38.154  30.322  26.361  1.00  0.00    +0.000 H 
ATOM    113  H25 UNL A   1      40.171  29.074  26.878  1.00  0.00    +0.000 H 
ATOM     87  C62 UNL A   1      38.372  28.318  29.623  1.00  0.00    +0.000 C 
ATOM     88  C63 UNL A   1      37.208  29.005  29.306  1.00  0.00    +0.000 C 
ATOM     26  C20 UNL A   1      37.156  29.787  28.148  1.00  0.00    +0.000 C 
ATOM     27  C21 UNL A   1      38.224  29.793  27.244  1.00  0.00    +0.000 C 
ATOM     28  C22 UNL A   1      39.381  29.082  27.541  1.00  0.00    +0.000 C 
ATOM    125  H37 UNL A   1      36.382  28.938  29.923  1.00  0.00    +0.000 H 
BRANCH   26   24
ATOM     25  O2  UNL A   1      36.030  31.820  27.892  1.00  0.00    +0.000 O 
ATOM     24  C19 UNL A   1      35.969  30.605  27.820  1.00  0.00    +0.000 C 
BRANCH   24   23
ATOM    111  H23 UNL A   1      34.834  29.021  27.311  1.00  0.00    +0.000 H 
ATOM     23  N3  UNL A   1      34.787  29.991  27.473  1.00  0.00    +0.000 N 
BRANCH   23   22
ATOM    110  H22 UNL A   1      33.597  31.525  26.786  1.00  0.00    +0.000 H 
ATOM    109  H21 UNL A   1      33.060  30.781  28.290  1.00  0.00    +0.000 H 
ATOM     22  C18 UNL A   1      33.478  30.606  27.320  1.00  0.00    +0.000 C 
BRANCH   22   21
ATOM    107  H19 UNL A   1      31.794  30.328  26.063  1.00  0.00    +0.000 H 
ATOM    108  H20 UNL A   1      33.133  29.180  25.818  1.00  0.00    +0.000 H 
ATOM     21  C17 UNL A   1      32.533  29.710  26.528  1.00  0.00    +0.000 C 
BRANCH   21   20
ATOM    105  H17 UNL A   1      32.267  28.656  28.345  1.00  0.00    +0.000 H 
ATOM    106  H18 UNL A   1      30.783  28.939  27.360  1.00  0.00    +0.000 H 
ATOM     20  C16 UNL A   1      31.816  28.655  27.375  1.00  0.00    +0.000 C 
BRANCH   20   19
ATOM     19  C15 UNL A   1      31.845  27.218  26.853  1.00  0.00    +0.000 C 
ATOM    103  H15 UNL A   1      32.831  27.025  26.484  1.00  0.00    +0.000 H 
ATOM    104  H16 UNL A   1      31.558  26.606  27.683  1.00  0.00    +0.000 H 
BRANCH   19   18
ATOM     18  C14 UNL A   1      30.853  26.883  25.734  1.00  0.00    +0.000 C 
ATOM    101  H13 UNL A   1      30.170  27.703  25.648  1.00  0.00    +0.000 H 
ATOM    102  H14 UNL A   1      31.452  26.716  24.863  1.00  0.00    +0.000 H 
BRANCH   18   17
ATOM     17  C13 UNL A   1      30.032  25.608  25.917  1.00  0.00    +0.000 C 
ATOM     99  H11 UNL A   1      29.922  25.426  26.965  1.00  0.00    +0.000 H 
ATOM    100  H12 UNL A   1      29.095  25.771  25.426  1.00  0.00    +0.000 H 
BRANCH   17   16
ATOM     98  H10 UNL A   1      30.783  24.403  24.339  1.00  0.00    +0.000 H 
ATOM     16  N2  UNL A   1      30.624  24.431  25.310  1.00  0.00    +0.000 N 
BRANCH   16    2
ATOM      1  O1  UNL A   1      30.273  22.335  26.190  1.00  0.00    +0.000 O 
ATOM      2  C1  UNL A   1      30.964  23.348  26.103  1.00  0.00    +0.000 C 
BRANCH    2    3
ATOM     89  H1  UNL A   1      32.039  23.110  27.888  1.00  0.00    +0.000 H 
ATOM     90  H2  UNL A   1      32.398  24.591  26.909  1.00  0.00    +0.000 H 
ATOM      3  C2  UNL A   1      32.223  23.536  26.924  1.00  0.00    +0.000 C 
BRANCH    3    4
ATOM      4  C3  UNL A   1      33.501  22.934  26.404  1.00  0.00    +0.000 C 
ATOM      5  C4  UNL A   1      34.204  21.903  27.020  1.00  0.00    +0.000 C 
ATOM      6  C5  UNL A   1      35.280  21.530  26.193  1.00  0.00    +0.000 C 
ATOM      7  C6  UNL A   1      35.222  22.333  25.081  1.00  0.00    +0.000 C 
ATOM      8  N1  UNL A   1      34.155  23.199  25.208  1.00  0.00    +0.000 N 
ATOM     91  H3  UNL A   1      33.972  21.481  27.934  1.00  0.00    +0.000 H 
ATOM     92  H4  UNL A   1      35.980  20.796  26.386  1.00  0.00    +0.000 H 
ATOM     93  H5  UNL A   1      35.870  22.294  24.279  1.00  0.00    +0.000 H 
BRANCH    8    9
ATOM     97  H9  UNL A   1      32.660  24.681  21.225  1.00  0.00    +0.000 H 
ATOM      9  C7  UNL A   1      33.929  24.232  24.288  1.00  0.00    +0.000 C 
ATOM     10  C8  UNL A   1      34.159  25.559  24.648  1.00  0.00    +0.000 C 
ATOM     11  C9  UNL A   1      33.872  26.567  23.722  1.00  0.00    +0.000 C 
ATOM     12  C10 UNL A   1      33.340  26.247  22.468  1.00  0.00    +0.000 C 
ATOM     13  C11 UNL A   1      33.070  24.918  22.142  1.00  0.00    +0.000 C 
ATOM     14  C12 UNL A   1      33.358  23.916  23.060  1.00  0.00    +0.000 C 
ATOM     15  F1  UNL A   1      33.081  22.640  22.754  1.00  0.00    +0.000 F 
ATOM     94  H6  UNL A   1      34.534  25.794  25.580  1.00  0.00    +0.000 H 
ATOM     95  H7  UNL A   1      34.053  27.553  23.966  1.00  0.00    +0.000 H 
ATOM     96  H8  UNL A   1      33.147  26.995  21.784  1.00  0.00    +0.000 H 
ENDBRANCH    8    9
ENDBRANCH    3    4
ENDBRANCH    2    3
ENDBRANCH   16    2
ENDBRANCH   17   16
ENDBRANCH   18   17
ENDBRANCH   19   18
ENDBRANCH   20   19
ENDBRANCH   21   20
ENDBRANCH   22   21
ENDBRANCH   23   22
ENDBRANCH   24   23
ENDBRANCH   26   24
ENDBRANCH   30   29
BRANCH   34   35
ATOM     35  C28 UNL A   1      42.652  22.230  26.844  1.00  0.00    +0.000 C 
ATOM     36  C29 UNL A   1      43.618  22.280  25.830  1.00  0.00    +0.000 C 
ATOM     37  F2  UNL A   1      44.285  23.411  25.568  1.00  0.00    +0.000 F 
ATOM     38  C30 UNL A   1      43.986  21.132  25.117  1.00  0.00    +0.000 C 
ATOM     39  F3  UNL A   1      44.942  21.211  24.181  1.00  0.00    +0.000 F 
ATOM     40  C31 UNL A   1      43.423  19.901  25.414  1.00  0.00    +0.000 C 
ATOM     41  F4  UNL A   1      43.851  18.791  24.799  1.00  0.00    +0.000 F 
ATOM     42  C32 UNL A   1      42.434  19.824  26.375  1.00  0.00    +0.000 C 
ATOM     43  F5  UNL A   1      41.898  18.637  26.694  1.00  0.00    +0.000 F 
ATOM     44  C33 UNL A   1      42.034  20.973  27.056  1.00  0.00    +0.000 C 
ATOM     45  F6  UNL A   1      41.066  20.830  27.975  1.00  0.00    +0.000 F 
ENDBRANCH   34   35
BRANCH   51   52
ATOM     52  C39 UNL A   1      45.944  26.784  28.463  1.00  0.00    +0.000 C 
ATOM     53  C40 UNL A   1      44.874  27.337  27.740  1.00  0.00    +0.000 C 
ATOM     54  F7  UNL A   1      43.616  27.023  28.042  1.00  0.00    +0.000 F 
ATOM     55  C41 UNL A   1      45.067  28.226  26.684  1.00  0.00    +0.000 C 
ATOM     56  F8  UNL A   1      44.010  28.712  26.014  1.00  0.00    +0.000 F 
ATOM     57  C42 UNL A   1      46.347  28.601  26.324  1.00  0.00    +0.000 C 
ATOM     58  F9  UNL A   1      46.537  29.456  25.310  1.00  0.00    +0.000 F 
ATOM     59  C43 UNL A   1      47.428  28.074  27.012  1.00  0.00    +0.000 C 
ATOM     60  F10 UNL A   1      48.671  28.431  26.664  1.00  0.00    +0.000 F 
ATOM     61  C44 UNL A   1      47.231  27.174  28.062  1.00  0.00    +0.000 C 
ATOM     62  F11 UNL A   1      48.306  26.684  28.697  1.00  0.00    +0.000 F 
ENDBRANCH   51   52
BRANCH   66   67
ATOM     67  C48 UNL A   1      44.748  30.269  33.388  1.00  0.00    +0.000 C 
ATOM     68  C49 UNL A   1      46.005  30.935  33.314  1.00  0.00    +0.000 C 
ATOM     69  F12 UNL A   1      46.691  31.014  32.166  1.00  0.00    +0.000 F 
ATOM     70  C50 UNL A   1      46.623  31.544  34.408  1.00  0.00    +0.000 C 
ATOM     71  F13 UNL A   1      47.856  32.053  34.277  1.00  0.00    +0.000 F 
ATOM     72  C51 UNL A   1      45.978  31.598  35.620  1.00  0.00    +0.000 C 
ATOM     73  F14 UNL A   1      46.575  32.153  36.682  1.00  0.00    +0.000 F 
ATOM     74  C52 UNL A   1      44.699  31.085  35.711  1.00  0.00    +0.000 C 
ATOM     75  F15 UNL A   1      44.031  31.190  36.869  1.00  0.00    +0.000 F 
ATOM     76  C53 UNL A   1      44.094  30.442  34.616  1.00  0.00    +0.000 C 
ATOM     77  F16 UNL A   1      42.841  30.028  34.810  1.00  0.00    +0.000 F 
ENDBRANCH   66   67
TORSDOF 17
ENDMDL
MODEL 7
REMARK VINA RESULT:     -10.3      5.066      7.547
ROOT
ATOM     30  C24 UNL A   1      25.243  33.182  46.363  1.00  0.00    +0.000 C 
ATOM     31  C25 UNL A   1      26.131  32.101  46.990  1.00  0.00    +0.000 C 
ATOM     32  N4  UNL A   1      27.159  32.214  47.777  1.00  0.00    +0.000 N 
ATOM     33  C26 UNL A   1      27.684  30.920  47.977  1.00  0.00    +0.000 C 
ATOM     34  C27 UNL A   1      28.909  30.677  48.530  1.00  0.00    +0.000 C 
ATOM     46  C34 UNL A   1      29.531  31.890  48.936  1.00  0.00    +0.000 C 
ATOM     47  C35 UNL A   1      29.372  32.694  50.032  1.00  0.00    +0.000 C 
ATOM     48  C36 UNL A   1      29.729  33.983  49.584  1.00  0.00    +0.000 C 
ATOM     49  C37 UNL A   1      30.165  33.906  48.258  1.00  0.00    +0.000 C 
ATOM     50  N5  UNL A   1      30.286  32.559  48.007  1.00  0.00    +0.000 N 
ATOM     51  C38 UNL A   1      30.293  34.817  47.142  1.00  0.00    +0.000 C 
ATOM     63  C45 UNL A   1      29.913  36.104  47.338  1.00  0.00    +0.000 C 
ATOM     64  N6  UNL A   1      29.181  36.756  46.369  1.00  0.00    +0.000 N 
ATOM     65  C46 UNL A   1      28.246  37.338  47.061  1.00  0.00    +0.000 C 
ATOM     66  C47 UNL A   1      26.980  37.850  46.502  1.00  0.00    +0.000 C 
ATOM     78  C54 UNL A   1      26.239  36.742  46.191  1.00  0.00    +0.000 C 
ATOM     79  C55 UNL A   1      24.941  36.686  45.551  1.00  0.00    +0.000 C 
ATOM     80  C56 UNL A   1      24.496  35.417  45.531  1.00  0.00    +0.000 C 
ATOM     81  C57 UNL A   1      25.467  34.513  46.170  1.00  0.00    +0.000 C 
ATOM     82  N7  UNL A   1      26.508  35.374  46.457  1.00  0.00    +0.000 N 
ATOM     83  C58 UNL A   1      28.455  37.396  48.513  1.00  0.00    +0.000 C 
ATOM     84  C59 UNL A   1      29.619  36.759  48.590  1.00  0.00    +0.000 C 
ATOM     85  C60 UNL A   1      26.752  30.005  47.389  1.00  0.00    +0.000 C 
ATOM     86  C61 UNL A   1      25.798  30.673  46.738  1.00  0.00    +0.000 C 
ATOM    114  H26 UNL A   1      29.060  32.418  50.977  1.00  0.00    +0.000 H 
ATOM    115  H27 UNL A   1      29.676  34.847  50.146  1.00  0.00    +0.000 H 
ATOM    116  H28 UNL A   1      30.820  32.148  47.288  1.00  0.00    +0.000 H 
ATOM    117  H29 UNL A   1      24.434  37.499  45.168  1.00  0.00    +0.000 H 
ATOM    118  H30 UNL A   1      23.595  35.119  45.124  1.00  0.00    +0.000 H 
ATOM    119  H31 UNL A   1      27.369  35.063  46.818  1.00  0.00    +0.000 H 
ATOM    120  H32 UNL A   1      27.869  37.809  49.255  1.00  0.00    +0.000 H 
ATOM    121  H33 UNL A   1      30.226  36.738  49.424  1.00  0.00    +0.000 H 
ATOM    122  H34 UNL A   1      26.810  28.977  47.460  1.00  0.00    +0.000 H 
ATOM    123  H35 UNL A   1      25.013  30.289  46.190  1.00  0.00    +0.000 H 
ENDROOT
BRANCH   30   29
ATOM    124  H36 UNL A   1      24.461  32.604  43.850  1.00  0.00    +0.000 H 
ATOM     29  C23 UNL A   1      23.933  32.673  45.900  1.00  0.00    +0.000 C 
ATOM    112  H24 UNL A   1      21.012  31.598  47.132  1.00  0.00    +0.000 H 
ATOM    113  H25 UNL A   1      23.068  32.682  47.832  1.00  0.00    +0.000 H 
ATOM     87  C62 UNL A   1      23.730  32.383  44.544  1.00  0.00    +0.000 C 
ATOM     88  C63 UNL A   1      22.537  31.794  44.143  1.00  0.00    +0.000 C 
ATOM     26  C20 UNL A   1      21.577  31.450  45.099  1.00  0.00    +0.000 C 
ATOM     27  C21 UNL A   1      21.753  31.798  46.443  1.00  0.00    +0.000 C 
ATOM     28  C22 UNL A   1      22.932  32.416  46.845  1.00  0.00    +0.000 C 
ATOM    125  H37 UNL A   1      22.361  31.612  43.142  1.00  0.00    +0.000 H 
BRANCH   26   24
ATOM     25  O2  UNL A   1      20.194  29.567  45.017  1.00  0.00    +0.000 O 
ATOM     24  C19 UNL A   1      20.334  30.743  44.726  1.00  0.00    +0.000 C 
BRANCH   24   23
ATOM    111  H23 UNL A   1      19.666  31.964  43.270  1.00  0.00    +0.000 H 
ATOM     23  N3  UNL A   1      19.356  31.400  44.016  1.00  0.00    +0.000 N 
BRANCH   23   22
ATOM    110  H22 UNL A   1      17.566  32.364  44.349  1.00  0.00    +0.000 H 
ATOM    109  H21 UNL A   1      17.716  30.784  45.114  1.00  0.00    +0.000 H 
ATOM     22  C18 UNL A   1      17.919  31.360  44.235  1.00  0.00    +0.000 C 
BRANCH   22   21
ATOM    107  H19 UNL A   1      16.602  31.484  42.578  1.00  0.00    +0.000 H 
ATOM    108  H20 UNL A   1      17.948  30.330  42.405  1.00  0.00    +0.000 H 
ATOM     21  C17 UNL A   1      17.194  30.729  43.051  1.00  0.00    +0.000 C 
BRANCH   21   20
ATOM    105  H17 UNL A   1      15.599  29.915  44.181  1.00  0.00    +0.000 H 
ATOM    106  H18 UNL A   1      15.812  29.262  42.514  1.00  0.00    +0.000 H 
ATOM     20  C16 UNL A   1      16.276  29.564  43.431  1.00  0.00    +0.000 C 
BRANCH   20   19
ATOM     19  C15 UNL A   1      16.952  28.304  43.972  1.00  0.00    +0.000 C 
ATOM    103  H15 UNL A   1      17.669  27.981  43.246  1.00  0.00    +0.000 H 
ATOM    104  H16 UNL A   1      17.376  28.588  44.912  1.00  0.00    +0.000 H 
BRANCH   19   18
ATOM     18  C14 UNL A   1      16.031  27.118  44.278  1.00  0.00    +0.000 C 
ATOM    101  H13 UNL A   1      16.618  26.366  44.765  1.00  0.00    +0.000 H 
ATOM    102  H14 UNL A   1      15.242  27.519  44.879  1.00  0.00    +0.000 H 
BRANCH   18   17
ATOM     17  C13 UNL A   1      15.343  26.469  43.079  1.00  0.00    +0.000 C 
ATOM     99  H11 UNL A   1      14.372  26.905  42.971  1.00  0.00    +0.000 H 
ATOM    100  H12 UNL A   1      15.970  26.644  42.231  1.00  0.00    +0.000 H 
BRANCH   17   16
ATOM     98  H10 UNL A   1      15.930  24.479  43.527  1.00  0.00    +0.000 H 
ATOM     16  N2  UNL A   1      15.187  25.031  43.194  1.00  0.00    +0.000 N 
BRANCH   16    2
ATOM      1  O1  UNL A   1      12.893  24.966  43.030  1.00  0.00    +0.000 O 
ATOM      2  C1  UNL A   1      13.987  24.441  42.833  1.00  0.00    +0.000 C 
BRANCH    2    3
ATOM     89  H1  UNL A   1      13.256  22.495  42.550  1.00  0.00    +0.000 H 
ATOM     90  H2  UNL A   1      15.056  22.692  42.611  1.00  0.00    +0.000 H 
ATOM      3  C2  UNL A   1      14.118  23.052  42.245  1.00  0.00    +0.000 C 
BRANCH    3    4
ATOM      4  C3  UNL A   1      14.225  22.927  40.748  1.00  0.00    +0.000 C 
ATOM      5  C4  UNL A   1      14.827  23.863  39.913  1.00  0.00    +0.000 C 
ATOM      6  C5  UNL A   1      14.837  23.358  38.598  1.00  0.00    +0.000 C 
ATOM      7  C6  UNL A   1      14.247  22.120  38.646  1.00  0.00    +0.000 C 
ATOM      8  N1  UNL A   1      13.857  21.856  39.943  1.00  0.00    +0.000 N 
ATOM     91  H3  UNL A   1      15.204  24.777  40.209  1.00  0.00    +0.000 H 
ATOM     92  H4  UNL A   1      15.214  23.828  37.760  1.00  0.00    +0.000 H 
ATOM     93  H5  UNL A   1      14.116  21.487  37.841  1.00  0.00    +0.000 H 
BRANCH    8    9
ATOM     97  H9  UNL A   1       9.997  19.534  39.890  1.00  0.00    +0.000 H 
ATOM      9  C7  UNL A   1      13.101  20.723  40.272  1.00  0.00    +0.000 C 
ATOM     10  C8  UNL A   1      13.712  19.614  40.856  1.00  0.00    +0.000 C 
ATOM     11  C9  UNL A   1      12.936  18.482  41.122  1.00  0.00    +0.000 C 
ATOM     12  C10 UNL A   1      11.578  18.457  40.785  1.00  0.00    +0.000 C 
ATOM     13  C11 UNL A   1      10.994  19.557  40.158  1.00  0.00    +0.000 C 
ATOM     14  C12 UNL A   1      11.764  20.684  39.895  1.00  0.00    +0.000 C 
ATOM     15  F1  UNL A   1      11.207  21.734  39.275  1.00  0.00    +0.000 F 
ATOM     94  H6  UNL A   1      14.717  19.628  41.087  1.00  0.00    +0.000 H 
ATOM     95  H7  UNL A   1      13.368  17.658  41.570  1.00  0.00    +0.000 H 
ATOM     96  H8  UNL A   1      11.009  17.624  41.001  1.00  0.00    +0.000 H 
ENDBRANCH    8    9
ENDBRANCH    3    4
ENDBRANCH    2    3
ENDBRANCH   16    2
ENDBRANCH   17   16
ENDBRANCH   18   17
ENDBRANCH   19   18
ENDBRANCH   20   19
ENDBRANCH   21   20
ENDBRANCH   22   21
ENDBRANCH   23   22
ENDBRANCH   24   23
ENDBRANCH   26   24
ENDBRANCH   30   29
BRANCH   34   35
ATOM     35  C28 UNL A   1      29.728  29.419  48.616  1.00  0.00    +0.000 C 
ATOM     36  C29 UNL A   1      30.927  29.230  47.917  1.00  0.00    +0.000 C 
ATOM     37  F2  UNL A   1      31.282  30.053  46.923  1.00  0.00    +0.000 F 
ATOM     38  C30 UNL A   1      31.838  28.235  48.289  1.00  0.00    +0.000 C 
ATOM     39  F3  UNL A   1      32.993  28.109  47.621  1.00  0.00    +0.000 F 
ATOM     40  C31 UNL A   1      31.593  27.421  49.384  1.00  0.00    +0.000 C 
ATOM     41  F4  UNL A   1      32.513  26.539  49.795  1.00  0.00    +0.000 F 
ATOM     42  C32 UNL A   1      30.400  27.548  50.068  1.00  0.00    +0.000 C 
ATOM     43  F5  UNL A   1      30.158  26.788  51.145  1.00  0.00    +0.000 F 
ATOM     44  C33 UNL A   1      29.471  28.509  49.672  1.00  0.00    +0.000 C 
ATOM     45  F6  UNL A   1      28.330  28.579  50.376  1.00  0.00    +0.000 F 
ENDBRANCH   34   35
BRANCH   51   52
ATOM     52  C39 UNL A   1      30.370  34.435  45.680  1.00  0.00    +0.000 C 
ATOM     53  C40 UNL A   1      29.264  33.999  44.930  1.00  0.00    +0.000 C 
ATOM     54  F7  UNL A   1      28.093  33.767  45.519  1.00  0.00    +0.000 F 
ATOM     55  C41 UNL A   1      29.332  33.786  43.554  1.00  0.00    +0.000 C 
ATOM     56  F8  UNL A   1      28.251  33.353  42.887  1.00  0.00    +0.000 F 
ATOM     57  C42 UNL A   1      30.515  34.017  42.879  1.00  0.00    +0.000 C 
ATOM     58  F9  UNL A   1      30.585  33.815  41.556  1.00  0.00    +0.000 F 
ATOM     59  C43 UNL A   1      31.628  34.445  43.585  1.00  0.00    +0.000 C 
ATOM     60  F10 UNL A   1      32.779  34.665  42.936  1.00  0.00    +0.000 F 
ATOM     61  C44 UNL A   1      31.559  34.645  44.966  1.00  0.00    +0.000 C 
ATOM     62  F11 UNL A   1      32.662  35.054  45.611  1.00  0.00    +0.000 F 
ENDBRANCH   51   52
BRANCH   66   67
ATOM     67  C48 UNL A   1      26.768  39.352  46.510  1.00  0.00    +0.000 C 
ATOM     68  C49 UNL A   1      27.605  40.193  45.722  1.00  0.00    +0.000 C 
ATOM     69  F12 UNL A   1      28.420  39.693  44.784  1.00  0.00    +0.000 F 
ATOM     70  C50 UNL A   1      27.654  41.582  45.861  1.00  0.00    +0.000 C 
ATOM     71  F13 UNL A   1      28.549  42.289  45.156  1.00  0.00    +0.000 F 
ATOM     72  C51 UNL A   1      26.805  42.217  46.735  1.00  0.00    +0.000 C 
ATOM     73  F14 UNL A   1      26.866  43.544  46.897  1.00  0.00    +0.000 F 
ATOM     74  C52 UNL A   1      25.881  41.458  47.425  1.00  0.00    +0.000 C 
ATOM     75  F15 UNL A   1      25.002  42.070  48.232  1.00  0.00    +0.000 F 
ATOM     76  C53 UNL A   1      25.858  40.057  47.309  1.00  0.00    +0.000 C 
ATOM     77  F16 UNL A   1      24.892  39.437  47.989  1.00  0.00    +0.000 F 
ENDBRANCH   66   67
TORSDOF 17
ENDMDL
MODEL 8
REMARK VINA RESULT:     -10.3     18.500     24.103
ROOT
ATOM     30  C24 UNL A   1      40.229  29.157  29.055  1.00  0.00    +0.000 C 
ATOM     31  C25 UNL A   1      39.005  30.079  29.064  1.00  0.00    +0.000 C 
ATOM     32  N4  UNL A   1      38.931  31.372  29.171  1.00  0.00    +0.000 N 
ATOM     33  C26 UNL A   1      37.565  31.715  29.236  1.00  0.00    +0.000 C 
ATOM     34  C27 UNL A   1      37.111  32.947  29.610  1.00  0.00    +0.000 C 
ATOM     46  C34 UNL A   1      38.195  33.838  29.844  1.00  0.00    +0.000 C 
ATOM     47  C35 UNL A   1      38.999  34.563  29.007  1.00  0.00    +0.000 C 
ATOM     48  C36 UNL A   1      40.215  34.698  29.709  1.00  0.00    +0.000 C 
ATOM     49  C37 UNL A   1      40.084  34.119  30.975  1.00  0.00    +0.000 C 
ATOM     50  N5  UNL A   1      38.739  33.858  31.103  1.00  0.00    +0.000 N 
ATOM     51  C38 UNL A   1      40.975  33.589  31.983  1.00  0.00    +0.000 C 
ATOM     63  C45 UNL A   1      42.305  33.617  31.719  1.00  0.00    +0.000 C 
ATOM     64  N6  UNL A   1      43.085  32.522  32.022  1.00  0.00    +0.000 N 
ATOM     65  C46 UNL A   1      43.807  32.379  30.950  1.00  0.00    +0.000 C 
ATOM     66  C47 UNL A   1      44.534  31.149  30.581  1.00  0.00    +0.000 C 
ATOM     78  C54 UNL A   1      43.571  30.250  30.209  1.00  0.00    +0.000 C 
ATOM     79  C55 UNL A   1      43.745  28.865  29.819  1.00  0.00    +0.000 C 
ATOM     80  C56 UNL A   1      42.570  28.355  29.409  1.00  0.00    +0.000 C 
ATOM     81  C57 UNL A   1      41.506  29.371  29.484  1.00  0.00    +0.000 C 
ATOM     82  N7  UNL A   1      42.175  30.440  30.047  1.00  0.00    +0.000 N 
ATOM     83  C58 UNL A   1      43.809  33.511  30.015  1.00  0.00    +0.000 C 
ATOM     84  C59 UNL A   1      42.983  34.327  30.662  1.00  0.00    +0.000 C 
ATOM     85  C60 UNL A   1      36.829  30.517  28.963  1.00  0.00    +0.000 C 
ATOM     86  C61 UNL A   1      37.658  29.474  28.884  1.00  0.00    +0.000 C 
ATOM    114  H26 UNL A   1      38.767  34.930  28.071  1.00  0.00    +0.000 H 
ATOM    115  H27 UNL A   1      41.068  35.152  29.345  1.00  0.00    +0.000 H 
ATOM    116  H28 UNL A   1      38.254  33.712  31.948  1.00  0.00    +0.000 H 
ATOM    117  H29 UNL A   1      44.637  28.348  29.853  1.00  0.00    +0.000 H 
ATOM    118  H30 UNL A   1      42.434  27.384  29.086  1.00  0.00    +0.000 H 
ATOM    119  H31 UNL A   1      41.717  31.269  30.316  1.00  0.00    +0.000 H 
ATOM    120  H32 UNL A   1      44.305  33.635  29.118  1.00  0.00    +0.000 H 
ATOM    121  H33 UNL A   1      42.848  35.326  30.441  1.00  0.00    +0.000 H 
ATOM    122  H34 UNL A   1      35.805  30.468  28.843  1.00  0.00    +0.000 H 
ATOM    123  H35 UNL A   1      37.420  28.482  28.733  1.00  0.00    +0.000 H 
ENDROOT
BRANCH   30   29
ATOM    124  H36 UNL A   1      40.766  28.257  26.572  1.00  0.00    +0.000 H 
ATOM     29  C23 UNL A   1      39.955  27.820  28.480  1.00  0.00    +0.000 C 
ATOM    112  H24 UNL A   1      38.806  24.814  29.397  1.00  0.00    +0.000 H 
ATOM    113  H25 UNL A   1      39.018  27.084  30.230  1.00  0.00    +0.000 H 
ATOM     87  C62 UNL A   1      40.357  27.522  27.171  1.00  0.00    +0.000 C 
ATOM     88  C63 UNL A   1      40.202  26.230  26.687  1.00  0.00    +0.000 C 
ATOM     26  C20 UNL A   1      39.696  25.231  27.524  1.00  0.00    +0.000 C 
ATOM     27  C21 UNL A   1      39.236  25.543  28.808  1.00  0.00    +0.000 C 
ATOM     28  C22 UNL A   1      39.361  26.842  29.287  1.00  0.00    +0.000 C 
ATOM    125  H37 UNL A   1      40.458  26.008  25.711  1.00  0.00    +0.000 H 
BRANCH   26   24
ATOM     25  O2  UNL A   1      40.331  22.981  27.563  1.00  0.00    +0.000 O 
ATOM     24  C19 UNL A   1      39.598  23.825  27.078  1.00  0.00    +0.000 C 
BRANCH   24   23
ATOM    111  H23 UNL A   1      39.081  22.991  25.319  1.00  0.00    +0.000 H 
ATOM     23  N3  UNL A   1      38.707  23.480  26.088  1.00  0.00    +0.000 N 
BRANCH   23   22
ATOM    110  H22 UNL A   1      37.087  24.417  25.229  1.00  0.00    +0.000 H 
ATOM    109  H21 UNL A   1      36.977  24.188  26.972  1.00  0.00    +0.000 H 
ATOM     22  C18 UNL A   1      37.279  23.750  26.043  1.00  0.00    +0.000 C 
BRANCH   22   21
ATOM    107  H19 UNL A   1      36.846  21.722  26.483  1.00  0.00    +0.000 H 
ATOM    108  H20 UNL A   1      35.452  22.715  25.990  1.00  0.00    +0.000 H 
ATOM     21  C17 UNL A   1      36.479  22.472  25.814  1.00  0.00    +0.000 C 
BRANCH   21   20
ATOM    105  H17 UNL A   1      37.553  21.538  24.247  1.00  0.00    +0.000 H 
ATOM    106  H18 UNL A   1      35.782  21.203  24.313  1.00  0.00    +0.000 H 
ATOM     20  C16 UNL A   1      36.566  21.928  24.386  1.00  0.00    +0.000 C 
BRANCH   20   19
ATOM     19  C15 UNL A   1      36.299  22.922  23.254  1.00  0.00    +0.000 C 
ATOM    103  H15 UNL A   1      37.118  23.611  23.225  1.00  0.00    +0.000 H 
ATOM    104  H16 UNL A   1      36.191  22.328  22.371  1.00  0.00    +0.000 H 
BRANCH   19   18
ATOM     18  C14 UNL A   1      35.006  23.738  23.361  1.00  0.00    +0.000 C 
ATOM    101  H13 UNL A   1      34.749  23.809  24.397  1.00  0.00    +0.000 H 
ATOM    102  H14 UNL A   1      35.223  24.677  22.895  1.00  0.00    +0.000 H 
BRANCH   18   17
ATOM     17  C13 UNL A   1      33.792  23.183  22.616  1.00  0.00    +0.000 C 
ATOM     99  H11 UNL A   1      34.136  22.469  21.898  1.00  0.00    +0.000 H 
ATOM    100  H12 UNL A   1      33.150  22.750  23.354  1.00  0.00    +0.000 H 
BRANCH   17   16
ATOM     98  H10 UNL A   1      32.729  24.042  20.992  1.00  0.00    +0.000 H 
ATOM     16  N2  UNL A   1      33.014  24.191  21.922  1.00  0.00    +0.000 N 
BRANCH   16    2
ATOM      1  O1  UNL A   1      33.387  26.365  22.574  1.00  0.00    +0.000 O 
ATOM      2  C1  UNL A   1      32.673  25.364  22.575  1.00  0.00    +0.000 C 
BRANCH    2    3
ATOM     89  H1  UNL A   1      30.655  24.818  22.740  1.00  0.00    +0.000 H 
ATOM     90  H2  UNL A   1      31.172  26.314  23.621  1.00  0.00    +0.000 H 
ATOM      3  C2  UNL A   1      31.382  25.297  23.362  1.00  0.00    +0.000 C 
BRANCH    3    4
ATOM      4  C3  UNL A   1      31.396  24.568  24.680  1.00  0.00    +0.000 C 
ATOM      5  C4  UNL A   1      31.008  23.244  24.860  1.00  0.00    +0.000 C 
ATOM      6  C5  UNL A   1      31.261  22.876  26.195  1.00  0.00    +0.000 C 
ATOM      7  C6  UNL A   1      31.801  23.975  26.814  1.00  0.00    +0.000 C 
ATOM      8  N1  UNL A   1      31.872  25.013  25.906  1.00  0.00    +0.000 N 
ATOM     91  H3  UNL A   1      30.604  22.632  24.133  1.00  0.00    +0.000 H 
ATOM     92  H4  UNL A   1      31.074  21.957  26.627  1.00  0.00    +0.000 H 
ATOM     93  H5  UNL A   1      32.107  24.019  27.799  1.00  0.00    +0.000 H 
BRANCH    8    9
ATOM     97  H9  UNL A   1      34.957  28.276  26.261  1.00  0.00    +0.000 H 
ATOM      9  C7  UNL A   1      32.253  26.305  26.289  1.00  0.00    +0.000 C 
ATOM     10  C8  UNL A   1      31.301  27.213  26.753  1.00  0.00    +0.000 C 
ATOM     11  C9  UNL A   1      31.710  28.510  27.077  1.00  0.00    +0.000 C 
ATOM     12  C10 UNL A   1      33.045  28.894  26.913  1.00  0.00    +0.000 C 
ATOM     13  C11 UNL A   1      33.975  27.989  26.402  1.00  0.00    +0.000 C 
ATOM     14  C12 UNL A   1      33.571  26.698  26.083  1.00  0.00    +0.000 C 
ATOM     15  F1  UNL A   1      34.460  25.834  25.574  1.00  0.00    +0.000 F 
ATOM     94  H6  UNL A   1      30.314  26.932  26.856  1.00  0.00    +0.000 H 
ATOM     95  H7  UNL A   1      31.022  29.189  27.438  1.00  0.00    +0.000 H 
ATOM     96  H8  UNL A   1      33.343  29.849  27.170  1.00  0.00    +0.000 H 
ENDBRANCH    8    9
ENDBRANCH    3    4
ENDBRANCH    2    3
ENDBRANCH   16    2
ENDBRANCH   17   16
ENDBRANCH   18   17
ENDBRANCH   19   18
ENDBRANCH   20   19
ENDBRANCH   21   20
ENDBRANCH   22   21
ENDBRANCH   23   22
ENDBRANCH   24   23
ENDBRANCH   26   24
ENDBRANCH   30   29
BRANCH   34   35
ATOM     35  C28 UNL A   1      35.731  33.434  29.957  1.00  0.00    +0.000 C 
ATOM     36  C29 UNL A   1      35.251  33.518  31.271  1.00  0.00    +0.000 C 
ATOM     37  F2  UNL A   1      35.896  32.920  32.280  1.00  0.00    +0.000 F 
ATOM     38  C30 UNL A   1      34.136  34.302  31.591  1.00  0.00    +0.000 C 
ATOM     39  F3  UNL A   1      33.729  34.389  32.865  1.00  0.00    +0.000 F 
ATOM     40  C31 UNL A   1      33.487  35.045  30.616  1.00  0.00    +0.000 C 
ATOM     41  F4  UNL A   1      32.485  35.870  30.945  1.00  0.00    +0.000 F 
ATOM     42  C32 UNL A   1      33.905  34.950  29.303  1.00  0.00    +0.000 C 
ATOM     43  F5  UNL A   1      33.306  35.681  28.353  1.00  0.00    +0.000 F 
ATOM     44  C33 UNL A   1      34.987  34.134  28.975  1.00  0.00    +0.000 C 
ATOM     45  F6  UNL A   1      35.340  34.083  27.681  1.00  0.00    +0.000 F 
ENDBRANCH   34   35
BRANCH   51   52
ATOM     52  C39 UNL A   1      40.606  32.615  33.081  1.00  0.00    +0.000 C 
ATOM     53  C40 UNL A   1      40.092  31.330  32.841  1.00  0.00    +0.000 C 
ATOM     54  F7  UNL A   1      39.771  30.946  31.608  1.00  0.00    +0.000 F 
ATOM     55  C41 UNL A   1      39.891  30.404  33.863  1.00  0.00    +0.000 C 
ATOM     56  F8  UNL A   1      39.381  29.194  33.582  1.00  0.00    +0.000 F 
ATOM     57  C42 UNL A   1      40.212  30.734  35.166  1.00  0.00    +0.000 C 
ATOM     58  F9  UNL A   1      40.021  29.846  36.151  1.00  0.00    +0.000 F 
ATOM     59  C43 UNL A   1      40.719  31.994  35.442  1.00  0.00    +0.000 C 
ATOM     60  F10 UNL A   1      41.027  32.321  36.704  1.00  0.00    +0.000 F 
ATOM     61  C44 UNL A   1      40.908  32.923  34.416  1.00  0.00    +0.000 C 
ATOM     62  F11 UNL A   1      41.395  34.134  34.729  1.00  0.00    +0.000 F 
ENDBRANCH   51   52
BRANCH   66   67
ATOM     67  C48 UNL A   1      46.049  31.202  30.590  1.00  0.00    +0.000 C 
ATOM     68  C49 UNL A   1      46.769  31.189  29.360  1.00  0.00    +0.000 C 
ATOM     69  F12 UNL A   1      46.153  31.374  28.185  1.00  0.00    +0.000 F 
ATOM     70  C50 UNL A   1      48.146  30.978  29.273  1.00  0.00    +0.000 C 
ATOM     71  F13 UNL A   1      48.728  30.870  28.070  1.00  0.00    +0.000 F 
ATOM     72  C51 UNL A   1      48.897  30.856  30.417  1.00  0.00    +0.000 C 
ATOM     73  F14 UNL A   1      50.213  30.623  30.343  1.00  0.00    +0.000 F 
ATOM     74  C52 UNL A   1      48.268  30.996  31.638  1.00  0.00    +0.000 C 
ATOM     75  F15 UNL A   1      48.997  30.946  32.762  1.00  0.00    +0.000 F 
ATOM     76  C53 UNL A   1      46.876  31.174  31.722  1.00  0.00    +0.000 C 
ATOM     77  F16 UNL A   1      46.387  31.342  32.952  1.00  0.00    +0.000 F 
ENDBRANCH   66   67
TORSDOF 17
ENDMDL
MODEL 9
REMARK VINA RESULT:     -10.3     21.216     25.525
ROOT
ATOM     30  C24 UNL A   1      40.784  27.932  29.294  1.00  0.00    +0.000 C 
ATOM     31  C25 UNL A   1      40.951  26.533  28.693  1.00  0.00    +0.000 C 
ATOM     32  N4  UNL A   1      41.730  25.556  29.047  1.00  0.00    +0.000 N 
ATOM     33  C26 UNL A   1      41.578  24.525  28.096  1.00  0.00    +0.000 C 
ATOM     34  C27 UNL A   1      42.424  23.457  27.996  1.00  0.00    +0.000 C 
ATOM     46  C34 UNL A   1      43.413  23.495  29.018  1.00  0.00    +0.000 C 
ATOM     47  C35 UNL A   1      43.393  23.153  30.343  1.00  0.00    +0.000 C 
ATOM     48  C36 UNL A   1      44.365  23.983  30.940  1.00  0.00    +0.000 C 
ATOM     49  C37 UNL A   1      44.994  24.742  29.950  1.00  0.00    +0.000 C 
ATOM     50  N5  UNL A   1      44.563  24.197  28.763  1.00  0.00    +0.000 N 
ATOM     51  C38 UNL A   1      45.744  25.978  29.894  1.00  0.00    +0.000 C 
ATOM     63  C45 UNL A   1      45.935  26.646  31.058  1.00  0.00    +0.000 C 
ATOM     64  N6  UNL A   1      45.789  28.016  31.091  1.00  0.00    +0.000 N 
ATOM     65  C46 UNL A   1      45.080  28.202  32.166  1.00  0.00    +0.000 C 
ATOM     66  C47 UNL A   1      44.319  29.429  32.472  1.00  0.00    +0.000 C 
ATOM     78  C54 UNL A   1      43.252  29.424  31.614  1.00  0.00    +0.000 C 
ATOM     79  C55 UNL A   1      42.230  30.438  31.454  1.00  0.00    +0.000 C 
ATOM     80  C56 UNL A   1      41.289  30.007  30.595  1.00  0.00    +0.000 C 
ATOM     81  C57 UNL A   1      41.604  28.651  30.113  1.00  0.00    +0.000 C 
ATOM     82  N7  UNL A   1      42.830  28.418  30.706  1.00  0.00    +0.000 N 
ATOM     83  C58 UNL A   1      44.978  27.058  33.081  1.00  0.00    +0.000 C 
ATOM     84  C59 UNL A   1      45.699  26.173  32.400  1.00  0.00    +0.000 C 
ATOM     85  C60 UNL A   1      40.489  24.907  27.249  1.00  0.00    +0.000 C 
ATOM     86  C61 UNL A   1      40.088  26.145  27.544  1.00  0.00    +0.000 C 
ATOM    114  H26 UNL A   1      42.798  22.446  30.804  1.00  0.00    +0.000 H 
ATOM    115  H27 UNL A   1      44.578  24.023  31.949  1.00  0.00    +0.000 H 
ATOM    116  H28 UNL A   1      45.002  24.293  27.886  1.00  0.00    +0.000 H 
ATOM    117  H29 UNL A   1      42.226  31.355  31.927  1.00  0.00    +0.000 H 
ATOM    118  H30 UNL A   1      40.458  30.552  30.314  1.00  0.00    +0.000 H 
ATOM    119  H31 UNL A   1      43.369  27.617  30.514  1.00  0.00    +0.000 H 
ATOM    120  H32 UNL A   1      44.490  26.969  33.985  1.00  0.00    +0.000 H 
ATOM    121  H33 UNL A   1      46.042  25.275  32.778  1.00  0.00    +0.000 H 
ATOM    122  H34 UNL A   1      40.074  24.310  26.517  1.00  0.00    +0.000 H 
ATOM    123  H35 UNL A   1      39.351  26.702  27.085  1.00  0.00    +0.000 H 
ENDROOT
BRANCH   30   29
ATOM    124  H36 UNL A   1      40.214  29.292  27.038  1.00  0.00    +0.000 H 
ATOM     29  C23 UNL A   1      39.515  28.591  28.911  1.00  0.00    +0.000 C 
ATOM    112  H24 UNL A   1      36.370  28.943  30.001  1.00  0.00    +0.000 H 
ATOM    113  H25 UNL A   1      38.531  28.106  30.722  1.00  0.00    +0.000 H 
ATOM     87  C62 UNL A   1      39.395  29.213  27.661  1.00  0.00    +0.000 C 
ATOM     88  C63 UNL A   1      38.164  29.722  27.267  1.00  0.00    +0.000 C 
ATOM     26  C20 UNL A   1      37.049  29.562  28.096  1.00  0.00    +0.000 C 
ATOM     27  C21 UNL A   1      37.184  28.999  29.370  1.00  0.00    +0.000 C 
ATOM     28  C22 UNL A   1      38.421  28.516  29.782  1.00  0.00    +0.000 C 
ATOM    125  H37 UNL A   1      38.072  30.217  26.365  1.00  0.00    +0.000 H 
BRANCH   26   24
ATOM     25  O2  UNL A   1      35.430  31.196  27.679  1.00  0.00    +0.000 O 
ATOM     24  C19 UNL A   1      35.704  30.009  27.677  1.00  0.00    +0.000 C 
BRANCH   24   23
ATOM    111  H23 UNL A   1      34.899  28.163  27.652  1.00  0.00    +0.000 H 
ATOM     23  N3  UNL A   1      34.751  29.080  27.326  1.00  0.00    +0.000 N 
BRANCH   23   22
ATOM    110  H22 UNL A   1      33.599  28.662  25.671  1.00  0.00    +0.000 H 
ATOM    109  H21 UNL A   1      33.503  30.324  26.244  1.00  0.00    +0.000 H 
ATOM     22  C18 UNL A   1      33.551  29.294  26.533  1.00  0.00    +0.000 C 
BRANCH   22   21
ATOM    107  H19 UNL A   1      32.537  28.947  28.361  1.00  0.00    +0.000 H 
ATOM    108  H20 UNL A   1      31.555  29.669  27.063  1.00  0.00    +0.000 H 
ATOM     21  C17 UNL A   1      32.295  28.940  27.319  1.00  0.00    +0.000 C 
BRANCH   21   20
ATOM    105  H17 UNL A   1      32.063  26.869  27.696  1.00  0.00    +0.000 H 
ATOM    106  H18 UNL A   1      30.645  27.713  26.971  1.00  0.00    +0.000 H 
ATOM     20  C16 UNL A   1      31.706  27.571  26.971  1.00  0.00    +0.000 C 
BRANCH   20   19
ATOM     19  C15 UNL A   1      32.036  27.013  25.586  1.00  0.00    +0.000 C 
ATOM    103  H15 UNL A   1      32.920  27.506  25.238  1.00  0.00    +0.000 H 
ATOM    104  H16 UNL A   1      32.145  25.957  25.721  1.00  0.00    +0.000 H 
BRANCH   19   18
ATOM     18  C14 UNL A   1      30.955  27.180  24.513  1.00  0.00    +0.000 C 
ATOM    101  H13 UNL A   1      30.230  26.405  24.656  1.00  0.00    +0.000 H 
ATOM    102  H14 UNL A   1      30.573  28.170  24.645  1.00  0.00    +0.000 H 
BRANCH   18   17
ATOM     17  C13 UNL A   1      31.427  27.114  23.061  1.00  0.00    +0.000 C 
ATOM     99  H11 UNL A   1      30.810  27.763  22.477  1.00  0.00    +0.000 H 
ATOM    100  H12 UNL A   1      32.455  27.410  23.057  1.00  0.00    +0.000 H 
BRANCH   17   16
ATOM     98  H10 UNL A   1      30.596  25.516  21.938  1.00  0.00    +0.000 H 
ATOM     16  N2  UNL A   1      31.371  25.786  22.481  1.00  0.00    +0.000 N 
BRANCH   16    2
ATOM      1  O1  UNL A   1      33.581  25.152  22.401  1.00  0.00    +0.000 O 
ATOM      2  C1  UNL A   1      32.415  24.900  22.694  1.00  0.00    +0.000 C 
BRANCH    2    3
ATOM     89  H1  UNL A   1      32.653  22.820  22.828  1.00  0.00    +0.000 H 
ATOM     90  H2  UNL A   1      30.965  23.462  22.981  1.00  0.00    +0.000 H 
ATOM      3  C2  UNL A   1      31.997  23.554  23.249  1.00  0.00    +0.000 C 
BRANCH    3    4
ATOM      4  C3  UNL A   1      32.017  23.369  24.743  1.00  0.00    +0.000 C 
ATOM      5  C4  UNL A   1      30.912  23.510  25.577  1.00  0.00    +0.000 C 
ATOM      6  C5  UNL A   1      31.286  23.154  26.887  1.00  0.00    +0.000 C 
ATOM      7  C6  UNL A   1      32.610  22.797  26.839  1.00  0.00    +0.000 C 
ATOM      8  N1  UNL A   1      33.068  22.940  25.544  1.00  0.00    +0.000 N 
ATOM     91  H3  UNL A   1      29.974  23.824  25.283  1.00  0.00    +0.000 H 
ATOM     92  H4  UNL A   1      30.681  23.162  27.724  1.00  0.00    +0.000 H 
ATOM     93  H5  UNL A   1      33.173  22.473  27.640  1.00  0.00    +0.000 H 
BRANCH    8    9
ATOM     97  H9  UNL A   1      37.231  24.590  25.056  1.00  0.00    +0.000 H 
ATOM      9  C7  UNL A   1      34.420  22.781  25.217  1.00  0.00    +0.000 C 
ATOM     10  C8  UNL A   1      34.936  21.514  24.947  1.00  0.00    +0.000 C 
ATOM     11  C9  UNL A   1      36.302  21.388  24.676  1.00  0.00    +0.000 C 
ATOM     12  C10 UNL A   1      37.137  22.510  24.700  1.00  0.00    +0.000 C 
ATOM     13  C11 UNL A   1      36.614  23.763  25.019  1.00  0.00    +0.000 C 
ATOM     14  C12 UNL A   1      35.256  23.891  25.285  1.00  0.00    +0.000 C 
ATOM     15  F1  UNL A   1      34.757  25.091  25.611  1.00  0.00    +0.000 F 
ATOM     94  H6  UNL A   1      34.322  20.685  24.948  1.00  0.00    +0.000 H 
ATOM     95  H7  UNL A   1      36.697  20.460  24.457  1.00  0.00    +0.000 H 
ATOM     96  H8  UNL A   1      38.141  22.411  24.481  1.00  0.00    +0.000 H 
ENDBRANCH    8    9
ENDBRANCH    3    4
ENDBRANCH    2    3
ENDBRANCH   16    2
ENDBRANCH   17   16
ENDBRANCH   18   17
ENDBRANCH   19   18
ENDBRANCH   20   19
ENDBRANCH   21   20
ENDBRANCH   22   21
ENDBRANCH   23   22
ENDBRANCH   24   23
ENDBRANCH   26   24
ENDBRANCH   30   29
BRANCH   34   35
ATOM     35  C28 UNL A   1      42.568  22.401  26.936  1.00  0.00    +0.000 C 
ATOM     36  C29 UNL A   1      43.518  22.465  25.908  1.00  0.00    +0.000 C 
ATOM     37  F2  UNL A   1      44.180  23.600  25.651  1.00  0.00    +0.000 F 
ATOM     38  C30 UNL A   1      43.876  21.327  25.175  1.00  0.00    +0.000 C 
ATOM     39  F3  UNL A   1      44.817  21.420  24.225  1.00  0.00    +0.000 F 
ATOM     40  C31 UNL A   1      43.319  20.092  25.464  1.00  0.00    +0.000 C 
ATOM     41  F4  UNL A   1      43.739  18.991  24.827  1.00  0.00    +0.000 F 
ATOM     42  C32 UNL A   1      42.346  20.000  26.439  1.00  0.00    +0.000 C 
ATOM     43  F5  UNL A   1      41.816  18.809  26.750  1.00  0.00    +0.000 F 
ATOM     44  C33 UNL A   1      41.955  21.140  27.141  1.00  0.00    +0.000 C 
ATOM     45  F6  UNL A   1      41.002  20.984  28.073  1.00  0.00    +0.000 F 
ENDBRANCH   34   35
BRANCH   51   52
ATOM     52  C39 UNL A   1      45.954  26.842  28.669  1.00  0.00    +0.000 C 
ATOM     53  C40 UNL A   1      44.906  27.434  27.944  1.00  0.00    +0.000 C 
ATOM     54  F7  UNL A   1      43.638  27.146  28.227  1.00  0.00    +0.000 F 
ATOM     55  C41 UNL A   1      45.133  28.335  26.905  1.00  0.00    +0.000 C 
ATOM     56  F8  UNL A   1      44.096  28.859  26.233  1.00  0.00    +0.000 F 
ATOM     57  C42 UNL A   1      46.426  28.685  26.566  1.00  0.00    +0.000 C 
ATOM     58  F9  UNL A   1      46.649  29.552  25.569  1.00  0.00    +0.000 F 
ATOM     59  C43 UNL A   1      47.486  28.119  27.257  1.00  0.00    +0.000 C 
ATOM     60  F10 UNL A   1      48.742  28.451  26.928  1.00  0.00    +0.000 F 
ATOM     61  C44 UNL A   1      47.255  27.207  28.289  1.00  0.00    +0.000 C 
ATOM     62  F11 UNL A   1      48.311  26.679  28.927  1.00  0.00    +0.000 F 
ENDBRANCH   51   52
BRANCH   66   67
ATOM     67  C48 UNL A   1      44.791  30.272  33.640  1.00  0.00    +0.000 C 
ATOM     68  C49 UNL A   1      44.020  30.325  34.837  1.00  0.00    +0.000 C 
ATOM     69  F12 UNL A   1      43.015  29.468  35.063  1.00  0.00    +0.000 F 
ATOM     70  C50 UNL A   1      44.233  31.259  35.853  1.00  0.00    +0.000 C 
ATOM     71  F13 UNL A   1      43.393  31.311  36.896  1.00  0.00    +0.000 F 
ATOM     72  C51 UNL A   1      45.287  32.137  35.770  1.00  0.00    +0.000 C 
ATOM     73  F14 UNL A   1      45.482  33.056  36.724  1.00  0.00    +0.000 F 
ATOM     74  C52 UNL A   1      46.145  32.039  34.693  1.00  0.00    +0.000 C 
ATOM     75  F15 UNL A   1      47.215  32.844  34.631  1.00  0.00    +0.000 F 
ATOM     76  C53 UNL A   1      45.907  31.121  33.655  1.00  0.00    +0.000 C 
ATOM     77  F16 UNL A   1      46.829  31.086  32.691  1.00  0.00    +0.000 F 
ENDBRANCH   66   67
TORSDOF 17
ENDMDL
MODEL 10
REMARK VINA RESULT:     -10.2     21.657     25.923
ROOT
ATOM     30  C24 UNL A   1      40.683  27.736  29.173  1.00  0.00    +0.000 C 
ATOM     31  C25 UNL A   1      40.881  26.336  28.583  1.00  0.00    +0.000 C 
ATOM     32  N4  UNL A   1      41.681  25.379  28.946  1.00  0.00    +0.000 N 
ATOM     33  C26 UNL A   1      41.552  24.337  28.003  1.00  0.00    +0.000 C 
ATOM     34  C27 UNL A   1      42.420  23.287  27.912  1.00  0.00    +0.000 C 
ATOM     46  C34 UNL A   1      43.408  23.356  28.933  1.00  0.00    +0.000 C 
ATOM     47  C35 UNL A   1      43.396  23.024  30.261  1.00  0.00    +0.000 C 
ATOM     48  C36 UNL A   1      44.350  23.879  30.851  1.00  0.00    +0.000 C 
ATOM     49  C37 UNL A   1      44.962  24.644  29.854  1.00  0.00    +0.000 C 
ATOM     50  N5  UNL A   1      44.543  24.080  28.671  1.00  0.00    +0.000 N 
ATOM     51  C38 UNL A   1      45.684  25.896  29.787  1.00  0.00    +0.000 C 
ATOM     63  C45 UNL A   1      45.861  26.578  30.946  1.00  0.00    +0.000 C 
ATOM     64  N6  UNL A   1      45.685  27.945  30.968  1.00  0.00    +0.000 N 
ATOM     65  C46 UNL A   1      44.972  28.124  32.041  1.00  0.00    +0.000 C 
ATOM     66  C47 UNL A   1      44.185  29.336  32.337  1.00  0.00    +0.000 C 
ATOM     78  C54 UNL A   1      43.118  29.301  31.479  1.00  0.00    +0.000 C 
ATOM     79  C55 UNL A   1      42.074  30.291  31.311  1.00  0.00    +0.000 C 
ATOM     80  C56 UNL A   1      41.143  29.832  30.457  1.00  0.00    +0.000 C 
ATOM     81  C57 UNL A   1      41.488  28.479  29.986  1.00  0.00    +0.000 C 
ATOM     82  N7  UNL A   1      42.718  28.279  30.581  1.00  0.00    +0.000 N 
ATOM     83  C58 UNL A   1      44.896  26.986  32.965  1.00  0.00    +0.000 C 
ATOM     84  C59 UNL A   1      45.636  26.110  32.292  1.00  0.00    +0.000 C 
ATOM     85  C60 UNL A   1      40.454  24.689  27.154  1.00  0.00    +0.000 C 
ATOM     86  C61 UNL A   1      40.026  25.920  27.438  1.00  0.00    +0.000 C 
ATOM    114  H26 UNL A   1      42.817  22.308  30.727  1.00  0.00    +0.000 H 
ATOM    115  H27 UNL A   1      44.562  23.933  31.859  1.00  0.00    +0.000 H 
ATOM    116  H28 UNL A   1      44.979  24.178  27.794  1.00  0.00    +0.000 H 
ATOM    117  H29 UNL A   1      42.050  31.211  31.777  1.00  0.00    +0.000 H 
ATOM    118  H30 UNL A   1      40.300  30.357  30.171  1.00  0.00    +0.000 H 
ATOM    119  H31 UNL A   1      43.274  27.488  30.395  1.00  0.00    +0.000 H 
ATOM    120  H32 UNL A   1      44.410  26.893  33.871  1.00  0.00    +0.000 H 
ATOM    121  H33 UNL A   1      45.998  25.224  32.677  1.00  0.00    +0.000 H 
ATOM    122  H34 UNL A   1      40.052  24.077  26.426  1.00  0.00    +0.000 H 
ATOM    123  H35 UNL A   1      39.276  26.456  26.974  1.00  0.00    +0.000 H 
ENDROOT
BRANCH   30   29
ATOM    124  H36 UNL A   1      38.377  27.840  30.565  1.00  0.00    +0.000 H 
ATOM     29  C23 UNL A   1      39.400  28.364  28.785  1.00  0.00    +0.000 C 
ATOM    112  H24 UNL A   1      38.092  30.244  26.344  1.00  0.00    +0.000 H 
ATOM    113  H25 UNL A   1      40.095  28.982  26.883  1.00  0.00    +0.000 H 
ATOM     87  C62 UNL A   1      38.316  28.356  29.674  1.00  0.00    +0.000 C 
ATOM     88  C63 UNL A   1      37.159  29.052  29.345  1.00  0.00    +0.000 C 
ATOM     26  C20 UNL A   1      37.107  29.792  28.160  1.00  0.00    +0.000 C 
ATOM     27  C21 UNL A   1      38.164  29.746  27.245  1.00  0.00    +0.000 C 
ATOM     28  C22 UNL A   1      39.313  29.027  27.555  1.00  0.00    +0.000 C 
ATOM    125  H37 UNL A   1      36.340  29.021  29.973  1.00  0.00    +0.000 H 
BRANCH   26   24
ATOM     25  O2  UNL A   1      35.983  31.829  27.930  1.00  0.00    +0.000 O 
ATOM     24  C19 UNL A   1      35.930  30.617  27.815  1.00  0.00    +0.000 C 
BRANCH   24   23
ATOM    111  H23 UNL A   1      33.950  30.565  27.449  1.00  0.00    +0.000 H 
ATOM     23  N3  UNL A   1      34.764  30.012  27.405  1.00  0.00    +0.000 N 
BRANCH   23   22
ATOM    110  H22 UNL A   1      34.108  28.078  27.670  1.00  0.00    +0.000 H 
ATOM    109  H21 UNL A   1      35.553  28.245  26.677  1.00  0.00    +0.000 H 
ATOM     22  C18 UNL A   1      34.592  28.655  26.910  1.00  0.00    +0.000 C 
BRANCH   22   21
ATOM    107  H19 UNL A   1      32.713  28.832  25.946  1.00  0.00    +0.000 H 
ATOM    108  H20 UNL A   1      34.120  29.360  24.990  1.00  0.00    +0.000 H 
ATOM     21  C17 UNL A   1      33.723  28.626  25.659  1.00  0.00    +0.000 C 
BRANCH   21   20
ATOM    105  H17 UNL A   1      32.891  27.258  24.273  1.00  0.00    +0.000 H 
ATOM    106  H18 UNL A   1      34.689  27.270  24.403  1.00  0.00    +0.000 H 
ATOM     20  C16 UNL A   1      33.748  27.289  24.913  1.00  0.00    +0.000 C 
BRANCH   20   19
ATOM     19  C15 UNL A   1      33.731  26.023  25.771  1.00  0.00    +0.000 C 
ATOM    103  H15 UNL A   1      34.031  26.296  26.761  1.00  0.00    +0.000 H 
ATOM    104  H16 UNL A   1      32.733  25.644  25.702  1.00  0.00    +0.000 H 
BRANCH   19   18
ATOM     18  C14 UNL A   1      34.638  24.878  25.308  1.00  0.00    +0.000 C 
ATOM    101  H13 UNL A   1      34.051  24.222  24.699  1.00  0.00    +0.000 H 
ATOM    102  H14 UNL A   1      35.450  25.348  24.793  1.00  0.00    +0.000 H 
BRANCH   18   17
ATOM     17  C13 UNL A   1      35.284  24.038  26.410  1.00  0.00    +0.000 C 
ATOM     99  H11 UNL A   1      35.779  24.698  27.089  1.00  0.00    +0.000 H 
ATOM    100  H12 UNL A   1      34.497  23.482  26.874  1.00  0.00    +0.000 H 
BRANCH   17   16
ATOM     98  H10 UNL A   1      37.198  23.153  26.175  1.00  0.00    +0.000 H 
ATOM     16  N2  UNL A   1      36.250  23.072  25.925  1.00  0.00    +0.000 N 
BRANCH   16    2
ATOM      1  O1  UNL A   1      36.253  21.863  23.968  1.00  0.00    +0.000 O 
ATOM      2  C1  UNL A   1      35.832  22.033  25.110  1.00  0.00    +0.000 C 
BRANCH    2    3
ATOM     89  H1  UNL A   1      34.075  21.802  26.233  1.00  0.00    +0.000 H 
ATOM     90  H2  UNL A   1      35.276  20.448  26.306  1.00  0.00    +0.000 H 
ATOM      3  C2  UNL A   1      34.748  21.159  25.706  1.00  0.00    +0.000 C 
BRANCH    3    4
ATOM      4  C3  UNL A   1      33.923  20.319  24.766  1.00  0.00    +0.000 C 
ATOM      5  C4  UNL A   1      34.032  18.939  24.628  1.00  0.00    +0.000 C 
ATOM      6  C5  UNL A   1      33.030  18.491  23.746  1.00  0.00    +0.000 C 
ATOM      7  C6  UNL A   1      32.319  19.600  23.359  1.00  0.00    +0.000 C 
ATOM      8  N1  UNL A   1      32.864  20.716  23.960  1.00  0.00    +0.000 N 
ATOM     91  H3  UNL A   1      34.732  18.343  25.096  1.00  0.00    +0.000 H 
ATOM     92  H4  UNL A   1      32.863  17.518  23.447  1.00  0.00    +0.000 H 
ATOM     93  H5  UNL A   1      31.507  19.598  22.722  1.00  0.00    +0.000 H 
BRANCH    8    9
ATOM     97  H9  UNL A   1      30.380  24.374  24.827  1.00  0.00    +0.000 H 
ATOM      9  C7  UNL A   1      32.432  22.011  23.643  1.00  0.00    +0.000 C 
ATOM     10  C8  UNL A   1      33.020  22.711  22.590  1.00  0.00    +0.000 C 
ATOM     11  C9  UNL A   1      32.601  24.020  22.336  1.00  0.00    +0.000 C 
ATOM     12  C10 UNL A   1      31.627  24.622  23.140  1.00  0.00    +0.000 C 
ATOM     13  C11 UNL A   1      31.084  23.925  24.219  1.00  0.00    +0.000 C 
ATOM     14  C12 UNL A   1      31.498  22.622  24.471  1.00  0.00    +0.000 C 
ATOM     15  F1  UNL A   1      30.990  21.959  25.519  1.00  0.00    +0.000 F 
ATOM     94  H6  UNL A   1      33.751  22.272  22.009  1.00  0.00    +0.000 H 
ATOM     95  H7  UNL A   1      33.012  24.547  21.549  1.00  0.00    +0.000 H 
ATOM     96  H8  UNL A   1      31.310  25.583  22.935  1.00  0.00    +0.000 H 
ENDBRANCH    8    9
ENDBRANCH    3    4
ENDBRANCH    2    3
ENDBRANCH   16    2
ENDBRANCH   17   16
ENDBRANCH   18   17
ENDBRANCH   19   18
ENDBRANCH   20   19
ENDBRANCH   21   20
ENDBRANCH   22   21
ENDBRANCH   23   22
ENDBRANCH   24   23
ENDBRANCH   26   24
ENDBRANCH   30   29
BRANCH   34   35
ATOM     35  C28 UNL A   1      42.587  22.226  26.860  1.00  0.00    +0.000 C 
ATOM     36  C29 UNL A   1      43.544  22.296  25.839  1.00  0.00    +0.000 C 
ATOM     37  F2  UNL A   1      44.192  23.438  25.580  1.00  0.00    +0.000 F 
ATOM     38  C30 UNL A   1      43.924  21.158  25.117  1.00  0.00    +0.000 C 
ATOM     39  F3  UNL A   1      44.871  21.256  24.174  1.00  0.00    +0.000 F 
ATOM     40  C31 UNL A   1      43.381  19.917  25.411  1.00  0.00    +0.000 C 
ATOM     41  F4  UNL A   1      43.821  18.817  24.785  1.00  0.00    +0.000 F 
ATOM     42  C32 UNL A   1      42.402  19.819  26.379  1.00  0.00    +0.000 C 
ATOM     43  F5  UNL A   1      41.886  18.622  26.694  1.00  0.00    +0.000 F 
ATOM     44  C33 UNL A   1      41.990  20.958  27.069  1.00  0.00    +0.000 C 
ATOM     45  F6  UNL A   1      41.032  20.795  27.995  1.00  0.00    +0.000 F 
ENDBRANCH   34   35
BRANCH   51   52
ATOM     52  C39 UNL A   1      45.876  26.754  28.555  1.00  0.00    +0.000 C 
ATOM     53  C40 UNL A   1      44.815  27.305  27.818  1.00  0.00    +0.000 C 
ATOM     54  F7  UNL A   1      43.554  26.980  28.095  1.00  0.00    +0.000 F 
ATOM     55  C41 UNL A   1      45.020  28.203  26.771  1.00  0.00    +0.000 C 
ATOM     56  F8  UNL A   1      43.972  28.687  26.087  1.00  0.00    +0.000 F 
ATOM     57  C42 UNL A   1      46.304  28.590  26.437  1.00  0.00    +0.000 C 
ATOM     58  F9  UNL A   1      46.505  29.454  25.432  1.00  0.00    +0.000 F 
ATOM     59  C43 UNL A   1      47.376  28.065  27.140  1.00  0.00    +0.000 C 
ATOM     60  F10 UNL A   1      48.623  28.433  26.816  1.00  0.00    +0.000 F 
ATOM     61  C44 UNL A   1      47.167  27.156  28.180  1.00  0.00    +0.000 C 
ATOM     62  F11 UNL A   1      48.234  26.668  28.830  1.00  0.00    +0.000 F 
ENDBRANCH   51   52
BRANCH   66   67
ATOM     67  C48 UNL A   1      44.638  30.199  33.498  1.00  0.00    +0.000 C 
ATOM     68  C49 UNL A   1      43.964  30.120  34.751  1.00  0.00    +0.000 C 
ATOM     69  F12 UNL A   1      43.095  29.135  35.018  1.00  0.00    +0.000 F 
ATOM     70  C50 UNL A   1      44.139  31.044  35.783  1.00  0.00    +0.000 C 
ATOM     71  F13 UNL A   1      43.383  30.958  36.887  1.00  0.00    +0.000 F 
ATOM     72  C51 UNL A   1      45.064  32.051  35.655  1.00  0.00    +0.000 C 
ATOM     73  F14 UNL A   1      45.217  32.959  36.626  1.00  0.00    +0.000 F 
ATOM     74  C52 UNL A   1      45.840  32.093  34.513  1.00  0.00    +0.000 C 
ATOM     75  F15 UNL A   1      46.793  33.030  34.402  1.00  0.00    +0.000 F 
ATOM     76  C53 UNL A   1      45.637  31.182  33.462  1.00  0.00    +0.000 C 
ATOM     77  F16 UNL A   1      46.477  31.293  32.431  1.00  0.00    +0.000 F 
ENDBRANCH   66   67
TORSDOF 17
ENDMDL
