MODEL 1
REMARK VINA RESULT:     -11.5      0.000      0.000
ROOT
ATOM    129  H29 UNL A   1      43.777  24.830  26.312  1.00  0.00    +0.000 H 
ATOM    130  H30 UNL A   1      46.078  25.781  25.719  1.00  0.00    +0.000 H 
ATOM    131  H31 UNL A   1      43.513  34.662  29.673  1.00  0.00    +0.000 H 
ATOM    132  H32 UNL A   1      41.317  33.652  30.516  1.00  0.00    +0.000 H 
ATOM     28  C22 UNL A   1      40.880  30.959  29.670  1.00  0.00    +0.000 C 
ATOM     29  C23 UNL A   1      42.096  31.819  29.433  1.00  0.00    +0.000 C 
ATOM     30  N3  UNL A   1      43.212  31.524  28.813  1.00  0.00    +0.000 N 
ATOM     31  C24 UNL A   1      43.992  32.673  28.860  1.00  0.00    +0.000 C 
ATOM     32  C25 UNL A   1      45.252  32.861  28.399  1.00  0.00    +0.000 C 
ATOM     44  C32 UNL A   1      46.038  31.846  27.747  1.00  0.00    +0.000 C 
ATOM     45  C33 UNL A   1      47.332  31.937  27.264  1.00  0.00    +0.000 C 
ATOM     46  C34 UNL A   1      47.663  30.718  26.663  1.00  0.00    +0.000 C 
ATOM     47  C35 UNL A   1      46.597  29.847  26.824  1.00  0.00    +0.000 C 
ATOM     48  N4  UNL A   1      45.605  30.554  27.488  1.00  0.00    +0.000 N 
ATOM     49  C36 UNL A   1      46.487  28.476  26.396  1.00  0.00    +0.000 C 
ATOM     61  C43 UNL A   1      45.424  27.671  26.638  1.00  0.00    +0.000 C 
ATOM     62  N5  UNL A   1      44.244  27.966  27.306  1.00  0.00    +0.000 N 
ATOM     63  C44 UNL A   1      43.516  26.878  27.249  1.00  0.00    +0.000 C 
ATOM     64  C45 UNL A   1      42.147  26.621  27.814  1.00  0.00    +0.000 C 
ATOM     76  C52 UNL A   1      41.493  27.621  28.435  1.00  0.00    +0.000 C 
ATOM     77  C53 UNL A   1      40.158  27.520  29.015  1.00  0.00    +0.000 C 
ATOM     78  C54 UNL A   1      39.788  28.726  29.470  1.00  0.00    +0.000 C 
ATOM     79  C55 UNL A   1      40.889  29.670  29.278  1.00  0.00    +0.000 C 
ATOM     80  N6  UNL A   1      41.860  28.926  28.655  1.00  0.00    +0.000 N 
ATOM     81  C56 UNL A   1      44.149  25.769  26.523  1.00  0.00    +0.000 C 
ATOM     82  C57 UNL A   1      45.327  26.292  26.208  1.00  0.00    +0.000 C 
ATOM     83  C58 UNL A   1      43.210  33.685  29.537  1.00  0.00    +0.000 C 
ATOM     84  C59 UNL A   1      42.055  33.193  29.961  1.00  0.00    +0.000 C 
ATOM    123  H23 UNL A   1      47.948  32.762  27.334  1.00  0.00    +0.000 H 
ATOM    124  H24 UNL A   1      48.550  30.503  26.183  1.00  0.00    +0.000 H 
ATOM    125  H25 UNL A   1      44.725  30.191  27.738  1.00  0.00    +0.000 H 
ATOM    126  H26 UNL A   1      39.590  26.659  29.068  1.00  0.00    +0.000 H 
ATOM    127  H27 UNL A   1      38.871  28.951  29.889  1.00  0.00    +0.000 H 
ATOM    128  H28 UNL A   1      42.734  29.292  28.392  1.00  0.00    +0.000 H 
ENDROOT
BRANCH   28   27
ATOM    122  H22 UNL A   1      38.767  32.258  28.646  1.00  0.00    +0.000 H 
ATOM    133  H33 UNL A   1      40.348  31.000  32.340  1.00  0.00    +0.000 H 
ATOM    134  H34 UNL A   1      38.256  31.590  33.427  1.00  0.00    +0.000 H 
ATOM     85  C60 UNL A   1      39.564  31.368  31.780  1.00  0.00    +0.000 C 
ATOM     86  C61 UNL A   1      38.370  31.731  32.411  1.00  0.00    +0.000 C 
ATOM     24  C18 UNL A   1      37.329  32.286  31.660  1.00  0.00    +0.000 C 
ATOM     25  C19 UNL A   1      37.522  32.580  30.309  1.00  0.00    +0.000 C 
ATOM     26  C20 UNL A   1      38.670  32.130  29.666  1.00  0.00    +0.000 C 
ATOM     27  C21 UNL A   1      39.697  31.503  30.389  1.00  0.00    +0.000 C 
ATOM    121  H21 UNL A   1      36.816  33.127  29.791  1.00  0.00    +0.000 H 
BRANCH   24   22
ATOM     22  C17 UNL A   1      36.013  32.502  32.304  1.00  0.00    +0.000 C 
ATOM     23  O4  UNL A   1      35.778  31.992  33.395  1.00  0.00    +0.000 O 
BRANCH   22   21
ATOM     21  N2  UNL A   1      35.046  33.235  31.652  1.00  0.00    +0.000 N 
ATOM    120  H20 UNL A   1      34.411  32.708  31.116  1.00  0.00    +0.000 H 
BRANCH   21   20
ATOM     20  C16 UNL A   1      34.828  34.673  31.640  1.00  0.00    +0.000 C 
ATOM    118  H18 UNL A   1      35.360  35.103  32.462  1.00  0.00    +0.000 H 
ATOM    119  H19 UNL A   1      35.175  35.036  30.696  1.00  0.00    +0.000 H 
BRANCH   20   19
ATOM     19  C15 UNL A   1      33.360  35.064  31.759  1.00  0.00    +0.000 C 
ATOM    116  H16 UNL A   1      32.795  34.170  31.925  1.00  0.00    +0.000 H 
ATOM    117  H17 UNL A   1      33.312  35.766  32.565  1.00  0.00    +0.000 H 
BRANCH   19   18
ATOM     18  C14 UNL A   1      32.760  35.780  30.551  1.00  0.00    +0.000 C 
ATOM    115  H15 UNL A   1      32.850  36.824  30.766  1.00  0.00    +0.000 H 
ATOM    114  H14 UNL A   1      31.753  35.435  30.436  1.00  0.00    +0.000 H 
BRANCH   18   17
ATOM     17  C13 UNL A   1      33.475  35.578  29.214  1.00  0.00    +0.000 C 
ATOM    113  H13 UNL A   1      34.508  35.454  29.468  1.00  0.00    +0.000 H 
ATOM    112  H12 UNL A   1      33.263  36.429  28.602  1.00  0.00    +0.000 H 
BRANCH   17   16
ATOM    110  H10 UNL A   1      32.307  33.842  28.934  1.00  0.00    +0.000 H 
ATOM    111  H11 UNL A   1      32.863  34.693  27.439  1.00  0.00    +0.000 H 
ATOM     16  C12 UNL A   1      33.106  34.329  28.415  1.00  0.00    +0.000 C 
BRANCH   16   15
ATOM    108  H8  UNL A   1      34.745  33.581  27.308  1.00  0.00    +0.000 H 
ATOM    109  H9  UNL A   1      34.787  33.284  29.077  1.00  0.00    +0.000 H 
ATOM     15  C11 UNL A   1      34.200  33.293  28.183  1.00  0.00    +0.000 C 
BRANCH   15   14
ATOM    107  H7  UNL A   1      32.829  31.754  28.306  1.00  0.00    +0.000 H 
ATOM     14  N1  UNL A   1      33.747  31.930  27.995  1.00  0.00    +0.000 N 
BRANCH   14   12
ATOM     12  C10 UNL A   1      34.394  30.840  27.453  1.00  0.00    +0.000 C 
ATOM     13  O3  UNL A   1      35.623  30.825  27.430  1.00  0.00    +0.000 O 
BRANCH   12   11
ATOM    135  H35 UNL A   1      31.712  30.159  27.662  1.00  0.00    +0.000 H 
ATOM    136  H36 UNL A   1      30.815  27.911  27.469  1.00  0.00    +0.000 H 
ATOM      9  C7  UNL A   1      33.806  27.390  26.080  1.00  0.00    +0.000 C 
ATOM    105  H5  UNL A   1      34.302  26.692  25.506  1.00  0.00    +0.000 H 
ATOM      8  C6  UNL A   1      32.577  27.087  26.653  1.00  0.00    +0.000 C 
ATOM     10  C8  UNL A   1      34.360  28.656  26.294  1.00  0.00    +0.000 C 
ATOM    106  H6  UNL A   1      35.300  28.873  25.925  1.00  0.00    +0.000 H 
ATOM     11  C9  UNL A   1      33.647  29.632  27.006  1.00  0.00    +0.000 C 
ATOM     87  C62 UNL A   1      32.311  29.391  27.324  1.00  0.00    +0.000 C 
ATOM     88  C63 UNL A   1      31.787  28.107  27.183  1.00  0.00    +0.000 C 
BRANCH    8    7
ATOM      7  O2  UNL A   1      32.044  25.834  26.662  1.00  0.00    +0.000 O 
BRANCH    7    6
ATOM      2  C2  UNL A   1      32.067  22.944  23.596  1.00  0.00    +0.000 C 
ATOM      3  C3  UNL A   1      32.771  22.719  24.706  1.00  0.00    +0.000 C 
ATOM    100  O7  UNL A   1      31.408  24.133  23.365  1.00  0.00    +0.000 O 
ATOM      4  C4  UNL A   1      32.803  23.753  25.748  1.00  0.00    +0.000 C 
ATOM      5  O1  UNL A   1      33.493  23.571  26.748  1.00  0.00    +0.000 O 
ATOM      6  C5  UNL A   1      31.995  25.001  25.550  1.00  0.00    +0.000 C 
ATOM    104  H4  UNL A   1      33.285  21.832  24.830  1.00  0.00    +0.000 H 
ATOM     89  C64 UNL A   1      31.397  25.134  24.334  1.00  0.00    +0.000 C 
BRANCH    2    1
ATOM      1  C1  UNL A   1      31.941  21.941  22.495  1.00  0.00    +0.000 C 
ATOM    101  H1  UNL A   1      31.434  22.385  21.664  1.00  0.00    +0.000 H 
ATOM    102  H2  UNL A   1      31.383  21.096  22.844  1.00  0.00    +0.000 H 
ATOM    103  H3  UNL A   1      32.916  21.622  22.189  1.00  0.00    +0.000 H 
ENDBRANCH    2    1
BRANCH   89   90
ATOM     98  C70 UNL A   1      30.549  28.502  22.815  1.00  0.00    +0.000 C 
ATOM     99  C71 UNL A   1      31.283  27.386  23.231  1.00  0.00    +0.000 C 
ATOM    137  H37 UNL A   1      28.743  25.478  24.308  1.00  0.00    +0.000 H 
ATOM    138  H38 UNL A   1      27.470  27.434  23.633  1.00  0.00    +0.000 H 
ATOM    142  H42 UNL A   1      31.031  29.310  22.388  1.00  0.00    +0.000 H 
ATOM    143  H43 UNL A   1      32.306  27.365  23.098  1.00  0.00    +0.000 H 
ATOM     90  C65 UNL A   1      30.636  26.294  23.830  1.00  0.00    +0.000 C 
ATOM     91  C66 UNL A   1      29.234  26.303  23.931  1.00  0.00    +0.000 C 
ATOM     92  C67 UNL A   1      28.497  27.421  23.527  1.00  0.00    +0.000 C 
ATOM     93  C68 UNL A   1      29.162  28.520  22.978  1.00  0.00    +0.000 C 
BRANCH   93   94
ATOM     97  O6  UNL A   1      26.961  29.909  23.288  1.00  0.00    +0.000 O 
ATOM     94  S1  UNL A   1      28.232  29.986  22.588  1.00  0.00    +0.000 S 
ATOM     96  O5  UNL A   1      28.294  30.165  21.152  1.00  0.00    +0.000 O 
BRANCH   94   95
ATOM    139  H39 UNL A   1      30.050  30.886  23.781  1.00  0.00    +0.000 H 
ATOM    140  H40 UNL A   1      28.572  31.767  24.090  1.00  0.00    +0.000 H 
ATOM    141  H41 UNL A   1      29.438  32.008  22.591  1.00  0.00    +0.000 H 
ATOM     95  C69 UNL A   1      29.165  31.291  23.337  1.00  0.00    +0.000 C 
ENDBRANCH   94   95
ENDBRANCH   93   94
ENDBRANCH   89   90
ENDBRANCH    7    6
ENDBRANCH    8    7
ENDBRANCH   12   11
ENDBRANCH   14   12
ENDBRANCH   15   14
ENDBRANCH   16   15
ENDBRANCH   17   16
ENDBRANCH   18   17
ENDBRANCH   19   18
ENDBRANCH   20   19
ENDBRANCH   21   20
ENDBRANCH   22   21
ENDBRANCH   24   22
ENDBRANCH   28   27
BRANCH   32   33
ATOM     33  C26 UNL A   1      45.872  34.219  28.576  1.00  0.00    +0.000 C 
ATOM     34  C27 UNL A   1      46.665  34.527  29.692  1.00  0.00    +0.000 C 
ATOM     35  F1  UNL A   1      46.822  33.631  30.678  1.00  0.00    +0.000 F 
ATOM     36  C28 UNL A   1      47.281  35.771  29.813  1.00  0.00    +0.000 C 
ATOM     37  F2  UNL A   1      48.005  36.055  30.905  1.00  0.00    +0.000 F 
ATOM     38  C29 UNL A   1      47.146  36.717  28.808  1.00  0.00    +0.000 C 
ATOM     39  F3  UNL A   1      47.756  37.905  28.918  1.00  0.00    +0.000 F 
ATOM     40  C30 UNL A   1      46.377  36.431  27.691  1.00  0.00    +0.000 C 
ATOM     41  F4  UNL A   1      46.258  37.337  26.711  1.00  0.00    +0.000 F 
ATOM     42  C31 UNL A   1      45.733  35.201  27.581  1.00  0.00    +0.000 C 
ATOM     43  F5  UNL A   1      44.993  34.956  26.490  1.00  0.00    +0.000 F 
ENDBRANCH   32   33
BRANCH   49   50
ATOM     50  C37 UNL A   1      47.640  27.888  25.632  1.00  0.00    +0.000 C 
ATOM     51  C38 UNL A   1      47.648  27.856  24.231  1.00  0.00    +0.000 C 
ATOM     52  F6  UNL A   1      46.585  28.293  23.538  1.00  0.00    +0.000 F 
ATOM     53  C39 UNL A   1      48.738  27.343  23.532  1.00  0.00    +0.000 C 
ATOM     54  F7  UNL A   1      48.705  27.281  22.194  1.00  0.00    +0.000 F 
ATOM     55  C40 UNL A   1      49.853  26.887  24.219  1.00  0.00    +0.000 C 
ATOM     56  F8  UNL A   1      50.908  26.408  23.545  1.00  0.00    +0.000 F 
ATOM     57  C41 UNL A   1      49.874  26.924  25.605  1.00  0.00    +0.000 C 
ATOM     58  F9  UNL A   1      50.958  26.500  26.269  1.00  0.00    +0.000 F 
ATOM     59  C42 UNL A   1      48.772  27.405  26.307  1.00  0.00    +0.000 C 
ATOM     60  F10 UNL A   1      48.819  27.419  27.647  1.00  0.00    +0.000 F 
ENDBRANCH   49   50
BRANCH   64   65
ATOM     65  C46 UNL A   1      41.507  25.284  27.699  1.00  0.00    +0.000 C 
ATOM     66  C47 UNL A   1      40.430  25.076  26.827  1.00  0.00    +0.000 C 
ATOM     67  F11 UNL A   1      39.936  26.100  26.116  1.00  0.00    +0.000 F 
ATOM     68  C48 UNL A   1      39.838  23.820  26.703  1.00  0.00    +0.000 C 
ATOM     69  F12 UNL A   1      38.787  23.656  25.888  1.00  0.00    +0.000 F 
ATOM     70  C49 UNL A   1      40.330  22.744  27.424  1.00  0.00    +0.000 C 
ATOM     71  F13 UNL A   1      39.772  21.532  27.291  1.00  0.00    +0.000 F 
ATOM     72  C50 UNL A   1      41.400  22.924  28.287  1.00  0.00    +0.000 C 
ATOM     73  F14 UNL A   1      41.892  21.882  28.972  1.00  0.00    +0.000 F 
ATOM     74  C51 UNL A   1      41.971  24.184  28.437  1.00  0.00    +0.000 C 
ATOM     75  F15 UNL A   1      43.001  24.331  29.285  1.00  0.00    +0.000 F 
ENDBRANCH   64   65
TORSDOF 21
ENDMDL
MODEL 2
REMARK VINA RESULT:     -11.4     20.400     26.249
ROOT
ATOM    129  H29 UNL A   1      26.890  32.648  43.863  1.00  0.00    +0.000 H 
ATOM    130  H30 UNL A   1      29.262  33.380  43.240  1.00  0.00    +0.000 H 
ATOM    131  H31 UNL A   1      28.257  41.668  48.844  1.00  0.00    +0.000 H 
ATOM    132  H32 UNL A   1      25.996  40.819  49.693  1.00  0.00    +0.000 H 
ATOM     28  C22 UNL A   1      25.124  38.401  48.445  1.00  0.00    +0.000 C 
ATOM     29  C23 UNL A   1      26.434  39.124  48.252  1.00  0.00    +0.000 C 
ATOM     30  N3  UNL A   1      27.454  38.801  47.496  1.00  0.00    +0.000 N 
ATOM     31  C24 UNL A   1      28.392  39.811  47.669  1.00  0.00    +0.000 C 
ATOM     32  C25 UNL A   1      29.635  39.912  47.138  1.00  0.00    +0.000 C 
ATOM     44  C32 UNL A   1      30.224  38.936  46.258  1.00  0.00    +0.000 C 
ATOM     45  C33 UNL A   1      31.485  38.942  45.687  1.00  0.00    +0.000 C 
ATOM     46  C34 UNL A   1      31.598  37.817  44.862  1.00  0.00    +0.000 C 
ATOM     47  C35 UNL A   1      30.430  37.079  44.966  1.00  0.00    +0.000 C 
ATOM     48  N4  UNL A   1      29.594  37.779  45.824  1.00  0.00    +0.000 N 
ATOM     49  C36 UNL A   1      30.097  35.834  44.324  1.00  0.00    +0.000 C 
ATOM     61  C43 UNL A   1      28.946  35.144  44.518  1.00  0.00    +0.000 C 
ATOM     62  N5  UNL A   1      27.865  35.467  45.327  1.00  0.00    +0.000 N 
ATOM     63  C44 UNL A   1      26.986  34.511  45.150  1.00  0.00    +0.000 C 
ATOM     64  C45 UNL A   1      25.632  34.338  45.781  1.00  0.00    +0.000 C 
ATOM     76  C52 UNL A   1      25.170  35.288  46.616  1.00  0.00    +0.000 C 
ATOM     77  C53 UNL A   1      23.873  35.260  47.286  1.00  0.00    +0.000 C 
ATOM     78  C54 UNL A   1      23.710  36.403  47.968  1.00  0.00    +0.000 C 
ATOM     79  C55 UNL A   1      24.922  37.214  47.842  1.00  0.00    +0.000 C 
ATOM     80  N6  UNL A   1      25.734  36.473  47.020  1.00  0.00    +0.000 N 
ATOM     81  C56 UNL A   1      27.406  33.477  44.195  1.00  0.00    +0.000 C 
ATOM     82  C57 UNL A   1      28.624  33.889  43.872  1.00  0.00    +0.000 C 
ATOM     83  C58 UNL A   1      27.809  40.778  48.572  1.00  0.00    +0.000 C 
ATOM     84  C59 UNL A   1      26.624  40.374  49.006  1.00  0.00    +0.000 C 
ATOM    123  H23 UNL A   1      32.217  39.653  45.841  1.00  0.00    +0.000 H 
ATOM    124  H24 UNL A   1      32.413  37.578  44.277  1.00  0.00    +0.000 H 
ATOM    125  H25 UNL A   1      28.688  37.496  46.085  1.00  0.00    +0.000 H 
ATOM    126  H26 UNL A   1      23.192  34.486  47.241  1.00  0.00    +0.000 H 
ATOM    127  H27 UNL A   1      22.864  36.668  48.497  1.00  0.00    +0.000 H 
ATOM    128  H28 UNL A   1      26.633  36.763  46.748  1.00  0.00    +0.000 H 
ENDROOT
BRANCH   28   27
ATOM    122  H22 UNL A   1      23.213  40.194  47.865  1.00  0.00    +0.000 H 
ATOM    133  H33 UNL A   1      24.721  37.965  51.102  1.00  0.00    +0.000 H 
ATOM    134  H34 UNL A   1      22.803  38.628  52.441  1.00  0.00    +0.000 H 
ATOM     85  C60 UNL A   1      23.984  38.558  50.689  1.00  0.00    +0.000 C 
ATOM     86  C61 UNL A   1      22.895  38.959  51.468  1.00  0.00    +0.000 C 
ATOM     24  C18 UNL A   1      21.929  39.812  50.924  1.00  0.00    +0.000 C 
ATOM     25  C19 UNL A   1      22.111  40.348  49.649  1.00  0.00    +0.000 C 
ATOM     26  C20 UNL A   1      23.139  39.872  48.843  1.00  0.00    +0.000 C 
ATOM     27  C21 UNL A   1      24.079  38.958  49.346  1.00  0.00    +0.000 C 
ATOM    121  H21 UNL A   1      21.484  41.093  49.305  1.00  0.00    +0.000 H 
BRANCH   24   22
ATOM     22  C17 UNL A   1      20.697  40.088  51.696  1.00  0.00    +0.000 C 
ATOM     23  O4  UNL A   1      20.738  40.847  52.659  1.00  0.00    +0.000 O 
BRANCH   22   21
ATOM     21  N2  UNL A   1      19.523  39.453  51.357  1.00  0.00    +0.000 N 
ATOM    120  H20 UNL A   1      19.463  38.508  51.626  1.00  0.00    +0.000 H 
BRANCH   21   20
ATOM     20  C16 UNL A   1      18.357  39.975  50.659  1.00  0.00    +0.000 C 
ATOM    118  H18 UNL A   1      18.663  40.816  50.073  1.00  0.00    +0.000 H 
ATOM    119  H19 UNL A   1      17.969  39.180  50.058  1.00  0.00    +0.000 H 
BRANCH   20   19
ATOM     19  C15 UNL A   1      17.239  40.419  51.594  1.00  0.00    +0.000 C 
ATOM    116  H16 UNL A   1      17.661  41.093  52.311  1.00  0.00    +0.000 H 
ATOM    117  H17 UNL A   1      16.495  40.861  50.965  1.00  0.00    +0.000 H 
BRANCH   19   18
ATOM     18  C14 UNL A   1      16.527  39.306  52.359  1.00  0.00    +0.000 C 
ATOM    115  H15 UNL A   1      16.942  39.328  53.344  1.00  0.00    +0.000 H 
ATOM    114  H14 UNL A   1      16.690  38.392  51.828  1.00  0.00    +0.000 H 
BRANCH   18   17
ATOM     17  C13 UNL A   1      15.018  39.469  52.551  1.00  0.00    +0.000 C 
ATOM    113  H13 UNL A   1      14.689  40.031  51.702  1.00  0.00    +0.000 H 
ATOM    112  H12 UNL A   1      14.863  39.949  53.495  1.00  0.00    +0.000 H 
BRANCH   17   16
ATOM    110  H10 UNL A   1      14.852  37.367  52.436  1.00  0.00    +0.000 H 
ATOM    111  H11 UNL A   1      13.624  38.221  53.452  1.00  0.00    +0.000 H 
ATOM     16  C12 UNL A   1      14.178  38.193  52.537  1.00  0.00    +0.000 C 
BRANCH   16   15
ATOM    108  H8  UNL A   1      12.164  37.998  51.921  1.00  0.00    +0.000 H 
ATOM    109  H9  UNL A   1      13.242  38.913  50.816  1.00  0.00    +0.000 H 
ATOM     15  C11 UNL A   1      13.122  38.057  51.445  1.00  0.00    +0.000 C 
BRANCH   15   14
ATOM    107  H7  UNL A   1      13.067  36.040  51.005  1.00  0.00    +0.000 H 
ATOM     14  N1  UNL A   1      13.258  36.906  50.576  1.00  0.00    +0.000 N 
BRANCH   14   12
ATOM     12  C10 UNL A   1      13.611  36.828  49.246  1.00  0.00    +0.000 C 
ATOM     13  O3  UNL A   1      12.736  36.930  48.389  1.00  0.00    +0.000 O 
BRANCH   12   11
ATOM    135  H35 UNL A   1      14.762  36.559  46.736  1.00  0.00    +0.000 H 
ATOM    136  H36 UNL A   1      17.028  35.798  46.305  1.00  0.00    +0.000 H 
ATOM      9  C7  UNL A   1      17.348  36.553  49.541  1.00  0.00    +0.000 C 
ATOM    105  H5  UNL A   1      18.082  36.710  50.249  1.00  0.00    +0.000 H 
ATOM      8  C6  UNL A   1      17.669  36.009  48.303  1.00  0.00    +0.000 C 
ATOM     10  C8  UNL A   1      16.017  36.884  49.813  1.00  0.00    +0.000 C 
ATOM    106  H6  UNL A   1      15.756  37.231  50.749  1.00  0.00    +0.000 H 
ATOM     11  C9  UNL A   1      15.035  36.746  48.820  1.00  0.00    +0.000 C 
ATOM     87  C62 UNL A   1      15.434  36.466  47.514  1.00  0.00    +0.000 C 
ATOM     88  C63 UNL A   1      16.743  36.061  47.261  1.00  0.00    +0.000 C 
BRANCH    8    7
ATOM      7  O2  UNL A   1      18.891  35.485  48.010  1.00  0.00    +0.000 O 
BRANCH    7    6
ATOM      2  C2  UNL A   1      21.445  36.948  44.996  1.00  0.00    +0.000 C 
ATOM      3  C3  UNL A   1      21.289  37.657  46.115  1.00  0.00    +0.000 C 
ATOM    100  O7  UNL A   1      20.727  35.799  44.740  1.00  0.00    +0.000 O 
ATOM      4  C4  UNL A   1      20.356  37.168  47.139  1.00  0.00    +0.000 C 
ATOM      5  O1  UNL A   1      20.169  37.845  48.147  1.00  0.00    +0.000 O 
ATOM      6  C5  UNL A   1      19.657  35.861  46.912  1.00  0.00    +0.000 C 
ATOM    104  H4  UNL A   1      21.815  38.533  46.259  1.00  0.00    +0.000 H 
ATOM     89  C64 UNL A   1      19.844  35.291  45.691  1.00  0.00    +0.000 C 
BRANCH    2    1
ATOM      1  C1  UNL A   1      22.398  37.339  43.912  1.00  0.00    +0.000 C 
ATOM    101  H1  UNL A   1      22.016  38.194  43.395  1.00  0.00    +0.000 H 
ATOM    102  H2  UNL A   1      22.510  36.526  43.225  1.00  0.00    +0.000 H 
ATOM    103  H3  UNL A   1      23.349  37.577  44.342  1.00  0.00    +0.000 H 
ENDBRANCH    2    1
BRANCH   89   90
ATOM     98  C70 UNL A   1      17.450  32.976  43.880  1.00  0.00    +0.000 C 
ATOM     99  C71 UNL A   1      18.079  34.144  44.323  1.00  0.00    +0.000 C 
ATOM    137  H37 UNL A   1      20.600  32.748  46.040  1.00  0.00    +0.000 H 
ATOM    138  H38 UNL A   1      19.482  30.717  45.315  1.00  0.00    +0.000 H 
ATOM    142  H42 UNL A   1      16.614  33.035  43.276  1.00  0.00    +0.000 H 
ATOM    143  H43 UNL A   1      17.715  35.065  44.033  1.00  0.00    +0.000 H 
ATOM     90  C65 UNL A   1      19.203  34.072  45.160  1.00  0.00    +0.000 C 
ATOM     91  C66 UNL A   1      19.736  32.811  45.481  1.00  0.00    +0.000 C 
ATOM     92  C67 UNL A   1      19.103  31.640  45.050  1.00  0.00    +0.000 C 
ATOM     93  C68 UNL A   1      17.956  31.731  44.258  1.00  0.00    +0.000 C 
BRANCH   93   94
ATOM     97  O6  UNL A   1      15.900  30.156  44.657  1.00  0.00    +0.000 O 
ATOM     94  S1  UNL A   1      17.086  30.240  43.824  1.00  0.00    +0.000 S 
ATOM     96  O5  UNL A   1      18.060  29.169  43.785  1.00  0.00    +0.000 O 
BRANCH   94   95
ATOM    139  H39 UNL A   1      17.375  30.837  41.565  1.00  0.00    +0.000 H 
ATOM    140  H40 UNL A   1      15.803  31.309  42.165  1.00  0.00    +0.000 H 
ATOM    141  H41 UNL A   1      16.119  29.639  41.764  1.00  0.00    +0.000 H 
ATOM     95  C69 UNL A   1      16.542  30.536  42.166  1.00  0.00    +0.000 C 
ENDBRANCH   94   95
ENDBRANCH   93   94
ENDBRANCH   89   90
ENDBRANCH    7    6
ENDBRANCH    8    7
ENDBRANCH   12   11
ENDBRANCH   14   12
ENDBRANCH   15   14
ENDBRANCH   16   15
ENDBRANCH   17   16
ENDBRANCH   18   17
ENDBRANCH   19   18
ENDBRANCH   20   19
ENDBRANCH   21   20
ENDBRANCH   22   21
ENDBRANCH   24   22
ENDBRANCH   28   27
BRANCH   32   33
ATOM     33  C26 UNL A   1      30.454  41.123  47.487  1.00  0.00    +0.000 C 
ATOM     34  C27 UNL A   1      30.276  42.348  46.828  1.00  0.00    +0.000 C 
ATOM     35  F1  UNL A   1      29.416  42.445  45.802  1.00  0.00    +0.000 F 
ATOM     36  C28 UNL A   1      31.002  43.477  47.202  1.00  0.00    +0.000 C 
ATOM     37  F2  UNL A   1      30.840  44.628  46.533  1.00  0.00    +0.000 F 
ATOM     38  C29 UNL A   1      31.892  43.414  48.263  1.00  0.00    +0.000 C 
ATOM     39  F3  UNL A   1      32.574  44.506  48.633  1.00  0.00    +0.000 F 
ATOM     40  C30 UNL A   1      32.077  42.217  48.937  1.00  0.00    +0.000 C 
ATOM     41  F4  UNL A   1      32.924  42.156  49.973  1.00  0.00    +0.000 F 
ATOM     42  C31 UNL A   1      31.376  41.078  48.546  1.00  0.00    +0.000 C 
ATOM     43  F5  UNL A   1      31.581  39.935  49.216  1.00  0.00    +0.000 F 
ENDBRANCH   32   33
BRANCH   49   50
ATOM     50  C37 UNL A   1      31.102  35.245  43.374  1.00  0.00    +0.000 C 
ATOM     51  C38 UNL A   1      31.927  34.176  43.753  1.00  0.00    +0.000 C 
ATOM     52  F6  UNL A   1      31.881  33.699  45.006  1.00  0.00    +0.000 F 
ATOM     53  C39 UNL A   1      32.828  33.613  42.853  1.00  0.00    +0.000 C 
ATOM     54  F7  UNL A   1      33.638  32.622  43.250  1.00  0.00    +0.000 F 
ATOM     55  C40 UNL A   1      32.896  34.083  41.550  1.00  0.00    +0.000 C 
ATOM     56  F8  UNL A   1      33.754  33.530  40.681  1.00  0.00    +0.000 F 
ATOM     57  C41 UNL A   1      32.079  35.128  41.149  1.00  0.00    +0.000 C 
ATOM     58  F9  UNL A   1      32.131  35.571  39.885  1.00  0.00    +0.000 F 
ATOM     59  C42 UNL A   1      31.201  35.716  42.056  1.00  0.00    +0.000 C 
ATOM     60  F10 UNL A   1      30.429  36.731  41.639  1.00  0.00    +0.000 F 
ENDBRANCH   49   50
BRANCH   64   65
ATOM     65  C46 UNL A   1      24.800  33.139  45.498  1.00  0.00    +0.000 C 
ATOM     66  C47 UNL A   1      23.804  33.172  44.514  1.00  0.00    +0.000 C 
ATOM     67  F11 UNL A   1      23.561  34.309  43.844  1.00  0.00    +0.000 F 
ATOM     68  C48 UNL A   1      23.033  32.046  44.233  1.00  0.00    +0.000 C 
ATOM     69  F12 UNL A   1      22.063  32.114  43.312  1.00  0.00    +0.000 F 
ATOM     70  C49 UNL A   1      23.264  30.858  44.909  1.00  0.00    +0.000 C 
ATOM     71  F13 UNL A   1      22.535  29.769  44.626  1.00  0.00    +0.000 F 
ATOM     72  C50 UNL A   1      24.251  30.798  45.882  1.00  0.00    +0.000 C 
ATOM     73  F14 UNL A   1      24.491  29.647  46.524  1.00  0.00    +0.000 F 
ATOM     74  C51 UNL A   1      24.999  31.932  46.186  1.00  0.00    +0.000 C 
ATOM     75  F15 UNL A   1      25.942  31.848  47.137  1.00  0.00    +0.000 F 
ENDBRANCH   64   65
TORSDOF 21
ENDMDL
MODEL 3
REMARK VINA RESULT:     -11.4     18.169     25.990
ROOT
ATOM    129  H29 UNL A   1      49.836  57.245  16.339  1.00  0.00    +0.000 H 
ATOM    130  H30 UNL A   1      51.830  57.064  17.933  1.00  0.00    +0.000 H 
ATOM    131  H31 UNL A   1      48.428  48.227  21.313  1.00  0.00    +0.000 H 
ATOM    132  H32 UNL A   1      46.583  48.259  19.538  1.00  0.00    +0.000 H 
ATOM     28  C22 UNL A   1      46.484  50.673  18.014  1.00  0.00    +0.000 C 
ATOM     29  C23 UNL A   1      47.489  50.284  19.068  1.00  0.00    +0.000 C 
ATOM     30  N3  UNL A   1      48.534  50.946  19.502  1.00  0.00    +0.000 N 
ATOM     31  C24 UNL A   1      49.108  50.151  20.487  1.00  0.00    +0.000 C 
ATOM     32  C25 UNL A   1      50.236  50.374  21.204  1.00  0.00    +0.000 C 
ATOM     44  C32 UNL A   1      51.075  51.535  21.057  1.00  0.00    +0.000 C 
ATOM     45  C33 UNL A   1      52.249  51.839  21.725  1.00  0.00    +0.000 C 
ATOM     46  C34 UNL A   1      52.687  53.095  21.293  1.00  0.00    +0.000 C 
ATOM     47  C35 UNL A   1      51.818  53.549  20.314  1.00  0.00    +0.000 C 
ATOM     48  N4  UNL A   1      50.832  52.583  20.181  1.00  0.00    +0.000 N 
ATOM     49  C36 UNL A   1      51.877  54.776  19.562  1.00  0.00    +0.000 C 
ATOM     61  C43 UNL A   1      51.012  55.125  18.578  1.00  0.00    +0.000 C 
ATOM     62  N5  UNL A   1      49.912  54.427  18.099  1.00  0.00    +0.000 N 
ATOM     63  C44 UNL A   1      49.377  55.189  17.177  1.00  0.00    +0.000 C 
ATOM     64  C45 UNL A   1      48.170  54.933  16.317  1.00  0.00    +0.000 C 
ATOM     76  C52 UNL A   1      47.457  53.806  16.503  1.00  0.00    +0.000 C 
ATOM     77  C53 UNL A   1      46.260  53.435  15.756  1.00  0.00    +0.000 C 
ATOM     78  C54 UNL A   1      45.764  52.297  16.263  1.00  0.00    +0.000 C 
ATOM     79  C55 UNL A   1      46.650  51.819  17.324  1.00  0.00    +0.000 C 
ATOM     80  N6  UNL A   1      47.629  52.779  17.399  1.00  0.00    +0.000 N 
ATOM     81  C56 UNL A   1      50.072  56.467  16.974  1.00  0.00    +0.000 C 
ATOM     82  C57 UNL A   1      51.085  56.359  17.824  1.00  0.00    +0.000 C 
ATOM     83  C58 UNL A   1      48.277  48.975  20.617  1.00  0.00    +0.000 C 
ATOM     84  C59 UNL A   1      47.297  48.980  19.725  1.00  0.00    +0.000 C 
ATOM    123  H23 UNL A   1      52.721  51.242  22.422  1.00  0.00    +0.000 H 
ATOM    124  H24 UNL A   1      53.516  53.599  21.644  1.00  0.00    +0.000 H 
ATOM    125  H25 UNL A   1      50.072  52.634  19.557  1.00  0.00    +0.000 H 
ATOM    126  H26 UNL A   1      45.858  53.964  14.965  1.00  0.00    +0.000 H 
ATOM    127  H27 UNL A   1      44.896  51.833  15.953  1.00  0.00    +0.000 H 
ATOM    128  H28 UNL A   1      48.380  52.735  18.032  1.00  0.00    +0.000 H 
ENDROOT
BRANCH   28   27
ATOM    122  H22 UNL A   1      46.458  48.571  16.346  1.00  0.00    +0.000 H 
ATOM    133  H33 UNL A   1      43.893  50.789  18.841  1.00  0.00    +0.000 H 
ATOM    134  H34 UNL A   1      42.165  49.104  18.548  1.00  0.00    +0.000 H 
ATOM     85  C60 UNL A   1      44.082  49.951  18.270  1.00  0.00    +0.000 C 
ATOM     86  C61 UNL A   1      43.079  48.995  18.081  1.00  0.00    +0.000 C 
ATOM     24  C18 UNL A   1      43.318  47.891  17.258  1.00  0.00    +0.000 C 
ATOM     25  C19 UNL A   1      44.511  47.801  16.539  1.00  0.00    +0.000 C 
ATOM     26  C20 UNL A   1      45.541  48.697  16.803  1.00  0.00    +0.000 C 
ATOM     27  C21 UNL A   1      45.347  49.773  17.684  1.00  0.00    +0.000 C 
ATOM    121  H21 UNL A   1      44.629  47.072  15.817  1.00  0.00    +0.000 H 
BRANCH   24   22
ATOM     22  C17 UNL A   1      42.316  46.802  17.206  1.00  0.00    +0.000 C 
ATOM     23  O4  UNL A   1      41.353  46.895  16.451  1.00  0.00    +0.000 O 
BRANCH   22   21
ATOM     21  N2  UNL A   1      42.448  45.714  18.039  1.00  0.00    +0.000 N 
ATOM    120  H20 UNL A   1      42.642  45.927  18.980  1.00  0.00    +0.000 H 
BRANCH   21   20
ATOM     20  C16 UNL A   1      42.341  44.295  17.732  1.00  0.00    +0.000 C 
ATOM    118  H18 UNL A   1      41.354  44.101  17.369  1.00  0.00    +0.000 H 
ATOM    119  H19 UNL A   1      43.094  44.073  17.006  1.00  0.00    +0.000 H 
BRANCH   20   19
ATOM     19  C15 UNL A   1      42.597  43.394  18.934  1.00  0.00    +0.000 C 
ATOM    116  H16 UNL A   1      42.461  42.380  18.617  1.00  0.00    +0.000 H 
ATOM    117  H17 UNL A   1      43.590  43.620  19.259  1.00  0.00    +0.000 H 
BRANCH   19   18
ATOM     18  C14 UNL A   1      41.701  43.630  20.148  1.00  0.00    +0.000 C 
ATOM    115  H15 UNL A   1      40.700  43.520  19.787  1.00  0.00    +0.000 H 
ATOM    114  H14 UNL A   1      41.930  44.600  20.537  1.00  0.00    +0.000 H 
BRANCH   18   17
ATOM     17  C13 UNL A   1      41.831  42.626  21.295  1.00  0.00    +0.000 C 
ATOM    113  H13 UNL A   1      42.832  42.256  21.228  1.00  0.00    +0.000 H 
ATOM    112  H12 UNL A   1      41.068  41.887  21.166  1.00  0.00    +0.000 H 
BRANCH   17   16
ATOM    110  H10 UNL A   1      41.844  44.239  22.659  1.00  0.00    +0.000 H 
ATOM    111  H11 UNL A   1      40.735  42.864  23.043  1.00  0.00    +0.000 H 
ATOM     16  C12 UNL A   1      41.703  43.179  22.714  1.00  0.00    +0.000 C 
BRANCH   16   15
ATOM    108  H8  UNL A   1      42.222  42.803  24.729  1.00  0.00    +0.000 H 
ATOM    109  H9  UNL A   1      42.819  41.613  23.526  1.00  0.00    +0.000 H 
ATOM     15  C11 UNL A   1      42.666  42.644  23.768  1.00  0.00    +0.000 C 
BRANCH   15   14
ATOM    107  H7  UNL A   1      44.645  42.776  24.341  1.00  0.00    +0.000 H 
ATOM     14  N1  UNL A   1      43.984  43.246  23.782  1.00  0.00    +0.000 N 
BRANCH   14   12
ATOM     12  C10 UNL A   1      44.460  44.367  23.139  1.00  0.00    +0.000 C 
ATOM     13  O3  UNL A   1      44.520  45.429  23.755  1.00  0.00    +0.000 O 
BRANCH   12   11
ATOM    135  H35 UNL A   1      45.547  42.257  21.702  1.00  0.00    +0.000 H 
ATOM    136  H36 UNL A   1      46.976  42.476  19.751  1.00  0.00    +0.000 H 
ATOM      9  C7  UNL A   1      45.691  45.556  19.792  1.00  0.00    +0.000 C 
ATOM    105  H5  UNL A   1      45.600  46.385  19.184  1.00  0.00    +0.000 H 
ATOM      8  C6  UNL A   1      46.545  44.517  19.443  1.00  0.00    +0.000 C 
ATOM     10  C8  UNL A   1      44.956  45.462  20.978  1.00  0.00    +0.000 C 
ATOM    106  H6  UNL A   1      44.366  46.253  21.279  1.00  0.00    +0.000 H 
ATOM     11  C9  UNL A   1      45.018  44.299  21.760  1.00  0.00    +0.000 C 
ATOM     87  C62 UNL A   1      45.660  43.174  21.243  1.00  0.00    +0.000 C 
ATOM     88  C63 UNL A   1      46.454  43.292  20.104  1.00  0.00    +0.000 C 
BRANCH    8    7
ATOM      7  O2  UNL A   1      47.435  44.593  18.415  1.00  0.00    +0.000 O 
BRANCH    7    6
ATOM      2  C2  UNL A   1      50.197  47.699  17.732  1.00  0.00    +0.000 C 
ATOM      3  C3  UNL A   1      49.326  47.382  16.772  1.00  0.00    +0.000 C 
ATOM    100  O7  UNL A   1      50.298  46.985  18.907  1.00  0.00    +0.000 O 
ATOM      4  C4  UNL A   1      48.402  46.263  16.996  1.00  0.00    +0.000 C 
ATOM      5  O1  UNL A   1      47.635  45.934  16.094  1.00  0.00    +0.000 O 
ATOM      6  C5  UNL A   1      48.433  45.556  18.318  1.00  0.00    +0.000 C 
ATOM    104  H4  UNL A   1      49.302  47.914  15.889  1.00  0.00    +0.000 H 
ATOM     89  C64 UNL A   1      49.429  45.927  19.167  1.00  0.00    +0.000 C 
BRANCH    2    1
ATOM      1  C1  UNL A   1      51.152  48.844  17.617  1.00  0.00    +0.000 C 
ATOM    101  H1  UNL A   1      51.352  49.240  18.591  1.00  0.00    +0.000 H 
ATOM    102  H2  UNL A   1      50.722  49.607  17.002  1.00  0.00    +0.000 H 
ATOM    103  H3  UNL A   1      52.066  48.503  17.176  1.00  0.00    +0.000 H 
ENDBRANCH    2    1
BRANCH   89   90
ATOM     98  C70 UNL A   1      51.122  43.876  21.868  1.00  0.00    +0.000 C 
ATOM     99  C71 UNL A   1      50.861  44.476  20.632  1.00  0.00    +0.000 C 
ATOM    137  H37 UNL A   1      48.205  46.326  21.513  1.00  0.00    +0.000 H 
ATOM    138  H38 UNL A   1      48.625  45.248  23.649  1.00  0.00    +0.000 H 
ATOM    142  H42 UNL A   1      51.924  43.233  21.973  1.00  0.00    +0.000 H 
ATOM    143  H43 UNL A   1      51.479  44.286  19.828  1.00  0.00    +0.000 H 
ATOM     90  C65 UNL A   1      49.761  45.334  20.478  1.00  0.00    +0.000 C 
ATOM     91  C66 UNL A   1      48.975  45.645  21.600  1.00  0.00    +0.000 C 
ATOM     92  C67 UNL A   1      49.225  45.039  22.836  1.00  0.00    +0.000 C 
ATOM     93  C68 UNL A   1      50.295  44.149  22.960  1.00  0.00    +0.000 C 
BRANCH   93   94
ATOM     97  O6  UNL A   1      51.939  43.339  24.834  1.00  0.00    +0.000 O 
ATOM     94  S1  UNL A   1      50.526  43.285  24.499  1.00  0.00    +0.000 S 
ATOM     96  O5  UNL A   1      49.822  42.024  24.394  1.00  0.00    +0.000 O 
BRANCH   94   95
ATOM    139  H39 UNL A   1      49.762  45.318  25.406  1.00  0.00    +0.000 H 
ATOM    140  H40 UNL A   1      50.091  44.135  26.650  1.00  0.00    +0.000 H 
ATOM    141  H41 UNL A   1      48.634  44.016  25.694  1.00  0.00    +0.000 H 
ATOM     95  C69 UNL A   1      49.669  44.287  25.679  1.00  0.00    +0.000 C 
ENDBRANCH   94   95
ENDBRANCH   93   94
ENDBRANCH   89   90
ENDBRANCH    7    6
ENDBRANCH    8    7
ENDBRANCH   12   11
ENDBRANCH   14   12
ENDBRANCH   15   14
ENDBRANCH   16   15
ENDBRANCH   17   16
ENDBRANCH   18   17
ENDBRANCH   19   18
ENDBRANCH   20   19
ENDBRANCH   21   20
ENDBRANCH   22   21
ENDBRANCH   24   22
ENDBRANCH   28   27
BRANCH   32   33
ATOM     33  C26 UNL A   1      50.638  49.345  22.223  1.00  0.00    +0.000 C 
ATOM     34  C27 UNL A   1      51.606  48.369  21.942  1.00  0.00    +0.000 C 
ATOM     35  F1  UNL A   1      52.141  48.282  20.714  1.00  0.00    +0.000 F 
ATOM     36  C28 UNL A   1      52.011  47.459  22.915  1.00  0.00    +0.000 C 
ATOM     37  F2  UNL A   1      52.912  46.513  22.612  1.00  0.00    +0.000 F 
ATOM     38  C29 UNL A   1      51.485  47.527  24.196  1.00  0.00    +0.000 C 
ATOM     39  F3  UNL A   1      51.891  46.663  25.136  1.00  0.00    +0.000 F 
ATOM     40  C30 UNL A   1      50.536  48.490  24.501  1.00  0.00    +0.000 C 
ATOM     41  F4  UNL A   1      50.037  48.569  25.742  1.00  0.00    +0.000 F 
ATOM     42  C31 UNL A   1      50.105  49.382  23.522  1.00  0.00    +0.000 C 
ATOM     43  F5  UNL A   1      49.182  50.299  23.847  1.00  0.00    +0.000 F 
ENDBRANCH   32   33
BRANCH   49   50
ATOM     50  C37 UNL A   1      52.986  55.739  19.880  1.00  0.00    +0.000 C 
ATOM     51  C38 UNL A   1      52.831  56.736  20.855  1.00  0.00    +0.000 C 
ATOM     52  F6  UNL A   1      51.653  56.894  21.478  1.00  0.00    +0.000 F 
ATOM     53  C39 UNL A   1      53.877  57.599  21.170  1.00  0.00    +0.000 C 
ATOM     54  F7  UNL A   1      53.692  58.573  22.071  1.00  0.00    +0.000 F 
ATOM     55  C40 UNL A   1      55.107  57.458  20.545  1.00  0.00    +0.000 C 
ATOM     56  F8  UNL A   1      56.118  58.280  20.860  1.00  0.00    +0.000 F 
ATOM     57  C41 UNL A   1      55.288  56.470  19.590  1.00  0.00    +0.000 C 
ATOM     58  F9  UNL A   1      56.482  56.322  18.999  1.00  0.00    +0.000 F 
ATOM     59  C42 UNL A   1      54.234  55.627  19.248  1.00  0.00    +0.000 C 
ATOM     60  F10 UNL A   1      54.439  54.686  18.315  1.00  0.00    +0.000 F 
ENDBRANCH   49   50
BRANCH   64   65
ATOM     65  C46 UNL A   1      47.753  55.902  15.270  1.00  0.00    +0.000 C 
ATOM     66  C47 UNL A   1      48.087  55.694  13.925  1.00  0.00    +0.000 C 
ATOM     67  F11 UNL A   1      48.829  54.633  13.575  1.00  0.00    +0.000 F 
ATOM     68  C48 UNL A   1      47.684  56.590  12.937  1.00  0.00    +0.000 C 
ATOM     69  F12 UNL A   1      48.046  56.387  11.663  1.00  0.00    +0.000 F 
ATOM     70  C49 UNL A   1      46.914  57.694  13.271  1.00  0.00    +0.000 C 
ATOM     71  F13 UNL A   1      46.511  58.547  12.318  1.00  0.00    +0.000 F 
ATOM     72  C50 UNL A   1      46.564  57.916  14.594  1.00  0.00    +0.000 C 
ATOM     73  F14 UNL A   1      45.805  58.971  14.919  1.00  0.00    +0.000 F 
ATOM     74  C51 UNL A   1      46.995  57.039  15.585  1.00  0.00    +0.000 C 
ATOM     75  F15 UNL A   1      46.648  57.283  16.858  1.00  0.00    +0.000 F 
ENDBRANCH   64   65
TORSDOF 21
ENDMDL
MODEL 4
REMARK VINA RESULT:     -11.0     28.032     34.587
ROOT
ATOM    129  H29 UNL A   1      23.953  17.782   5.011  1.00  0.00    +0.000 H 
ATOM    130  H30 UNL A   1      21.809  16.456   4.570  1.00  0.00    +0.000 H 
ATOM    131  H31 UNL A   1      17.561  24.556   0.395  1.00  0.00    +0.000 H 
ATOM    132  H32 UNL A   1      19.782  25.815   0.578  1.00  0.00    +0.000 H 
ATOM     28  C22 UNL A   1      21.824  24.368   1.958  1.00  0.00    +0.000 C 
ATOM     29  C23 UNL A   1      20.437  23.897   1.595  1.00  0.00    +0.000 C 
ATOM     30  N3  UNL A   1      19.875  22.734   1.812  1.00  0.00    +0.000 N 
ATOM     31  C24 UNL A   1      18.587  22.831   1.298  1.00  0.00    +0.000 C 
ATOM     32  C25 UNL A   1      17.627  21.877   1.236  1.00  0.00    +0.000 C 
ATOM     44  C32 UNL A   1      17.787  20.530   1.720  1.00  0.00    +0.000 C 
ATOM     45  C33 UNL A   1      16.877  19.488   1.682  1.00  0.00    +0.000 C 
ATOM     46  C34 UNL A   1      17.451  18.381   2.316  1.00  0.00    +0.000 C 
ATOM     47  C35 UNL A   1      18.740  18.714   2.696  1.00  0.00    +0.000 C 
ATOM     48  N4  UNL A   1      18.933  20.038   2.327  1.00  0.00    +0.000 N 
ATOM     49  C36 UNL A   1      19.722  17.892   3.356  1.00  0.00    +0.000 C 
ATOM     61  C43 UNL A   1      20.988  18.279   3.649  1.00  0.00    +0.000 C 
ATOM     62  N5  UNL A   1      21.601  19.501   3.412  1.00  0.00    +0.000 N 
ATOM     63  C44 UNL A   1      22.810  19.400   3.906  1.00  0.00    +0.000 C 
ATOM     64  C45 UNL A   1      23.917  20.416   3.922  1.00  0.00    +0.000 C 
ATOM     76  C52 UNL A   1      23.689  21.645   3.423  1.00  0.00    +0.000 C 
ATOM     77  C53 UNL A   1      24.662  22.732   3.387  1.00  0.00    +0.000 C 
ATOM     78  C54 UNL A   1      24.068  23.833   2.903  1.00  0.00    +0.000 C 
ATOM     79  C55 UNL A   1      22.692  23.510   2.528  1.00  0.00    +0.000 C 
ATOM     80  N6  UNL A   1      22.554  22.188   2.873  1.00  0.00    +0.000 N 
ATOM     81  C56 UNL A   1      23.097  18.100   4.528  1.00  0.00    +0.000 C 
ATOM     82  C57 UNL A   1      21.968  17.440   4.307  1.00  0.00    +0.000 C 
ATOM     83  C58 UNL A   1      18.436  24.176   0.791  1.00  0.00    +0.000 C 
ATOM     84  C59 UNL A   1      19.567  24.859   0.898  1.00  0.00    +0.000 C 
ATOM    123  H23 UNL A   1      15.935  19.521   1.260  1.00  0.00    +0.000 H 
ATOM    124  H24 UNL A   1      16.992  17.470   2.473  1.00  0.00    +0.000 H 
ATOM    125  H25 UNL A   1      19.760  20.551   2.474  1.00  0.00    +0.000 H 
ATOM    126  H26 UNL A   1      25.648  22.665   3.686  1.00  0.00    +0.000 H 
ATOM    127  H27 UNL A   1      24.513  24.761   2.811  1.00  0.00    +0.000 H 
ATOM    128  H28 UNL A   1      21.723  21.680   2.739  1.00  0.00    +0.000 H 
ENDROOT
BRANCH   28   27
ATOM    122  H22 UNL A   1      23.214  25.215  -0.175  1.00  0.00    +0.000 H 
ATOM    133  H33 UNL A   1      21.528  26.657   3.403  1.00  0.00    +0.000 H 
ATOM    134  H34 UNL A   1      21.953  28.936   2.675  1.00  0.00    +0.000 H 
ATOM     85  C60 UNL A   1      21.953  26.831   2.479  1.00  0.00    +0.000 C 
ATOM     86  C61 UNL A   1      22.220  28.142   2.073  1.00  0.00    +0.000 C 
ATOM     24  C18 UNL A   1      22.851  28.374   0.846  1.00  0.00    +0.000 C 
ATOM     25  C19 UNL A   1      23.312  27.300   0.085  1.00  0.00    +0.000 C 
ATOM     26  C20 UNL A   1      22.959  26.002   0.442  1.00  0.00    +0.000 C 
ATOM     27  C21 UNL A   1      22.261  25.753   1.634  1.00  0.00    +0.000 C 
ATOM    121  H21 UNL A   1      23.910  27.467  -0.740  1.00  0.00    +0.000 H 
BRANCH   24   22
ATOM     22  C17 UNL A   1      22.970  29.764   0.350  1.00  0.00    +0.000 C 
ATOM     23  O4  UNL A   1      22.412  30.675   0.952  1.00  0.00    +0.000 O 
BRANCH   22   21
ATOM     21  N2  UNL A   1      23.666  30.017  -0.811  1.00  0.00    +0.000 N 
ATOM    120  H20 UNL A   1      24.640  29.888  -0.753  1.00  0.00    +0.000 H 
BRANCH   21   20
ATOM     20  C16 UNL A   1      23.172  30.447  -2.110  1.00  0.00    +0.000 C 
ATOM    118  H18 UNL A   1      23.564  31.422  -2.314  1.00  0.00    +0.000 H 
ATOM    119  H19 UNL A   1      23.495  29.721  -2.826  1.00  0.00    +0.000 H 
BRANCH   20   19
ATOM     19  C15 UNL A   1      21.652  30.512  -2.191  1.00  0.00    +0.000 C 
ATOM    116  H16 UNL A   1      21.264  30.300  -1.216  1.00  0.00    +0.000 H 
ATOM    117  H17 UNL A   1      21.423  31.494  -2.547  1.00  0.00    +0.000 H 
BRANCH   19   18
ATOM     18  C14 UNL A   1      20.994  29.550  -3.178  1.00  0.00    +0.000 C 
ATOM    115  H15 UNL A   1      21.563  29.637  -4.080  1.00  0.00    +0.000 H 
ATOM    114  H14 UNL A   1      19.967  29.833  -3.271  1.00  0.00    +0.000 H 
BRANCH   18   17
ATOM     17  C13 UNL A   1      21.036  28.065  -2.812  1.00  0.00    +0.000 C 
ATOM    113  H13 UNL A   1      20.099  27.671  -3.146  1.00  0.00    +0.000 H 
ATOM    112  H12 UNL A   1      21.203  27.997  -1.758  1.00  0.00    +0.000 H 
BRANCH   17   16
ATOM    110  H10 UNL A   1      21.976  27.344  -4.560  1.00  0.00    +0.000 H 
ATOM    111  H11 UNL A   1      23.029  27.560  -3.106  1.00  0.00    +0.000 H 
ATOM     16  C12 UNL A   1      22.098  27.213  -3.505  1.00  0.00    +0.000 C 
BRANCH   16   15
ATOM    108  H8  UNL A   1      22.014  25.206  -4.165  1.00  0.00    +0.000 H 
ATOM    109  H9  UNL A   1      22.996  25.511  -2.696  1.00  0.00    +0.000 H 
ATOM     15  C11 UNL A   1      22.090  25.714  -3.226  1.00  0.00    +0.000 C 
BRANCH   15   14
ATOM    107  H7  UNL A   1      20.773  25.847  -1.641  1.00  0.00    +0.000 H 
ATOM     14  N1  UNL A   1      21.019  25.237  -2.375  1.00  0.00    +0.000 N 
BRANCH   14   12
ATOM     12  C10 UNL A   1      20.291  24.069  -2.426  1.00  0.00    +0.000 C 
ATOM     13  O3  UNL A   1      19.064  24.131  -2.471  1.00  0.00    +0.000 O 
BRANCH   12   11
ATOM    135  H35 UNL A   1      21.494  22.431  -0.536  1.00  0.00    +0.000 H 
ATOM    136  H36 UNL A   1      23.066  20.646  -1.024  1.00  0.00    +0.000 H 
ATOM      9  C7  UNL A   1      21.766  21.030  -4.075  1.00  0.00    +0.000 C 
ATOM    105  H5  UNL A   1      21.718  20.542  -4.982  1.00  0.00    +0.000 H 
ATOM      8  C6  UNL A   1      22.649  20.601  -3.091  1.00  0.00    +0.000 C 
ATOM     10  C8  UNL A   1      20.944  22.131  -3.816  1.00  0.00    +0.000 C 
ATOM    106  H6  UNL A   1      20.328  22.497  -4.559  1.00  0.00    +0.000 H 
ATOM     11  C9  UNL A   1      20.952  22.741  -2.552  1.00  0.00    +0.000 C 
ATOM     87  C62 UNL A   1      21.637  22.119  -1.509  1.00  0.00    +0.000 C 
ATOM     88  C63 UNL A   1      22.515  21.072  -1.785  1.00  0.00    +0.000 C 
BRANCH    8    7
ATOM      7  O2  UNL A   1      23.614  19.665  -3.308  1.00  0.00    +0.000 O 
BRANCH    7    6
ATOM      2  C2  UNL A   1      27.478  20.124  -1.692  1.00  0.00    +0.000 C 
ATOM      3  C3  UNL A   1      27.144  20.814  -2.784  1.00  0.00    +0.000 C 
ATOM    100  O7  UNL A   1      26.642  19.187  -1.124  1.00  0.00    +0.000 O 
ATOM      4  C4  UNL A   1      25.815  20.610  -3.373  1.00  0.00    +0.000 C 
ATOM      5  O1  UNL A   1      25.524  21.204  -4.409  1.00  0.00    +0.000 O 
ATOM      6  C5  UNL A   1      24.861  19.675  -2.692  1.00  0.00    +0.000 C 
ATOM    104  H4  UNL A   1      27.809  21.481  -3.207  1.00  0.00    +0.000 H 
ATOM     89  C64 UNL A   1      25.365  18.974  -1.641  1.00  0.00    +0.000 C 
BRANCH    2    1
ATOM      1  C1  UNL A   1      28.791  20.289  -0.996  1.00  0.00    +0.000 C 
ATOM    101  H1  UNL A   1      28.689  19.998   0.029  1.00  0.00    +0.000 H 
ATOM    102  H2  UNL A   1      29.096  21.314  -1.048  1.00  0.00    +0.000 H 
ATOM    103  H3  UNL A   1      29.526  19.673  -1.471  1.00  0.00    +0.000 H 
ENDBRANCH    2    1
BRANCH   89   90
ATOM     98  C70 UNL A   1      24.140  16.870   1.266  1.00  0.00    +0.000 C 
ATOM     99  C71 UNL A   1      24.733  17.912   0.545  1.00  0.00    +0.000 C 
ATOM    137  H37 UNL A   1      23.886  16.938  -2.552  1.00  0.00    +0.000 H 
ATOM    138  H38 UNL A   1      22.900  15.100  -1.308  1.00  0.00    +0.000 H 
ATOM    142  H42 UNL A   1      24.185  16.862   2.297  1.00  0.00    +0.000 H 
ATOM    143  H43 UNL A   1      25.203  18.681   1.047  1.00  0.00    +0.000 H 
ATOM     90  C65 UNL A   1      24.692  17.918  -0.858  1.00  0.00    +0.000 C 
ATOM     91  C66 UNL A   1      23.979  16.907  -1.525  1.00  0.00    +0.000 C 
ATOM     92  C67 UNL A   1      23.395  15.856  -0.809  1.00  0.00    +0.000 C 
ATOM     93  C68 UNL A   1      23.487  15.840   0.584  1.00  0.00    +0.000 C 
BRANCH   93   94
ATOM     97  O6  UNL A   1      21.824  13.816   0.661  1.00  0.00    +0.000 O 
ATOM     94  S1  UNL A   1      22.855  14.435   1.476  1.00  0.00    +0.000 S 
ATOM     96  O5  UNL A   1      22.588  14.870   2.831  1.00  0.00    +0.000 O 
BRANCH   94   95
ATOM    139  H39 UNL A   1      24.540  13.185   2.542  1.00  0.00    +0.000 H 
ATOM    140  H40 UNL A   1      25.033  13.713   0.950  1.00  0.00    +0.000 H 
ATOM    141  H41 UNL A   1      23.928  12.370   1.123  1.00  0.00    +0.000 H 
ATOM     95  C69 UNL A   1      24.225  13.316   1.527  1.00  0.00    +0.000 C 
ENDBRANCH   94   95
ENDBRANCH   93   94
ENDBRANCH   89   90
ENDBRANCH    7    6
ENDBRANCH    8    7
ENDBRANCH   12   11
ENDBRANCH   14   12
ENDBRANCH   15   14
ENDBRANCH   16   15
ENDBRANCH   17   16
ENDBRANCH   18   17
ENDBRANCH   19   18
ENDBRANCH   20   19
ENDBRANCH   21   20
ENDBRANCH   22   21
ENDBRANCH   24   22
ENDBRANCH   28   27
BRANCH   32   33
ATOM     33  C26 UNL A   1      16.304  22.248   0.626  1.00  0.00    +0.000 C 
ATOM     34  C27 UNL A   1      15.234  22.707   1.408  1.00  0.00    +0.000 C 
ATOM     35  F1  UNL A   1      15.344  22.749   2.745  1.00  0.00    +0.000 F 
ATOM     36  C28 UNL A   1      14.033  23.103   0.823  1.00  0.00    +0.000 C 
ATOM     37  F2  UNL A   1      13.014  23.505   1.594  1.00  0.00    +0.000 F 
ATOM     38  C29 UNL A   1      13.890  23.080  -0.556  1.00  0.00    +0.000 C 
ATOM     39  F3  UNL A   1      12.741  23.479  -1.119  1.00  0.00    +0.000 F 
ATOM     40  C30 UNL A   1      14.937  22.640  -1.351  1.00  0.00    +0.000 C 
ATOM     41  F4  UNL A   1      14.807  22.633  -2.685  1.00  0.00    +0.000 F 
ATOM     42  C31 UNL A   1      16.127  22.215  -0.767  1.00  0.00    +0.000 C 
ATOM     43  F5  UNL A   1      17.120  21.791  -1.563  1.00  0.00    +0.000 F 
ENDBRANCH   32   33
BRANCH   49   50
ATOM     50  C37 UNL A   1      19.320  16.495   3.739  1.00  0.00    +0.000 C 
ATOM     51  C38 UNL A   1      18.899  16.187   5.040  1.00  0.00    +0.000 C 
ATOM     52  F6  UNL A   1      18.913  17.129   5.996  1.00  0.00    +0.000 F 
ATOM     53  C39 UNL A   1      18.492  14.898   5.376  1.00  0.00    +0.000 C 
ATOM     54  F7  UNL A   1      18.137  14.616   6.636  1.00  0.00    +0.000 F 
ATOM     55  C40 UNL A   1      18.463  13.904   4.409  1.00  0.00    +0.000 C 
ATOM     56  F8  UNL A   1      18.057  12.668   4.730  1.00  0.00    +0.000 F 
ATOM     57  C41 UNL A   1      18.860  14.190   3.112  1.00  0.00    +0.000 C 
ATOM     58  F9  UNL A   1      18.816  13.234   2.173  1.00  0.00    +0.000 F 
ATOM     59  C42 UNL A   1      19.300  15.469   2.782  1.00  0.00    +0.000 C 
ATOM     60  F10 UNL A   1      19.685  15.712   1.520  1.00  0.00    +0.000 F 
ENDBRANCH   49   50
BRANCH   64   65
ATOM     65  C46 UNL A   1      25.255  20.086   4.480  1.00  0.00    +0.000 C 
ATOM     66  C47 UNL A   1      26.348  19.851   3.635  1.00  0.00    +0.000 C 
ATOM     67  F11 UNL A   1      26.184  19.880   2.304  1.00  0.00    +0.000 F 
ATOM     68  C48 UNL A   1      27.608  19.558   4.153  1.00  0.00    +0.000 C 
ATOM     69  F12 UNL A   1      28.628  19.303   3.322  1.00  0.00    +0.000 F 
ATOM     70  C49 UNL A   1      27.806  19.525   5.525  1.00  0.00    +0.000 C 
ATOM     71  F13 UNL A   1      29.022  19.261   6.023  1.00  0.00    +0.000 F 
ATOM     72  C50 UNL A   1      26.742  19.762   6.381  1.00  0.00    +0.000 C 
ATOM     73  F14 UNL A   1      26.932  19.749   7.707  1.00  0.00    +0.000 F 
ATOM     74  C51 UNL A   1      25.476  20.021   5.864  1.00  0.00    +0.000 C 
ATOM     75  F15 UNL A   1      24.463  20.240   6.716  1.00  0.00    +0.000 F 
ENDBRANCH   64   65
TORSDOF 21
ENDMDL
MODEL 5
REMARK VINA RESULT:     -10.9     36.184     41.110
ROOT
ATOM    129  H29 UNL A   1      18.490  53.664  -0.745  1.00  0.00    +0.000 H 
ATOM    130  H30 UNL A   1      18.053  51.277  -1.558  1.00  0.00    +0.000 H 
ATOM    131  H31 UNL A   1      11.964  49.644   6.274  1.00  0.00    +0.000 H 
ATOM    132  H32 UNL A   1      12.172  52.105   6.950  1.00  0.00    +0.000 H 
ATOM     28  C22 UNL A   1      14.031  53.587   5.364  1.00  0.00    +0.000 C 
ATOM     29  C23 UNL A   1      13.600  52.152   5.188  1.00  0.00    +0.000 C 
ATOM     30  N3  UNL A   1      13.961  51.285   4.275  1.00  0.00    +0.000 N 
ATOM     31  C24 UNL A   1      13.288  50.107   4.578  1.00  0.00    +0.000 C 
ATOM     32  C25 UNL A   1      13.291  48.933   3.903  1.00  0.00    +0.000 C 
ATOM     44  C32 UNL A   1      14.033  48.693   2.693  1.00  0.00    +0.000 C 
ATOM     45  C33 UNL A   1      14.082  47.542   1.926  1.00  0.00    +0.000 C 
ATOM     46  C34 UNL A   1      14.976  47.754   0.871  1.00  0.00    +0.000 C 
ATOM     47  C35 UNL A   1      15.438  49.058   0.945  1.00  0.00    +0.000 C 
ATOM     48  N4  UNL A   1      14.854  49.622   2.070  1.00  0.00    +0.000 N 
ATOM     49  C36 UNL A   1      16.352  49.737   0.062  1.00  0.00    +0.000 C 
ATOM     61  C43 UNL A   1      16.716  51.038   0.175  1.00  0.00    +0.000 C 
ATOM     62  N5  UNL A   1      16.330  51.971   1.127  1.00  0.00    +0.000 N 
ATOM     63  C44 UNL A   1      16.976  53.073   0.835  1.00  0.00    +0.000 C 
ATOM     64  C45 UNL A   1      16.934  54.409   1.522  1.00  0.00    +0.000 C 
ATOM     76  C52 UNL A   1      16.190  54.552   2.636  1.00  0.00    +0.000 C 
ATOM     77  C53 UNL A   1      16.068  55.781   3.413  1.00  0.00    +0.000 C 
ATOM     78  C54 UNL A   1      15.321  55.538   4.499  1.00  0.00    +0.000 C 
ATOM     79  C55 UNL A   1      14.850  54.153   4.457  1.00  0.00    +0.000 C 
ATOM     80  N6  UNL A   1      15.417  53.644   3.316  1.00  0.00    +0.000 N 
ATOM     81  C56 UNL A   1      17.859  52.959  -0.334  1.00  0.00    +0.000 C 
ATOM     82  C57 UNL A   1      17.632  51.712  -0.723  1.00  0.00    +0.000 C 
ATOM     83  C58 UNL A   1      12.524  50.357   5.781  1.00  0.00    +0.000 C 
ATOM     84  C59 UNL A   1      12.637  51.620   6.166  1.00  0.00    +0.000 C 
ATOM    123  H23 UNL A   1      13.552  46.674   2.103  1.00  0.00    +0.000 H 
ATOM    124  H24 UNL A   1      15.244  47.059   0.158  1.00  0.00    +0.000 H 
ATOM    125  H25 UNL A   1      15.000  50.545   2.380  1.00  0.00    +0.000 H 
ATOM    126  H26 UNL A   1      16.490  56.691   3.167  1.00  0.00    +0.000 H 
ATOM    127  H27 UNL A   1      15.111  56.220   5.246  1.00  0.00    +0.000 H 
ATOM    128  H28 UNL A   1      15.282  52.717   3.014  1.00  0.00    +0.000 H 
ENDROOT
BRANCH   28   27
ATOM    122  H22 UNL A   1      11.890  55.205   5.399  1.00  0.00    +0.000 H 
ATOM    133  H33 UNL A   1      15.042  53.910   7.872  1.00  0.00    +0.000 H 
ATOM    134  H34 UNL A   1      13.970  54.969   9.779  1.00  0.00    +0.000 H 
ATOM     85  C60 UNL A   1      14.135  54.386   7.753  1.00  0.00    +0.000 C 
ATOM     86  C61 UNL A   1      13.532  55.017   8.846  1.00  0.00    +0.000 C 
ATOM     24  C18 UNL A   1      12.333  55.715   8.670  1.00  0.00    +0.000 C 
ATOM     25  C19 UNL A   1      11.799  55.874   7.390  1.00  0.00    +0.000 C 
ATOM     26  C20 UNL A   1      12.345  55.166   6.325  1.00  0.00    +0.000 C 
ATOM     27  C21 UNL A   1      13.509  54.399   6.496  1.00  0.00    +0.000 C 
ATOM    121  H21 UNL A   1      11.003  56.513   7.236  1.00  0.00    +0.000 H 
BRANCH   24   22
ATOM     22  C17 UNL A   1      11.617  56.227   9.860  1.00  0.00    +0.000 C 
ATOM     23  O4  UNL A   1      11.484  57.437  10.017  1.00  0.00    +0.000 O 
BRANCH   22   21
ATOM     21  N2  UNL A   1      11.147  55.344  10.807  1.00  0.00    +0.000 N 
ATOM    120  H20 UNL A   1      10.405  54.769  10.512  1.00  0.00    +0.000 H 
BRANCH   21   20
ATOM     20  C16 UNL A   1      11.587  55.138  12.178  1.00  0.00    +0.000 C 
ATOM    118  H18 UNL A   1      12.269  55.921  12.436  1.00  0.00    +0.000 H 
ATOM    119  H19 UNL A   1      10.712  55.142  12.793  1.00  0.00    +0.000 H 
BRANCH   20   19
ATOM     19  C15 UNL A   1      12.283  53.801  12.397  1.00  0.00    +0.000 C 
ATOM    116  H16 UNL A   1      11.764  53.286  13.180  1.00  0.00    +0.000 H 
ATOM    117  H17 UNL A   1      12.254  53.301  11.452  1.00  0.00    +0.000 H 
BRANCH   19   18
ATOM     18  C14 UNL A   1      13.760  53.872  12.782  1.00  0.00    +0.000 C 
ATOM    115  H15 UNL A   1      13.829  53.389  13.734  1.00  0.00    +0.000 H 
ATOM    114  H14 UNL A   1      14.044  54.904  12.785  1.00  0.00    +0.000 H 
BRANCH   18   17
ATOM     17  C13 UNL A   1      14.737  53.123  11.875  1.00  0.00    +0.000 C 
ATOM    113  H13 UNL A   1      15.307  53.888  11.389  1.00  0.00    +0.000 H 
ATOM    112  H12 UNL A   1      14.161  52.506  11.219  1.00  0.00    +0.000 H 
BRANCH   17   16
ATOM    110  H10 UNL A   1      16.340  52.849  13.223  1.00  0.00    +0.000 H 
ATOM    111  H11 UNL A   1      15.195  51.462  13.035  1.00  0.00    +0.000 H 
ATOM     16  C12 UNL A   1      15.770  52.230  12.561  1.00  0.00    +0.000 C 
BRANCH   16   15
ATOM    108  H8  UNL A   1      16.757  51.957  10.711  1.00  0.00    +0.000 H 
ATOM    109  H9  UNL A   1      17.698  51.529  12.177  1.00  0.00    +0.000 H 
ATOM     15  C11 UNL A   1      16.757  51.484  11.671  1.00  0.00    +0.000 C 
BRANCH   15   14
ATOM    107  H7  UNL A   1      16.625  49.511  12.267  1.00  0.00    +0.000 H 
ATOM     14  N1  UNL A   1      16.485  50.075  11.471  1.00  0.00    +0.000 N 
BRANCH   14   12
ATOM     12  C10 UNL A   1      16.063  49.397  10.348  1.00  0.00    +0.000 C 
ATOM     13  O3  UNL A   1      16.902  48.905   9.596  1.00  0.00    +0.000 O 
BRANCH   12   11
ATOM    135  H35 UNL A   1      14.795  47.620   8.635  1.00  0.00    +0.000 H 
ATOM    136  H36 UNL A   1      12.493  47.798   7.881  1.00  0.00    +0.000 H 
ATOM      9  C7  UNL A   1      12.336  49.868  10.495  1.00  0.00    +0.000 C 
ATOM    105  H5  UNL A   1      11.639  50.338  11.093  1.00  0.00    +0.000 H 
ATOM      8  C6  UNL A   1      11.947  49.243   9.316  1.00  0.00    +0.000 C 
ATOM     10  C8  UNL A   1      13.686  49.850  10.859  1.00  0.00    +0.000 C 
ATOM    106  H6  UNL A   1      13.998  50.363  11.699  1.00  0.00    +0.000 H 
ATOM     11  C9  UNL A   1      14.619  49.141  10.088  1.00  0.00    +0.000 C 
ATOM     87  C62 UNL A   1      14.156  48.299   9.077  1.00  0.00    +0.000 C 
ATOM     88  C63 UNL A   1      12.827  48.378   8.666  1.00  0.00    +0.000 C 
BRANCH    8    7
ATOM      7  O2  UNL A   1      10.700  49.362   8.783  1.00  0.00    +0.000 O 
BRANCH    7    6
ATOM      2  C2  UNL A   1       7.859  46.326   8.104  1.00  0.00    +0.000 C 
ATOM      3  C3  UNL A   1       7.991  47.304   7.207  1.00  0.00    +0.000 C 
ATOM    100  O7  UNL A   1       8.546  46.319   9.299  1.00  0.00    +0.000 O 
ATOM      4  C4  UNL A   1       8.945  48.388   7.475  1.00  0.00    +0.000 C 
ATOM      5  O1  UNL A   1       9.031  49.318   6.676  1.00  0.00    +0.000 O 
ATOM      6  C5  UNL A   1       9.776  48.325   8.721  1.00  0.00    +0.000 C 
ATOM    104  H4  UNL A   1       7.433  47.298   6.339  1.00  0.00    +0.000 H 
ATOM     89  C64 UNL A   1       9.474  47.319   9.586  1.00  0.00    +0.000 C 
BRANCH    2    1
ATOM      1  C1  UNL A   1       6.945  45.159   7.907  1.00  0.00    +0.000 C 
ATOM    101  H1  UNL A   1       7.050  44.789   6.909  1.00  0.00    +0.000 H 
ATOM    102  H2  UNL A   1       5.933  45.468   8.069  1.00  0.00    +0.000 H 
ATOM    103  H3  UNL A   1       7.198  44.386   8.602  1.00  0.00    +0.000 H 
ENDBRANCH    2    1
BRANCH   89   90
ATOM     98  C70 UNL A   1      11.711  46.044  12.369  1.00  0.00    +0.000 C 
ATOM     99  C71 UNL A   1      11.214  46.310  11.089  1.00  0.00    +0.000 C 
ATOM    137  H37 UNL A   1       8.626  48.267  11.941  1.00  0.00    +0.000 H 
ATOM    138  H38 UNL A   1       9.455  47.766  14.169  1.00  0.00    +0.000 H 
ATOM    142  H42 UNL A   1      12.558  45.465  12.486  1.00  0.00    +0.000 H 
ATOM    143  H43 UNL A   1      11.704  45.938  10.260  1.00  0.00    +0.000 H 
ATOM     90  C65 UNL A   1      10.051  47.079  10.924  1.00  0.00    +0.000 C 
ATOM     91  C66 UNL A   1       9.441  47.645  12.056  1.00  0.00    +0.000 C 
ATOM     92  C67 UNL A   1       9.927  47.373  13.339  1.00  0.00    +0.000 C 
ATOM     93  C68 UNL A   1      11.056  46.564  13.488  1.00  0.00    +0.000 C 
BRANCH   93   94
ATOM     97  O6  UNL A   1      13.025  45.897  15.085  1.00  0.00    +0.000 O 
ATOM     94  S1  UNL A   1      11.589  46.118  15.126  1.00  0.00    +0.000 S 
ATOM     96  O5  UNL A   1      10.682  45.100  15.612  1.00  0.00    +0.000 O 
BRANCH   94   95
ATOM    139  H39 UNL A   1      11.897  48.387  15.672  1.00  0.00    +0.000 H 
ATOM    140  H40 UNL A   1      11.599  47.413  17.092  1.00  0.00    +0.000 H 
ATOM    141  H41 UNL A   1      10.276  47.847  16.036  1.00  0.00    +0.000 H 
ATOM     95  C69 UNL A   1      11.313  47.586  16.076  1.00  0.00    +0.000 C 
ENDBRANCH   94   95
ENDBRANCH   93   94
ENDBRANCH   89   90
ENDBRANCH    7    6
ENDBRANCH    8    7
ENDBRANCH   12   11
ENDBRANCH   14   12
ENDBRANCH   15   14
ENDBRANCH   16   15
ENDBRANCH   17   16
ENDBRANCH   18   17
ENDBRANCH   19   18
ENDBRANCH   20   19
ENDBRANCH   21   20
ENDBRANCH   22   21
ENDBRANCH   24   22
ENDBRANCH   28   27
BRANCH   32   33
ATOM     33  C26 UNL A   1      12.469  47.801   4.455  1.00  0.00    +0.000 C 
ATOM     34  C27 UNL A   1      12.948  46.973   5.481  1.00  0.00    +0.000 C 
ATOM     35  F1  UNL A   1      14.200  47.125   5.942  1.00  0.00    +0.000 F 
ATOM     36  C28 UNL A   1      12.153  45.966   6.021  1.00  0.00    +0.000 C 
ATOM     37  F2  UNL A   1      12.646  45.165   6.977  1.00  0.00    +0.000 F 
ATOM     38  C29 UNL A   1      10.853  45.788   5.573  1.00  0.00    +0.000 C 
ATOM     39  F3  UNL A   1      10.083  44.831   6.109  1.00  0.00    +0.000 F 
ATOM     40  C30 UNL A   1      10.353  46.601   4.568  1.00  0.00    +0.000 C 
ATOM     41  F4  UNL A   1       9.092  46.442   4.145  1.00  0.00    +0.000 F 
ATOM     42  C31 UNL A   1      11.156  47.589   4.003  1.00  0.00    +0.000 C 
ATOM     43  F5  UNL A   1      10.644  48.356   3.030  1.00  0.00    +0.000 F 
ENDBRANCH   32   33
BRANCH   49   50
ATOM     50  C37 UNL A   1      16.938  48.951  -1.076  1.00  0.00    +0.000 C 
ATOM     51  C38 UNL A   1      16.316  48.908  -2.332  1.00  0.00    +0.000 C 
ATOM     52  F6  UNL A   1      15.136  49.518  -2.522  1.00  0.00    +0.000 F 
ATOM     53  C39 UNL A   1      16.887  48.208  -3.391  1.00  0.00    +0.000 C 
ATOM     54  F7  UNL A   1      16.252  48.143  -4.569  1.00  0.00    +0.000 F 
ATOM     55  C40 UNL A   1      18.108  47.570  -3.226  1.00  0.00    +0.000 C 
ATOM     56  F8  UNL A   1      18.664  46.910  -4.251  1.00  0.00    +0.000 F 
ATOM     57  C41 UNL A   1      18.749  47.613  -1.998  1.00  0.00    +0.000 C 
ATOM     58  F9  UNL A   1      19.937  47.012  -1.842  1.00  0.00    +0.000 F 
ATOM     59  C42 UNL A   1      18.164  48.284  -0.927  1.00  0.00    +0.000 C 
ATOM     60  F10 UNL A   1      18.806  48.300   0.250  1.00  0.00    +0.000 F 
ENDBRANCH   49   50
BRANCH   64   65
ATOM     65  C46 UNL A   1      17.698  55.569   0.995  1.00  0.00    +0.000 C 
ATOM     66  C47 UNL A   1      19.004  55.829   1.432  1.00  0.00    +0.000 C 
ATOM     67  F11 UNL A   1      19.562  55.052   2.372  1.00  0.00    +0.000 F 
ATOM     68  C48 UNL A   1      19.731  56.905   0.928  1.00  0.00    +0.000 C 
ATOM     69  F12 UNL A   1      20.964  57.152   1.389  1.00  0.00    +0.000 F 
ATOM     70  C49 UNL A   1      19.178  57.723  -0.046  1.00  0.00    +0.000 C 
ATOM     71  F13 UNL A   1      19.884  58.748  -0.544  1.00  0.00    +0.000 F 
ATOM     72  C50 UNL A   1      17.891  57.481  -0.501  1.00  0.00    +0.000 C 
ATOM     73  F14 UNL A   1      17.360  58.257  -1.455  1.00  0.00    +0.000 F 
ATOM     74  C51 UNL A   1      17.152  56.426   0.027  1.00  0.00    +0.000 C 
ATOM     75  F15 UNL A   1      15.907  56.220  -0.427  1.00  0.00    +0.000 F 
ENDBRANCH   64   65
TORSDOF 21
ENDMDL
MODEL 6
REMARK VINA RESULT:     -10.9     25.241     33.565
ROOT
ATOM    129  H29 UNL A   1      16.939  22.032   3.836  1.00  0.00    +0.000 H 
ATOM    130  H30 UNL A   1      15.035  22.798   5.366  1.00  0.00    +0.000 H 
ATOM    131  H31 UNL A   1      16.057  14.486  10.930  1.00  0.00    +0.000 H 
ATOM    132  H32 UNL A   1      18.135  13.838   9.582  1.00  0.00    +0.000 H 
ATOM     28  C22 UNL A   1      18.672  15.576   7.378  1.00  0.00    +0.000 C 
ATOM     29  C23 UNL A   1      17.593  15.711   8.423  1.00  0.00    +0.000 C 
ATOM     30  N3  UNL A   1      16.688  16.648   8.563  1.00  0.00    +0.000 N 
ATOM     31  C24 UNL A   1      15.931  16.287   9.671  1.00  0.00    +0.000 C 
ATOM     32  C25 UNL A   1      14.905  16.956  10.249  1.00  0.00    +0.000 C 
ATOM     44  C32 UNL A   1      14.398  18.222   9.789  1.00  0.00    +0.000 C 
ATOM     45  C33 UNL A   1      13.375  18.986  10.323  1.00  0.00    +0.000 C 
ATOM     46  C34 UNL A   1      13.198  20.112   9.512  1.00  0.00    +0.000 C 
ATOM     47  C35 UNL A   1      14.150  20.081   8.506  1.00  0.00    +0.000 C 
ATOM     48  N4  UNL A   1      14.878  18.913   8.686  1.00  0.00    +0.000 N 
ATOM     49  C36 UNL A   1      14.374  21.038   7.453  1.00  0.00    +0.000 C 
ATOM     61  C43 UNL A   1      15.365  20.960   6.532  1.00  0.00    +0.000 C 
ATOM     62  N5  UNL A   1      16.339  19.982   6.382  1.00  0.00    +0.000 N 
ATOM     63  C44 UNL A   1      17.041  20.331   5.332  1.00  0.00    +0.000 C 
ATOM     64  C45 UNL A   1      18.228  19.646   4.713  1.00  0.00    +0.000 C 
ATOM     76  C52 UNL A   1      18.653  18.476   5.226  1.00  0.00    +0.000 C 
ATOM     77  C53 UNL A   1      19.777  17.695   4.721  1.00  0.00    +0.000 C 
ATOM     78  C54 UNL A   1      19.860  16.550   5.414  1.00  0.00    +0.000 C 
ATOM     79  C55 UNL A   1      18.839  16.549   6.461  1.00  0.00    +0.000 C 
ATOM     80  N6  UNL A   1      18.168  17.732   6.273  1.00  0.00    +0.000 N 
ATOM     81  C56 UNL A   1      16.581  21.568   4.686  1.00  0.00    +0.000 C 
ATOM     82  C57 UNL A   1      15.584  21.932   5.481  1.00  0.00    +0.000 C 
ATOM     83  C58 UNL A   1      16.457  15.026  10.146  1.00  0.00    +0.000 C 
ATOM     84  C59 UNL A   1      17.519  14.655   9.446  1.00  0.00    +0.000 C 
ATOM    123  H23 UNL A   1      12.834  18.764  11.174  1.00  0.00    +0.000 H 
ATOM    124  H24 UNL A   1      12.481  20.842   9.641  1.00  0.00    +0.000 H 
ATOM    125  H25 UNL A   1      15.625  18.620   8.115  1.00  0.00    +0.000 H 
ATOM    126  H26 UNL A   1      20.407  17.978   3.953  1.00  0.00    +0.000 H 
ATOM    127  H27 UNL A   1      20.538  15.792   5.236  1.00  0.00    +0.000 H 
ATOM    128  H28 UNL A   1      17.413  18.018   6.835  1.00  0.00    +0.000 H 
ENDROOT
BRANCH   28   27
ATOM    122  H22 UNL A   1      18.523  13.326   5.923  1.00  0.00    +0.000 H 
ATOM    133  H33 UNL A   1      20.856  15.114   8.936  1.00  0.00    +0.000 H 
ATOM    134  H34 UNL A   1      22.517  13.358   8.680  1.00  0.00    +0.000 H 
ATOM     85  C60 UNL A   1      20.722  14.378   8.225  1.00  0.00    +0.000 C 
ATOM     86  C61 UNL A   1      21.666  13.355   8.097  1.00  0.00    +0.000 C 
ATOM     24  C18 UNL A   1      21.453  12.325   7.174  1.00  0.00    +0.000 C 
ATOM     25  C19 UNL A   1      20.252  12.261   6.466  1.00  0.00    +0.000 C 
ATOM     26  C20 UNL A   1      19.362  13.328   6.523  1.00  0.00    +0.000 C 
ATOM     27  C21 UNL A   1      19.594  14.408   7.390  1.00  0.00    +0.000 C 
ATOM    121  H21 UNL A   1      20.027  11.426   5.902  1.00  0.00    +0.000 H 
BRANCH   24   22
ATOM     22  C17 UNL A   1      22.536  11.348   6.924  1.00  0.00    +0.000 C 
ATOM     23  O4  UNL A   1      22.893  10.591   7.821  1.00  0.00    +0.000 O 
BRANCH   22   21
ATOM     21  N2  UNL A   1      23.168  11.328   5.701  1.00  0.00    +0.000 N 
ATOM    120  H20 UNL A   1      23.874  12.003   5.582  1.00  0.00    +0.000 H 
BRANCH   21   20
ATOM     20  C16 UNL A   1      22.943  10.455   4.558  1.00  0.00    +0.000 C 
ATOM    118  H18 UNL A   1      23.892  10.109   4.205  1.00  0.00    +0.000 H 
ATOM    119  H19 UNL A   1      22.317   9.655   4.892  1.00  0.00    +0.000 H 
BRANCH   20   19
ATOM     19  C15 UNL A   1      22.221  11.140   3.404  1.00  0.00    +0.000 C 
ATOM    116  H16 UNL A   1      21.482  10.460   3.032  1.00  0.00    +0.000 H 
ATOM    117  H17 UNL A   1      21.819  12.043   3.811  1.00  0.00    +0.000 H 
BRANCH   19   18
ATOM     18  C14 UNL A   1      23.098  11.569   2.229  1.00  0.00    +0.000 C 
ATOM    115  H15 UNL A   1      22.426  12.000   1.517  1.00  0.00    +0.000 H 
ATOM    114  H14 UNL A   1      23.620  10.703   1.881  1.00  0.00    +0.000 H 
BRANCH   18   17
ATOM     17  C13 UNL A   1      24.137  12.654   2.516  1.00  0.00    +0.000 C 
ATOM    113  H13 UNL A   1      24.553  12.899   1.561  1.00  0.00    +0.000 H 
ATOM    112  H12 UNL A   1      24.836  12.254   3.221  1.00  0.00    +0.000 H 
BRANCH   17   16
ATOM    110  H10 UNL A   1      23.906  14.749   2.396  1.00  0.00    +0.000 H 
ATOM    111  H11 UNL A   1      22.564  13.832   3.186  1.00  0.00    +0.000 H 
ATOM     16  C12 UNL A   1      23.619  13.976   3.078  1.00  0.00    +0.000 C 
BRANCH   16   15
ATOM    108  H8  UNL A   1      24.203  13.501   5.054  1.00  0.00    +0.000 H 
ATOM    109  H9  UNL A   1      25.017  14.917   4.310  1.00  0.00    +0.000 H 
ATOM     15  C11 UNL A   1      24.100  14.389   4.465  1.00  0.00    +0.000 C 
BRANCH   15   14
ATOM    107  H7  UNL A   1      22.306  14.995   5.290  1.00  0.00    +0.000 H 
ATOM     14  N1  UNL A   1      23.236  15.302   5.186  1.00  0.00    +0.000 N 
BRANCH   14   12
ATOM     12  C10 UNL A   1      23.507  16.531   5.749  1.00  0.00    +0.000 C 
ATOM     13  O3  UNL A   1      23.795  17.474   5.015  1.00  0.00    +0.000 O 
BRANCH   12   11
ATOM    135  H35 UNL A   1      21.639  18.023   7.156  1.00  0.00    +0.000 H 
ATOM    136  H36 UNL A   1      21.908  18.823   9.434  1.00  0.00    +0.000 H 
ATOM      9  C7  UNL A   1      24.297  16.490   9.423  1.00  0.00    +0.000 C 
ATOM    105  H5  UNL A   1      24.894  15.965  10.080  1.00  0.00    +0.000 H 
ATOM      8  C6  UNL A   1      23.563  17.586   9.861  1.00  0.00    +0.000 C 
ATOM     10  C8  UNL A   1      24.214  16.110   8.081  1.00  0.00    +0.000 C 
ATOM    106  H6  UNL A   1      24.801  15.337   7.729  1.00  0.00    +0.000 H 
ATOM     11  C9  UNL A   1      23.339  16.774   7.208  1.00  0.00    +0.000 C 
ATOM     87  C62 UNL A   1      22.418  17.678   7.737  1.00  0.00    +0.000 C 
ATOM     88  C63 UNL A   1      22.553  18.112   9.055  1.00  0.00    +0.000 C 
BRANCH    8    7
ATOM      7  O2  UNL A   1      23.716  18.146  11.093  1.00  0.00    +0.000 O 
BRANCH    7    6
ATOM      2  C2  UNL A   1      24.906  22.046  12.148  1.00  0.00    +0.000 C 
ATOM      3  C3  UNL A   1      23.761  21.563  12.633  1.00  0.00    +0.000 C 
ATOM    100  O7  UNL A   1      25.672  21.358  11.232  1.00  0.00    +0.000 O 
ATOM      4  C4  UNL A   1      23.325  20.224  12.219  1.00  0.00    +0.000 C 
ATOM      5  O1  UNL A   1      22.246  19.797  12.622  1.00  0.00    +0.000 O 
ATOM      6  C5  UNL A   1      24.212  19.426  11.311  1.00  0.00    +0.000 C 
ATOM    104  H4  UNL A   1      23.193  22.122  13.289  1.00  0.00    +0.000 H 
ATOM     89  C64 UNL A   1      25.304  20.077  10.825  1.00  0.00    +0.000 C 
BRANCH    2    1
ATOM      1  C1  UNL A   1      25.456  23.382  12.538  1.00  0.00    +0.000 C 
ATOM    101  H1  UNL A   1      25.658  23.954  11.657  1.00  0.00    +0.000 H 
ATOM    102  H2  UNL A   1      26.361  23.247  13.093  1.00  0.00    +0.000 H 
ATOM    103  H3  UNL A   1      24.740  23.899  13.142  1.00  0.00    +0.000 H 
ENDBRANCH    2    1
BRANCH   89   90
ATOM     98  C70 UNL A   1      27.011  19.251   7.542  1.00  0.00    +0.000 C 
ATOM     99  C71 UNL A   1      26.104  19.785   8.464  1.00  0.00    +0.000 C 
ATOM    137  H37 UNL A   1      27.607  18.796  11.294  1.00  0.00    +0.000 H 
ATOM    138  H38 UNL A   1      29.158  17.823   9.697  1.00  0.00    +0.000 H 
ATOM    142  H42 UNL A   1      26.867  19.395   6.530  1.00  0.00    +0.000 H 
ATOM    143  H43 UNL A   1      25.296  20.335   8.130  1.00  0.00    +0.000 H 
ATOM     90  C65 UNL A   1      26.284  19.577   9.840  1.00  0.00    +0.000 C 
ATOM     91  C66 UNL A   1      27.430  18.896  10.283  1.00  0.00    +0.000 C 
ATOM     92  C67 UNL A   1      28.334  18.350   9.366  1.00  0.00    +0.000 C 
ATOM     93  C68 UNL A   1      28.114  18.525   7.997  1.00  0.00    +0.000 C 
BRANCH   93   94
ATOM     97  O6  UNL A   1      29.751  16.542   7.487  1.00  0.00    +0.000 O 
ATOM     94  S1  UNL A   1      29.196  17.718   6.838  1.00  0.00    +0.000 S 
ATOM     96  O5  UNL A   1      30.050  18.738   6.265  1.00  0.00    +0.000 O 
BRANCH   94   95
ATOM    139  H39 UNL A   1      28.654  17.025   4.655  1.00  0.00    +0.000 H 
ATOM    140  H40 UNL A   1      27.324  17.864   5.418  1.00  0.00    +0.000 H 
ATOM    141  H41 UNL A   1      27.680  16.210   5.855  1.00  0.00    +0.000 H 
ATOM     95  C69 UNL A   1      28.105  17.148   5.566  1.00  0.00    +0.000 C 
ENDBRANCH   94   95
ENDBRANCH   93   94
ENDBRANCH   89   90
ENDBRANCH    7    6
ENDBRANCH    8    7
ENDBRANCH   12   11
ENDBRANCH   14   12
ENDBRANCH   15   14
ENDBRANCH   16   15
ENDBRANCH   17   16
ENDBRANCH   18   17
ENDBRANCH   19   18
ENDBRANCH   20   19
ENDBRANCH   21   20
ENDBRANCH   22   21
ENDBRANCH   24   22
ENDBRANCH   28   27
BRANCH   32   33
ATOM     33  C26 UNL A   1      14.248  16.335  11.451  1.00  0.00    +0.000 C 
ATOM     34  C27 UNL A   1      14.545  16.759  12.754  1.00  0.00    +0.000 C 
ATOM     35  F1  UNL A   1      15.495  17.683  12.965  1.00  0.00    +0.000 F 
ATOM     36  C28 UNL A   1      13.885  16.215  13.854  1.00  0.00    +0.000 C 
ATOM     37  F2  UNL A   1      14.211  16.611  15.093  1.00  0.00    +0.000 F 
ATOM     38  C29 UNL A   1      12.892  15.264  13.672  1.00  0.00    +0.000 C 
ATOM     39  F3  UNL A   1      12.245  14.757  14.729  1.00  0.00    +0.000 F 
ATOM     40  C30 UNL A   1      12.573  14.838  12.391  1.00  0.00    +0.000 C 
ATOM     41  F4  UNL A   1      11.603  13.932  12.211  1.00  0.00    +0.000 F 
ATOM     42  C31 UNL A   1      13.253  15.356  11.292  1.00  0.00    +0.000 C 
ATOM     43  F5  UNL A   1      12.923  14.920  10.067  1.00  0.00    +0.000 F 
ENDBRANCH   32   33
BRANCH   49   50
ATOM     50  C37 UNL A   1      13.447  22.218   7.372  1.00  0.00    +0.000 C 
ATOM     51  C38 UNL A   1      13.660  23.368   8.145  1.00  0.00    +0.000 C 
ATOM     52  F6  UNL A   1      14.666  23.411   9.031  1.00  0.00    +0.000 F 
ATOM     53  C39 UNL A   1      12.817  24.472   8.035  1.00  0.00    +0.000 C 
ATOM     54  F7  UNL A   1      13.013  25.543   8.816  1.00  0.00    +0.000 F 
ATOM     55  C40 UNL A   1      11.771  24.460   7.125  1.00  0.00    +0.000 C 
ATOM     56  F8  UNL A   1      10.969  25.528   7.009  1.00  0.00    +0.000 F 
ATOM     57  C41 UNL A   1      11.551  23.339   6.339  1.00  0.00    +0.000 C 
ATOM     58  F9  UNL A   1      10.550  23.333   5.447  1.00  0.00    +0.000 F 
ATOM     59  C42 UNL A   1      12.371  22.222   6.471  1.00  0.00    +0.000 C 
ATOM     60  F10 UNL A   1      12.127  21.150   5.702  1.00  0.00    +0.000 F 
ENDBRANCH   49   50
BRANCH   64   65
ATOM     65  C46 UNL A   1      18.936  20.239   3.549  1.00  0.00    +0.000 C 
ATOM     66  C47 UNL A   1      18.347  20.246   2.277  1.00  0.00    +0.000 C 
ATOM     67  F11 UNL A   1      17.148  19.674   2.091  1.00  0.00    +0.000 F 
ATOM     68  C48 UNL A   1      18.999  20.816   1.186  1.00  0.00    +0.000 C 
ATOM     69  F12 UNL A   1      18.430  20.778  -0.026  1.00  0.00    +0.000 F 
ATOM     70  C49 UNL A   1      20.238  21.416   1.351  1.00  0.00    +0.000 C 
ATOM     71  F13 UNL A   1      20.858  21.980   0.305  1.00  0.00    +0.000 F 
ATOM     72  C50 UNL A   1      20.837  21.429   2.601  1.00  0.00    +0.000 C 
ATOM     73  F14 UNL A   1      22.025  22.025   2.770  1.00  0.00    +0.000 F 
ATOM     74  C51 UNL A   1      20.201  20.830   3.685  1.00  0.00    +0.000 C 
ATOM     75  F15 UNL A   1      20.807  20.852   4.882  1.00  0.00    +0.000 F 
ENDBRANCH   64   65
TORSDOF 21
ENDMDL
MODEL 7
REMARK VINA RESULT:     -10.8     34.494     41.239
ROOT
ATOM    129  H29 UNL A   1       5.708  10.448  24.645  1.00  0.00    +0.000 H 
ATOM    130  H30 UNL A   1       7.716  11.447  25.878  1.00  0.00    +0.000 H 
ATOM    131  H31 UNL A   1      10.534   2.276  28.885  1.00  0.00    +0.000 H 
ATOM    132  H32 UNL A   1       8.697   1.237  27.436  1.00  0.00    +0.000 H 
ATOM     28  C22 UNL A   1       6.984   3.153  26.187  1.00  0.00    +0.000 C 
ATOM     29  C23 UNL A   1       8.210   3.414  27.027  1.00  0.00    +0.000 C 
ATOM     30  N3  UNL A   1       8.764   4.555  27.351  1.00  0.00    +0.000 N 
ATOM     31  C24 UNL A   1       9.855   4.237  28.152  1.00  0.00    +0.000 C 
ATOM     32  C25 UNL A   1      10.774   5.068  28.699  1.00  0.00    +0.000 C 
ATOM     44  C32 UNL A   1      10.776   6.499  28.534  1.00  0.00    +0.000 C 
ATOM     45  C33 UNL A   1      11.679   7.422  29.033  1.00  0.00    +0.000 C 
ATOM     46  C34 UNL A   1      11.250   8.701  28.662  1.00  0.00    +0.000 C 
ATOM     47  C35 UNL A   1      10.113   8.571  27.881  1.00  0.00    +0.000 C 
ATOM     48  N4  UNL A   1       9.832   7.214  27.813  1.00  0.00    +0.000 N 
ATOM     49  C36 UNL A   1       9.335   9.607  27.250  1.00  0.00    +0.000 C 
ATOM     61  C43 UNL A   1       8.259   9.393  26.454  1.00  0.00    +0.000 C 
ATOM     62  N5  UNL A   1       7.672   8.190  26.090  1.00  0.00    +0.000 N 
ATOM     63  C44 UNL A   1       6.642   8.503  25.342  1.00  0.00    +0.000 C 
ATOM     64  C45 UNL A   1       5.651   7.599  24.664  1.00  0.00    +0.000 C 
ATOM     76  C52 UNL A   1       5.740   6.268  24.851  1.00  0.00    +0.000 C 
ATOM     77  C53 UNL A   1       4.841   5.276  24.271  1.00  0.00    +0.000 C 
ATOM     78  C54 UNL A   1       5.171   4.063  24.737  1.00  0.00    +0.000 C 
ATOM     79  C55 UNL A   1       6.350   4.183  25.594  1.00  0.00    +0.000 C 
ATOM     80  N6  UNL A   1       6.618   5.530  25.605  1.00  0.00    +0.000 N 
ATOM     81  C56 UNL A   1       6.453   9.948  25.157  1.00  0.00    +0.000 C 
ATOM     82  C57 UNL A   1       7.488  10.443  25.821  1.00  0.00    +0.000 C 
ATOM     83  C58 UNL A   1       9.865   2.798  28.297  1.00  0.00    +0.000 C 
ATOM     84  C59 UNL A   1       8.905   2.238  27.576  1.00  0.00    +0.000 C 
ATOM    123  H23 UNL A   1      12.523   7.206  29.586  1.00  0.00    +0.000 H 
ATOM    124  H24 UNL A   1      11.704   9.589  28.923  1.00  0.00    +0.000 H 
ATOM    125  H25 UNL A   1       9.074   6.819  27.325  1.00  0.00    +0.000 H 
ATOM    126  H26 UNL A   1       4.074   5.476  23.608  1.00  0.00    +0.000 H 
ATOM    127  H27 UNL A   1       4.671   3.185  24.525  1.00  0.00    +0.000 H 
ATOM    128  H28 UNL A   1       7.367   5.926  26.104  1.00  0.00    +0.000 H 
ENDROOT
BRANCH   28   27
ATOM    122  H22 UNL A   1       7.791   1.408  24.314  1.00  0.00    +0.000 H 
ATOM    133  H33 UNL A   1       5.016   1.767  27.459  1.00  0.00    +0.000 H 
ATOM    134  H34 UNL A   1       4.513  -0.604  27.274  1.00  0.00    +0.000 H 
ATOM     85  C60 UNL A   1       5.517   1.187  26.769  1.00  0.00    +0.000 C 
ATOM     86  C61 UNL A   1       5.208  -0.171  26.647  1.00  0.00    +0.000 C 
ATOM     24  C18 UNL A   1       5.846  -0.943  25.670  1.00  0.00    +0.000 C 
ATOM     25  C19 UNL A   1       6.702  -0.336  24.750  1.00  0.00    +0.000 C 
ATOM     26  C20 UNL A   1       7.081   0.989  24.935  1.00  0.00    +0.000 C 
ATOM     27  C21 UNL A   1       6.508   1.763  25.956  1.00  0.00    +0.000 C 
ATOM    121  H21 UNL A   1       7.053  -0.869  23.938  1.00  0.00    +0.000 H 
BRANCH   24   22
ATOM     22  C17 UNL A   1       5.642  -2.409  25.665  1.00  0.00    +0.000 C 
ATOM     23  O4  UNL A   1       4.597  -2.880  26.104  1.00  0.00    +0.000 O 
BRANCH   22   21
ATOM     21  N2  UNL A   1       6.645  -3.237  25.212  1.00  0.00    +0.000 N 
ATOM    120  H20 UNL A   1       6.625  -3.429  24.246  1.00  0.00    +0.000 H 
BRANCH   21   20
ATOM     20  C16 UNL A   1       7.728  -3.868  25.950  1.00  0.00    +0.000 C 
ATOM    118  H18 UNL A   1       7.423  -3.978  26.969  1.00  0.00    +0.000 H 
ATOM    119  H19 UNL A   1       7.923  -4.808  25.479  1.00  0.00    +0.000 H 
BRANCH   20   19
ATOM     19  C15 UNL A   1       9.027  -3.072  25.919  1.00  0.00    +0.000 C 
ATOM    116  H16 UNL A   1       9.836  -3.762  26.044  1.00  0.00    +0.000 H 
ATOM    117  H17 UNL A   1       9.031  -2.560  24.980  1.00  0.00    +0.000 H 
BRANCH   19   18
ATOM     18  C14 UNL A   1       9.169  -1.986  26.983  1.00  0.00    +0.000 C 
ATOM    115  H15 UNL A   1       8.877  -2.449  27.902  1.00  0.00    +0.000 H 
ATOM    114  H14 UNL A   1       8.557  -1.160  26.687  1.00  0.00    +0.000 H 
BRANCH   18   17
ATOM     17  C13 UNL A   1      10.582  -1.453  27.229  1.00  0.00    +0.000 C 
ATOM    113  H13 UNL A   1      10.708  -1.477  28.291  1.00  0.00    +0.000 H 
ATOM    112  H12 UNL A   1      10.640  -0.479  26.791  1.00  0.00    +0.000 H 
BRANCH   17   16
ATOM    110  H10 UNL A   1      11.646  -3.270  27.068  1.00  0.00    +0.000 H 
ATOM    111  H11 UNL A   1      11.640  -2.205  25.608  1.00  0.00    +0.000 H 
ATOM     16  C12 UNL A   1      11.739  -2.281  26.671  1.00  0.00    +0.000 C 
BRANCH   16   15
ATOM    108  H8  UNL A   1      13.117  -1.182  27.839  1.00  0.00    +0.000 H 
ATOM    109  H9  UNL A   1      13.744  -2.685  27.086  1.00  0.00    +0.000 H 
ATOM     15  C11 UNL A   1      13.155  -1.801  26.966  1.00  0.00    +0.000 C 
BRANCH   15   14
ATOM    107  H7  UNL A   1      14.425  -1.556  25.356  1.00  0.00    +0.000 H 
ATOM     14  N1  UNL A   1      13.796  -1.041  25.912  1.00  0.00    +0.000 N 
BRANCH   14   12
ATOM     12  C10 UNL A   1      13.668   0.286  25.563  1.00  0.00    +0.000 C 
ATOM     13  O3  UNL A   1      14.485   1.099  25.991  1.00  0.00    +0.000 O 
BRANCH   12   11
ATOM    135  H35 UNL A   1      13.594   0.162  22.792  1.00  0.00    +0.000 H 
ATOM    136  H36 UNL A   1      12.171   1.516  21.363  1.00  0.00    +0.000 H 
ATOM      9  C7  UNL A   1      10.569   1.967  24.258  1.00  0.00    +0.000 C 
ATOM    105  H5  UNL A   1       9.666   2.312  24.618  1.00  0.00    +0.000 H 
ATOM      8  C6  UNL A   1      10.926   2.179  22.931  1.00  0.00    +0.000 C 
ATOM     10  C8  UNL A   1      11.452   1.280  25.096  1.00  0.00    +0.000 C 
ATOM    106  H6  UNL A   1      11.227   1.170  26.098  1.00  0.00    +0.000 H 
ATOM     11  C9  UNL A   1      12.642   0.740  24.584  1.00  0.00    +0.000 C 
ATOM     87  C62 UNL A   1      12.835   0.727  23.203  1.00  0.00    +0.000 C 
ATOM     88  C63 UNL A   1      11.998   1.478  22.380  1.00  0.00    +0.000 C 
BRANCH    8    7
ATOM      7  O2  UNL A   1      10.228   2.990  22.089  1.00  0.00    +0.000 O 
BRANCH    7    6
ATOM      2  C2  UNL A   1       6.208   2.779  20.845  1.00  0.00    +0.000 C 
ATOM      3  C3  UNL A   1       6.678   3.928  21.332  1.00  0.00    +0.000 C 
ATOM    100  O7  UNL A   1       6.958   1.622  20.824  1.00  0.00    +0.000 O 
ATOM      4  C4  UNL A   1       8.064   3.981  21.814  1.00  0.00    +0.000 C 
ATOM      5  O1  UNL A   1       8.483   5.024  22.311  1.00  0.00    +0.000 O 
ATOM      6  C5  UNL A   1       8.918   2.755  21.687  1.00  0.00    +0.000 C 
ATOM    104  H4  UNL A   1       6.077   4.767  21.369  1.00  0.00    +0.000 H 
ATOM     89  C64 UNL A   1       8.283   1.631  21.255  1.00  0.00    +0.000 C 
BRANCH    2    1
ATOM      1  C1  UNL A   1       4.825   2.632  20.296  1.00  0.00    +0.000 C 
ATOM    101  H1  UNL A   1       4.405   3.601  20.128  1.00  0.00    +0.000 H 
ATOM    102  H2  UNL A   1       4.219   2.095  20.996  1.00  0.00    +0.000 H 
ATOM    103  H3  UNL A   1       4.864   2.095  19.371  1.00  0.00    +0.000 H 
ENDBRANCH    2    1
BRANCH   89   90
ATOM     98  C70 UNL A   1       9.246  -1.950  22.044  1.00  0.00    +0.000 C 
ATOM     99  C71 UNL A   1       8.655  -0.686  22.146  1.00  0.00    +0.000 C 
ATOM    137  H37 UNL A   1       9.658   0.588  19.210  1.00  0.00    +0.000 H 
ATOM    138  H38 UNL A   1      10.729  -1.587  19.050  1.00  0.00    +0.000 H 
ATOM    142  H42 UNL A   1       9.115  -2.646  22.795  1.00  0.00    +0.000 H 
ATOM    143  H43 UNL A   1       8.075  -0.455  22.968  1.00  0.00    +0.000 H 
ATOM     90  C65 UNL A   1       8.845   0.271  21.137  1.00  0.00    +0.000 C 
ATOM     91  C66 UNL A   1       9.569  -0.085  19.986  1.00  0.00    +0.000 C 
ATOM     92  C67 UNL A   1      10.172  -1.343  19.884  1.00  0.00    +0.000 C 
ATOM     93  C68 UNL A   1      10.013  -2.267  20.921  1.00  0.00    +0.000 C 
BRANCH   93   94
ATOM     97  O6  UNL A   1      11.666  -3.951  22.061  1.00  0.00    +0.000 O 
ATOM     94  S1  UNL A   1      10.889  -3.814  20.841  1.00  0.00    +0.000 S 
ATOM     96  O5  UNL A   1      11.513  -3.888  19.536  1.00  0.00    +0.000 O 
BRANCH   94   95
ATOM    139  H39 UNL A   1       8.731  -4.648  20.411  1.00  0.00    +0.000 H 
ATOM    140  H40 UNL A   1       9.376  -5.261  21.916  1.00  0.00    +0.000 H 
ATOM    141  H41 UNL A   1       9.932  -5.917  20.396  1.00  0.00    +0.000 H 
ATOM     95  C69 UNL A   1       9.605  -5.030  20.897  1.00  0.00    +0.000 C 
ENDBRANCH   94   95
ENDBRANCH   93   94
ENDBRANCH   89   90
ENDBRANCH    7    6
ENDBRANCH    8    7
ENDBRANCH   12   11
ENDBRANCH   14   12
ENDBRANCH   15   14
ENDBRANCH   16   15
ENDBRANCH   17   16
ENDBRANCH   18   17
ENDBRANCH   19   18
ENDBRANCH   20   19
ENDBRANCH   21   20
ENDBRANCH   22   21
ENDBRANCH   24   22
ENDBRANCH   28   27
BRANCH   32   33
ATOM     33  C26 UNL A   1      11.864   4.460  29.537  1.00  0.00    +0.000 C 
ATOM     34  C27 UNL A   1      12.953   3.792  28.958  1.00  0.00    +0.000 C 
ATOM     35  F1  UNL A   1      13.005   3.609  27.629  1.00  0.00    +0.000 F 
ATOM     36  C28 UNL A   1      13.985   3.285  29.745  1.00  0.00    +0.000 C 
ATOM     37  F2  UNL A   1      14.998   2.620  29.171  1.00  0.00    +0.000 F 
ATOM     38  C29 UNL A   1      13.967   3.465  31.119  1.00  0.00    +0.000 C 
ATOM     39  F3  UNL A   1      14.970   2.993  31.872  1.00  0.00    +0.000 F 
ATOM     40  C30 UNL A   1      12.906   4.131  31.713  1.00  0.00    +0.000 C 
ATOM     41  F4  UNL A   1      12.894   4.321  33.040  1.00  0.00    +0.000 F 
ATOM     42  C31 UNL A   1      11.857   4.612  30.933  1.00  0.00    +0.000 C 
ATOM     43  F5  UNL A   1      10.844   5.249  31.539  1.00  0.00    +0.000 F 
ENDBRANCH   32   33
BRANCH   49   50
ATOM     50  C37 UNL A   1       9.752  11.032  27.481  1.00  0.00    +0.000 C 
ATOM     51  C38 UNL A   1      10.802  11.613  26.757  1.00  0.00    +0.000 C 
ATOM     52  F6  UNL A   1      11.508  10.879  25.884  1.00  0.00    +0.000 F 
ATOM     53  C39 UNL A   1      11.155  12.947  26.951  1.00  0.00    +0.000 C 
ATOM     54  F7  UNL A   1      12.191  13.468  26.281  1.00  0.00    +0.000 F 
ATOM     55  C40 UNL A   1      10.442  13.732  27.844  1.00  0.00    +0.000 C 
ATOM     56  F8  UNL A   1      10.773  15.020  28.019  1.00  0.00    +0.000 F 
ATOM     57  C41 UNL A   1       9.389  13.183  28.559  1.00  0.00    +0.000 C 
ATOM     58  F9  UNL A   1       8.687  13.946  29.409  1.00  0.00    +0.000 F 
ATOM     59  C42 UNL A   1       9.055  11.842  28.392  1.00  0.00    +0.000 C 
ATOM     60  F10 UNL A   1       8.037  11.338  29.105  1.00  0.00    +0.000 F 
ENDBRANCH   49   50
BRANCH   64   65
ATOM     65  C46 UNL A   1       4.579   8.149  23.794  1.00  0.00    +0.000 C 
ATOM     66  C47 UNL A   1       4.799   8.360  22.427  1.00  0.00    +0.000 C 
ATOM     67  F11 UNL A   1       6.005   8.106  21.896  1.00  0.00    +0.000 F 
ATOM     68  C48 UNL A   1       3.792   8.860  21.604  1.00  0.00    +0.000 C 
ATOM     69  F12 UNL A   1       4.040   9.085  20.307  1.00  0.00    +0.000 F 
ATOM     70  C49 UNL A   1       2.536   9.129  22.127  1.00  0.00    +0.000 C 
ATOM     71  F13 UNL A   1       1.561   9.592  21.331  1.00  0.00    +0.000 F 
ATOM     72  C50 UNL A   1       2.291   8.920  23.475  1.00  0.00    +0.000 C 
ATOM     73  F14 UNL A   1       1.074   9.160  23.981  1.00  0.00    +0.000 F 
ATOM     74  C51 UNL A   1       3.307   8.453  24.304  1.00  0.00    +0.000 C 
ATOM     75  F15 UNL A   1       3.044   8.267  25.607  1.00  0.00    +0.000 F 
ENDBRANCH   64   65
TORSDOF 21
ENDMDL
MODEL 8
REMARK VINA RESULT:     -10.7     25.215     33.422
ROOT
ATOM    129  H29 UNL A   1      12.041  19.384  10.300  1.00  0.00    +0.000 H 
ATOM    130  H30 UNL A   1      11.635  21.397   8.771  1.00  0.00    +0.000 H 
ATOM    131  H31 UNL A   1      20.316  19.636   4.016  1.00  0.00    +0.000 H 
ATOM    132  H32 UNL A   1      20.606  17.468   5.347  1.00  0.00    +0.000 H 
ATOM     28  C22 UNL A   1      18.608  17.063   7.349  1.00  0.00    +0.000 C 
ATOM     29  C23 UNL A   1      18.691  18.176   6.335  1.00  0.00    +0.000 C 
ATOM     30  N3  UNL A   1      17.872  19.179   6.136  1.00  0.00    +0.000 N 
ATOM     31  C24 UNL A   1      18.420  19.921   5.097  1.00  0.00    +0.000 C 
ATOM     32  C25 UNL A   1      17.923  21.027   4.492  1.00  0.00    +0.000 C 
ATOM     44  C32 UNL A   1      16.675  21.654   4.844  1.00  0.00    +0.000 C 
ATOM     45  C33 UNL A   1      16.079  22.766   4.274  1.00  0.00    +0.000 C 
ATOM     46  C34 UNL A   1      14.902  23.041   4.977  1.00  0.00    +0.000 C 
ATOM     47  C35 UNL A   1      14.732  22.066   5.946  1.00  0.00    +0.000 C 
ATOM     48  N4  UNL A   1      15.830  21.223   5.856  1.00  0.00    +0.000 N 
ATOM     49  C36 UNL A   1      13.656  21.919   6.892  1.00  0.00    +0.000 C 
ATOM     61  C43 UNL A   1      13.537  20.902   7.780  1.00  0.00    +0.000 C 
ATOM     62  N5  UNL A   1      14.388  19.826   7.990  1.00  0.00    +0.000 N 
ATOM     63  C44 UNL A   1      13.865  19.140   8.975  1.00  0.00    +0.000 C 
ATOM     64  C45 UNL A   1      14.357  17.871   9.615  1.00  0.00    +0.000 C 
ATOM     76  C52 UNL A   1      15.523  17.337   9.205  1.00  0.00    +0.000 C 
ATOM     77  C53 UNL A   1      16.128  16.124   9.744  1.00  0.00    +0.000 C 
ATOM     78  C54 UNL A   1      17.322  15.937   9.164  1.00  0.00    +0.000 C 
ATOM     79  C55 UNL A   1      17.535  16.978   8.159  1.00  0.00    +0.000 C 
ATOM     80  N6  UNL A   1      16.415  17.766   8.254  1.00  0.00    +0.000 N 
ATOM     81  C56 UNL A   1      12.623  19.712   9.513  1.00  0.00    +0.000 C 
ATOM     82  C57 UNL A   1      12.446  20.761   8.722  1.00  0.00    +0.000 C 
ATOM     83  C58 UNL A   1      19.661  19.276   4.728  1.00  0.00    +0.000 C 
ATOM     84  C59 UNL A   1      19.847  18.163   5.423  1.00  0.00    +0.000 C 
ATOM    123  H23 UNL A   1      16.441  23.301   3.469  1.00  0.00    +0.000 H 
ATOM    124  H24 UNL A   1      14.266  23.834   4.802  1.00  0.00    +0.000 H 
ATOM    125  H25 UNL A   1      15.986  20.435   6.426  1.00  0.00    +0.000 H 
ATOM    126  H26 UNL A   1      15.705  15.508  10.458  1.00  0.00    +0.000 H 
ATOM    127  H27 UNL A   1      17.984  15.178   9.391  1.00  0.00    +0.000 H 
ATOM    128  H28 UNL A   1      16.267  18.561   7.695  1.00  0.00    +0.000 H 
ENDROOT
BRANCH   28   27
ATOM    122  H22 UNL A   1      20.823  17.048   8.865  1.00  0.00    +0.000 H 
ATOM    133  H33 UNL A   1      18.872  14.764   5.914  1.00  0.00    +0.000 H 
ATOM    134  H34 UNL A   1      20.431  12.941   6.306  1.00  0.00    +0.000 H 
ATOM     85  C60 UNL A   1      19.599  14.856   6.640  1.00  0.00    +0.000 C 
ATOM     86  C61 UNL A   1      20.511  13.816   6.847  1.00  0.00    +0.000 C 
ATOM     24  C18 UNL A   1      21.533  13.966   7.790  1.00  0.00    +0.000 C 
ATOM     25  C19 UNL A   1      21.709  15.189   8.440  1.00  0.00    +0.000 C 
ATOM     26  C20 UNL A   1      20.745  16.183   8.306  1.00  0.00    +0.000 C 
ATOM     27  C21 UNL A   1      19.669  16.023   7.419  1.00  0.00    +0.000 C 
ATOM    121  H21 UNL A   1      22.548  15.353   9.018  1.00  0.00    +0.000 H 
BRANCH   24   22
ATOM     22  C17 UNL A   1      22.381  12.800   8.123  1.00  0.00    +0.000 C 
ATOM     23  O4  UNL A   1      23.595  12.940   8.232  1.00  0.00    +0.000 O 
BRANCH   22   21
ATOM     21  N2  UNL A   1      21.807  11.556   8.263  1.00  0.00    +0.000 N 
ATOM    120  H20 UNL A   1      21.127  11.485   8.971  1.00  0.00    +0.000 H 
BRANCH   21   20
ATOM     20  C16 UNL A   1      22.058  10.332   7.517  1.00  0.00    +0.000 C 
ATOM    118  H18 UNL A   1      23.037   9.980   7.765  1.00  0.00    +0.000 H 
ATOM    119  H19 UNL A   1      21.293   9.636   7.789  1.00  0.00    +0.000 H 
BRANCH   20   19
ATOM     19  C15 UNL A   1      21.980  10.516   6.006  1.00  0.00    +0.000 C 
ATOM    116  H16 UNL A   1      21.323   9.765   5.619  1.00  0.00    +0.000 H 
ATOM    117  H17 UNL A   1      21.637  11.517   5.854  1.00  0.00    +0.000 H 
BRANCH   19   18
ATOM     18  C14 UNL A   1      23.305  10.414   5.253  1.00  0.00    +0.000 C 
ATOM    115  H15 UNL A   1      23.277   9.468   4.755  1.00  0.00    +0.000 H 
ATOM    114  H14 UNL A   1      24.094  10.517   5.969  1.00  0.00    +0.000 H 
BRANCH   18   17
ATOM     17  C13 UNL A   1      23.542  11.446   4.149  1.00  0.00    +0.000 C 
ATOM    113  H13 UNL A   1      22.700  11.353   3.496  1.00  0.00    +0.000 H 
ATOM    112  H12 UNL A   1      24.487  11.226   3.699  1.00  0.00    +0.000 H 
BRANCH   17   16
ATOM    110  H10 UNL A   1      23.301  12.955   5.607  1.00  0.00    +0.000 H 
ATOM    111  H11 UNL A   1      24.550  13.253   4.334  1.00  0.00    +0.000 H 
ATOM     16  C12 UNL A   1      23.562  12.915   4.570  1.00  0.00    +0.000 C 
BRANCH   16   15
ATOM    108  H8  UNL A   1      22.943  13.898   2.803  1.00  0.00    +0.000 H 
ATOM    109  H9  UNL A   1      21.646  13.493   3.975  1.00  0.00    +0.000 H 
ATOM     15  C11 UNL A   1      22.635  13.872   3.828  1.00  0.00    +0.000 C 
BRANCH   15   14
ATOM    107  H7  UNL A   1      21.729  15.549   4.623  1.00  0.00    +0.000 H 
ATOM     14  N1  UNL A   1      22.612  15.235   4.319  1.00  0.00    +0.000 N 
BRANCH   14   12
ATOM     12  C10 UNL A   1      23.626  16.162   4.430  1.00  0.00    +0.000 C 
ATOM     13  O3  UNL A   1      24.113  16.640   3.408  1.00  0.00    +0.000 O 
BRANCH   12   11
ATOM    135  H35 UNL A   1      25.552  15.270   6.217  1.00  0.00    +0.000 H 
ATOM    136  H36 UNL A   1      25.665  15.859   8.570  1.00  0.00    +0.000 H 
ATOM      9  C7  UNL A   1      23.621  18.286   7.531  1.00  0.00    +0.000 C 
ATOM    105  H5  UNL A   1      23.239  19.190   7.849  1.00  0.00    +0.000 H 
ATOM      8  C6  UNL A   1      24.294  17.455   8.419  1.00  0.00    +0.000 C 
ATOM     10  C8  UNL A   1      23.469  17.880   6.202  1.00  0.00    +0.000 C 
ATOM    106  H6  UNL A   1      22.919  18.459   5.548  1.00  0.00    +0.000 H 
ATOM     11  C9  UNL A   1      24.061  16.689   5.753  1.00  0.00    +0.000 C 
ATOM     87  C62 UNL A   1      24.956  16.024   6.590  1.00  0.00    +0.000 C 
ATOM     88  C63 UNL A   1      25.045  16.384   7.934  1.00  0.00    +0.000 C 
BRANCH    8    7
ATOM      7  O2  UNL A   1      24.332  17.670   9.763  1.00  0.00    +0.000 O 
BRANCH    7    6
ATOM      2  C2  UNL A   1      25.699  21.014  11.931  1.00  0.00    +0.000 C 
ATOM      3  C3  UNL A   1      24.495  20.509  12.206  1.00  0.00    +0.000 C 
ATOM    100  O7  UNL A   1      26.478  20.548  10.893  1.00  0.00    +0.000 O 
ATOM      4  C4  UNL A   1      24.002  19.377  11.411  1.00  0.00    +0.000 C 
ATOM      5  O1  UNL A   1      22.873  18.943  11.627  1.00  0.00    +0.000 O 
ATOM      6  C5  UNL A   1      24.895  18.794  10.356  1.00  0.00    +0.000 C 
ATOM    104  H4  UNL A   1      23.921  20.906  12.966  1.00  0.00    +0.000 H 
ATOM     89  C64 UNL A   1      26.057  19.464  10.125  1.00  0.00    +0.000 C 
BRANCH    2    1
ATOM      1  C1  UNL A   1      26.306  22.139  12.706  1.00  0.00    +0.000 C 
ATOM    101  H1  UNL A   1      26.200  21.947  13.753  1.00  0.00    +0.000 H 
ATOM    102  H2  UNL A   1      25.807  23.053  12.457  1.00  0.00    +0.000 H 
ATOM    103  H3  UNL A   1      27.344  22.221  12.461  1.00  0.00    +0.000 H 
ENDBRANCH    2    1
BRANCH   89   90
ATOM     98  C70 UNL A   1      28.038  19.603   6.896  1.00  0.00    +0.000 C 
ATOM     99  C71 UNL A   1      27.114  19.926   7.895  1.00  0.00    +0.000 C 
ATOM    137  H37 UNL A   1      28.026  17.653  10.188  1.00  0.00    +0.000 H 
ATOM    138  H38 UNL A   1      29.598  17.055   8.435  1.00  0.00    +0.000 H 
ATOM    142  H42 UNL A   1      28.061  20.144   6.016  1.00  0.00    +0.000 H 
ATOM    143  H43 UNL A   1      26.464  20.715   7.758  1.00  0.00    +0.000 H 
ATOM     90  C65 UNL A   1      27.065  19.182   9.084  1.00  0.00    +0.000 C 
ATOM     91  C66 UNL A   1      28.010  18.161   9.291  1.00  0.00    +0.000 C 
ATOM     92  C67 UNL A   1      28.928  17.827   8.290  1.00  0.00    +0.000 C 
ATOM     93  C68 UNL A   1      28.930  18.546   7.092  1.00  0.00    +0.000 C 
BRANCH   93   94
ATOM     97  O6  UNL A   1      31.381  18.156   6.249  1.00  0.00    +0.000 O 
ATOM     94  S1  UNL A   1      30.012  18.030   5.777  1.00  0.00    +0.000 S 
ATOM     96  O5  UNL A   1      29.566  18.691   4.568  1.00  0.00    +0.000 O 
BRANCH   94   95
ATOM    139  H39 UNL A   1      28.616  16.147   5.569  1.00  0.00    +0.000 H 
ATOM    140  H40 UNL A   1      30.085  15.772   6.439  1.00  0.00    +0.000 H 
ATOM    141  H41 UNL A   1      30.117  15.940   4.700  1.00  0.00    +0.000 H 
ATOM     95  C69 UNL A   1      29.675  16.302   5.604  1.00  0.00    +0.000 C 
ENDBRANCH   94   95
ENDBRANCH   93   94
ENDBRANCH   89   90
ENDBRANCH    7    6
ENDBRANCH    8    7
ENDBRANCH   12   11
ENDBRANCH   14   12
ENDBRANCH   15   14
ENDBRANCH   16   15
ENDBRANCH   17   16
ENDBRANCH   18   17
ENDBRANCH   19   18
ENDBRANCH   20   19
ENDBRANCH   21   20
ENDBRANCH   22   21
ENDBRANCH   24   22
ENDBRANCH   28   27
BRANCH   32   33
ATOM     33  C26 UNL A   1      18.727  21.644   3.382  1.00  0.00    +0.000 C 
ATOM     34  C27 UNL A   1      18.627  21.189   2.058  1.00  0.00    +0.000 C 
ATOM     35  F1  UNL A   1      17.864  20.124   1.766  1.00  0.00    +0.000 F 
ATOM     36  C28 UNL A   1      19.334  21.809   1.030  1.00  0.00    +0.000 C 
ATOM     37  F2  UNL A   1      19.250  21.333  -0.220  1.00  0.00    +0.000 F 
ATOM     38  C29 UNL A   1      20.125  22.916   1.297  1.00  0.00    +0.000 C 
ATOM     39  F3  UNL A   1      20.788  23.523   0.304  1.00  0.00    +0.000 F 
ATOM     40  C30 UNL A   1      20.230  23.392   2.595  1.00  0.00    +0.000 C 
ATOM     41  F4  UNL A   1      20.980  24.471   2.854  1.00  0.00    +0.000 F 
ATOM     42  C31 UNL A   1      19.550  22.755   3.630  1.00  0.00    +0.000 C 
ATOM     43  F5  UNL A   1      19.675  23.237   4.876  1.00  0.00    +0.000 F 
ENDBRANCH   32   33
BRANCH   49   50
ATOM     50  C37 UNL A   1      12.575  22.964   6.889  1.00  0.00    +0.000 C 
ATOM     51  C38 UNL A   1      11.440  22.839   6.076  1.00  0.00    +0.000 C 
ATOM     52  F6  UNL A   1      11.328  21.808   5.225  1.00  0.00    +0.000 F 
ATOM     53  C39 UNL A   1      10.427  23.794   6.110  1.00  0.00    +0.000 C 
ATOM     54  F7  UNL A   1       9.372  23.678   5.291  1.00  0.00    +0.000 F 
ATOM     55  C40 UNL A   1      10.511  24.869   6.982  1.00  0.00    +0.000 C 
ATOM     56  F8  UNL A   1       9.528  25.779   7.024  1.00  0.00    +0.000 F 
ATOM     57  C41 UNL A   1      11.617  25.004   7.806  1.00  0.00    +0.000 C 
ATOM     58  F9  UNL A   1      11.692  26.033   8.662  1.00  0.00    +0.000 F 
ATOM     59  C42 UNL A   1      12.648  24.069   7.751  1.00  0.00    +0.000 C 
ATOM     60  F10 UNL A   1      13.709  24.232   8.556  1.00  0.00    +0.000 F 
ENDBRANCH   49   50
BRANCH   64   65
ATOM     65  C46 UNL A   1      13.579  17.201  10.691  1.00  0.00    +0.000 C 
ATOM     66  C47 UNL A   1      12.583  16.266  10.381  1.00  0.00    +0.000 C 
ATOM     67  F11 UNL A   1      12.290  15.999   9.100  1.00  0.00    +0.000 F 
ATOM     68  C48 UNL A   1      11.863  15.623  11.386  1.00  0.00    +0.000 C 
ATOM     69  F12 UNL A   1      10.891  14.759  11.062  1.00  0.00    +0.000 F 
ATOM     70  C49 UNL A   1      12.147  15.879  12.719  1.00  0.00    +0.000 C 
ATOM     71  F13 UNL A   1      11.467  15.247  13.685  1.00  0.00    +0.000 F 
ATOM     72  C50 UNL A   1      13.134  16.794  13.050  1.00  0.00    +0.000 C 
ATOM     73  F14 UNL A   1      13.425  17.031  14.336  1.00  0.00    +0.000 F 
ATOM     74  C51 UNL A   1      13.831  17.462  12.046  1.00  0.00    +0.000 C 
ATOM     75  F15 UNL A   1      14.776  18.348  12.396  1.00  0.00    +0.000 F 
ENDBRANCH   64   65
TORSDOF 21
ENDMDL
MODEL 9
REMARK VINA RESULT:     -10.7     37.033     41.561
ROOT
ATOM    129  H29 UNL A   1      18.463  53.214  -0.888  1.00  0.00    +0.000 H 
ATOM    130  H30 UNL A   1      18.014  50.760  -1.463  1.00  0.00    +0.000 H 
ATOM    131  H31 UNL A   1      11.708  50.007   6.331  1.00  0.00    +0.000 H 
ATOM    132  H32 UNL A   1      11.932  52.522   6.755  1.00  0.00    +0.000 H 
ATOM     28  C22 UNL A   1      13.850  53.813   5.077  1.00  0.00    +0.000 C 
ATOM     29  C23 UNL A   1      13.404  52.372   5.037  1.00  0.00    +0.000 C 
ATOM     30  N3  UNL A   1      13.777  51.412   4.227  1.00  0.00    +0.000 N 
ATOM     31  C24 UNL A   1      13.080  50.279   4.632  1.00  0.00    +0.000 C 
ATOM     32  C25 UNL A   1      13.085  49.041   4.082  1.00  0.00    +0.000 C 
ATOM     44  C32 UNL A   1      13.854  48.671   2.922  1.00  0.00    +0.000 C 
ATOM     45  C33 UNL A   1      13.908  47.446   2.279  1.00  0.00    +0.000 C 
ATOM     46  C34 UNL A   1      14.830  47.539   1.232  1.00  0.00    +0.000 C 
ATOM     47  C35 UNL A   1      15.308  48.839   1.184  1.00  0.00    +0.000 C 
ATOM     48  N4  UNL A   1      14.702  49.522   2.229  1.00  0.00    +0.000 N 
ATOM     49  C36 UNL A   1      16.252  49.413   0.261  1.00  0.00    +0.000 C 
ATOM     61  C43 UNL A   1      16.631  50.715   0.249  1.00  0.00    +0.000 C 
ATOM     62  N5  UNL A   1      16.234  51.745   1.090  1.00  0.00    +0.000 N 
ATOM     63  C44 UNL A   1      16.901  52.804   0.703  1.00  0.00    +0.000 C 
ATOM     64  C45 UNL A   1      16.860  54.204   1.249  1.00  0.00    +0.000 C 
ATOM     76  C52 UNL A   1      16.090  54.469   2.322  1.00  0.00    +0.000 C 
ATOM     77  C53 UNL A   1      15.965  55.773   2.965  1.00  0.00    +0.000 C 
ATOM     78  C54 UNL A   1      15.187  55.651   4.051  1.00  0.00    +0.000 C 
ATOM     79  C55 UNL A   1      14.699  54.274   4.138  1.00  0.00    +0.000 C 
ATOM     80  N6  UNL A   1      15.288  53.644   3.070  1.00  0.00    +0.000 N 
ATOM     81  C56 UNL A   1      17.812  52.561  -0.424  1.00  0.00    +0.000 C 
ATOM     82  C57 UNL A   1      17.578  51.283  -0.688  1.00  0.00    +0.000 C 
ATOM     83  C58 UNL A   1      12.290  50.659   5.782  1.00  0.00    +0.000 C 
ATOM     84  C59 UNL A   1      12.410  51.954   6.039  1.00  0.00    +0.000 C 
ATOM    123  H23 UNL A   1      13.361  46.606   2.530  1.00  0.00    +0.000 H 
ATOM    124  H24 UNL A   1      15.107  46.771   0.601  1.00  0.00    +0.000 H 
ATOM    125  H25 UNL A   1      14.853  50.470   2.446  1.00  0.00    +0.000 H 
ATOM    126  H26 UNL A   1      16.405  56.648   2.638  1.00  0.00    +0.000 H 
ATOM    127  H27 UNL A   1      14.967  56.408   4.717  1.00  0.00    +0.000 H 
ATOM    128  H28 UNL A   1      15.149  52.693   2.862  1.00  0.00    +0.000 H 
ENDROOT
BRANCH   28   27
ATOM    122  H22 UNL A   1      14.886  54.420   7.477  1.00  0.00    +0.000 H 
ATOM    133  H33 UNL A   1      11.531  55.239   5.069  1.00  0.00    +0.000 H 
ATOM    134  H34 UNL A   1      10.865  56.998   6.609  1.00  0.00    +0.000 H 
ATOM     85  C60 UNL A   1      12.116  55.452   5.891  1.00  0.00    +0.000 C 
ATOM     86  C61 UNL A   1      11.719  56.447   6.790  1.00  0.00    +0.000 C 
ATOM     24  C18 UNL A   1      12.482  56.693   7.936  1.00  0.00    +0.000 C 
ATOM     25  C19 UNL A   1      13.572  55.874   8.237  1.00  0.00    +0.000 C 
ATOM     26  C20 UNL A   1      14.021  54.954   7.296  1.00  0.00    +0.000 C 
ATOM     27  C21 UNL A   1      13.310  54.743   6.104  1.00  0.00    +0.000 C 
ATOM    121  H21 UNL A   1      14.042  55.953   9.153  1.00  0.00    +0.000 H 
BRANCH   24   22
ATOM     22  C17 UNL A   1      12.150  57.859   8.784  1.00  0.00    +0.000 C 
ATOM     23  O4  UNL A   1      12.838  58.873   8.722  1.00  0.00    +0.000 O 
BRANCH   22   21
ATOM     21  N2  UNL A   1      11.100  57.782   9.671  1.00  0.00    +0.000 N 
ATOM    120  H20 UNL A   1      10.333  58.364   9.466  1.00  0.00    +0.000 H 
BRANCH   21   20
ATOM     20  C16 UNL A   1      10.957  56.965  10.867  1.00  0.00    +0.000 C 
ATOM    118  H18 UNL A   1      11.899  56.941  11.374  1.00  0.00    +0.000 H 
ATOM    119  H19 UNL A   1      10.186  57.408  11.461  1.00  0.00    +0.000 H 
BRANCH   20   19
ATOM     19  C15 UNL A   1      10.531  55.531  10.575  1.00  0.00    +0.000 C 
ATOM    116  H16 UNL A   1       9.544  55.562  10.159  1.00  0.00    +0.000 H 
ATOM    117  H17 UNL A   1      11.272  55.139   9.912  1.00  0.00    +0.000 H 
BRANCH   19   18
ATOM     18  C14 UNL A   1      10.505  54.586  11.774  1.00  0.00    +0.000 C 
ATOM    115  H15 UNL A   1      11.005  55.110  12.560  1.00  0.00    +0.000 H 
ATOM    114  H14 UNL A   1      10.977  53.673  11.477  1.00  0.00    +0.000 H 
BRANCH   18   17
ATOM     17  C13 UNL A   1       9.126  54.234  12.334  1.00  0.00    +0.000 C 
ATOM    113  H13 UNL A   1       8.690  53.578  11.609  1.00  0.00    +0.000 H 
ATOM    112  H12 UNL A   1       8.596  55.150  12.488  1.00  0.00    +0.000 H 
BRANCH   17   16
ATOM    110  H10 UNL A   1       8.067  53.239  13.867  1.00  0.00    +0.000 H 
ATOM    111  H11 UNL A   1       9.712  52.600  13.474  1.00  0.00    +0.000 H 
ATOM     16  C12 UNL A   1       9.092  53.455  13.648  1.00  0.00    +0.000 C 
BRANCH   16   15
ATOM    108  H8  UNL A   1       9.641  55.184  14.734  1.00  0.00    +0.000 H 
ATOM    109  H9  UNL A   1       9.116  53.774  15.711  1.00  0.00    +0.000 H 
ATOM     15  C11 UNL A   1       9.691  54.125  14.880  1.00  0.00    +0.000 C 
BRANCH   15   14
ATOM    107  H7  UNL A   1      11.650  54.551  15.374  1.00  0.00    +0.000 H 
ATOM     14  N1  UNL A   1      11.066  53.782  15.179  1.00  0.00    +0.000 N 
BRANCH   14   12
ATOM     12  C10 UNL A   1      11.688  52.553  15.235  1.00  0.00    +0.000 C 
ATOM     13  O3  UNL A   1      11.485  51.824  16.203  1.00  0.00    +0.000 O 
BRANCH   12   11
ATOM    135  H35 UNL A   1      11.612  50.136  13.874  1.00  0.00    +0.000 H 
ATOM    136  H36 UNL A   1      13.409  49.235  12.511  1.00  0.00    +0.000 H 
ATOM      9  C7  UNL A   1      14.421  52.413  12.657  1.00  0.00    +0.000 C 
ATOM    105  H5  UNL A   1      15.080  53.056  12.193  1.00  0.00    +0.000 H 
ATOM      8  C6  UNL A   1      14.487  51.045  12.421  1.00  0.00    +0.000 C 
ATOM     10  C8  UNL A   1      13.448  52.904  13.533  1.00  0.00    +0.000 C 
ATOM    106  H6  UNL A   1      13.427  53.910  13.764  1.00  0.00    +0.000 H 
ATOM     11  C9  UNL A   1      12.500  52.037  14.098  1.00  0.00    +0.000 C 
ATOM     87  C62 UNL A   1      12.420  50.727  13.626  1.00  0.00    +0.000 C 
ATOM     88  C63 UNL A   1      13.435  50.220  12.817  1.00  0.00    +0.000 C 
BRANCH    8    7
ATOM      7  O2  UNL A   1      15.506  50.452  11.738  1.00  0.00    +0.000 O 
BRANCH    7    6
ATOM      2  C2  UNL A   1      16.603  50.743   7.681  1.00  0.00    +0.000 C 
ATOM      3  C3  UNL A   1      17.554  50.778   8.615  1.00  0.00    +0.000 C 
ATOM    100  O7  UNL A   1      15.260  50.716   7.992  1.00  0.00    +0.000 O 
ATOM      4  C4  UNL A   1      17.162  50.730  10.030  1.00  0.00    +0.000 C 
ATOM      5  O1  UNL A   1      18.032  50.816  10.893  1.00  0.00    +0.000 O 
ATOM      6  C5  UNL A   1      15.708  50.586  10.369  1.00  0.00    +0.000 C 
ATOM    104  H4  UNL A   1      18.550  50.837   8.348  1.00  0.00    +0.000 H 
ATOM     89  C64 UNL A   1      14.844  50.652   9.320  1.00  0.00    +0.000 C 
BRANCH    2    1
ATOM      1  C1  UNL A   1      16.901  50.748   6.216  1.00  0.00    +0.000 C 
ATOM    101  H1  UNL A   1      17.102  49.749   5.890  1.00  0.00    +0.000 H 
ATOM    102  H2  UNL A   1      17.756  51.364   6.028  1.00  0.00    +0.000 H 
ATOM    103  H3  UNL A   1      16.058  51.135   5.682  1.00  0.00    +0.000 H 
ENDBRANCH    2    1
BRANCH   89   90
ATOM     98  C70 UNL A   1      11.242  49.471   9.255  1.00  0.00    +0.000 C 
ATOM     99  C71 UNL A   1      12.641  49.449   9.268  1.00  0.00    +0.000 C 
ATOM    137  H37 UNL A   1      13.198  52.731   9.684  1.00  0.00    +0.000 H 
ATOM    138  H38 UNL A   1      10.771  52.779   9.613  1.00  0.00    +0.000 H 
ATOM    142  H42 UNL A   1      10.711  48.589   9.165  1.00  0.00    +0.000 H 
ATOM    143  H43 UNL A   1      13.141  48.549   9.200  1.00  0.00    +0.000 H 
ATOM     90  C65 UNL A   1      13.368  50.645   9.370  1.00  0.00    +0.000 C 
ATOM     91  C66 UNL A   1      12.673  51.855   9.541  1.00  0.00    +0.000 C 
ATOM     92  C67 UNL A   1      11.275  51.883   9.518  1.00  0.00    +0.000 C 
ATOM     93  C68 UNL A   1      10.567  50.688   9.366  1.00  0.00    +0.000 C 
BRANCH   93   94
ATOM     97  O6  UNL A   1       8.218  50.298  10.463  1.00  0.00    +0.000 O 
ATOM     94  S1  UNL A   1       8.795  50.748   9.208  1.00  0.00    +0.000 S 
ATOM     96  O5  UNL A   1       8.454  50.118   7.950  1.00  0.00    +0.000 O 
BRANCH   94   95
ATOM    139  H39 UNL A   1       8.740  52.819   8.090  1.00  0.00    +0.000 H 
ATOM    140  H40 UNL A   1       8.980  53.017   9.810  1.00  0.00    +0.000 H 
ATOM    141  H41 UNL A   1       7.392  52.638   9.186  1.00  0.00    +0.000 H 
ATOM     95  C69 UNL A   1       8.442  52.476   9.059  1.00  0.00    +0.000 C 
ENDBRANCH   94   95
ENDBRANCH   93   94
ENDBRANCH   89   90
ENDBRANCH    7    6
ENDBRANCH    8    7
ENDBRANCH   12   11
ENDBRANCH   14   12
ENDBRANCH   15   14
ENDBRANCH   16   15
ENDBRANCH   17   16
ENDBRANCH   18   17
ENDBRANCH   19   18
ENDBRANCH   20   19
ENDBRANCH   21   20
ENDBRANCH   22   21
ENDBRANCH   24   22
ENDBRANCH   28   27
BRANCH   32   33
ATOM     33  C26 UNL A   1      12.234  47.981   4.724  1.00  0.00    +0.000 C 
ATOM     34  C27 UNL A   1      10.989  47.614   4.193  1.00  0.00    +0.000 C 
ATOM     35  F1  UNL A   1      10.487  48.266   3.133  1.00  0.00    +0.000 F 
ATOM     36  C28 UNL A   1      10.238  46.589   4.765  1.00  0.00    +0.000 C 
ATOM     37  F2  UNL A   1       9.035  46.280   4.261  1.00  0.00    +0.000 F 
ATOM     38  C29 UNL A   1      10.731  45.889   5.856  1.00  0.00    +0.000 C 
ATOM     39  F3  UNL A   1      10.017  44.890   6.392  1.00  0.00    +0.000 F 
ATOM     40  C30 UNL A   1      11.965  46.226   6.391  1.00  0.00    +0.000 C 
ATOM     41  F4  UNL A   1      12.452  45.541   7.434  1.00  0.00    +0.000 F 
ATOM     42  C31 UNL A   1      12.704  47.271   5.841  1.00  0.00    +0.000 C 
ATOM     43  F5  UNL A   1      13.892  47.575   6.384  1.00  0.00    +0.000 F 
ENDBRANCH   32   33
BRANCH   49   50
ATOM     50  C37 UNL A   1      16.857  48.508  -0.775  1.00  0.00    +0.000 C 
ATOM     51  C38 UNL A   1      16.201  48.243  -1.985  1.00  0.00    +0.000 C 
ATOM     52  F6  UNL A   1      14.978  48.742  -2.215  1.00  0.00    +0.000 F 
ATOM     53  C39 UNL A   1      16.788  47.433  -2.955  1.00  0.00    +0.000 C 
ATOM     54  F7  UNL A   1      16.124  47.156  -4.085  1.00  0.00    +0.000 F 
ATOM     55  C40 UNL A   1      18.053  46.905  -2.749  1.00  0.00    +0.000 C 
ATOM     56  F8  UNL A   1      18.623  46.138  -3.689  1.00  0.00    +0.000 F 
ATOM     57  C41 UNL A   1      18.727  47.168  -1.566  1.00  0.00    +0.000 C 
ATOM     58  F9  UNL A   1      19.958  46.673  -1.372  1.00  0.00    +0.000 F 
ATOM     59  C42 UNL A   1      18.129  47.949  -0.580  1.00  0.00    +0.000 C 
ATOM     60  F10 UNL A   1      18.803  48.178   0.556  1.00  0.00    +0.000 F 
ENDBRANCH   49   50
BRANCH   64   65
ATOM     65  C46 UNL A   1      17.653  55.296   0.625  1.00  0.00    +0.000 C 
ATOM     66  C47 UNL A   1      18.910  55.651   1.132  1.00  0.00    +0.000 C 
ATOM     67  F11 UNL A   1      19.392  55.033   2.221  1.00  0.00    +0.000 F 
ATOM     68  C48 UNL A   1      19.664  56.662   0.541  1.00  0.00    +0.000 C 
ATOM     69  F12 UNL A   1      20.848  57.006   1.067  1.00  0.00    +0.000 F 
ATOM     70  C49 UNL A   1      19.191  57.315  -0.587  1.00  0.00    +0.000 C 
ATOM     71  F13 UNL A   1      19.925  58.275  -1.166  1.00  0.00    +0.000 F 
ATOM     72  C50 UNL A   1      17.953  56.975  -1.112  1.00  0.00    +0.000 C 
ATOM     73  F14 UNL A   1      17.500  57.591  -2.212  1.00  0.00    +0.000 F 
ATOM     74  C51 UNL A   1      17.184  55.989  -0.501  1.00  0.00    +0.000 C 
ATOM     75  F15 UNL A   1      15.987  55.686  -1.027  1.00  0.00    +0.000 F 
ENDBRANCH   64   65
TORSDOF 21
ENDMDL
MODEL 10
REMARK VINA RESULT:     -10.7     36.479     41.320
ROOT
ATOM    129  H29 UNL A   1      18.707  53.552  -1.193  1.00  0.00    +0.000 H 
ATOM    130  H30 UNL A   1      18.244  51.129  -1.879  1.00  0.00    +0.000 H 
ATOM    131  H31 UNL A   1      12.065  50.006   5.973  1.00  0.00    +0.000 H 
ATOM    132  H32 UNL A   1      12.300  52.497   6.514  1.00  0.00    +0.000 H 
ATOM     28  C22 UNL A   1      14.193  53.866   4.869  1.00  0.00    +0.000 C 
ATOM     29  C23 UNL A   1      13.744  52.430   4.767  1.00  0.00    +0.000 C 
ATOM     30  N3  UNL A   1      14.101  51.509   3.906  1.00  0.00    +0.000 N 
ATOM     31  C24 UNL A   1      13.410  50.359   4.267  1.00  0.00    +0.000 C 
ATOM     32  C25 UNL A   1      13.404  49.149   3.657  1.00  0.00    +0.000 C 
ATOM     44  C32 UNL A   1      14.153  48.834   2.468  1.00  0.00    +0.000 C 
ATOM     45  C33 UNL A   1      14.194  47.642   1.766  1.00  0.00    +0.000 C 
ATOM     46  C34 UNL A   1      15.099  47.785   0.710  1.00  0.00    +0.000 C 
ATOM     47  C35 UNL A   1      15.578  49.085   0.717  1.00  0.00    +0.000 C 
ATOM     48  N4  UNL A   1      14.991  49.717   1.804  1.00  0.00    +0.000 N 
ATOM     49  C36 UNL A   1      16.508  49.703  -0.193  1.00  0.00    +0.000 C 
ATOM     61  C43 UNL A   1      16.890  51.003  -0.148  1.00  0.00    +0.000 C 
ATOM     62  N5  UNL A   1      16.507  51.991   0.748  1.00  0.00    +0.000 N 
ATOM     63  C44 UNL A   1      17.170  53.067   0.402  1.00  0.00    +0.000 C 
ATOM     64  C45 UNL A   1      17.140  54.439   1.015  1.00  0.00    +0.000 C 
ATOM     76  C52 UNL A   1      16.388  54.653   2.112  1.00  0.00    +0.000 C 
ATOM     77  C53 UNL A   1      16.276  55.924   2.820  1.00  0.00    +0.000 C 
ATOM     78  C54 UNL A   1      15.516  55.750   3.911  1.00  0.00    +0.000 C 
ATOM     79  C55 UNL A   1      15.028  54.372   3.940  1.00  0.00    +0.000 C 
ATOM     80  N6  UNL A   1      15.598  53.793   2.833  1.00  0.00    +0.000 N 
ATOM     81  C56 UNL A   1      18.062  52.878  -0.750  1.00  0.00    +0.000 C 
ATOM     82  C57 UNL A   1      17.821  51.615  -1.072  1.00  0.00    +0.000 C 
ATOM     83  C58 UNL A   1      12.639  50.684   5.447  1.00  0.00    +0.000 C 
ATOM     84  C59 UNL A   1      12.766  51.964   5.764  1.00  0.00    +0.000 C 
ATOM    123  H23 UNL A   1      13.650  46.792   1.985  1.00  0.00    +0.000 H 
ATOM    124  H24 UNL A   1      15.364  47.048   0.038  1.00  0.00    +0.000 H 
ATOM    125  H25 UNL A   1      15.147  50.654   2.064  1.00  0.00    +0.000 H 
ATOM    126  H26 UNL A   1      16.712  56.814   2.528  1.00  0.00    +0.000 H 
ATOM    127  H27 UNL A   1      15.308  56.475   4.616  1.00  0.00    +0.000 H 
ATOM    128  H28 UNL A   1      15.453  52.853   2.582  1.00  0.00    +0.000 H 
ENDROOT
BRANCH   28   27
ATOM    122  H22 UNL A   1      11.963  55.360   4.864  1.00  0.00    +0.000 H 
ATOM    133  H33 UNL A   1      15.287  54.467   7.288  1.00  0.00    +0.000 H 
ATOM    134  H34 UNL A   1      14.236  55.632   9.144  1.00  0.00    +0.000 H 
ATOM     85  C60 UNL A   1      14.349  54.880   7.171  1.00  0.00    +0.000 C 
ATOM     86  C61 UNL A   1      13.757  55.572   8.233  1.00  0.00    +0.000 C 
ATOM     24  C18 UNL A   1      12.512  56.183   8.054  1.00  0.00    +0.000 C 
ATOM     25  C19 UNL A   1      11.916  56.198   6.792  1.00  0.00    +0.000 C 
ATOM     26  C20 UNL A   1      12.458  55.429   5.767  1.00  0.00    +0.000 C 
ATOM     27  C21 UNL A   1      13.671  54.746   5.949  1.00  0.00    +0.000 C 
ATOM    121  H21 UNL A   1      11.078  56.776   6.621  1.00  0.00    +0.000 H 
BRANCH   24   22
ATOM     22  C17 UNL A   1      11.818  56.759   9.228  1.00  0.00    +0.000 C 
ATOM     23  O4  UNL A   1      11.909  57.960   9.460  1.00  0.00    +0.000 O 
BRANCH   22   21
ATOM     21  N2  UNL A   1      11.115  55.935  10.078  1.00  0.00    +0.000 N 
ATOM    120  H20 UNL A   1      10.279  56.313  10.433  1.00  0.00    +0.000 H 
BRANCH   21   20
ATOM     20  C16 UNL A   1      11.428  54.587  10.528  1.00  0.00    +0.000 C 
ATOM    118  H18 UNL A   1      10.530  54.137  10.896  1.00  0.00    +0.000 H 
ATOM    119  H19 UNL A   1      11.832  54.061   9.689  1.00  0.00    +0.000 H 
BRANCH   20   19
ATOM     19  C15 UNL A   1      12.476  54.544  11.632  1.00  0.00    +0.000 C 
ATOM    116  H16 UNL A   1      13.363  55.013  11.260  1.00  0.00    +0.000 H 
ATOM    117  H17 UNL A   1      12.036  55.045  12.468  1.00  0.00    +0.000 H 
BRANCH   19   18
ATOM     18  C14 UNL A   1      12.857  53.154  12.137  1.00  0.00    +0.000 C 
ATOM    115  H15 UNL A   1      13.527  53.322  12.954  1.00  0.00    +0.000 H 
ATOM    114  H14 UNL A   1      13.284  52.617  11.316  1.00  0.00    +0.000 H 
BRANCH   18   17
ATOM     17  C13 UNL A   1      11.724  52.302  12.710  1.00  0.00    +0.000 C 
ATOM    113  H13 UNL A   1      11.486  51.600  11.938  1.00  0.00    +0.000 H 
ATOM    112  H12 UNL A   1      10.926  52.964  12.977  1.00  0.00    +0.000 H 
BRANCH   17   16
ATOM    110  H10 UNL A   1      12.376  52.117  14.710  1.00  0.00    +0.000 H 
ATOM    111  H11 UNL A   1      11.148  50.917  14.146  1.00  0.00    +0.000 H 
ATOM     16  C12 UNL A   1      12.050  51.452  13.937  1.00  0.00    +0.000 C 
BRANCH   16   15
ATOM    108  H8  UNL A   1      13.028  49.963  12.798  1.00  0.00    +0.000 H 
ATOM    109  H9  UNL A   1      14.051  50.859  13.969  1.00  0.00    +0.000 H 
ATOM     15  C11 UNL A   1      13.116  50.373  13.783  1.00  0.00    +0.000 C 
BRANCH   15   14
ATOM    107  H7  UNL A   1      13.778  49.254  15.387  1.00  0.00    +0.000 H 
ATOM     14  N1  UNL A   1      13.046  49.278  14.728  1.00  0.00    +0.000 N 
BRANCH   14   12
ATOM     12  C10 UNL A   1      12.121  48.264  14.853  1.00  0.00    +0.000 C 
ATOM     13  O3  UNL A   1      11.626  48.040  15.956  1.00  0.00    +0.000 O 
BRANCH   12   11
ATOM    135  H35 UNL A   1      13.171  46.106  13.460  1.00  0.00    +0.000 H 
ATOM    136  H36 UNL A   1      12.550  45.455  11.204  1.00  0.00    +0.000 H 
ATOM      9  C7  UNL A   1       9.946  47.425  11.904  1.00  0.00    +0.000 C 
ATOM    105  H5  UNL A   1       9.002  47.643  11.553  1.00  0.00    +0.000 H 
ATOM      8  C6  UNL A   1      10.825  46.667  11.139  1.00  0.00    +0.000 C 
ATOM     10  C8  UNL A   1      10.362  47.885  13.157  1.00  0.00    +0.000 C 
ATOM    106  H6  UNL A   1       9.742  48.499  13.709  1.00  0.00    +0.000 H 
ATOM     11  C9  UNL A   1      11.616  47.517  13.668  1.00  0.00    +0.000 C 
ATOM     87  C62 UNL A   1      12.352  46.537  13.004  1.00  0.00    +0.000 C 
ATOM     88  C63 UNL A   1      11.976  46.139  11.722  1.00  0.00    +0.000 C 
BRANCH    8    7
ATOM      7  O2  UNL A   1      10.588  46.332   9.840  1.00  0.00    +0.000 O 
BRANCH    7    6
ATOM      2  C2  UNL A   1       9.323  48.936   6.781  1.00  0.00    +0.000 C 
ATOM      3  C3  UNL A   1       8.601  47.846   7.045  1.00  0.00    +0.000 C 
ATOM    100  O7  UNL A   1      10.526  49.197   7.401  1.00  0.00    +0.000 O 
ATOM      4  C4  UNL A   1       9.076  46.914   8.076  1.00  0.00    +0.000 C 
ATOM      5  O1  UNL A   1       8.441  45.883   8.285  1.00  0.00    +0.000 O 
ATOM      6  C5  UNL A   1      10.325  47.253   8.833  1.00  0.00    +0.000 C 
ATOM    104  H4  UNL A   1       7.723  47.661   6.534  1.00  0.00    +0.000 H 
ATOM     89  C64 UNL A   1      11.004  48.349   8.398  1.00  0.00    +0.000 C 
BRANCH    2    1
ATOM      1  C1  UNL A   1       8.906  49.964   5.778  1.00  0.00    +0.000 C 
ATOM    101  H1  UNL A   1       9.775  50.381   5.313  1.00  0.00    +0.000 H 
ATOM    102  H2  UNL A   1       8.356  50.740   6.270  1.00  0.00    +0.000 H 
ATOM    103  H3  UNL A   1       8.288  49.506   5.033  1.00  0.00    +0.000 H 
ENDBRANCH    2    1
BRANCH   89   90
ATOM     98  C70 UNL A   1      13.729  50.659   9.670  1.00  0.00    +0.000 C 
ATOM     99  C71 UNL A   1      12.472  50.189   9.272  1.00  0.00    +0.000 C 
ATOM    137  H37 UNL A   1      13.271  46.972   8.755  1.00  0.00    +0.000 H 
ATOM    138  H38 UNL A   1      15.465  47.795   9.396  1.00  0.00    +0.000 H 
ATOM    142  H42 UNL A   1      13.849  51.648   9.942  1.00  0.00    +0.000 H 
ATOM    143  H43 UNL A   1      11.663  50.829   9.264  1.00  0.00    +0.000 H 
ATOM     90  C65 UNL A   1      12.306  48.851   8.882  1.00  0.00    +0.000 C 
ATOM     91  C66 UNL A   1      13.399  47.972   8.975  1.00  0.00    +0.000 C 
ATOM     92  C67 UNL A   1      14.659  48.440   9.360  1.00  0.00    +0.000 C 
ATOM     93  C68 UNL A   1      14.818  49.786   9.698  1.00  0.00    +0.000 C 
BRANCH   93   94
ATOM     97  O6  UNL A   1      16.908  51.159   8.912  1.00  0.00    +0.000 O 
ATOM     94  S1  UNL A   1      16.449  50.399  10.062  1.00  0.00    +0.000 S 
ATOM     96  O5  UNL A   1      17.217  49.291  10.591  1.00  0.00    +0.000 O 
BRANCH   94   95
ATOM    139  H39 UNL A   1      17.101  51.704  11.908  1.00  0.00    +0.000 H 
ATOM    140  H40 UNL A   1      15.445  51.164  12.049  1.00  0.00    +0.000 H 
ATOM    141  H41 UNL A   1      15.846  52.482  10.976  1.00  0.00    +0.000 H 
ATOM     95  C69 UNL A   1      16.184  51.551  11.379  1.00  0.00    +0.000 C 
ENDBRANCH   94   95
ENDBRANCH   93   94
ENDBRANCH   89   90
ENDBRANCH    7    6
ENDBRANCH    8    7
ENDBRANCH   12   11
ENDBRANCH   14   12
ENDBRANCH   15   14
ENDBRANCH   16   15
ENDBRANCH   17   16
ENDBRANCH   18   17
ENDBRANCH   19   18
ENDBRANCH   20   19
ENDBRANCH   21   20
ENDBRANCH   22   21
ENDBRANCH   24   22
ENDBRANCH   28   27
BRANCH   32   33
ATOM     33  C26 UNL A   1      12.562  48.060   4.261  1.00  0.00    +0.000 C 
ATOM     34  C27 UNL A   1      11.315  47.709   3.724  1.00  0.00    +0.000 C 
ATOM     35  F1  UNL A   1      10.803  48.401   2.694  1.00  0.00    +0.000 F 
ATOM     36  C28 UNL A   1      10.572  46.658   4.259  1.00  0.00    +0.000 C 
ATOM     37  F2  UNL A   1       9.367  46.364   3.750  1.00  0.00    +0.000 F 
ATOM     38  C29 UNL A   1      11.075  45.917   5.317  1.00  0.00    +0.000 C 
ATOM     39  F3  UNL A   1      10.368  44.894   5.817  1.00  0.00    +0.000 F 
ATOM     40  C30 UNL A   1      12.311  46.238   5.858  1.00  0.00    +0.000 C 
ATOM     41  F4  UNL A   1      12.807  45.513   6.869  1.00  0.00    +0.000 F 
ATOM     42  C31 UNL A   1      13.042  47.308   5.346  1.00  0.00    +0.000 C 
ATOM     43  F5  UNL A   1      14.231  47.595   5.894  1.00  0.00    +0.000 F 
ENDBRANCH   32   33
BRANCH   49   50
ATOM     50  C37 UNL A   1      17.094  48.848  -1.281  1.00  0.00    +0.000 C 
ATOM     51  C38 UNL A   1      18.203  48.023  -1.045  1.00  0.00    +0.000 C 
ATOM     52  F6  UNL A   1      18.812  48.034   0.150  1.00  0.00    +0.000 F 
ATOM     53  C39 UNL A   1      18.715  47.206  -2.050  1.00  0.00    +0.000 C 
ATOM     54  F7  UNL A   1      19.803  46.461  -1.816  1.00  0.00    +0.000 F 
ATOM     55  C40 UNL A   1      18.106  47.170  -3.296  1.00  0.00    +0.000 C 
ATOM     56  F8  UNL A   1      18.590  46.372  -4.257  1.00  0.00    +0.000 F 
ATOM     57  C41 UNL A   1      16.998  47.965  -3.546  1.00  0.00    +0.000 C 
ATOM     58  F9  UNL A   1      16.398  47.918  -4.744  1.00  0.00    +0.000 F 
ATOM     59  C42 UNL A   1      16.505  48.809  -2.554  1.00  0.00    +0.000 C 
ATOM     60  F10 UNL A   1      15.437  49.571  -2.830  1.00  0.00    +0.000 F 
ENDBRANCH   49   50
BRANCH   64   65
ATOM     65  C46 UNL A   1      17.925  55.559   0.432  1.00  0.00    +0.000 C 
ATOM     66  C47 UNL A   1      19.181  55.902   0.949  1.00  0.00    +0.000 C 
ATOM     67  F11 UNL A   1      19.671  55.245   2.011  1.00  0.00    +0.000 F 
ATOM     68  C48 UNL A   1      19.928  56.939   0.395  1.00  0.00    +0.000 C 
ATOM     69  F12 UNL A   1      21.111  57.270   0.930  1.00  0.00    +0.000 F 
ATOM     70  C49 UNL A   1      19.447  57.633  -0.705  1.00  0.00    +0.000 C 
ATOM     71  F13 UNL A   1      20.174  58.619  -1.249  1.00  0.00    +0.000 F 
ATOM     72  C50 UNL A   1      18.210  57.307  -1.239  1.00  0.00    +0.000 C 
ATOM     73  F14 UNL A   1      17.749  57.962  -2.314  1.00  0.00    +0.000 F 
ATOM     74  C51 UNL A   1      17.448  56.293  -0.665  1.00  0.00    +0.000 C 
ATOM     75  F15 UNL A   1      16.252  56.003  -1.199  1.00  0.00    +0.000 F 
ENDBRANCH   64   65
TORSDOF 21
ENDMDL
