MODEL 1
REMARK VINA RESULT:     -12.6      0.000      0.000
ROOT
ATOM    130  H32 UNL A   1      45.048  27.211  28.093  1.00  0.00    +0.000 H 
ATOM    131  H33 UNL A   1      45.683  28.356  30.385  1.00  0.00    +0.000 H 
ATOM    132  H34 UNL A   1      42.790  25.507  31.101  1.00  0.00    +0.000 H 
ATOM    133  H35 UNL A   1      43.387  30.875  29.925  1.00  0.00    +0.000 H 
ATOM    134  H36 UNL A   1      42.382  29.096  28.393  1.00  0.00    +0.000 H 
ATOM    135  H37 UNL A   1      39.319  31.496  29.835  1.00  0.00    +0.000 H 
ATOM    136  H38 UNL A   1      41.758  30.622  34.913  1.00  0.00    +0.000 H 
ATOM    137  H39 UNL A   1      43.177  28.494  35.223  1.00  0.00    +0.000 H 
ATOM    138  H40 UNL A   1      39.927  24.328  27.794  1.00  0.00    +0.000 H 
ATOM    139  H41 UNL A   1      38.275  26.299  27.821  1.00  0.00    +0.000 H 
ATOM     36  C29 UNL A   1      39.541  28.711  28.942  1.00  0.00    +0.000 C 
ATOM     37  C30 UNL A   1      40.069  27.355  28.700  1.00  0.00    +0.000 C 
ATOM     38  N6  UNL A   1      41.246  26.966  29.058  1.00  0.00    +0.000 N 
ATOM     39  C31 UNL A   1      41.455  25.715  28.535  1.00  0.00    +0.000 C 
ATOM     40  C32 UNL A   1      42.733  25.252  28.439  1.00  0.00    +0.000 C 
ATOM     52  C39 UNL A   1      43.646  26.057  29.261  1.00  0.00    +0.000 C 
ATOM     53  C40 UNL A   1      44.634  26.996  29.014  1.00  0.00    +0.000 C 
ATOM     54  C41 UNL A   1      44.980  27.613  30.255  1.00  0.00    +0.000 C 
ATOM     55  C42 UNL A   1      44.209  27.041  31.251  1.00  0.00    +0.000 C 
ATOM     56  N7  UNL A   1      43.427  26.090  30.629  1.00  0.00    +0.000 N 
ATOM     57  C43 UNL A   1      44.031  27.279  32.673  1.00  0.00    +0.000 C 
ATOM     69  C50 UNL A   1      43.357  28.407  33.031  1.00  0.00    +0.000 C 
ATOM     70  N8  UNL A   1      42.856  29.287  32.111  1.00  0.00    +0.000 N 
ATOM     71  C51 UNL A   1      42.142  30.187  32.726  1.00  0.00    +0.000 C 
ATOM     72  C52 UNL A   1      41.271  31.202  32.025  1.00  0.00    +0.000 C 
ATOM     84  C59 UNL A   1      41.310  31.155  30.663  1.00  0.00    +0.000 C 
ATOM     85  C60 UNL A   1      42.391  30.612  29.866  1.00  0.00    +0.000 C 
ATOM     86  C61 UNL A   1      41.855  29.706  29.038  1.00  0.00    +0.000 C 
ATOM     87  C62 UNL A   1      40.403  29.725  29.199  1.00  0.00    +0.000 C 
ATOM     88  N9  UNL A   1      40.128  30.938  29.883  1.00  0.00    +0.000 N 
ATOM     89  C63 UNL A   1      42.188  30.033  34.183  1.00  0.00    +0.000 C 
ATOM     90  C64 UNL A   1      42.934  28.924  34.317  1.00  0.00    +0.000 C 
ATOM     91  C65 UNL A   1      40.149  25.290  28.095  1.00  0.00    +0.000 C 
ATOM     92  C66 UNL A   1      39.261  26.288  28.124  1.00  0.00    +0.000 C 
ENDROOT
BRANCH   36   35
ATOM     33  C26 UNL A   1      36.104  29.828  29.840  1.00  0.00    +0.000 C 
ATOM     34  C27 UNL A   1      37.298  29.129  29.971  1.00  0.00    +0.000 C 
ATOM    129  H31 UNL A   1      37.578  28.730  30.880  1.00  0.00    +0.000 H 
ATOM     35  C28 UNL A   1      38.109  28.976  28.846  1.00  0.00    +0.000 C 
ATOM    140  H42 UNL A   1      38.158  28.985  26.727  1.00  0.00    +0.000 H 
ATOM    141  H43 UNL A   1      35.955  30.002  26.492  1.00  0.00    +0.000 H 
ATOM    128  H30 UNL A   1      35.492  29.985  30.656  1.00  0.00    +0.000 H 
ATOM     93  C67 UNL A   1      37.611  29.248  27.561  1.00  0.00    +0.000 C 
ATOM     94  C68 UNL A   1      36.385  29.871  27.421  1.00  0.00    +0.000 C 
ATOM     32  C25 UNL A   1      35.753  30.315  28.578  1.00  0.00    +0.000 C 
BRANCH   32   30
ATOM     30  C24 UNL A   1      35.059  31.624  28.536  1.00  0.00    +0.000 C 
ATOM     31  O2  UNL A   1      35.529  32.588  29.094  1.00  0.00    +0.000 O 
BRANCH   30   29
ATOM     29  N5  UNL A   1      33.904  31.690  27.754  1.00  0.00    +0.000 N 
ATOM    127  H29 UNL A   1      33.682  32.574  27.383  1.00  0.00    +0.000 H 
BRANCH   29   28
ATOM     28  C23 UNL A   1      32.978  30.597  27.417  1.00  0.00    +0.000 C 
ATOM    125  H27 UNL A   1      33.411  29.680  27.759  1.00  0.00    +0.000 H 
ATOM    126  H28 UNL A   1      32.051  30.839  27.894  1.00  0.00    +0.000 H 
BRANCH   28   27
ATOM     27  C22 UNL A   1      32.660  30.444  25.931  1.00  0.00    +0.000 C 
ATOM    124  H26 UNL A   1      33.527  30.827  25.435  1.00  0.00    +0.000 H 
ATOM    123  H25 UNL A   1      31.746  30.969  25.746  1.00  0.00    +0.000 H 
BRANCH   27   26
ATOM    121  H23 UNL A   1      32.167  28.408  26.174  1.00  0.00    +0.000 H 
ATOM     26  C21 UNL A   1      32.494  29.032  25.368  1.00  0.00    +0.000 C 
ATOM    122  H24 UNL A   1      31.808  29.152  24.557  1.00  0.00    +0.000 H 
BRANCH   26   25
ATOM     25  C20 UNL A   1      33.715  28.348  24.732  1.00  0.00    +0.000 C 
ATOM    119  H21 UNL A   1      34.538  29.011  24.897  1.00  0.00    +0.000 H 
ATOM    120  H22 UNL A   1      33.683  27.389  25.205  1.00  0.00    +0.000 H 
BRANCH   25   24
ATOM    117  H19 UNL A   1      33.472  28.794  22.681  1.00  0.00    +0.000 H 
ATOM    118  H20 UNL A   1      34.806  27.608  23.156  1.00  0.00    +0.000 H 
ATOM     24  C19 UNL A   1      33.794  27.940  23.240  1.00  0.00    +0.000 C 
BRANCH   24   23
ATOM    115  H17 UNL A   1      32.295  26.458  23.406  1.00  0.00    +0.000 H 
ATOM    116  H18 UNL A   1      32.618  27.092  21.747  1.00  0.00    +0.000 H 
ATOM     23  C18 UNL A   1      33.022  26.747  22.676  1.00  0.00    +0.000 C 
BRANCH   23   22
ATOM    114  H16 UNL A   1      34.070  25.461  21.393  1.00  0.00    +0.000 H 
ATOM     22  N4  UNL A   1      33.792  25.560  22.332  1.00  0.00    +0.000 N 
BRANCH   22   20
ATOM     20  C17 UNL A   1      34.165  24.565  23.208  1.00  0.00    +0.000 C 
ATOM     21  O1  UNL A   1      34.161  23.417  22.737  1.00  0.00    +0.000 O 
BRANCH   20   19
ATOM    110  H12 UNL A   1      33.774  23.665  27.634  1.00  0.00    +0.000 H 
ATOM    111  H13 UNL A   1      33.942  25.577  26.344  1.00  0.00    +0.000 H 
ATOM    112  H14 UNL A   1      32.867  24.686  25.422  1.00  0.00    +0.000 H 
ATOM     17  C15 UNL A   1      34.076  23.556  26.614  1.00  0.00    +0.000 C 
ATOM     18  N3  UNL A   1      33.821  24.736  25.780  1.00  0.00    +0.000 N 
ATOM     19  C16 UNL A   1      34.762  24.775  24.633  1.00  0.00    +0.000 C 
ATOM    142  H44 UNL A   1      36.891  24.433  24.727  1.00  0.00    +0.000 H 
ATOM    143  H45 UNL A   1      36.014  23.057  24.179  1.00  0.00    +0.000 H 
ATOM    113  H15 UNL A   1      35.063  25.803  24.618  1.00  0.00    +0.000 H 
ATOM     95  C69 UNL A   1      35.988  23.877  24.868  1.00  0.00    +0.000 C 
ATOM     96  S1  UNL A   1      35.858  23.306  26.580  1.00  0.00    +0.000 S 
BRANCH   17   16
ATOM      6  C6  UNL A   1      31.990  22.442  25.427  1.00  0.00    +0.000 C 
ATOM      7  N1  UNL A   1      31.589  21.187  25.114  1.00  0.00    +0.000 N 
ATOM      8  N2  UNL A   1      32.675  20.409  25.358  1.00  0.00    +0.000 N 
ATOM    109  H11 UNL A   1      34.489  20.670  26.463  1.00  0.00    +0.000 H 
ATOM     15  C13 UNL A   1      33.639  21.082  26.045  1.00  0.00    +0.000 C 
ATOM     16  C14 UNL A   1      33.276  22.411  26.084  1.00  0.00    +0.000 C 
BRANCH    6    5
ATOM     97  C70 UNL A   1      30.748  24.545  26.026  1.00  0.00    +0.000 C 
ATOM      2  C2  UNL A   1      29.711  25.958  24.320  1.00  0.00    +0.000 C 
ATOM      3  C3  UNL A   1      30.095  25.030  23.356  1.00  0.00    +0.000 C 
ATOM      4  C4  UNL A   1      30.816  23.890  23.727  1.00  0.00    +0.000 C 
ATOM     98  C71 UNL A   1      30.026  25.697  25.660  1.00  0.00    +0.000 C 
ATOM    102  H4  UNL A   1      29.845  25.182  22.367  1.00  0.00    +0.000 H 
ATOM      5  C5  UNL A   1      31.185  23.634  25.059  1.00  0.00    +0.000 C 
ATOM    103  H5  UNL A   1      31.088  23.214  22.996  1.00  0.00    +0.000 H 
ATOM    144  H46 UNL A   1      30.959  24.371  27.021  1.00  0.00    +0.000 H 
ATOM    145  H47 UNL A   1      29.722  26.360  26.390  1.00  0.00    +0.000 H 
BRANCH    2    1
ATOM      1  C1  UNL A   1      28.978  27.195  23.894  1.00  0.00    +0.000 C 
ATOM     99  H1  UNL A   1      29.466  28.058  24.299  1.00  0.00    +0.000 H 
ATOM    100  H2  UNL A   1      27.970  27.154  24.252  1.00  0.00    +0.000 H 
ATOM    101  H3  UNL A   1      28.973  27.257  22.826  1.00  0.00    +0.000 H 
ENDBRANCH    2    1
ENDBRANCH    6    5
BRANCH    8    9
ATOM    104  H6  UNL A   1      32.304  19.799  22.825  1.00  0.00    +0.000 H 
ATOM      9  C7  UNL A   1      32.874  19.142  24.760  1.00  0.00    +0.000 C 
ATOM     10  C8  UNL A   1      32.589  18.983  23.389  1.00  0.00    +0.000 C 
ATOM     11  C9  UNL A   1      32.692  17.727  22.794  1.00  0.00    +0.000 C 
ATOM    108  H10 UNL A   1      33.535  18.174  26.518  1.00  0.00    +0.000 H 
ATOM     13  C11 UNL A   1      33.519  16.828  24.882  1.00  0.00    +0.000 C 
ATOM     14  C12 UNL A   1      33.333  18.064  25.512  1.00  0.00    +0.000 C 
ATOM    105  H7  UNL A   1      32.415  17.594  21.809  1.00  0.00    +0.000 H 
ATOM    107  H9  UNL A   1      33.915  16.039  25.414  1.00  0.00    +0.000 H 
ATOM     12  C10 UNL A   1      33.172  16.653  23.537  1.00  0.00    +0.000 C 
ATOM    106  H8  UNL A   1      33.273  15.726  23.097  1.00  0.00    +0.000 H 
ENDBRANCH    8    9
ENDBRANCH   17   16
ENDBRANCH   20   19
ENDBRANCH   22   20
ENDBRANCH   23   22
ENDBRANCH   24   23
ENDBRANCH   25   24
ENDBRANCH   26   25
ENDBRANCH   27   26
ENDBRANCH   28   27
ENDBRANCH   29   28
ENDBRANCH   30   29
ENDBRANCH   32   30
ENDBRANCH   36   35
BRANCH   40   41
ATOM     41  C33 UNL A   1      43.219  24.167  27.491  1.00  0.00    +0.000 C 
ATOM     42  C34 UNL A   1      43.978  24.515  26.349  1.00  0.00    +0.000 C 
ATOM     43  F1  UNL A   1      44.394  25.772  26.142  1.00  0.00    +0.000 F 
ATOM     44  C35 UNL A   1      44.323  23.590  25.356  1.00  0.00    +0.000 C 
ATOM     45  F2  UNL A   1      44.992  24.001  24.269  1.00  0.00    +0.000 F 
ATOM     46  C36 UNL A   1      43.962  22.266  25.473  1.00  0.00    +0.000 C 
ATOM     47  F3  UNL A   1      44.277  21.381  24.518  1.00  0.00    +0.000 F 
ATOM     48  C37 UNL A   1      43.261  21.867  26.585  1.00  0.00    +0.000 C 
ATOM     49  F4  UNL A   1      42.902  20.583  26.728  1.00  0.00    +0.000 F 
ATOM     50  C38 UNL A   1      42.887  22.797  27.561  1.00  0.00    +0.000 C 
ATOM     51  F5  UNL A   1      42.155  22.278  28.546  1.00  0.00    +0.000 F 
ENDBRANCH   40   41
BRANCH   57   58
ATOM     65  C48 UNL A   1      44.180  24.401  35.170  1.00  0.00    +0.000 C 
ATOM     66  F9  UNL A   1      43.321  23.566  35.772  1.00  0.00    +0.000 F 
ATOM     67  C49 UNL A   1      43.696  25.427  34.361  1.00  0.00    +0.000 C 
ATOM     68  F10 UNL A   1      42.364  25.564  34.280  1.00  0.00    +0.000 F 
ATOM     58  C44 UNL A   1      44.559  26.298  33.670  1.00  0.00    +0.000 C 
ATOM     59  C45 UNL A   1      45.936  26.113  33.872  1.00  0.00    +0.000 C 
ATOM     60  F6  UNL A   1      46.828  26.891  33.241  1.00  0.00    +0.000 F 
ATOM     61  C46 UNL A   1      46.417  25.113  34.718  1.00  0.00    +0.000 C 
ATOM     62  F7  UNL A   1      47.737  24.983  34.911  1.00  0.00    +0.000 F 
ATOM     63  C47 UNL A   1      45.542  24.247  35.351  1.00  0.00    +0.000 C 
ATOM     64  F8  UNL A   1      46.009  23.268  36.139  1.00  0.00    +0.000 F 
ENDBRANCH   57   58
BRANCH   72   73
ATOM     73  C53 UNL A   1      39.987  31.732  32.544  1.00  0.00    +0.000 C 
ATOM     74  C54 UNL A   1      39.730  33.110  32.404  1.00  0.00    +0.000 C 
ATOM     75  F11 UNL A   1      40.739  33.959  32.154  1.00  0.00    +0.000 F 
ATOM     76  C55 UNL A   1      38.429  33.603  32.404  1.00  0.00    +0.000 C 
ATOM     77  F12 UNL A   1      38.207  34.903  32.162  1.00  0.00    +0.000 F 
ATOM     78  C56 UNL A   1      37.363  32.737  32.581  1.00  0.00    +0.000 C 
ATOM     79  F13 UNL A   1      36.106  33.192  32.492  1.00  0.00    +0.000 F 
ATOM     80  C57 UNL A   1      37.601  31.390  32.813  1.00  0.00    +0.000 C 
ATOM     81  F14 UNL A   1      36.568  30.548  32.960  1.00  0.00    +0.000 F 
ATOM     82  C58 UNL A   1      38.903  30.889  32.801  1.00  0.00    +0.000 C 
ATOM     83  F15 UNL A   1      39.087  29.566  32.924  1.00  0.00    +0.000 F 
ENDBRANCH   72   73
TORSDOF 19
ENDMDL
MODEL 2
REMARK VINA RESULT:     -12.1      3.079      9.465
ROOT
ATOM    130  H32 UNL A   1      39.472  32.387  32.908  1.00  0.00    +0.000 H 
ATOM    131  H33 UNL A   1      42.035  33.000  32.762  1.00  0.00    +0.000 H 
ATOM    132  H34 UNL A   1      40.383  33.369  29.002  1.00  0.00    +0.000 H 
ATOM    133  H35 UNL A   1      42.937  29.718  32.273  1.00  0.00    +0.000 H 
ATOM    134  H36 UNL A   1      40.505  29.610  31.501  1.00  0.00    +0.000 H 
ATOM    135  H37 UNL A   1      42.679  26.731  29.451  1.00  0.00    +0.000 H 
ATOM    136  H38 UNL A   1      46.365  30.976  28.495  1.00  0.00    +0.000 H 
ATOM    137  H39 UNL A   1      45.468  33.390  28.546  1.00  0.00    +0.000 H 
ATOM    138  H40 UNL A   1      36.705  30.958  27.915  1.00  0.00    +0.000 H 
ATOM    139  H41 UNL A   1      37.727  28.643  27.456  1.00  0.00    +0.000 H 
ATOM     36  C29 UNL A   1      40.280  28.323  28.892  1.00  0.00    +0.000 C 
ATOM     37  C30 UNL A   1      39.319  29.441  28.848  1.00  0.00    +0.000 C 
ATOM     38  N6  UNL A   1      39.516  30.583  29.417  1.00  0.00    +0.000 N 
ATOM     39  C31 UNL A   1      38.360  31.314  29.308  1.00  0.00    +0.000 C 
ATOM     40  C32 UNL A   1      38.178  32.375  30.144  1.00  0.00    +0.000 C 
ATOM     52  C39 UNL A   1      39.442  32.763  30.782  1.00  0.00    +0.000 C 
ATOM     53  C40 UNL A   1      39.983  32.659  32.053  1.00  0.00    +0.000 C 
ATOM     54  C41 UNL A   1      41.369  32.994  31.974  1.00  0.00    +0.000 C 
ATOM     55  C42 UNL A   1      41.663  33.310  30.660  1.00  0.00    +0.000 C 
ATOM     56  N7  UNL A   1      40.479  33.184  29.964  1.00  0.00    +0.000 N 
ATOM     57  C43 UNL A   1      42.875  33.643  29.932  1.00  0.00    +0.000 C 
ATOM     69  C50 UNL A   1      43.762  32.633  29.712  1.00  0.00    +0.000 C 
ATOM     70  N8  UNL A   1      43.538  31.354  30.141  1.00  0.00    +0.000 N 
ATOM     71  C51 UNL A   1      44.473  30.576  29.669  1.00  0.00    +0.000 C 
ATOM     72  C52 UNL A   1      44.449  29.069  29.764  1.00  0.00    +0.000 C 
ATOM     84  C59 UNL A   1      43.383  28.549  30.436  1.00  0.00    +0.000 C 
ATOM     85  C60 UNL A   1      42.586  29.243  31.426  1.00  0.00    +0.000 C 
ATOM     86  C61 UNL A   1      41.307  29.153  31.038  1.00  0.00    +0.000 C 
ATOM     87  C62 UNL A   1      41.235  28.303  29.852  1.00  0.00    +0.000 C 
ATOM     88  N9  UNL A   1      42.482  27.624  29.816  1.00  0.00    +0.000 N 
ATOM     89  C63 UNL A   1      45.497  31.322  28.933  1.00  0.00    +0.000 C 
ATOM     90  C64 UNL A   1      45.010  32.573  28.979  1.00  0.00    +0.000 C 
ATOM     91  C65 UNL A   1      37.570  30.592  28.341  1.00  0.00    +0.000 C 
ATOM     92  C66 UNL A   1      38.093  29.394  28.062  1.00  0.00    +0.000 C 
ENDROOT
BRANCH   36   35
ATOM     33  C26 UNL A   1      41.023  26.042  26.043  1.00  0.00    +0.000 C 
ATOM     34  C27 UNL A   1      40.753  27.246  26.682  1.00  0.00    +0.000 C 
ATOM    129  H31 UNL A   1      40.979  28.145  26.229  1.00  0.00    +0.000 H 
ATOM     35  C28 UNL A   1      40.168  27.214  27.949  1.00  0.00    +0.000 C 
ATOM    140  H42 UNL A   1      39.026  26.053  29.304  1.00  0.00    +0.000 H 
ATOM    141  H43 UNL A   1      39.304  23.978  28.056  1.00  0.00    +0.000 H 
ATOM    128  H30 UNL A   1      41.479  26.025  25.118  1.00  0.00    +0.000 H 
ATOM     93  C67 UNL A   1      39.593  26.033  28.442  1.00  0.00    +0.000 C 
ATOM     94  C68 UNL A   1      39.788  24.843  27.767  1.00  0.00    +0.000 C 
ATOM     32  C25 UNL A   1      40.662  24.854  26.684  1.00  0.00    +0.000 C 
BRANCH   32   30
ATOM     30  C24 UNL A   1      41.573  23.697  26.511  1.00  0.00    +0.000 C 
ATOM     31  O2  UNL A   1      42.502  23.755  25.740  1.00  0.00    +0.000 O 
BRANCH   30   29
ATOM     29  N5  UNL A   1      41.345  22.597  27.340  1.00  0.00    +0.000 N 
ATOM    127  H29 UNL A   1      41.551  22.724  28.294  1.00  0.00    +0.000 H 
BRANCH   29   28
ATOM     28  C23 UNL A   1      40.833  21.270  26.961  1.00  0.00    +0.000 C 
ATOM    125  H27 UNL A   1      41.651  20.700  26.573  1.00  0.00    +0.000 H 
ATOM    126  H28 UNL A   1      40.403  20.855  27.848  1.00  0.00    +0.000 H 
BRANCH   28   27
ATOM     27  C22 UNL A   1      39.721  21.273  25.914  1.00  0.00    +0.000 C 
ATOM    124  H26 UNL A   1      39.512  20.238  25.747  1.00  0.00    +0.000 H 
ATOM    123  H25 UNL A   1      40.084  21.819  25.067  1.00  0.00    +0.000 H 
BRANCH   27   26
ATOM    121  H23 UNL A   1      37.714  21.061  26.525  1.00  0.00    +0.000 H 
ATOM     26  C21 UNL A   1      38.369  21.876  26.296  1.00  0.00    +0.000 C 
ATOM    122  H24 UNL A   1      38.597  22.538  27.105  1.00  0.00    +0.000 H 
BRANCH   26   25
ATOM     25  C20 UNL A   1      37.647  22.766  25.272  1.00  0.00    +0.000 C 
ATOM    119  H21 UNL A   1      36.957  23.358  25.836  1.00  0.00    +0.000 H 
ATOM    120  H22 UNL A   1      38.477  23.221  24.774  1.00  0.00    +0.000 H 
BRANCH   25   24
ATOM    117  H19 UNL A   1      37.493  21.527  23.567  1.00  0.00    +0.000 H 
ATOM    118  H20 UNL A   1      35.957  21.853  24.540  1.00  0.00    +0.000 H 
ATOM     24  C19 UNL A   1      36.844  22.217  24.067  1.00  0.00    +0.000 C 
BRANCH   24   23
ATOM    115  H17 UNL A   1      36.647  24.114  23.157  1.00  0.00    +0.000 H 
ATOM    116  H18 UNL A   1      36.580  22.685  22.057  1.00  0.00    +0.000 H 
ATOM     23  C18 UNL A   1      36.272  23.128  22.981  1.00  0.00    +0.000 C 
BRANCH   23   22
ATOM    114  H16 UNL A   1      34.324  22.379  22.769  1.00  0.00    +0.000 H 
ATOM     22  N4  UNL A   1      34.822  23.220  22.887  1.00  0.00    +0.000 N 
BRANCH   22   20
ATOM     20  C17 UNL A   1      34.088  24.384  22.948  1.00  0.00    +0.000 C 
ATOM     21  O1  UNL A   1      34.656  25.340  23.499  1.00  0.00    +0.000 O 
BRANCH   20   19
ATOM    110  H12 UNL A   1      29.710  25.453  23.436  1.00  0.00    +0.000 H 
ATOM    111  H13 UNL A   1      30.891  23.739  22.429  1.00  0.00    +0.000 H 
ATOM    112  H14 UNL A   1      31.740  23.887  23.863  1.00  0.00    +0.000 H 
ATOM     17  C15 UNL A   1      30.762  25.585  23.297  1.00  0.00    +0.000 C 
ATOM     18  N3  UNL A   1      31.489  24.348  22.989  1.00  0.00    +0.000 N 
ATOM     19  C16 UNL A   1      32.729  24.648  22.232  1.00  0.00    +0.000 C 
ATOM    142  H44 UNL A   1      32.895  25.993  20.552  1.00  0.00    +0.000 H 
ATOM    143  H45 UNL A   1      33.425  26.697  22.030  1.00  0.00    +0.000 H 
ATOM    113  H15 UNL A   1      32.715  23.903  21.463  1.00  0.00    +0.000 H 
ATOM     95  C69 UNL A   1      32.688  26.050  21.600  1.00  0.00    +0.000 C 
ATOM     96  S1  UNL A   1      31.011  26.667  21.880  1.00  0.00    +0.000 S 
BRANCH   17   16
ATOM      6  C6  UNL A   1      31.851  25.409  25.702  1.00  0.00    +0.000 C 
ATOM      7  N1  UNL A   1      32.165  26.263  26.705  1.00  0.00    +0.000 N 
ATOM      8  N2  UNL A   1      31.998  27.500  26.169  1.00  0.00    +0.000 N 
ATOM    109  H11 UNL A   1      30.992  28.260  24.441  1.00  0.00    +0.000 H 
ATOM     15  C13 UNL A   1      31.353  27.451  24.971  1.00  0.00    +0.000 C 
ATOM     16  C14 UNL A   1      31.268  26.128  24.593  1.00  0.00    +0.000 C 
BRANCH    6    5
ATOM     97  C70 UNL A   1      31.163  22.995  25.554  1.00  0.00    +0.000 C 
ATOM      2  C2  UNL A   1      32.766  21.177  25.880  1.00  0.00    +0.000 C 
ATOM      3  C3  UNL A   1      33.743  22.126  26.169  1.00  0.00    +0.000 C 
ATOM      4  C4  UNL A   1      33.432  23.489  26.124  1.00  0.00    +0.000 C 
ATOM     98  C71 UNL A   1      31.469  21.621  25.592  1.00  0.00    +0.000 C 
ATOM    102  H4  UNL A   1      34.697  21.823  26.418  1.00  0.00    +0.000 H 
ATOM      5  C5  UNL A   1      32.150  23.958  25.789  1.00  0.00    +0.000 C 
ATOM    103  H5  UNL A   1      34.172  24.175  26.344  1.00  0.00    +0.000 H 
ATOM    144  H46 UNL A   1      30.198  23.296  25.348  1.00  0.00    +0.000 H 
ATOM    145  H47 UNL A   1      30.727  20.930  25.406  1.00  0.00    +0.000 H 
BRANCH    2    1
ATOM      1  C1  UNL A   1      33.133  19.723  25.890  1.00  0.00    +0.000 C 
ATOM     99  H1  UNL A   1      32.243  19.129  25.837  1.00  0.00    +0.000 H 
ATOM    100  H2  UNL A   1      33.661  19.494  26.792  1.00  0.00    +0.000 H 
ATOM    101  H3  UNL A   1      33.756  19.506  25.047  1.00  0.00    +0.000 H 
ENDBRANCH    2    1
ENDBRANCH    6    5
BRANCH    8    9
ATOM    104  H6  UNL A   1      30.913  29.882  26.445  1.00  0.00    +0.000 H 
ATOM      9  C7  UNL A   1      32.631  28.659  26.676  1.00  0.00    +0.000 C 
ATOM     10  C8  UNL A   1      31.908  29.867  26.720  1.00  0.00    +0.000 C 
ATOM     11  C9  UNL A   1      32.533  31.042  27.132  1.00  0.00    +0.000 C 
ATOM    108  H10 UNL A   1      34.486  27.732  27.080  1.00  0.00    +0.000 H 
ATOM     13  C11 UNL A   1      34.540  29.782  27.615  1.00  0.00    +0.000 C 
ATOM     14  C12 UNL A   1      33.950  28.614  27.118  1.00  0.00    +0.000 C 
ATOM    105  H7  UNL A   1      32.026  31.942  27.095  1.00  0.00    +0.000 H 
ATOM    107  H9  UNL A   1      35.496  29.747  27.999  1.00  0.00    +0.000 H 
ATOM     12  C10 UNL A   1      33.844  30.996  27.595  1.00  0.00    +0.000 C 
ATOM    106  H8  UNL A   1      34.306  31.858  27.924  1.00  0.00    +0.000 H 
ENDBRANCH    8    9
ENDBRANCH   17   16
ENDBRANCH   20   19
ENDBRANCH   22   20
ENDBRANCH   23   22
ENDBRANCH   24   23
ENDBRANCH   25   24
ENDBRANCH   26   25
ENDBRANCH   27   26
ENDBRANCH   28   27
ENDBRANCH   29   28
ENDBRANCH   30   29
ENDBRANCH   32   30
ENDBRANCH   36   35
BRANCH   40   41
ATOM     41  C33 UNL A   1      36.840  32.990  30.524  1.00  0.00    +0.000 C 
ATOM     42  C34 UNL A   1      36.045  33.617  29.535  1.00  0.00    +0.000 C 
ATOM     43  F1  UNL A   1      36.379  33.574  28.238  1.00  0.00    +0.000 F 
ATOM     44  C35 UNL A   1      34.883  34.336  29.839  1.00  0.00    +0.000 C 
ATOM     45  F2  UNL A   1      34.211  34.957  28.859  1.00  0.00    +0.000 F 
ATOM     46  C36 UNL A   1      34.435  34.432  31.139  1.00  0.00    +0.000 C 
ATOM     47  F3  UNL A   1      33.332  35.131  31.436  1.00  0.00    +0.000 F 
ATOM     48  C37 UNL A   1      35.148  33.804  32.132  1.00  0.00    +0.000 C 
ATOM     49  F4  UNL A   1      34.732  33.875  33.405  1.00  0.00    +0.000 F 
ATOM     50  C38 UNL A   1      36.327  33.114  31.833  1.00  0.00    +0.000 C 
ATOM     51  F5  UNL A   1      36.944  32.615  32.903  1.00  0.00    +0.000 F 
ENDBRANCH   40   41
BRANCH   57   58
ATOM     65  C48 UNL A   1      42.925  36.704  27.658  1.00  0.00    +0.000 C 
ATOM     66  F9  UNL A   1      42.665  36.989  26.374  1.00  0.00    +0.000 F 
ATOM     67  C49 UNL A   1      42.879  35.382  28.097  1.00  0.00    +0.000 C 
ATOM     68  F10 UNL A   1      42.636  34.440  27.173  1.00  0.00    +0.000 F 
ATOM     58  C44 UNL A   1      43.098  35.039  29.445  1.00  0.00    +0.000 C 
ATOM     59  C45 UNL A   1      43.409  36.091  30.320  1.00  0.00    +0.000 C 
ATOM     60  F6  UNL A   1      43.619  35.852  31.624  1.00  0.00    +0.000 F 
ATOM     61  C46 UNL A   1      43.498  37.409  29.870  1.00  0.00    +0.000 C 
ATOM     62  F7  UNL A   1      43.828  38.385  30.727  1.00  0.00    +0.000 F 
ATOM     63  C47 UNL A   1      43.238  37.717  28.545  1.00  0.00    +0.000 C 
ATOM     64  F8  UNL A   1      43.294  38.987  28.122  1.00  0.00    +0.000 F 
ENDBRANCH   57   58
BRANCH   72   73
ATOM     73  C53 UNL A   1      44.996  28.139  28.748  1.00  0.00    +0.000 C 
ATOM     74  C54 UNL A   1      45.804  27.072  29.186  1.00  0.00    +0.000 C 
ATOM     75  F11 UNL A   1      46.355  27.107  30.410  1.00  0.00    +0.000 F 
ATOM     76  C55 UNL A   1      45.953  25.920  28.421  1.00  0.00    +0.000 C 
ATOM     77  F12 UNL A   1      46.640  24.877  28.910  1.00  0.00    +0.000 F 
ATOM     78  C56 UNL A   1      45.331  25.825  27.188  1.00  0.00    +0.000 C 
ATOM     79  F13 UNL A   1      45.396  24.685  26.488  1.00  0.00    +0.000 F 
ATOM     80  C57 UNL A   1      44.606  26.903  26.698  1.00  0.00    +0.000 C 
ATOM     81  F14 UNL A   1      43.984  26.802  25.515  1.00  0.00    +0.000 F 
ATOM     82  C58 UNL A   1      44.444  28.055  27.467  1.00  0.00    +0.000 C 
ATOM     83  F15 UNL A   1      43.651  29.033  27.005  1.00  0.00    +0.000 F 
ENDBRANCH   72   73
TORSDOF 19
ENDMDL
MODEL 3
REMARK VINA RESULT:     -11.8      1.818      3.817
ROOT
ATOM    130  H32 UNL A   1      44.896  28.972  29.505  1.00  0.00    +0.000 H 
ATOM    131  H33 UNL A   1      44.962  29.640  32.057  1.00  0.00    +0.000 H 
ATOM    132  H34 UNL A   1      42.227  26.594  31.571  1.00  0.00    +0.000 H 
ATOM    133  H35 UNL A   1      42.606  32.108  31.617  1.00  0.00    +0.000 H 
ATOM    134  H36 UNL A   1      42.078  30.648  29.589  1.00  0.00    +0.000 H 
ATOM    135  H37 UNL A   1      38.602  32.574  30.783  1.00  0.00    +0.000 H 
ATOM    136  H38 UNL A   1      40.034  30.761  35.996  1.00  0.00    +0.000 H 
ATOM    137  H39 UNL A   1      41.531  28.673  36.181  1.00  0.00    +0.000 H 
ATOM    138  H40 UNL A   1      40.194  26.015  27.564  1.00  0.00    +0.000 H 
ATOM    139  H41 UNL A   1      38.413  27.871  27.620  1.00  0.00    +0.000 H 
ATOM     36  C29 UNL A   1      39.227  30.046  29.434  1.00  0.00    +0.000 C 
ATOM     37  C30 UNL A   1      39.901  28.791  29.051  1.00  0.00    +0.000 C 
ATOM     38  N6  UNL A   1      41.011  28.383  29.570  1.00  0.00    +0.000 N 
ATOM     39  C31 UNL A   1      41.422  27.277  28.870  1.00  0.00    +0.000 C 
ATOM     40  C32 UNL A   1      42.727  26.895  28.961  1.00  0.00    +0.000 C 
ATOM     52  C39 UNL A   1      43.387  27.547  30.099  1.00  0.00    +0.000 C 
ATOM     53  C40 UNL A   1      44.324  28.554  30.256  1.00  0.00    +0.000 C 
ATOM     54  C41 UNL A   1      44.362  28.913  31.638  1.00  0.00    +0.000 C 
ATOM     55  C42 UNL A   1      43.456  28.118  32.316  1.00  0.00    +0.000 C 
ATOM     56  N7  UNL A   1      42.896  27.287  31.369  1.00  0.00    +0.000 N 
ATOM     57  C43 UNL A   1      42.977  28.048  33.685  1.00  0.00    +0.000 C 
ATOM     69  C50 UNL A   1      42.155  29.050  34.104  1.00  0.00    +0.000 C 
ATOM     70  N8  UNL A   1      41.779  30.081  33.287  1.00  0.00    +0.000 N 
ATOM     71  C51 UNL A   1      40.884  30.805  33.899  1.00  0.00    +0.000 C 
ATOM     72  C52 UNL A   1      40.091  31.909  33.240  1.00  0.00    +0.000 C 
ATOM     84  C59 UNL A   1      40.407  32.147  31.935  1.00  0.00    +0.000 C 
ATOM     85  C60 UNL A   1      41.667  31.824  31.297  1.00  0.00    +0.000 C 
ATOM     86  C61 UNL A   1      41.384  31.090  30.213  1.00  0.00    +0.000 C 
ATOM     87  C62 UNL A   1      39.933  31.017  30.061  1.00  0.00    +0.000 C 
ATOM     88  N9  UNL A   1      39.428  32.051  30.894  1.00  0.00    +0.000 N 
ATOM     89  C63 UNL A   1      40.648  30.354  35.274  1.00  0.00    +0.000 C 
ATOM     90  C64 UNL A   1      41.441  29.272  35.346  1.00  0.00    +0.000 C 
ATOM     91  C65 UNL A   1      40.271  26.901  28.087  1.00  0.00    +0.000 C 
ATOM     92  C66 UNL A   1      39.316  27.836  28.119  1.00  0.00    +0.000 C 
ENDROOT
BRANCH   36   35
ATOM     33  C26 UNL A   1      36.160  30.663  27.413  1.00  0.00    +0.000 C 
ATOM     34  C27 UNL A   1      37.438  30.900  27.905  1.00  0.00    +0.000 C 
ATOM    129  H31 UNL A   1      38.086  31.529  27.407  1.00  0.00    +0.000 H 
ATOM     35  C28 UNL A   1      37.826  30.268  29.087  1.00  0.00    +0.000 C 
ATOM    140  H42 UNL A   1      37.141  29.333  30.861  1.00  0.00    +0.000 H 
ATOM    141  H43 UNL A   1      34.839  29.128  30.089  1.00  0.00    +0.000 H 
ATOM    128  H30 UNL A   1      35.847  31.091  26.528  1.00  0.00    +0.000 H 
ATOM     93  C67 UNL A   1      36.874  29.656  29.919  1.00  0.00    +0.000 C 
ATOM     94  C68 UNL A   1      35.578  29.491  29.468  1.00  0.00    +0.000 C 
ATOM     32  C25 UNL A   1      35.308  29.832  28.146  1.00  0.00    +0.000 C 
BRANCH   32   30
ATOM     30  C24 UNL A   1      34.401  28.954  27.370  1.00  0.00    +0.000 C 
ATOM     31  O2  UNL A   1      34.838  28.217  26.517  1.00  0.00    +0.000 O 
BRANCH   30   29
ATOM     29  N5  UNL A   1      33.055  28.968  27.741  1.00  0.00    +0.000 N 
ATOM    127  H29 UNL A   1      32.830  28.499  28.576  1.00  0.00    +0.000 H 
BRANCH   29   28
ATOM     28  C23 UNL A   1      31.930  29.602  27.034  1.00  0.00    +0.000 C 
ATOM    125  H27 UNL A   1      31.146  28.879  26.947  1.00  0.00    +0.000 H 
ATOM    126  H28 UNL A   1      31.662  30.460  27.615  1.00  0.00    +0.000 H 
BRANCH   28   27
ATOM     27  C22 UNL A   1      32.249  30.124  25.634  1.00  0.00    +0.000 C 
ATOM    124  H26 UNL A   1      33.312  30.238  25.630  1.00  0.00    +0.000 H 
ATOM    123  H25 UNL A   1      31.681  31.021  25.493  1.00  0.00    +0.000 H 
BRANCH   27   26
ATOM    121  H23 UNL A   1      31.920  29.837  23.571  1.00  0.00    +0.000 H 
ATOM     26  C21 UNL A   1      31.961  29.214  24.439  1.00  0.00    +0.000 C 
ATOM    122  H24 UNL A   1      32.749  28.491  24.465  1.00  0.00    +0.000 H 
BRANCH   26   25
ATOM     25  C20 UNL A   1      30.676  28.370  24.453  1.00  0.00    +0.000 C 
ATOM    119  H21 UNL A   1      30.055  28.799  25.212  1.00  0.00    +0.000 H 
ATOM    120  H22 UNL A   1      30.389  28.416  23.423  1.00  0.00    +0.000 H 
BRANCH   25   24
ATOM    117  H19 UNL A   1      29.616  26.570  24.769  1.00  0.00    +0.000 H 
ATOM    118  H20 UNL A   1      31.237  26.476  23.886  1.00  0.00    +0.000 H 
ATOM     24  C19 UNL A   1      30.650  26.843  24.701  1.00  0.00    +0.000 C 
BRANCH   24   23
ATOM    115  H17 UNL A   1      31.564  26.973  26.603  1.00  0.00    +0.000 H 
ATOM    116  H18 UNL A   1      30.651  25.456  26.253  1.00  0.00    +0.000 H 
ATOM     23  C18 UNL A   1      31.340  26.196  25.902  1.00  0.00    +0.000 C 
BRANCH   23   22
ATOM    114  H16 UNL A   1      33.076  25.145  26.430  1.00  0.00    +0.000 H 
ATOM     22  N4  UNL A   1      32.574  25.468  25.647  1.00  0.00    +0.000 N 
BRANCH   22   20
ATOM     20  C17 UNL A   1      33.101  25.195  24.404  1.00  0.00    +0.000 C 
ATOM     21  O1  UNL A   1      34.155  25.790  24.133  1.00  0.00    +0.000 O 
BRANCH   20   19
ATOM    110  H12 UNL A   1      34.086  21.293  22.316  1.00  0.00    +0.000 H 
ATOM    111  H13 UNL A   1      33.391  23.396  21.650  1.00  0.00    +0.000 H 
ATOM    112  H14 UNL A   1      34.542  23.807  22.792  1.00  0.00    +0.000 H 
ATOM     17  C15 UNL A   1      33.720  21.961  23.067  1.00  0.00    +0.000 C 
ATOM     18  N3  UNL A   1      33.637  23.362  22.639  1.00  0.00    +0.000 N 
ATOM     19  C16 UNL A   1      32.608  24.086  23.425  1.00  0.00    +0.000 C 
ATOM    142  H44 UNL A   1      30.620  23.372  23.872  1.00  0.00    +0.000 H 
ATOM    143  H45 UNL A   1      31.717  23.165  25.181  1.00  0.00    +0.000 H 
ATOM    113  H15 UNL A   1      32.093  24.644  22.670  1.00  0.00    +0.000 H 
ATOM     95  C69 UNL A   1      31.631  23.119  24.115  1.00  0.00    +0.000 C 
ATOM     96  S1  UNL A   1      32.038  21.474  23.482  1.00  0.00    +0.000 S 
BRANCH   17   16
ATOM      6  C6  UNL A   1      34.930  20.746  25.082  1.00  0.00    +0.000 C 
ATOM      7  N1  UNL A   1      35.888  21.058  25.987  1.00  0.00    +0.000 N 
ATOM      8  N2  UNL A   1      36.400  22.239  25.554  1.00  0.00    +0.000 N 
ATOM    109  H11 UNL A   1      35.741  23.745  24.185  1.00  0.00    +0.000 H 
ATOM     15  C13 UNL A   1      35.636  22.794  24.574  1.00  0.00    +0.000 C 
ATOM     16  C14 UNL A   1      34.695  21.860  24.194  1.00  0.00    +0.000 C 
BRANCH    6    5
ATOM     97  C70 UNL A   1      34.907  18.335  24.369  1.00  0.00    +0.000 C 
ATOM      2  C2  UNL A   1      33.118  16.810  25.044  1.00  0.00    +0.000 C 
ATOM      3  C3  UNL A   1      32.481  17.877  25.670  1.00  0.00    +0.000 C 
ATOM      4  C4  UNL A   1      33.067  19.147  25.663  1.00  0.00    +0.000 C 
ATOM     98  C71 UNL A   1      34.325  17.053  24.376  1.00  0.00    +0.000 C 
ATOM    102  H4  UNL A   1      31.574  17.732  26.139  1.00  0.00    +0.000 H 
ATOM      5  C5  UNL A   1      34.302  19.402  25.041  1.00  0.00    +0.000 C 
ATOM    103  H5  UNL A   1      32.575  19.924  26.132  1.00  0.00    +0.000 H 
ATOM    144  H46 UNL A   1      35.792  18.490  23.862  1.00  0.00    +0.000 H 
ATOM    145  H47 UNL A   1      34.794  16.279  23.881  1.00  0.00    +0.000 H 
BRANCH    2    1
ATOM      1  C1  UNL A   1      32.493  15.447  25.103  1.00  0.00    +0.000 C 
ATOM     99  H1  UNL A   1      32.542  15.074  26.105  1.00  0.00    +0.000 H 
ATOM    100  H2  UNL A   1      33.019  14.785  24.448  1.00  0.00    +0.000 H 
ATOM    101  H3  UNL A   1      31.469  15.511  24.797  1.00  0.00    +0.000 H 
ENDBRANCH    2    1
ENDBRANCH    6    5
BRANCH    8    9
ATOM    104  H6  UNL A   1      38.619  20.823  25.580  1.00  0.00    +0.000 H 
ATOM      9  C7  UNL A   1      37.690  22.702  25.905  1.00  0.00    +0.000 C 
ATOM     10  C8  UNL A   1      38.766  21.794  25.900  1.00  0.00    +0.000 C 
ATOM     11  C9  UNL A   1      40.029  22.202  26.325  1.00  0.00    +0.000 C 
ATOM    108  H10 UNL A   1      37.107  24.699  26.275  1.00  0.00    +0.000 H 
ATOM     13  C11 UNL A   1      39.186  24.452  26.601  1.00  0.00    +0.000 C 
ATOM     14  C12 UNL A   1      37.895  24.032  26.262  1.00  0.00    +0.000 C 
ATOM    105  H7  UNL A   1      40.801  21.520  26.391  1.00  0.00    +0.000 H 
ATOM    107  H9  UNL A   1      39.361  25.447  26.809  1.00  0.00    +0.000 H 
ATOM     12  C10 UNL A   1      40.242  23.536  26.661  1.00  0.00    +0.000 C 
ATOM    106  H8  UNL A   1      41.180  23.850  26.954  1.00  0.00    +0.000 H 
ENDBRANCH    8    9
ENDBRANCH   17   16
ENDBRANCH   20   19
ENDBRANCH   22   20
ENDBRANCH   23   22
ENDBRANCH   24   23
ENDBRANCH   25   24
ENDBRANCH   26   25
ENDBRANCH   27   26
ENDBRANCH   28   27
ENDBRANCH   29   28
ENDBRANCH   30   29
ENDBRANCH   32   30
ENDBRANCH   36   35
BRANCH   40   41
ATOM     41  C33 UNL A   1      43.481  26.050  27.945  1.00  0.00    +0.000 C 
ATOM     42  C34 UNL A   1      44.173  26.675  26.882  1.00  0.00    +0.000 C 
ATOM     43  F1  UNL A   1      44.292  28.009  26.812  1.00  0.00    +0.000 F 
ATOM     44  C35 UNL A   1      44.754  25.958  25.828  1.00  0.00    +0.000 C 
ATOM     45  F2  UNL A   1      45.343  26.618  24.821  1.00  0.00    +0.000 F 
ATOM     46  C36 UNL A   1      44.707  24.582  25.805  1.00  0.00    +0.000 C 
ATOM     47  F3  UNL A   1      45.249  23.892  24.793  1.00  0.00    +0.000 F 
ATOM     48  C37 UNL A   1      44.084  23.923  26.838  1.00  0.00    +0.000 C 
ATOM     49  F4  UNL A   1      44.029  22.583  26.845  1.00  0.00    +0.000 F 
ATOM     50  C38 UNL A   1      43.475  24.641  27.872  1.00  0.00    +0.000 C 
ATOM     51  F5  UNL A   1      42.853  23.872  28.766  1.00  0.00    +0.000 F 
ENDBRANCH   40   41
BRANCH   57   58
ATOM     65  C48 UNL A   1      42.827  24.758  35.607  1.00  0.00    +0.000 C 
ATOM     66  F9  UNL A   1      41.913  23.820  35.895  1.00  0.00    +0.000 F 
ATOM     67  C49 UNL A   1      42.442  25.913  34.928  1.00  0.00    +0.000 C 
ATOM     68  F10 UNL A   1      41.136  26.053  34.652  1.00  0.00    +0.000 F 
ATOM     58  C44 UNL A   1      43.372  26.903  34.561  1.00  0.00    +0.000 C 
ATOM     59  C45 UNL A   1      44.704  26.694  34.954  1.00  0.00    +0.000 C 
ATOM     60  F6  UNL A   1      45.656  27.582  34.633  1.00  0.00    +0.000 F 
ATOM     61  C46 UNL A   1      45.079  25.558  35.672  1.00  0.00    +0.000 C 
ATOM     62  F7  UNL A   1      46.353  25.404  36.057  1.00  0.00    +0.000 F 
ATOM     63  C47 UNL A   1      44.145  24.583  35.982  1.00  0.00    +0.000 C 
ATOM     64  F8  UNL A   1      44.514  23.479  36.646  1.00  0.00    +0.000 F 
ENDBRANCH   57   58
BRANCH   72   73
ATOM     73  C53 UNL A   1      38.691  32.269  33.565  1.00  0.00    +0.000 C 
ATOM     74  C54 UNL A   1      38.399  33.615  33.859  1.00  0.00    +0.000 C 
ATOM     75  F11 UNL A   1      39.390  34.458  34.192  1.00  0.00    +0.000 F 
ATOM     76  C55 UNL A   1      37.115  34.125  33.701  1.00  0.00    +0.000 C 
ATOM     77  F12 UNL A   1      36.888  35.434  33.884  1.00  0.00    +0.000 F 
ATOM     78  C56 UNL A   1      36.089  33.294  33.282  1.00  0.00    +0.000 C 
ATOM     79  F13 UNL A   1      34.872  33.799  33.041  1.00  0.00    +0.000 F 
ATOM     80  C57 UNL A   1      36.337  31.944  33.077  1.00  0.00    +0.000 C 
ATOM     81  F14 UNL A   1      35.350  31.145  32.649  1.00  0.00    +0.000 F 
ATOM     82  C58 UNL A   1      37.626  31.431  33.223  1.00  0.00    +0.000 C 
ATOM     83  F15 UNL A   1      37.847  30.145  32.914  1.00  0.00    +0.000 F 
ENDBRANCH   72   73
TORSDOF 19
ENDMDL
MODEL 4
REMARK VINA RESULT:     -11.7     23.073     30.100
ROOT
ATOM    130  H32 UNL A   1      18.535  38.123  45.897  1.00  0.00    +0.000 H 
ATOM    131  H33 UNL A   1      19.666  36.748  43.949  1.00  0.00    +0.000 H 
ATOM    132  H34 UNL A   1      19.342  34.309  47.258  1.00  0.00    +0.000 H 
ATOM    133  H35 UNL A   1      22.810  37.848  44.807  1.00  0.00    +0.000 H 
ATOM    134  H36 UNL A   1      21.610  38.207  47.033  1.00  0.00    +0.000 H 
ATOM    135  H37 UNL A   1      25.619  37.447  47.790  1.00  0.00    +0.000 H 
ATOM    136  H38 UNL A   1      24.904  33.067  44.211  1.00  0.00    +0.000 H 
ATOM    137  H39 UNL A   1      22.529  32.109  43.931  1.00  0.00    +0.000 H 
ATOM    138  H40 UNL A   1      19.201  36.143  51.398  1.00  0.00    +0.000 H 
ATOM    139  H41 UNL A   1      21.682  36.693  51.800  1.00  0.00    +0.000 H 
ATOM     36  C29 UNL A   1      23.106  37.025  49.243  1.00  0.00    +0.000 C 
ATOM     37  C30 UNL A   1      21.693  36.729  49.540  1.00  0.00    +0.000 C 
ATOM     38  N6  UNL A   1      20.808  36.461  48.639  1.00  0.00    +0.000 N 
ATOM     39  C31 UNL A   1      19.584  36.399  49.255  1.00  0.00    +0.000 C 
ATOM     40  C32 UNL A   1      18.462  36.514  48.489  1.00  0.00    +0.000 C 
ATOM     52  C39 UNL A   1      18.774  36.325  47.068  1.00  0.00    +0.000 C 
ATOM     53  C40 UNL A   1      18.858  37.144  45.954  1.00  0.00    +0.000 C 
ATOM     54  C41 UNL A   1      19.467  36.399  44.899  1.00  0.00    +0.000 C 
ATOM     55  C42 UNL A   1      19.742  35.128  45.371  1.00  0.00    +0.000 C 
ATOM     56  N7  UNL A   1      19.295  35.102  46.676  1.00  0.00    +0.000 N 
ATOM     57  C43 UNL A   1      20.411  33.957  44.833  1.00  0.00    +0.000 C 
ATOM     69  C50 UNL A   1      21.766  34.022  44.709  1.00  0.00    +0.000 C 
ATOM     70  N8  UNL A   1      22.485  35.127  45.075  1.00  0.00    +0.000 N 
ATOM     71  C51 UNL A   1      23.757  34.858  44.984  1.00  0.00    +0.000 C 
ATOM     72  C52 UNL A   1      24.853  35.763  45.494  1.00  0.00    +0.000 C 
ATOM     84  C59 UNL A   1      24.427  36.941  46.032  1.00  0.00    +0.000 C 
ATOM     85  C60 UNL A   1      23.169  37.597  45.742  1.00  0.00    +0.000 C 
ATOM     86  C61 UNL A   1      22.559  37.817  46.914  1.00  0.00    +0.000 C 
ATOM     87  C62 UNL A   1      23.457  37.414  47.993  1.00  0.00    +0.000 C 
ATOM     88  N9  UNL A   1      24.734  37.306  47.382  1.00  0.00    +0.000 N 
ATOM     89  C63 UNL A   1      24.005  33.523  44.432  1.00  0.00    +0.000 C 
ATOM     90  C64 UNL A   1      22.756  33.049  44.291  1.00  0.00    +0.000 C 
ATOM     91  C65 UNL A   1      19.893  36.351  50.662  1.00  0.00    +0.000 C 
ATOM     92  C66 UNL A   1      21.184  36.606  50.900  1.00  0.00    +0.000 C 
ENDROOT
BRANCH   36   35
ATOM     33  C26 UNL A   1      26.065  35.921  51.217  1.00  0.00    +0.000 C 
ATOM     34  C27 UNL A   1      24.841  35.802  50.570  1.00  0.00    +0.000 C 
ATOM    129  H31 UNL A   1      24.477  34.875  50.298  1.00  0.00    +0.000 H 
ATOM     35  C28 UNL A   1      24.114  36.961  50.298  1.00  0.00    +0.000 C 
ATOM    140  H42 UNL A   1      23.816  38.989  50.834  1.00  0.00    +0.000 H 
ATOM    141  H43 UNL A   1      25.852  39.132  52.167  1.00  0.00    +0.000 H 
ATOM    128  H30 UNL A   1      26.643  35.088  51.411  1.00  0.00    +0.000 H 
ATOM     93  C67 UNL A   1      24.447  38.177  50.914  1.00  0.00    +0.000 C 
ATOM     94  C68 UNL A   1      25.625  38.281  51.630  1.00  0.00    +0.000 C 
ATOM     32  C25 UNL A   1      26.495  37.194  51.599  1.00  0.00    +0.000 C 
BRANCH   32   30
ATOM     30  C24 UNL A   1      27.948  37.467  51.502  1.00  0.00    +0.000 C 
ATOM     31  O2  UNL A   1      28.741  36.558  51.419  1.00  0.00    +0.000 O 
BRANCH   30   29
ATOM     29  N5  UNL A   1      28.325  38.809  51.424  1.00  0.00    +0.000 N 
ATOM    127  H29 UNL A   1      28.271  39.223  50.533  1.00  0.00    +0.000 H 
BRANCH   29   28
ATOM     28  C23 UNL A   1      28.793  39.680  52.514  1.00  0.00    +0.000 C 
ATOM    125  H27 UNL A   1      28.730  39.128  53.428  1.00  0.00    +0.000 H 
ATOM    126  H28 UNL A   1      29.790  39.969  52.254  1.00  0.00    +0.000 H 
BRANCH   28   27
ATOM     27  C22 UNL A   1      28.011  40.981  52.694  1.00  0.00    +0.000 C 
ATOM    124  H26 UNL A   1      28.611  41.560  53.363  1.00  0.00    +0.000 H 
ATOM    123  H25 UNL A   1      27.036  40.717  53.050  1.00  0.00    +0.000 H 
BRANCH   27   26
ATOM    121  H23 UNL A   1      28.676  42.525  51.422  1.00  0.00    +0.000 H 
ATOM     26  C21 UNL A   1      27.820  41.884  51.475  1.00  0.00    +0.000 C 
ATOM    122  H24 UNL A   1      27.690  41.203  50.661  1.00  0.00    +0.000 H 
BRANCH   26   25
ATOM     25  C20 UNL A   1      26.575  42.784  51.417  1.00  0.00    +0.000 C 
ATOM    119  H21 UNL A   1      26.713  43.521  52.180  1.00  0.00    +0.000 H 
ATOM    120  H22 UNL A   1      26.570  43.061  50.384  1.00  0.00    +0.000 H 
BRANCH   25   24
ATOM    117  H19 UNL A   1      24.796  41.975  50.614  1.00  0.00    +0.000 H 
ATOM    118  H20 UNL A   1      25.249  41.517  52.346  1.00  0.00    +0.000 H 
ATOM     24  C19 UNL A   1      25.127  42.264  51.591  1.00  0.00    +0.000 C 
BRANCH   24   23
ATOM    115  H17 UNL A   1      23.210  42.475  52.456  1.00  0.00    +0.000 H 
ATOM    116  H18 UNL A   1      24.468  43.652  52.994  1.00  0.00    +0.000 H 
ATOM     23  C18 UNL A   1      24.012  43.128  52.180  1.00  0.00    +0.000 C 
BRANCH   23   22
ATOM    114  H16 UNL A   1      22.501  44.100  51.100  1.00  0.00    +0.000 H 
ATOM     22  N4  UNL A   1      23.456  44.168  51.327  1.00  0.00    +0.000 N 
BRANCH   22   20
ATOM     20  C17 UNL A   1      24.152  45.237  50.810  1.00  0.00    +0.000 C 
ATOM     21  O1  UNL A   1      24.821  45.881  51.633  1.00  0.00    +0.000 O 
BRANCH   20   19
ATOM    110  H12 UNL A   1      24.409  43.607  46.587  1.00  0.00    +0.000 H 
ATOM    111  H13 UNL A   1      25.727  44.961  47.921  1.00  0.00    +0.000 H 
ATOM    112  H14 UNL A   1      25.293  43.783  49.026  1.00  0.00    +0.000 H 
ATOM     17  C15 UNL A   1      23.976  44.002  47.483  1.00  0.00    +0.000 C 
ATOM     18  N3  UNL A   1      24.953  44.542  48.436  1.00  0.00    +0.000 N 
ATOM     19  C16 UNL A   1      24.323  45.573  49.297  1.00  0.00    +0.000 C 
ATOM    142  H44 UNL A   1      23.040  47.175  48.626  1.00  0.00    +0.000 H 
ATOM    143  H45 UNL A   1      22.167  45.846  49.286  1.00  0.00    +0.000 H 
ATOM    113  H15 UNL A   1      25.062  46.348  49.306  1.00  0.00    +0.000 H 
ATOM     95  C69 UNL A   1      23.015  46.107  48.688  1.00  0.00    +0.000 C 
ATOM     96  S1  UNL A   1      22.913  45.382  47.033  1.00  0.00    +0.000 S 
BRANCH   17   16
ATOM      6  C6  UNL A   1      23.690  41.472  48.204  1.00  0.00    +0.000 C 
ATOM      7  N1  UNL A   1      22.758  40.732  48.849  1.00  0.00    +0.000 N 
ATOM      8  N2  UNL A   1      21.885  41.642  49.354  1.00  0.00    +0.000 N 
ATOM    109  H11 UNL A   1      21.478  43.705  48.961  1.00  0.00    +0.000 H 
ATOM     15  C13 UNL A   1      22.092  42.885  48.838  1.00  0.00    +0.000 C 
ATOM     16  C14 UNL A   1      23.270  42.851  48.121  1.00  0.00    +0.000 C 
BRANCH    6    5
ATOM     97  C70 UNL A   1      25.958  40.471  48.628  1.00  0.00    +0.000 C 
ATOM      2  C2  UNL A   1      27.375  39.673  46.802  1.00  0.00    +0.000 C 
ATOM      3  C3  UNL A   1      26.419  40.126  45.898  1.00  0.00    +0.000 C 
ATOM      4  C4  UNL A   1      25.240  40.719  46.360  1.00  0.00    +0.000 C 
ATOM     98  C71 UNL A   1      27.145  39.868  48.170  1.00  0.00    +0.000 C 
ATOM    102  H4  UNL A   1      26.581  40.024  44.884  1.00  0.00    +0.000 H 
ATOM      5  C5  UNL A   1      24.967  40.880  47.730  1.00  0.00    +0.000 C 
ATOM    103  H5  UNL A   1      24.546  41.050  45.671  1.00  0.00    +0.000 H 
ATOM    144  H46 UNL A   1      25.816  40.613  49.640  1.00  0.00    +0.000 H 
ATOM    145  H47 UNL A   1      27.857  39.567  48.852  1.00  0.00    +0.000 H 
BRANCH    2    1
ATOM      1  C1  UNL A   1      28.611  38.999  46.285  1.00  0.00    +0.000 C 
ATOM     99  H1  UNL A   1      29.039  39.589  45.501  1.00  0.00    +0.000 H 
ATOM    100  H2  UNL A   1      28.358  38.031  45.906  1.00  0.00    +0.000 H 
ATOM    101  H3  UNL A   1      29.320  38.895  47.080  1.00  0.00    +0.000 H 
ENDBRANCH    2    1
ENDBRANCH    6    5
BRANCH    8    9
ATOM    104  H6  UNL A   1      22.171  39.714  51.123  1.00  0.00    +0.000 H 
ATOM      9  C7  UNL A   1      21.036  41.377  50.454  1.00  0.00    +0.000 C 
ATOM     10  C8  UNL A   1      21.319  40.275  51.284  1.00  0.00    +0.000 C 
ATOM     11  C9  UNL A   1      20.451  39.939  52.322  1.00  0.00    +0.000 C 
ATOM    108  H10 UNL A   1      19.716  42.988  50.100  1.00  0.00    +0.000 H 
ATOM     13  C11 UNL A   1      19.117  41.890  51.810  1.00  0.00    +0.000 C 
ATOM     14  C12 UNL A   1      19.931  42.184  50.710  1.00  0.00    +0.000 C 
ATOM    105  H7  UNL A   1      20.618  39.090  52.885  1.00  0.00    +0.000 H 
ATOM    107  H9  UNL A   1      18.331  42.515  52.045  1.00  0.00    +0.000 H 
ATOM     12  C10 UNL A   1      19.359  40.757  52.594  1.00  0.00    +0.000 C 
ATOM    106  H8  UNL A   1      18.726  40.527  53.376  1.00  0.00    +0.000 H 
ENDBRANCH    8    9
ENDBRANCH   17   16
ENDBRANCH   20   19
ENDBRANCH   22   20
ENDBRANCH   23   22
ENDBRANCH   24   23
ENDBRANCH   25   24
ENDBRANCH   26   25
ENDBRANCH   27   26
ENDBRANCH   28   27
ENDBRANCH   29   28
ENDBRANCH   30   29
ENDBRANCH   32   30
ENDBRANCH   36   35
BRANCH   40   41
ATOM     41  C33 UNL A   1      17.090  36.950  48.981  1.00  0.00    +0.000 C 
ATOM     42  C34 UNL A   1      15.924  36.392  48.405  1.00  0.00    +0.000 C 
ATOM     43  F1  UNL A   1      15.992  35.389  47.518  1.00  0.00    +0.000 F 
ATOM     44  C35 UNL A   1      14.636  36.857  48.697  1.00  0.00    +0.000 C 
ATOM     45  F2  UNL A   1      13.579  36.323  48.068  1.00  0.00    +0.000 F 
ATOM     46  C36 UNL A   1      14.445  37.873  49.608  1.00  0.00    +0.000 C 
ATOM     47  F3  UNL A   1      13.216  38.330  49.879  1.00  0.00    +0.000 F 
ATOM     48  C37 UNL A   1      15.542  38.420  50.228  1.00  0.00    +0.000 C 
ATOM     49  F4  UNL A   1      15.386  39.406  51.123  1.00  0.00    +0.000 F 
ATOM     50  C38 UNL A   1      16.831  37.978  49.912  1.00  0.00    +0.000 C 
ATOM     51  F5  UNL A   1      17.797  38.646  50.542  1.00  0.00    +0.000 F 
ENDBRANCH   40   41
BRANCH   57   58
ATOM     65  C48 UNL A   1      18.078  31.620  42.928  1.00  0.00    +0.000 C 
ATOM     66  F9  UNL A   1      17.247  31.689  41.877  1.00  0.00    +0.000 F 
ATOM     67  C49 UNL A   1      18.703  32.775  43.392  1.00  0.00    +0.000 C 
ATOM     68  F10 UNL A   1      18.382  33.929  42.789  1.00  0.00    +0.000 F 
ATOM     58  C44 UNL A   1      19.620  32.745  44.460  1.00  0.00    +0.000 C 
ATOM     59  C45 UNL A   1      19.839  31.498  45.068  1.00  0.00    +0.000 C 
ATOM     60  F6  UNL A   1      20.707  31.379  46.084  1.00  0.00    +0.000 F 
ATOM     61  C46 UNL A   1      19.178  30.351  44.629  1.00  0.00    +0.000 C 
ATOM     62  F7  UNL A   1      19.388  29.182  45.251  1.00  0.00    +0.000 F 
ATOM     63  C47 UNL A   1      18.312  30.408  43.549  1.00  0.00    +0.000 C 
ATOM     64  F8  UNL A   1      17.702  29.298  43.111  1.00  0.00    +0.000 F 
ENDBRANCH   57   58
BRANCH   72   73
ATOM     73  C53 UNL A   1      26.144  35.307  46.062  1.00  0.00    +0.000 C 
ATOM     74  C54 UNL A   1      26.121  34.302  47.049  1.00  0.00    +0.000 C 
ATOM     75  F11 UNL A   1      24.982  34.035  47.707  1.00  0.00    +0.000 F 
ATOM     76  C55 UNL A   1      27.230  33.494  47.281  1.00  0.00    +0.000 C 
ATOM     77  F12 UNL A   1      27.145  32.477  48.150  1.00  0.00    +0.000 F 
ATOM     78  C56 UNL A   1      28.394  33.697  46.560  1.00  0.00    +0.000 C 
ATOM     79  F13 UNL A   1      29.433  32.866  46.714  1.00  0.00    +0.000 F 
ATOM     80  C57 UNL A   1      28.467  34.742  45.649  1.00  0.00    +0.000 C 
ATOM     81  F14 UNL A   1      29.586  34.923  44.933  1.00  0.00    +0.000 F 
ATOM     82  C58 UNL A   1      27.354  35.546  45.404  1.00  0.00    +0.000 C 
ATOM     83  F15 UNL A   1      27.429  36.477  44.442  1.00  0.00    +0.000 F 
ENDBRANCH   72   73
TORSDOF 19
ENDMDL
MODEL 5
REMARK VINA RESULT:     -11.6     23.053     29.150
ROOT
ATOM    130  H32 UNL A   1      52.362  14.187   6.475  1.00  0.00    +0.000 H 
ATOM    131  H33 UNL A   1      50.400  15.247   7.886  1.00  0.00    +0.000 H 
ATOM    132  H34 UNL A   1      51.559  17.963   5.008  1.00  0.00    +0.000 H 
ATOM    133  H35 UNL A   1      52.577  16.493  10.239  1.00  0.00    +0.000 H 
ATOM    134  H36 UNL A   1      54.178  16.250   8.264  1.00  0.00    +0.000 H 
ATOM    135  H37 UNL A   1      55.498  19.362  10.670  1.00  0.00    +0.000 H 
ATOM    136  H38 UNL A   1      50.075  21.108  10.455  1.00  0.00    +0.000 H 
ATOM    137  H39 UNL A   1      48.649  20.380   8.437  1.00  0.00    +0.000 H 
ATOM    138  H40 UNL A   1      55.776  17.827   3.357  1.00  0.00    +0.000 H 
ATOM    139  H41 UNL A   1      57.102  18.962   5.246  1.00  0.00    +0.000 H 
ATOM     36  C29 UNL A   1      55.687  18.707   7.817  1.00  0.00    +0.000 C 
ATOM     37  C30 UNL A   1      55.353  18.216   6.467  1.00  0.00    +0.000 C 
ATOM     38  N6  UNL A   1      54.246  17.622   6.171  1.00  0.00    +0.000 N 
ATOM     39  C31 UNL A   1      54.345  17.166   4.880  1.00  0.00    +0.000 C 
ATOM     40  C32 UNL A   1      53.487  16.191   4.466  1.00  0.00    +0.000 C 
ATOM     52  C39 UNL A   1      52.357  16.056   5.393  1.00  0.00    +0.000 C 
ATOM     53  C40 UNL A   1      51.959  15.129   6.342  1.00  0.00    +0.000 C 
ATOM     54  C41 UNL A   1      50.896  15.702   7.103  1.00  0.00    +0.000 C 
ATOM     55  C42 UNL A   1      50.644  16.969   6.610  1.00  0.00    +0.000 C 
ATOM     56  N7  UNL A   1      51.526  17.152   5.565  1.00  0.00    +0.000 N 
ATOM     57  C43 UNL A   1      49.769  18.063   6.991  1.00  0.00    +0.000 C 
ATOM     69  C50 UNL A   1      50.095  18.750   8.122  1.00  0.00    +0.000 C 
ATOM     70  N8  UNL A   1      51.196  18.446   8.874  1.00  0.00    +0.000 N 
ATOM     71  C51 UNL A   1      51.339  19.348   9.804  1.00  0.00    +0.000 C 
ATOM     72  C52 UNL A   1      52.551  19.457  10.699  1.00  0.00    +0.000 C 
ATOM     84  C59 UNL A   1      53.500  18.497  10.507  1.00  0.00    +0.000 C 
ATOM     85  C60 UNL A   1      53.274  17.189   9.928  1.00  0.00    +0.000 C 
ATOM     86  C61 UNL A   1      54.140  17.049   8.916  1.00  0.00    +0.000 C 
ATOM     87  C62 UNL A   1      55.022  18.214   8.889  1.00  0.00    +0.000 C 
ATOM     88  N9  UNL A   1      54.848  18.831  10.156  1.00  0.00    +0.000 N 
ATOM     89  C63 UNL A   1      50.243  20.320   9.810  1.00  0.00    +0.000 C 
ATOM     90  C64 UNL A   1      49.514  19.917   8.756  1.00  0.00    +0.000 C 
ATOM     91  C65 UNL A   1      55.511  17.831   4.354  1.00  0.00    +0.000 C 
ATOM     92  C66 UNL A   1      56.206  18.454   5.310  1.00  0.00    +0.000 C 
ENDROOT
BRANCH   36   35
ATOM     33  C26 UNL A   1      59.095  20.209   7.846  1.00  0.00    +0.000 C 
ATOM     34  C27 UNL A   1      58.101  19.285   8.143  1.00  0.00    +0.000 C 
ATOM    129  H31 UNL A   1      58.345  18.333   8.457  1.00  0.00    +0.000 H 
ATOM     35  C28 UNL A   1      56.767  19.671   8.008  1.00  0.00    +0.000 C 
ATOM    140  H42 UNL A   1      55.437  21.319   7.930  1.00  0.00    +0.000 H 
ATOM    141  H43 UNL A   1      57.203  22.974   7.642  1.00  0.00    +0.000 H 
ATOM    128  H30 UNL A   1      60.092  19.951   7.908  1.00  0.00    +0.000 H 
ATOM     93  C67 UNL A   1      56.424  21.026   7.870  1.00  0.00    +0.000 C 
ATOM     94  C68 UNL A   1      57.416  21.964   7.656  1.00  0.00    +0.000 C 
ATOM     32  C25 UNL A   1      58.713  21.497   7.460  1.00  0.00    +0.000 C 
BRANCH   32   30
ATOM     30  C24 UNL A   1      59.546  22.162   6.430  1.00  0.00    +0.000 C 
ATOM     31  O2  UNL A   1      59.485  21.817   5.273  1.00  0.00    +0.000 O 
BRANCH   30   29
ATOM     29  N5  UNL A   1      60.318  23.243   6.859  1.00  0.00    +0.000 N 
ATOM    127  H29 UNL A   1      60.452  23.967   6.206  1.00  0.00    +0.000 H 
BRANCH   29   28
ATOM     28  C23 UNL A   1      60.958  23.431   8.172  1.00  0.00    +0.000 C 
ATOM    125  H27 UNL A   1      61.098  22.467   8.612  1.00  0.00    +0.000 H 
ATOM    126  H28 UNL A   1      61.872  23.955   7.982  1.00  0.00    +0.000 H 
BRANCH   28   27
ATOM     27  C22 UNL A   1      60.176  24.293   9.162  1.00  0.00    +0.000 C 
ATOM    124  H26 UNL A   1      59.376  24.702   8.582  1.00  0.00    +0.000 H 
ATOM    123  H25 UNL A   1      60.864  25.002   9.576  1.00  0.00    +0.000 H 
BRANCH   27   26
ATOM    121  H23 UNL A   1      59.303  24.344  11.081  1.00  0.00    +0.000 H 
ATOM     26  C21 UNL A   1      59.480  23.599  10.333  1.00  0.00    +0.000 C 
ATOM    122  H24 UNL A   1      58.611  23.155   9.895  1.00  0.00    +0.000 H 
BRANCH   26   25
ATOM     25  C20 UNL A   1      60.197  22.427  11.021  1.00  0.00    +0.000 C 
ATOM    119  H21 UNL A   1      61.020  22.175  10.385  1.00  0.00    +0.000 H 
ATOM    120  H22 UNL A   1      60.366  22.834  11.997  1.00  0.00    +0.000 H 
BRANCH   25   24
ATOM    117  H19 UNL A   1      58.517  21.332  11.686  1.00  0.00    +0.000 H 
ATOM    118  H20 UNL A   1      59.656  20.520  10.479  1.00  0.00    +0.000 H 
ATOM     24  C19 UNL A   1      59.512  21.085  11.375  1.00  0.00    +0.000 C 
BRANCH   24   23
ATOM    115  H17 UNL A   1      61.000  20.539  12.774  1.00  0.00    +0.000 H 
ATOM    116  H18 UNL A   1      59.304  20.080  13.186  1.00  0.00    +0.000 H 
ATOM     23  C18 UNL A   1      60.067  20.136  12.438  1.00  0.00    +0.000 C 
BRANCH   23   22
ATOM    114  H16 UNL A   1      59.668  18.357  11.403  1.00  0.00    +0.000 H 
ATOM     22  N4  UNL A   1      60.304  18.757  12.039  1.00  0.00    +0.000 N 
BRANCH   22   20
ATOM     20  C17 UNL A   1      61.342  17.963  12.475  1.00  0.00    +0.000 C 
ATOM     21  O1  UNL A   1      62.473  18.325  12.114  1.00  0.00    +0.000 O 
BRANCH   20   19
ATOM    110  H12 UNL A   1      58.659  14.858  14.401  1.00  0.00    +0.000 H 
ATOM    111  H13 UNL A   1      60.020  16.566  15.160  1.00  0.00    +0.000 H 
ATOM    112  H14 UNL A   1      59.278  17.325  13.866  1.00  0.00    +0.000 H 
ATOM     17  C15 UNL A   1      59.349  15.292  13.709  1.00  0.00    +0.000 C 
ATOM     18  N3  UNL A   1      59.912  16.576  14.146  1.00  0.00    +0.000 N 
ATOM     19  C16 UNL A   1      61.234  16.806  13.514  1.00  0.00    +0.000 C 
ATOM    142  H44 UNL A   1      62.831  15.361  13.352  1.00  0.00    +0.000 H 
ATOM    143  H45 UNL A   1      61.920  15.520  11.900  1.00  0.00    +0.000 H 
ATOM    113  H15 UNL A   1      61.822  17.164  14.334  1.00  0.00    +0.000 H 
ATOM     95  C69 UNL A   1      61.842  15.502  12.968  1.00  0.00    +0.000 C 
ATOM     96  S1  UNL A   1      60.750  14.176  13.536  1.00  0.00    +0.000 S 
BRANCH   17   16
ATOM      6  C6  UNL A   1      57.440  16.391  12.242  1.00  0.00    +0.000 C 
ATOM      7  N1  UNL A   1      56.998  16.290  10.967  1.00  0.00    +0.000 N 
ATOM      8  N2  UNL A   1      57.943  15.548  10.333  1.00  0.00    +0.000 N 
ATOM    109  H11 UNL A   1      59.525  14.263  10.984  1.00  0.00    +0.000 H 
ATOM     15  C13 UNL A   1      58.812  14.974  11.210  1.00  0.00    +0.000 C 
ATOM     16  C14 UNL A   1      58.567  15.513  12.456  1.00  0.00    +0.000 C 
BRANCH    6    5
ATOM     97  C70 UNL A   1      56.305  16.901  14.427  1.00  0.00    +0.000 C 
ATOM      2  C2  UNL A   1      55.740  19.189  15.081  1.00  0.00    +0.000 C 
ATOM      3  C3  UNL A   1      56.212  19.629  13.848  1.00  0.00    +0.000 C 
ATOM      4  C4  UNL A   1      56.744  18.716  12.933  1.00  0.00    +0.000 C 
ATOM     98  C71 UNL A   1      55.772  17.816  15.355  1.00  0.00    +0.000 C 
ATOM    102  H4  UNL A   1      56.168  20.632  13.608  1.00  0.00    +0.000 H 
ATOM      5  C5  UNL A   1      56.831  17.340  13.208  1.00  0.00    +0.000 C 
ATOM    103  H5  UNL A   1      57.086  19.065  12.023  1.00  0.00    +0.000 H 
ATOM    144  H46 UNL A   1      56.308  15.893  14.649  1.00  0.00    +0.000 H 
ATOM    145  H47 UNL A   1      55.398  17.469  16.252  1.00  0.00    +0.000 H 
BRANCH    2    1
ATOM      1  C1  UNL A   1      55.215  20.192  16.065  1.00  0.00    +0.000 C 
ATOM     99  H1  UNL A   1      54.221  20.477  15.790  1.00  0.00    +0.000 H 
ATOM    100  H2  UNL A   1      55.847  21.055  16.067  1.00  0.00    +0.000 H 
ATOM    101  H3  UNL A   1      55.203  19.758  17.044  1.00  0.00    +0.000 H 
ENDBRANCH    2    1
ENDBRANCH    6    5
BRANCH    8    9
ATOM    104  H6  UNL A   1      56.150  14.986   8.490  1.00  0.00    +0.000 H 
ATOM      9  C7  UNL A   1      58.141  15.572   8.932  1.00  0.00    +0.000 C 
ATOM     10  C8  UNL A   1      57.075  15.205   8.086  1.00  0.00    +0.000 C 
ATOM     11  C9  UNL A   1      57.267  15.136   6.708  1.00  0.00    +0.000 C 
ATOM    108  H10 UNL A   1      60.155  16.205   9.009  1.00  0.00    +0.000 H 
ATOM     13  C11 UNL A   1      59.523  15.957   7.001  1.00  0.00    +0.000 C 
ATOM     14  C12 UNL A   1      59.369  15.943   8.393  1.00  0.00    +0.000 C 
ATOM    105  H7  UNL A   1      56.510  14.797   6.093  1.00  0.00    +0.000 H 
ATOM    107  H9  UNL A   1      60.409  16.286   6.590  1.00  0.00    +0.000 H 
ATOM     12  C10 UNL A   1      58.487  15.527   6.165  1.00  0.00    +0.000 C 
ATOM    106  H8  UNL A   1      58.628  15.502   5.143  1.00  0.00    +0.000 H 
ENDBRANCH    8    9
ENDBRANCH   17   16
ENDBRANCH   20   19
ENDBRANCH   22   20
ENDBRANCH   23   22
ENDBRANCH   24   23
ENDBRANCH   25   24
ENDBRANCH   26   25
ENDBRANCH   27   26
ENDBRANCH   28   27
ENDBRANCH   29   28
ENDBRANCH   30   29
ENDBRANCH   32   30
ENDBRANCH   36   35
BRANCH   40   41
ATOM     41  C33 UNL A   1      53.720  15.234   3.307  1.00  0.00    +0.000 C 
ATOM     42  C34 UNL A   1      55.029  14.782   3.017  1.00  0.00    +0.000 C 
ATOM     43  F1  UNL A   1      56.064  15.074   3.817  1.00  0.00    +0.000 F 
ATOM     44  C35 UNL A   1      55.337  14.029   1.876  1.00  0.00    +0.000 C 
ATOM     45  F2  UNL A   1      56.610  13.686   1.631  1.00  0.00    +0.000 F 
ATOM     46  C36 UNL A   1      54.349  13.656   0.992  1.00  0.00    +0.000 C 
ATOM     47  F3  UNL A   1      54.641  12.949  -0.107  1.00  0.00    +0.000 F 
ATOM     48  C37 UNL A   1      53.052  14.033   1.251  1.00  0.00    +0.000 C 
ATOM     49  F4  UNL A   1      52.069  13.679   0.411  1.00  0.00    +0.000 F 
ATOM     50  C38 UNL A   1      52.750  14.813   2.372  1.00  0.00    +0.000 C 
ATOM     51  F5  UNL A   1      51.465  15.157   2.457  1.00  0.00    +0.000 F 
ENDBRANCH   40   41
BRANCH   57   58
ATOM     65  C48 UNL A   1      46.345  17.846   5.328  1.00  0.00    +0.000 C 
ATOM     66  F9  UNL A   1      45.347  16.956   5.226  1.00  0.00    +0.000 F 
ATOM     67  C49 UNL A   1      47.527  17.490   5.974  1.00  0.00    +0.000 C 
ATOM     68  F10 UNL A   1      47.628  16.225   6.411  1.00  0.00    +0.000 F 
ATOM     58  C44 UNL A   1      48.583  18.404   6.148  1.00  0.00    +0.000 C 
ATOM     59  C45 UNL A   1      48.406  19.683   5.597  1.00  0.00    +0.000 C 
ATOM     60  F6  UNL A   1      49.358  20.619   5.729  1.00  0.00    +0.000 F 
ATOM     61  C46 UNL A   1      47.239  20.024   4.911  1.00  0.00    +0.000 C 
ATOM     62  F7  UNL A   1      47.116  21.245   4.372  1.00  0.00    +0.000 F 
ATOM     63  C47 UNL A   1      46.203  19.112   4.793  1.00  0.00    +0.000 C 
ATOM     64  F8  UNL A   1      45.071  19.453   4.161  1.00  0.00    +0.000 F 
ENDBRANCH   57   58
BRANCH   72   73
ATOM     73  C53 UNL A   1      53.115  20.723  11.225  1.00  0.00    +0.000 C 
ATOM     74  C54 UNL A   1      53.300  21.795  10.331  1.00  0.00    +0.000 C 
ATOM     75  F11 UNL A   1      53.316  21.568   9.007  1.00  0.00    +0.000 F 
ATOM     76  C55 UNL A   1      53.351  23.110  10.782  1.00  0.00    +0.000 C 
ATOM     77  F12 UNL A   1      53.419  24.117   9.900  1.00  0.00    +0.000 F 
ATOM     78  C56 UNL A   1      53.258  23.378  12.137  1.00  0.00    +0.000 C 
ATOM     79  F13 UNL A   1      53.216  24.645  12.570  1.00  0.00    +0.000 F 
ATOM     80  C57 UNL A   1      53.169  22.330  13.042  1.00  0.00    +0.000 C 
ATOM     81  F14 UNL A   1      53.054  22.590  14.352  1.00  0.00    +0.000 F 
ATOM     82  C58 UNL A   1      53.104  21.011  12.593  1.00  0.00    +0.000 C 
ATOM     83  F15 UNL A   1      52.912  20.032  13.490  1.00  0.00    +0.000 F 
ENDBRANCH   72   73
TORSDOF 19
ENDMDL
MODEL 6
REMARK VINA RESULT:     -11.6     33.814     40.069
ROOT
ATOM    130  H32 UNL A   1      16.268  22.496  -3.262  1.00  0.00    +0.000 H 
ATOM    131  H33 UNL A   1      17.726  24.585  -3.951  1.00  0.00    +0.000 H 
ATOM    132  H34 UNL A   1      17.374  24.530   0.156  1.00  0.00    +0.000 H 
ATOM    133  H35 UNL A   1      14.945  26.564  -4.373  1.00  0.00    +0.000 H 
ATOM    134  H36 UNL A   1      13.976  24.796  -2.805  1.00  0.00    +0.000 H 
ATOM    135  H37 UNL A   1      11.962  28.371  -2.186  1.00  0.00    +0.000 H 
ATOM    136  H38 UNL A   1      17.186  30.642  -1.934  1.00  0.00    +0.000 H 
ATOM    137  H39 UNL A   1      19.141  29.107  -1.257  1.00  0.00    +0.000 H 
ATOM    138  H40 UNL A   1      13.804  22.513   2.081  1.00  0.00    +0.000 H 
ATOM    139  H41 UNL A   1      11.972  24.289   1.750  1.00  0.00    +0.000 H 
ATOM     36  C29 UNL A   1      12.604  26.028  -0.542  1.00  0.00    +0.000 C 
ATOM     37  C30 UNL A   1      13.318  24.871   0.030  1.00  0.00    +0.000 C 
ATOM     38  N6  UNL A   1      14.476  24.468  -0.374  1.00  0.00    +0.000 N 
ATOM     39  C31 UNL A   1      14.757  23.286   0.265  1.00  0.00    +0.000 C 
ATOM     40  C32 UNL A   1      15.717  22.473  -0.260  1.00  0.00    +0.000 C 
ATOM     52  C39 UNL A   1      16.540  23.196  -1.238  1.00  0.00    +0.000 C 
ATOM     53  C40 UNL A   1      16.672  23.193  -2.617  1.00  0.00    +0.000 C 
ATOM     54  C41 UNL A   1      17.463  24.322  -2.989  1.00  0.00    +0.000 C 
ATOM     55  C42 UNL A   1      17.818  25.000  -1.837  1.00  0.00    +0.000 C 
ATOM     56  N7  UNL A   1      17.266  24.289  -0.792  1.00  0.00    +0.000 N 
ATOM     57  C43 UNL A   1      18.526  26.236  -1.551  1.00  0.00    +0.000 C 
ATOM     69  C50 UNL A   1      17.878  27.399  -1.837  1.00  0.00    +0.000 C 
ATOM     70  N8  UNL A   1      16.616  27.427  -2.362  1.00  0.00    +0.000 N 
ATOM     71  C51 UNL A   1      16.195  28.661  -2.395  1.00  0.00    +0.000 C 
ATOM     72  C52 UNL A   1      14.777  29.064  -2.724  1.00  0.00    +0.000 C 
ATOM     84  C59 UNL A   1      13.942  28.035  -3.042  1.00  0.00    +0.000 C 
ATOM     85  C60 UNL A   1      14.350  26.740  -3.548  1.00  0.00    +0.000 C 
ATOM     86  C61 UNL A   1      13.810  25.814  -2.745  1.00  0.00    +0.000 C 
ATOM     87  C62 UNL A   1      12.949  26.481  -1.772  1.00  0.00    +0.000 C 
ATOM     88  N9  UNL A   1      12.743  27.782  -2.301  1.00  0.00    +0.000 N 
ATOM     89  C63 UNL A   1      17.224  29.612  -1.966  1.00  0.00    +0.000 C 
ATOM     90  C64 UNL A   1      18.230  28.789  -1.625  1.00  0.00    +0.000 C 
ATOM     91  C65 UNL A   1      13.775  23.206   1.317  1.00  0.00    +0.000 C 
ATOM     92  C66 UNL A   1      12.823  24.135   1.186  1.00  0.00    +0.000 C 
ENDROOT
BRANCH   36   35
ATOM     33  C26 UNL A   1       9.172  26.650   0.763  1.00  0.00    +0.000 C 
ATOM     34  C27 UNL A   1      10.163  26.456  -0.192  1.00  0.00    +0.000 C 
ATOM    129  H31 UNL A   1       9.919  26.180  -1.156  1.00  0.00    +0.000 H 
ATOM     35  C28 UNL A   1      11.495  26.644   0.179  1.00  0.00    +0.000 C 
ATOM    140  H42 UNL A   1      12.794  27.572   1.573  1.00  0.00    +0.000 H 
ATOM    141  H43 UNL A   1      11.017  28.123   3.148  1.00  0.00    +0.000 H 
ATOM    128  H30 UNL A   1       8.179  26.494   0.532  1.00  0.00    +0.000 H 
ATOM     93  C67 UNL A   1      11.819  27.296   1.380  1.00  0.00    +0.000 C 
ATOM     94  C68 UNL A   1      10.824  27.567   2.301  1.00  0.00    +0.000 C 
ATOM     32  C25 UNL A   1       9.553  27.061   2.043  1.00  0.00    +0.000 C 
BRANCH   32   30
ATOM     30  C24 UNL A   1       8.777  26.512   3.180  1.00  0.00    +0.000 C 
ATOM     31  O2  UNL A   1       8.970  25.385   3.570  1.00  0.00    +0.000 O 
BRANCH   30   29
ATOM     29  N5  UNL A   1       7.894  27.391   3.811  1.00  0.00    +0.000 N 
ATOM    127  H29 UNL A   1       8.055  27.555   4.768  1.00  0.00    +0.000 H 
BRANCH   29   28
ATOM     28  C23 UNL A   1       6.751  28.104   3.218  1.00  0.00    +0.000 C 
ATOM    125  H27 UNL A   1       6.372  27.509   2.414  1.00  0.00    +0.000 H 
ATOM    126  H28 UNL A   1       6.049  28.250   4.013  1.00  0.00    +0.000 H 
BRANCH   28   27
ATOM     27  C22 UNL A   1       7.062  29.496   2.669  1.00  0.00    +0.000 C 
ATOM    124  H26 UNL A   1       8.080  29.668   2.947  1.00  0.00    +0.000 H 
ATOM    123  H25 UNL A   1       6.342  30.169   3.087  1.00  0.00    +0.000 H 
BRANCH   27   26
ATOM    121  H23 UNL A   1       7.982  29.344   0.777  1.00  0.00    +0.000 H 
ATOM     26  C21 UNL A   1       7.044  29.696   1.153  1.00  0.00    +0.000 C 
ATOM    122  H24 UNL A   1       6.175  29.162   0.828  1.00  0.00    +0.000 H 
BRANCH   26   25
ATOM     25  C20 UNL A   1       6.840  31.117   0.604  1.00  0.00    +0.000 C 
ATOM    119  H21 UNL A   1       6.050  31.544   1.188  1.00  0.00    +0.000 H 
ATOM    120  H22 UNL A   1       7.835  31.506   0.665  1.00  0.00    +0.000 H 
BRANCH   25   24
ATOM    117  H19 UNL A   1       5.443  31.655  -0.887  1.00  0.00    +0.000 H 
ATOM    118  H20 UNL A   1       7.195  32.197  -1.108  1.00  0.00    +0.000 H 
ATOM     24  C19 UNL A   1       6.490  31.430  -0.871  1.00  0.00    +0.000 C 
BRANCH   24   23
ATOM    115  H17 UNL A   1       7.745  30.105  -1.937  1.00  0.00    +0.000 H 
ATOM    116  H18 UNL A   1       6.000  29.656  -1.842  1.00  0.00    +0.000 H 
ATOM     23  C18 UNL A   1       6.727  30.425  -1.999  1.00  0.00    +0.000 C 
BRANCH   23   22
ATOM    114  H16 UNL A   1       6.214  31.824  -3.475  1.00  0.00    +0.000 H 
ATOM     22  N4  UNL A   1       6.496  30.888  -3.360  1.00  0.00    +0.000 N 
BRANCH   22   20
ATOM     20  C17 UNL A   1       6.637  30.129  -4.500  1.00  0.00    +0.000 C 
ATOM     21  O1  UNL A   1       5.975  29.079  -4.522  1.00  0.00    +0.000 O 
BRANCH   20   19
ATOM    110  H12 UNL A   1       9.056  33.355  -6.572  1.00  0.00    +0.000 H 
ATOM    111  H13 UNL A   1       7.115  32.186  -7.038  1.00  0.00    +0.000 H 
ATOM    112  H14 UNL A   1       6.885  32.516  -5.414  1.00  0.00    +0.000 H 
ATOM     17  C15 UNL A   1       8.842  32.485  -5.986  1.00  0.00    +0.000 C 
ATOM     18  N3  UNL A   1       7.457  32.013  -6.093  1.00  0.00    +0.000 N 
ATOM     19  C16 UNL A   1       7.378  30.560  -5.802  1.00  0.00    +0.000 C 
ATOM    142  H44 UNL A   1       8.697  29.038  -6.580  1.00  0.00    +0.000 H 
ATOM    143  H45 UNL A   1       9.093  29.512  -4.973  1.00  0.00    +0.000 H 
ATOM    113  H15 UNL A   1       6.730  30.205  -6.576  1.00  0.00    +0.000 H 
ATOM     95  C69 UNL A   1       8.753  29.879  -5.919  1.00  0.00    +0.000 C 
ATOM     96  S1  UNL A   1       9.869  31.135  -6.589  1.00  0.00    +0.000 S 
BRANCH   17   16
ATOM      6  C6  UNL A   1       8.536  33.985  -3.828  1.00  0.00    +0.000 C 
ATOM      7  N1  UNL A   1       9.048  34.023  -2.576  1.00  0.00    +0.000 N 
ATOM      8  N2  UNL A   1       9.745  32.864  -2.453  1.00  0.00    +0.000 N 
ATOM    109  H11 UNL A   1      10.503  31.418  -3.836  1.00  0.00    +0.000 H 
ATOM     15  C13 UNL A   1       9.899  32.235  -3.651  1.00  0.00    +0.000 C 
ATOM     16  C14 UNL A   1       9.106  32.886  -4.572  1.00  0.00    +0.000 C 
BRANCH    6    5
ATOM     97  C70 UNL A   1       7.792  36.291  -4.502  1.00  0.00    +0.000 C 
ATOM      2  C2  UNL A   1       5.497  36.746  -5.214  1.00  0.00    +0.000 C 
ATOM      3  C3  UNL A   1       5.177  35.420  -4.941  1.00  0.00    +0.000 C 
ATOM      4  C4  UNL A   1       6.162  34.541  -4.479  1.00  0.00    +0.000 C 
ATOM     98  C71 UNL A   1       6.807  37.180  -4.972  1.00  0.00    +0.000 C 
ATOM    102  H4  UNL A   1       4.211  35.084  -5.079  1.00  0.00    +0.000 H 
ATOM      5  C5  UNL A   1       7.494  34.943  -4.276  1.00  0.00    +0.000 C 
ATOM    103  H5  UNL A   1       5.902  33.562  -4.281  1.00  0.00    +0.000 H 
ATOM    144  H46 UNL A   1       8.747  36.637  -4.322  1.00  0.00    +0.000 H 
ATOM    145  H47 UNL A   1       7.052  38.168  -5.139  1.00  0.00    +0.000 H 
BRANCH    2    1
ATOM      1  C1  UNL A   1       4.436  37.660  -5.752  1.00  0.00    +0.000 C 
ATOM     99  H1  UNL A   1       4.797  38.148  -6.634  1.00  0.00    +0.000 H 
ATOM    100  H2  UNL A   1       4.189  38.394  -5.013  1.00  0.00    +0.000 H 
ATOM    101  H3  UNL A   1       3.563  37.089  -5.992  1.00  0.00    +0.000 H 
ENDBRANCH    2    1
ENDBRANCH    6    5
BRANCH    8    9
ATOM    104  H6  UNL A   1      10.250  30.319  -2.014  1.00  0.00    +0.000 H 
ATOM      9  C7  UNL A   1      10.055  32.271  -1.206  1.00  0.00    +0.000 C 
ATOM     10  C8  UNL A   1      10.261  30.879  -1.146  1.00  0.00    +0.000 C 
ATOM     11  C9  UNL A   1      10.480  30.256   0.081  1.00  0.00    +0.000 C 
ATOM    108  H10 UNL A   1       9.985  34.064  -0.091  1.00  0.00    +0.000 H 
ATOM     13  C11 UNL A   1      10.454  32.420   1.161  1.00  0.00    +0.000 C 
ATOM     14  C12 UNL A   1      10.144  33.045  -0.053  1.00  0.00    +0.000 C 
ATOM    105  H7  UNL A   1      10.559  29.228   0.136  1.00  0.00    +0.000 H 
ATOM    107  H9  UNL A   1      10.582  32.991   2.010  1.00  0.00    +0.000 H 
ATOM     12  C10 UNL A   1      10.592  31.030   1.232  1.00  0.00    +0.000 C 
ATOM    106  H8  UNL A   1      10.778  30.577   2.141  1.00  0.00    +0.000 H 
ENDBRANCH    8    9
ENDBRANCH   17   16
ENDBRANCH   20   19
ENDBRANCH   22   20
ENDBRANCH   23   22
ENDBRANCH   24   23
ENDBRANCH   25   24
ENDBRANCH   26   25
ENDBRANCH   27   26
ENDBRANCH   28   27
ENDBRANCH   29   28
ENDBRANCH   30   29
ENDBRANCH   32   30
ENDBRANCH   36   35
BRANCH   40   41
ATOM     41  C33 UNL A   1      15.843  20.976  -0.024  1.00  0.00    +0.000 C 
ATOM     42  C34 UNL A   1      16.788  20.486   0.907  1.00  0.00    +0.000 C 
ATOM     43  F1  UNL A   1      17.497  21.313   1.687  1.00  0.00    +0.000 F 
ATOM     44  C35 UNL A   1      17.066  19.121   1.060  1.00  0.00    +0.000 C 
ATOM     45  F2  UNL A   1      18.018  18.730   1.918  1.00  0.00    +0.000 F 
ATOM     46  C36 UNL A   1      16.385  18.178   0.322  1.00  0.00    +0.000 C 
ATOM     47  F3  UNL A   1      16.656  16.874   0.455  1.00  0.00    +0.000 F 
ATOM     48  C37 UNL A   1      15.424  18.601  -0.566  1.00  0.00    +0.000 C 
ATOM     49  F4  UNL A   1      14.741  17.704  -1.294  1.00  0.00    +0.000 F 
ATOM     50  C38 UNL A   1      15.171  19.964  -0.743  1.00  0.00    +0.000 C 
ATOM     51  F5  UNL A   1      14.263  20.225  -1.683  1.00  0.00    +0.000 F 
ENDBRANCH   40   41
BRANCH   57   58
ATOM     65  C48 UNL A   1      22.294  26.642  -1.139  1.00  0.00    +0.000 C 
ATOM     66  F9  UNL A   1      23.342  26.998  -1.898  1.00  0.00    +0.000 F 
ATOM     67  C49 UNL A   1      21.032  26.518  -1.717  1.00  0.00    +0.000 C 
ATOM     68  F10 UNL A   1      20.946  26.702  -3.043  1.00  0.00    +0.000 F 
ATOM     58  C44 UNL A   1      19.895  26.194  -0.953  1.00  0.00    +0.000 C 
ATOM     59  C45 UNL A   1      20.101  25.957   0.415  1.00  0.00    +0.000 C 
ATOM     60  F6  UNL A   1      19.069  25.656   1.217  1.00  0.00    +0.000 F 
ATOM     61  C46 UNL A   1      21.374  26.038   0.983  1.00  0.00    +0.000 C 
ATOM     62  F7  UNL A   1      21.539  25.775   2.287  1.00  0.00    +0.000 F 
ATOM     63  C47 UNL A   1      22.465  26.398   0.210  1.00  0.00    +0.000 C 
ATOM     64  F8  UNL A   1      23.681  26.505   0.765  1.00  0.00    +0.000 F 
ENDBRANCH   57   58
BRANCH   72   73
ATOM     73  C53 UNL A   1      14.061  30.225  -2.143  1.00  0.00    +0.000 C 
ATOM     74  C54 UNL A   1      14.001  30.338  -0.741  1.00  0.00    +0.000 C 
ATOM     75  F11 UNL A   1      14.252  29.267   0.029  1.00  0.00    +0.000 F 
ATOM     76  C55 UNL A   1      13.798  31.569  -0.125  1.00  0.00    +0.000 C 
ATOM     77  F12 UNL A   1      13.853  31.665   1.211  1.00  0.00    +0.000 F 
ATOM     78  C56 UNL A   1      13.615  32.704  -0.897  1.00  0.00    +0.000 C 
ATOM     79  F13 UNL A   1      13.510  33.904  -0.312  1.00  0.00    +0.000 F 
ATOM     80  C57 UNL A   1      13.578  32.598  -2.280  1.00  0.00    +0.000 C 
ATOM     81  F14 UNL A   1      13.424  33.700  -3.028  1.00  0.00    +0.000 F 
ATOM     82  C58 UNL A   1      13.793  31.368  -2.901  1.00  0.00    +0.000 C 
ATOM     83  F15 UNL A   1      13.855  31.323  -4.241  1.00  0.00    +0.000 F 
ENDBRANCH   72   73
TORSDOF 19
ENDMDL
MODEL 7
REMARK VINA RESULT:     -11.5     23.570     29.310
ROOT
ATOM    130  H32 UNL A   1      52.881  14.476   6.730  1.00  0.00    +0.000 H 
ATOM    131  H33 UNL A   1      51.004  15.457   8.305  1.00  0.00    +0.000 H 
ATOM    132  H34 UNL A   1      52.008  18.325   5.519  1.00  0.00    +0.000 H 
ATOM    133  H35 UNL A   1      53.313  16.574  10.596  1.00  0.00    +0.000 H 
ATOM    134  H36 UNL A   1      54.800  16.439   8.524  1.00  0.00    +0.000 H 
ATOM    135  H37 UNL A   1      56.262  19.416  11.018  1.00  0.00    +0.000 H 
ATOM    136  H38 UNL A   1      50.839  21.169  11.203  1.00  0.00    +0.000 H 
ATOM    137  H39 UNL A   1      49.301  20.551   9.232  1.00  0.00    +0.000 H 
ATOM    138  H40 UNL A   1      56.124  18.281   3.628  1.00  0.00    +0.000 H 
ATOM    139  H41 UNL A   1      57.558  19.313   5.499  1.00  0.00    +0.000 H 
ATOM     36  C29 UNL A   1      56.288  18.918   8.128  1.00  0.00    +0.000 C 
ATOM     37  C30 UNL A   1      55.878  18.501   6.774  1.00  0.00    +0.000 C 
ATOM     38  N6  UNL A   1      54.755  17.923   6.508  1.00  0.00    +0.000 N 
ATOM     39  C31 UNL A   1      54.780  17.538   5.191  1.00  0.00    +0.000 C 
ATOM     40  C32 UNL A   1      53.898  16.586   4.774  1.00  0.00    +0.000 C 
ATOM     52  C39 UNL A   1      52.821  16.401   5.754  1.00  0.00    +0.000 C 
ATOM     53  C40 UNL A   1      52.474  15.423   6.672  1.00  0.00    +0.000 C 
ATOM     54  C41 UNL A   1      51.456  15.953   7.522  1.00  0.00    +0.000 C 
ATOM     55  C42 UNL A   1      51.181  17.245   7.113  1.00  0.00    +0.000 C 
ATOM     56  N7  UNL A   1      52.003  17.485   6.031  1.00  0.00    +0.000 N 
ATOM     57  C43 UNL A   1      50.332  18.317   7.602  1.00  0.00    +0.000 C 
ATOM     69  C50 UNL A   1      50.722  18.941   8.748  1.00  0.00    +0.000 C 
ATOM     70  N8  UNL A   1      51.863  18.597   9.419  1.00  0.00    +0.000 N 
ATOM     71  C51 UNL A   1      52.061  19.448  10.387  1.00  0.00    +0.000 C 
ATOM     72  C52 UNL A   1      53.321  19.508  11.217  1.00  0.00    +0.000 C 
ATOM     84  C59 UNL A   1      54.255  18.560  10.921  1.00  0.00    +0.000 C 
ATOM     85  C60 UNL A   1      53.994  17.285  10.285  1.00  0.00    +0.000 C 
ATOM     86  C61 UNL A   1      54.801  17.201   9.220  1.00  0.00    +0.000 C 
ATOM     87  C62 UNL A   1      55.683  18.366   9.207  1.00  0.00    +0.000 C 
ATOM     88  N9  UNL A   1      55.582  18.913  10.514  1.00  0.00    +0.000 N 
ATOM     89  C63 UNL A   1      50.969  20.417  10.508  1.00  0.00    +0.000 C 
ATOM     90  C64 UNL A   1      50.181  20.072   9.476  1.00  0.00    +0.000 C 
ATOM     91  C65 UNL A   1      55.916  18.231   4.638  1.00  0.00    +0.000 C 
ATOM     92  C66 UNL A   1      56.666  18.801   5.586  1.00  0.00    +0.000 C 
ENDROOT
BRANCH   36   35
ATOM     33  C26 UNL A   1      58.105  22.091   8.837  1.00  0.00    +0.000 C 
ATOM     34  C27 UNL A   1      57.196  21.249   8.207  1.00  0.00    +0.000 C 
ATOM    129  H31 UNL A   1      56.403  21.637   7.673  1.00  0.00    +0.000 H 
ATOM     35  C28 UNL A   1      57.380  19.870   8.310  1.00  0.00    +0.000 C 
ATOM    140  H42 UNL A   1      58.783  18.330   8.697  1.00  0.00    +0.000 H 
ATOM    141  H43 UNL A   1      60.477  19.839   9.591  1.00  0.00    +0.000 H 
ATOM    128  H30 UNL A   1      57.986  23.115   8.806  1.00  0.00    +0.000 H 
ATOM     93  C67 UNL A   1      58.596  19.342   8.772  1.00  0.00    +0.000 C 
ATOM     94  C68 UNL A   1      59.541  20.185   9.326  1.00  0.00    +0.000 C 
ATOM     32  C25 UNL A   1      59.183  21.517   9.515  1.00  0.00    +0.000 C 
BRANCH   32   30
ATOM     30  C24 UNL A   1      59.622  22.187  10.762  1.00  0.00    +0.000 C 
ATOM     31  O2  UNL A   1      60.368  23.137  10.721  1.00  0.00    +0.000 O 
BRANCH   30   29
ATOM     29  N5  UNL A   1      59.062  21.715  11.951  1.00  0.00    +0.000 N 
ATOM    127  H29 UNL A   1      58.081  21.633  11.965  1.00  0.00    +0.000 H 
BRANCH   29   28
ATOM     28  C23 UNL A   1      59.760  21.326  13.187  1.00  0.00    +0.000 C 
ATOM    125  H27 UNL A   1      60.808  21.476  13.035  1.00  0.00    +0.000 H 
ATOM    126  H28 UNL A   1      59.346  21.935  13.964  1.00  0.00    +0.000 H 
BRANCH   28   27
ATOM     27  C22 UNL A   1      59.550  19.878  13.628  1.00  0.00    +0.000 C 
ATOM    124  H26 UNL A   1      58.657  19.575  13.124  1.00  0.00    +0.000 H 
ATOM    123  H25 UNL A   1      59.506  19.877  14.698  1.00  0.00    +0.000 H 
BRANCH   27   26
ATOM    121  H23 UNL A   1      60.966  18.393  14.114  1.00  0.00    +0.000 H 
ATOM     26  C21 UNL A   1      60.591  18.837  13.215  1.00  0.00    +0.000 C 
ATOM    122  H24 UNL A   1      60.061  18.186  12.553  1.00  0.00    +0.000 H 
BRANCH   26   25
ATOM     25  C20 UNL A   1      61.807  19.301  12.397  1.00  0.00    +0.000 C 
ATOM    119  H21 UNL A   1      61.408  19.854  11.572  1.00  0.00    +0.000 H 
ATOM    120  H22 UNL A   1      62.388  19.790  13.151  1.00  0.00    +0.000 H 
BRANCH   25   24
ATOM    117  H19 UNL A   1      63.621  18.959  11.370  1.00  0.00    +0.000 H 
ATOM    118  H20 UNL A   1      63.089  17.712  12.625  1.00  0.00    +0.000 H 
ATOM     24  C19 UNL A   1      62.856  18.338  11.791  1.00  0.00    +0.000 C 
BRANCH   24   23
ATOM    115  H17 UNL A   1      61.819  17.779  10.036  1.00  0.00    +0.000 H 
ATOM    116  H18 UNL A   1      63.438  17.022  10.288  1.00  0.00    +0.000 H 
ATOM     23  C18 UNL A   1      62.501  17.311  10.715  1.00  0.00    +0.000 C 
BRANCH   23   22
ATOM    114  H16 UNL A   1      60.913  15.992  11.081  1.00  0.00    +0.000 H 
ATOM     22  N4  UNL A   1      61.891  16.067  11.161  1.00  0.00    +0.000 N 
BRANCH   22   20
ATOM     20  C17 UNL A   1      62.565  14.986  11.684  1.00  0.00    +0.000 C 
ATOM     21  O1  UNL A   1      63.750  14.879  11.330  1.00  0.00    +0.000 O 
BRANCH   20   19
ATOM    110  H12 UNL A   1      59.038  13.775  14.262  1.00  0.00    +0.000 H 
ATOM    111  H13 UNL A   1      61.222  14.430  14.649  1.00  0.00    +0.000 H 
ATOM    112  H14 UNL A   1      60.787  15.522  13.459  1.00  0.00    +0.000 H 
ATOM     17  C15 UNL A   1      59.711  13.789  13.430  1.00  0.00    +0.000 C 
ATOM     18  N3  UNL A   1      60.950  14.538  13.672  1.00  0.00    +0.000 N 
ATOM     19  C16 UNL A   1      62.041  14.034  12.802  1.00  0.00    +0.000 C 
ATOM    142  H44 UNL A   1      62.532  11.960  12.458  1.00  0.00    +0.000 H 
ATOM    143  H45 UNL A   1      61.604  12.650  11.183  1.00  0.00    +0.000 H 
ATOM    113  H15 UNL A   1      62.869  13.979  13.478  1.00  0.00    +0.000 H 
ATOM     95  C69 UNL A   1      61.728  12.634  12.246  1.00  0.00    +0.000 C 
ATOM     96  S1  UNL A   1      60.219  12.097  13.087  1.00  0.00    +0.000 S 
BRANCH   17   16
ATOM      6  C6  UNL A   1      58.059  15.580  12.398  1.00  0.00    +0.000 C 
ATOM      7  N1  UNL A   1      57.561  15.867  11.172  1.00  0.00    +0.000 N 
ATOM      8  N2  UNL A   1      58.286  15.100  10.317  1.00  0.00    +0.000 N 
ATOM    109  H11 UNL A   1      59.548  13.388  10.544  1.00  0.00    +0.000 H 
ATOM     15  C13 UNL A   1      59.028  14.168  10.976  1.00  0.00    +0.000 C 
ATOM     16  C14 UNL A   1      58.959  14.452  12.323  1.00  0.00    +0.000 C 
BRANCH    6    5
ATOM     97  C70 UNL A   1      58.452  16.288  14.778  1.00  0.00    +0.000 C 
ATOM      2  C2  UNL A   1      57.105  18.032  15.841  1.00  0.00    +0.000 C 
ATOM      3  C3  UNL A   1      56.338  18.108  14.682  1.00  0.00    +0.000 C 
ATOM      4  C4  UNL A   1      56.645  17.301  13.582  1.00  0.00    +0.000 C 
ATOM     98  C71 UNL A   1      58.152  17.102  15.888  1.00  0.00    +0.000 C 
ATOM    102  H4  UNL A   1      55.540  18.761  14.635  1.00  0.00    +0.000 H 
ATOM      5  C5  UNL A   1      57.721  16.396  13.590  1.00  0.00    +0.000 C 
ATOM    103  H5  UNL A   1      56.061  17.373  12.734  1.00  0.00    +0.000 H 
ATOM    144  H46 UNL A   1      59.221  15.604  14.841  1.00  0.00    +0.000 H 
ATOM    145  H47 UNL A   1      58.710  17.011  16.750  1.00  0.00    +0.000 H 
BRANCH    2    1
ATOM      1  C1  UNL A   1      56.786  18.939  16.992  1.00  0.00    +0.000 C 
ATOM     99  H1  UNL A   1      55.809  19.356  16.859  1.00  0.00    +0.000 H 
ATOM    100  H2  UNL A   1      57.508  19.728  17.036  1.00  0.00    +0.000 H 
ATOM    101  H3  UNL A   1      56.814  18.380  17.905  1.00  0.00    +0.000 H 
ENDBRANCH    2    1
ENDBRANCH    6    5
BRANCH    8    9
ATOM    104  H6  UNL A   1      56.486  14.728   8.433  1.00  0.00    +0.000 H 
ATOM      9  C7  UNL A   1      58.434  15.396   8.941  1.00  0.00    +0.000 C 
ATOM     10  C8  UNL A   1      57.376  15.096   8.061  1.00  0.00    +0.000 C 
ATOM     11  C9  UNL A   1      57.528  15.296   6.691  1.00  0.00    +0.000 C 
ATOM    108  H10 UNL A   1      60.390  16.178   9.099  1.00  0.00    +0.000 H 
ATOM     13  C11 UNL A   1      59.716  16.244   7.091  1.00  0.00    +0.000 C 
ATOM     14  C12 UNL A   1      59.609  15.965   8.459  1.00  0.00    +0.000 C 
ATOM    105  H7  UNL A   1      56.781  15.010   6.037  1.00  0.00    +0.000 H 
ATOM    107  H9  UNL A   1      60.558  16.720   6.732  1.00  0.00    +0.000 H 
ATOM     12  C10 UNL A   1      58.692  15.885   6.208  1.00  0.00    +0.000 C 
ATOM    106  H8  UNL A   1      58.802  16.058   5.197  1.00  0.00    +0.000 H 
ENDBRANCH    8    9
ENDBRANCH   17   16
ENDBRANCH   20   19
ENDBRANCH   22   20
ENDBRANCH   23   22
ENDBRANCH   24   23
ENDBRANCH   25   24
ENDBRANCH   26   25
ENDBRANCH   27   26
ENDBRANCH   28   27
ENDBRANCH   29   28
ENDBRANCH   30   29
ENDBRANCH   32   30
ENDBRANCH   36   35
BRANCH   40   41
ATOM     41  C33 UNL A   1      54.063  15.694   3.553  1.00  0.00    +0.000 C 
ATOM     42  C34 UNL A   1      52.936  15.363   2.763  1.00  0.00    +0.000 C 
ATOM     43  F1  UNL A   1      51.737  15.917   2.987  1.00  0.00    +0.000 F 
ATOM     44  C35 UNL A   1      52.987  14.426   1.723  1.00  0.00    +0.000 C 
ATOM     45  F2  UNL A   1      51.867  14.114   1.055  1.00  0.00    +0.000 F 
ATOM     46  C36 UNL A   1      54.172  13.806   1.393  1.00  0.00    +0.000 C 
ATOM     47  F3  UNL A   1      54.223  12.899   0.409  1.00  0.00    +0.000 F 
ATOM     48  C37 UNL A   1      55.306  14.126   2.102  1.00  0.00    +0.000 C 
ATOM     49  F4  UNL A   1      56.474  13.541   1.798  1.00  0.00    +0.000 F 
ATOM     50  C38 UNL A   1      55.248  15.035   3.162  1.00  0.00    +0.000 C 
ATOM     51  F5  UNL A   1      56.409  15.195   3.797  1.00  0.00    +0.000 F 
ENDBRANCH   40   41
BRANCH   57   58
ATOM     65  C48 UNL A   1      47.891  20.327   5.471  1.00  0.00    +0.000 C 
ATOM     66  F9  UNL A   1      47.815  21.559   4.947  1.00  0.00    +0.000 F 
ATOM     67  C49 UNL A   1      48.952  19.997   6.311  1.00  0.00    +0.000 C 
ATOM     68  F10 UNL A   1      49.823  20.973   6.609  1.00  0.00    +0.000 F 
ATOM     58  C44 UNL A   1      49.101  18.703   6.846  1.00  0.00    +0.000 C 
ATOM     59  C45 UNL A   1      48.102  17.770   6.527  1.00  0.00    +0.000 C 
ATOM     60  F6  UNL A   1      48.174  16.511   6.984  1.00  0.00    +0.000 F 
ATOM     61  C46 UNL A   1      47.016  18.116   5.721  1.00  0.00    +0.000 C 
ATOM     62  F7  UNL A   1      46.064  17.209   5.461  1.00  0.00    +0.000 F 
ATOM     63  C47 UNL A   1      46.921  19.387   5.179  1.00  0.00    +0.000 C 
ATOM     64  F8  UNL A   1      45.894  19.706   4.379  1.00  0.00    +0.000 F 
ENDBRANCH   57   58
BRANCH   72   73
ATOM     73  C53 UNL A   1      53.917  20.744  11.780  1.00  0.00    +0.000 C 
ATOM     74  C54 UNL A   1      54.257  20.758  13.146  1.00  0.00    +0.000 C 
ATOM     75  F11 UNL A   1      53.733  19.843  13.977  1.00  0.00    +0.000 F 
ATOM     76  C55 UNL A   1      55.221  21.632  13.640  1.00  0.00    +0.000 C 
ATOM     77  F12 UNL A   1      55.603  21.550  14.922  1.00  0.00    +0.000 F 
ATOM     78  C56 UNL A   1      55.835  22.533  12.787  1.00  0.00    +0.000 C 
ATOM     79  F13 UNL A   1      56.826  23.314  13.237  1.00  0.00    +0.000 F 
ATOM     80  C57 UNL A   1      55.446  22.598  11.457  1.00  0.00    +0.000 C 
ATOM     81  F14 UNL A   1      56.058  23.455  10.627  1.00  0.00    +0.000 F 
ATOM     82  C58 UNL A   1      54.490  21.715  10.955  1.00  0.00    +0.000 C 
ATOM     83  F15 UNL A   1      54.216  21.738   9.642  1.00  0.00    +0.000 F 
ENDBRANCH   72   73
TORSDOF 19
ENDMDL
MODEL 8
REMARK VINA RESULT:     -11.5     20.872     28.118
ROOT
ATOM    130  H32 UNL A   1      18.663  38.128  45.998  1.00  0.00    +0.000 H 
ATOM    131  H33 UNL A   1      19.915  36.867  44.046  1.00  0.00    +0.000 H 
ATOM    132  H34 UNL A   1      19.483  34.270  47.219  1.00  0.00    +0.000 H 
ATOM    133  H35 UNL A   1      22.989  37.985  45.107  1.00  0.00    +0.000 H 
ATOM    134  H36 UNL A   1      21.677  38.216  47.286  1.00  0.00    +0.000 H 
ATOM    135  H37 UNL A   1      25.660  37.498  48.202  1.00  0.00    +0.000 H 
ATOM    136  H38 UNL A   1      25.210  33.278  44.395  1.00  0.00    +0.000 H 
ATOM    137  H39 UNL A   1      22.873  32.290  43.955  1.00  0.00    +0.000 H 
ATOM    138  H40 UNL A   1      19.104  35.905  51.427  1.00  0.00    +0.000 H 
ATOM    139  H41 UNL A   1      21.550  36.481  51.975  1.00  0.00    +0.000 H 
ATOM     36  C29 UNL A   1      23.089  36.960  49.509  1.00  0.00    +0.000 C 
ATOM     37  C30 UNL A   1      21.670  36.624  49.723  1.00  0.00    +0.000 C 
ATOM     38  N6  UNL A   1      20.835  36.382  48.768  1.00  0.00    +0.000 N 
ATOM     39  C31 UNL A   1      19.584  36.268  49.320  1.00  0.00    +0.000 C 
ATOM     40  C32 UNL A   1      18.498  36.398  48.506  1.00  0.00    +0.000 C 
ATOM     52  C39 UNL A   1      18.883  36.281  47.094  1.00  0.00    +0.000 C 
ATOM     53  C40 UNL A   1      19.003  37.154  46.025  1.00  0.00    +0.000 C 
ATOM     54  C41 UNL A   1      19.677  36.470  44.968  1.00  0.00    +0.000 C 
ATOM     55  C42 UNL A   1      19.956  35.184  45.394  1.00  0.00    +0.000 C 
ATOM     56  N7  UNL A   1      19.448  35.088  46.673  1.00  0.00    +0.000 N 
ATOM     57  C43 UNL A   1      20.676  34.052  44.836  1.00  0.00    +0.000 C 
ATOM     69  C50 UNL A   1      22.033  34.149  44.782  1.00  0.00    +0.000 C 
ATOM     70  N8  UNL A   1      22.710  35.249  45.233  1.00  0.00    +0.000 N 
ATOM     71  C51 UNL A   1      23.990  35.008  45.192  1.00  0.00    +0.000 C 
ATOM     72  C52 UNL A   1      25.041  35.909  45.797  1.00  0.00    +0.000 C 
ATOM     84  C59 UNL A   1      24.565  37.052  46.367  1.00  0.00    +0.000 C 
ATOM     85  C60 UNL A   1      23.308  37.697  46.046  1.00  0.00    +0.000 C 
ATOM     86  C61 UNL A   1      22.638  37.851  47.195  1.00  0.00    +0.000 C 
ATOM     87  C62 UNL A   1      23.491  37.414  48.298  1.00  0.00    +0.000 C 
ATOM     88  N9  UNL A   1      24.799  37.359  47.746  1.00  0.00    +0.000 N 
ATOM     89  C63 UNL A   1      24.293  33.706  44.593  1.00  0.00    +0.000 C 
ATOM     90  C64 UNL A   1      23.062  33.215  44.369  1.00  0.00    +0.000 C 
ATOM     91  C65 UNL A   1      19.827  36.160  50.737  1.00  0.00    +0.000 C 
ATOM     92  C66 UNL A   1      21.098  36.428  51.049  1.00  0.00    +0.000 C 
ENDROOT
BRANCH   36   35
ATOM     33  C26 UNL A   1      26.074  35.954  51.497  1.00  0.00    +0.000 C 
ATOM     34  C27 UNL A   1      24.909  35.780  50.760  1.00  0.00    +0.000 C 
ATOM    129  H31 UNL A   1      24.687  34.867  50.334  1.00  0.00    +0.000 H 
ATOM     35  C28 UNL A   1      24.046  36.866  50.609  1.00  0.00    +0.000 C 
ATOM    140  H42 UNL A   1      23.453  38.736  51.409  1.00  0.00    +0.000 H 
ATOM    141  H43 UNL A   1      25.386  38.933  52.880  1.00  0.00    +0.000 H 
ATOM    128  H30 UNL A   1      26.750  35.181  51.607  1.00  0.00    +0.000 H 
ATOM     93  C67 UNL A   1      24.183  38.008  51.414  1.00  0.00    +0.000 C 
ATOM     94  C68 UNL A   1      25.302  38.150  52.213  1.00  0.00    +0.000 C 
ATOM     32  C25 UNL A   1      26.310  37.199  52.084  1.00  0.00    +0.000 C 
BRANCH   32   30
ATOM     30  C24 UNL A   1      27.717  37.665  52.123  1.00  0.00    +0.000 C 
ATOM     31  O2  UNL A   1      28.566  37.011  52.682  1.00  0.00    +0.000 O 
BRANCH   30   29
ATOM     29  N5  UNL A   1      28.004  38.833  51.414  1.00  0.00    +0.000 N 
ATOM    127  H29 UNL A   1      28.231  39.623  51.955  1.00  0.00    +0.000 H 
BRANCH   29   28
ATOM     28  C23 UNL A   1      28.009  39.025  49.954  1.00  0.00    +0.000 C 
ATOM    125  H27 UNL A   1      27.186  39.660  49.702  1.00  0.00    +0.000 H 
ATOM    126  H28 UNL A   1      28.965  39.445  49.716  1.00  0.00    +0.000 H 
BRANCH   28   27
ATOM     27  C22 UNL A   1      27.891  37.747  49.126  1.00  0.00    +0.000 C 
ATOM    124  H26 UNL A   1      27.544  38.081  48.172  1.00  0.00    +0.000 H 
ATOM    123  H25 UNL A   1      27.237  37.085  49.656  1.00  0.00    +0.000 H 
BRANCH   27   26
ATOM    121  H23 UNL A   1      29.054  36.556  47.831  1.00  0.00    +0.000 H 
ATOM     26  C21 UNL A   1      29.168  36.966  48.813  1.00  0.00    +0.000 C 
ATOM    122  H24 UNL A   1      29.951  37.685  48.935  1.00  0.00    +0.000 H 
BRANCH   26   25
ATOM     25  C20 UNL A   1      29.568  35.811  49.744  1.00  0.00    +0.000 C 
ATOM    119  H21 UNL A   1      29.183  36.069  50.709  1.00  0.00    +0.000 H 
ATOM    120  H22 UNL A   1      29.179  34.971  49.208  1.00  0.00    +0.000 H 
BRANCH   25   24
ATOM    117  H19 UNL A   1      31.354  35.857  50.872  1.00  0.00    +0.000 H 
ATOM    118  H20 UNL A   1      30.937  34.296  49.976  1.00  0.00    +0.000 H 
ATOM     24  C19 UNL A   1      31.030  35.361  49.980  1.00  0.00    +0.000 C 
BRANCH   24   23
ATOM    115  H17 UNL A   1      33.043  35.199  49.355  1.00  0.00    +0.000 H 
ATOM    116  H18 UNL A   1      31.789  35.088  48.062  1.00  0.00    +0.000 H 
ATOM     23  C18 UNL A   1      32.133  35.584  48.945  1.00  0.00    +0.000 C 
BRANCH   23   22
ATOM    114  H16 UNL A   1      32.519  37.624  49.241  1.00  0.00    +0.000 H 
ATOM     22  N4  UNL A   1      32.387  36.956  48.530  1.00  0.00    +0.000 N 
BRANCH   22   20
ATOM     20  C17 UNL A   1      32.456  37.400  47.229  1.00  0.00    +0.000 C 
ATOM     21  O1  UNL A   1      31.414  37.268  46.568  1.00  0.00    +0.000 O 
BRANCH   20   19
ATOM    110  H12 UNL A   1      33.784  40.106  43.842  1.00  0.00    +0.000 H 
ATOM    111  H13 UNL A   1      34.510  38.101  44.740  1.00  0.00    +0.000 H 
ATOM    112  H14 UNL A   1      32.856  37.846  44.730  1.00  0.00    +0.000 H 
ATOM     17  C15 UNL A   1      33.393  39.813  44.794  1.00  0.00    +0.000 C 
ATOM     18  N3  UNL A   1      33.615  38.401  45.127  1.00  0.00    +0.000 N 
ATOM     19  C16 UNL A   1      33.630  38.210  46.598  1.00  0.00    +0.000 C 
ATOM    142  H44 UNL A   1      34.684  39.439  48.026  1.00  0.00    +0.000 H 
ATOM    143  H45 UNL A   1      33.009  39.819  47.921  1.00  0.00    +0.000 H 
ATOM    113  H15 UNL A   1      34.470  37.561  46.738  1.00  0.00    +0.000 H 
ATOM     95  C69 UNL A   1      33.865  39.534  47.344  1.00  0.00    +0.000 C 
ATOM     96  S1  UNL A   1      34.245  40.757  46.067  1.00  0.00    +0.000 S 
BRANCH   17   16
ATOM      6  C6  UNL A   1      30.966  39.495  43.788  1.00  0.00    +0.000 C 
ATOM      7  N1  UNL A   1      29.729  39.990  44.029  1.00  0.00    +0.000 N 
ATOM      8  N2  UNL A   1      29.852  40.670  45.198  1.00  0.00    +0.000 N 
ATOM    109  H11 UNL A   1      31.505  41.428  46.324  1.00  0.00    +0.000 H 
ATOM     15  C13 UNL A   1      31.155  40.833  45.557  1.00  0.00    +0.000 C 
ATOM     16  C14 UNL A   1      31.923  40.061  44.711  1.00  0.00    +0.000 C 
BRANCH    6    5
ATOM     97  C70 UNL A   1      31.674  38.827  41.470  1.00  0.00    +0.000 C 
ATOM      2  C2  UNL A   1      31.746  36.485  40.770  1.00  0.00    +0.000 C 
ATOM      3  C3  UNL A   1      31.233  36.126  42.013  1.00  0.00    +0.000 C 
ATOM      4  C4  UNL A   1      30.969  37.107  42.974  1.00  0.00    +0.000 C 
ATOM     98  C71 UNL A   1      31.946  37.844  40.499  1.00  0.00    +0.000 C 
ATOM    102  H4  UNL A   1      31.044  35.134  42.225  1.00  0.00    +0.000 H 
ATOM      5  C5  UNL A   1      31.209  38.472  42.740  1.00  0.00    +0.000 C 
ATOM    103  H5  UNL A   1      30.587  36.818  43.888  1.00  0.00    +0.000 H 
ATOM    144  H46 UNL A   1      31.821  39.823  41.242  1.00  0.00    +0.000 H 
ATOM    145  H47 UNL A   1      32.297  38.130  39.572  1.00  0.00    +0.000 H 
BRANCH    2    1
ATOM      1  C1  UNL A   1      32.063  35.412  39.771  1.00  0.00    +0.000 C 
ATOM     99  H1  UNL A   1      32.563  35.844  38.928  1.00  0.00    +0.000 H 
ATOM    100  H2  UNL A   1      31.156  34.946  39.447  1.00  0.00    +0.000 H 
ATOM    101  H3  UNL A   1      32.698  34.679  40.224  1.00  0.00    +0.000 H 
ENDBRANCH    2    1
ENDBRANCH    6    5
BRANCH    8    9
ATOM    104  H6  UNL A   1      27.713  39.177  45.549  1.00  0.00    +0.000 H 
ATOM      9  C7  UNL A   1      28.759  40.954  46.050  1.00  0.00    +0.000 C 
ATOM     10  C8  UNL A   1      27.673  40.057  46.089  1.00  0.00    +0.000 C 
ATOM     11  C9  UNL A   1      26.546  40.355  46.852  1.00  0.00    +0.000 C 
ATOM    108  H10 UNL A   1      29.536  42.768  46.802  1.00  0.00    +0.000 H 
ATOM     13  C11 UNL A   1      27.647  42.348  47.665  1.00  0.00    +0.000 C 
ATOM     14  C12 UNL A   1      28.747  42.105  46.833  1.00  0.00    +0.000 C 
ATOM    105  H7  UNL A   1      25.720  39.735  46.824  1.00  0.00    +0.000 H 
ATOM    107  H9  UNL A   1      27.654  43.166  48.293  1.00  0.00    +0.000 H 
ATOM     12  C10 UNL A   1      26.540  41.493  47.652  1.00  0.00    +0.000 C 
ATOM    106  H8  UNL A   1      25.718  41.707  48.238  1.00  0.00    +0.000 H 
ENDBRANCH    8    9
ENDBRANCH   17   16
ENDBRANCH   20   19
ENDBRANCH   22   20
ENDBRANCH   23   22
ENDBRANCH   24   23
ENDBRANCH   25   24
ENDBRANCH   26   25
ENDBRANCH   27   26
ENDBRANCH   28   27
ENDBRANCH   29   28
ENDBRANCH   30   29
ENDBRANCH   32   30
ENDBRANCH   36   35
BRANCH   40   41
ATOM     41  C33 UNL A   1      17.095  36.783  48.949  1.00  0.00    +0.000 C 
ATOM     42  C34 UNL A   1      15.972  36.279  48.253  1.00  0.00    +0.000 C 
ATOM     43  F1  UNL A   1      16.102  35.363  47.283  1.00  0.00    +0.000 F 
ATOM     44  C35 UNL A   1      14.664  36.713  48.505  1.00  0.00    +0.000 C 
ATOM     45  F2  UNL A   1      13.652  36.238  47.766  1.00  0.00    +0.000 F 
ATOM     46  C36 UNL A   1      14.410  37.641  49.492  1.00  0.00    +0.000 C 
ATOM     47  F3  UNL A   1      13.163  38.069  49.728  1.00  0.00    +0.000 F 
ATOM     48  C37 UNL A   1      15.463  38.130  50.228  1.00  0.00    +0.000 C 
ATOM     49  F4  UNL A   1      15.244  39.029  51.198  1.00  0.00    +0.000 F 
ATOM     50  C38 UNL A   1      16.772  37.722  49.953  1.00  0.00    +0.000 C 
ATOM     51  F5  UNL A   1      17.692  38.329  50.700  1.00  0.00    +0.000 F 
ENDBRANCH   40   41
BRANCH   57   58
ATOM     65  C48 UNL A   1      19.336  30.487  44.659  1.00  0.00    +0.000 C 
ATOM     66  F9  UNL A   1      19.538  29.320  45.288  1.00  0.00    +0.000 F 
ATOM     67  C49 UNL A   1      20.134  31.587  44.968  1.00  0.00    +0.000 C 
ATOM     68  F10 UNL A   1      21.125  31.394  45.851  1.00  0.00    +0.000 F 
ATOM     58  C44 UNL A   1      19.929  32.844  44.370  1.00  0.00    +0.000 C 
ATOM     59  C45 UNL A   1      18.908  32.927  43.410  1.00  0.00    +0.000 C 
ATOM     60  F6  UNL A   1      18.637  34.092  42.802  1.00  0.00    +0.000 F 
ATOM     61  C46 UNL A   1      18.139  31.813  43.070  1.00  0.00    +0.000 C 
ATOM     62  F7  UNL A   1      17.192  31.920  42.127  1.00  0.00    +0.000 F 
ATOM     63  C47 UNL A   1      18.341  30.600  43.707  1.00  0.00    +0.000 C 
ATOM     64  F8  UNL A   1      17.580  29.540  43.400  1.00  0.00    +0.000 F 
ENDBRANCH   57   58
BRANCH   72   73
ATOM     73  C53 UNL A   1      26.313  35.451  46.406  1.00  0.00    +0.000 C 
ATOM     74  C54 UNL A   1      26.257  34.444  47.390  1.00  0.00    +0.000 C 
ATOM     75  F11 UNL A   1      25.096  34.176  48.009  1.00  0.00    +0.000 F 
ATOM     76  C55 UNL A   1      27.357  33.635  47.656  1.00  0.00    +0.000 C 
ATOM     77  F12 UNL A   1      27.243  32.616  48.519  1.00  0.00    +0.000 F 
ATOM     78  C56 UNL A   1      28.544  33.840  46.974  1.00  0.00    +0.000 C 
ATOM     79  F13 UNL A   1      29.578  33.008  47.160  1.00  0.00    +0.000 F 
ATOM     80  C57 UNL A   1      28.648  34.886  46.068  1.00  0.00    +0.000 C 
ATOM     81  F14 UNL A   1      29.790  35.069  45.391  1.00  0.00    +0.000 F 
ATOM     82  C58 UNL A   1      27.543  35.692  45.789  1.00  0.00    +0.000 C 
ATOM     83  F15 UNL A   1      27.651  36.625  44.832  1.00  0.00    +0.000 F 
ENDBRANCH   72   73
TORSDOF 19
ENDMDL
MODEL 9
REMARK VINA RESULT:     -11.4     23.413     30.318
ROOT
ATOM    130  H32 UNL A   1      18.764  38.180  45.740  1.00  0.00    +0.000 H 
ATOM    131  H33 UNL A   1      19.853  36.716  43.833  1.00  0.00    +0.000 H 
ATOM    132  H34 UNL A   1      19.379  34.361  47.184  1.00  0.00    +0.000 H 
ATOM    133  H35 UNL A   1      23.033  37.689  44.709  1.00  0.00    +0.000 H 
ATOM    134  H36 UNL A   1      21.826  38.146  46.912  1.00  0.00    +0.000 H 
ATOM    135  H37 UNL A   1      25.787  37.220  47.733  1.00  0.00    +0.000 H 
ATOM    136  H38 UNL A   1      24.913  32.806  44.231  1.00  0.00    +0.000 H 
ATOM    137  H39 UNL A   1      22.500  31.952  43.940  1.00  0.00    +0.000 H 
ATOM    138  H40 UNL A   1      19.274  36.281  51.286  1.00  0.00    +0.000 H 
ATOM    139  H41 UNL A   1      21.773  36.725  51.708  1.00  0.00    +0.000 H 
ATOM     36  C29 UNL A   1      23.241  36.941  49.163  1.00  0.00    +0.000 C 
ATOM     37  C30 UNL A   1      21.812  36.716  49.448  1.00  0.00    +0.000 C 
ATOM     38  N6  UNL A   1      20.926  36.471  48.541  1.00  0.00    +0.000 N 
ATOM     39  C31 UNL A   1      19.693  36.476  49.143  1.00  0.00    +0.000 C 
ATOM     40  C32 UNL A   1      18.587  36.628  48.362  1.00  0.00    +0.000 C 
ATOM     52  C39 UNL A   1      18.907  36.396  46.948  1.00  0.00    +0.000 C 
ATOM     53  C40 UNL A   1      19.040  37.188  45.820  1.00  0.00    +0.000 C 
ATOM     54  C41 UNL A   1      19.627  36.395  44.788  1.00  0.00    +0.000 C 
ATOM     55  C42 UNL A   1      19.838  35.123  45.287  1.00  0.00    +0.000 C 
ATOM     56  N7  UNL A   1      19.375  35.143  46.586  1.00  0.00    +0.000 N 
ATOM     57  C43 UNL A   1      20.459  33.912  44.780  1.00  0.00    +0.000 C 
ATOM     69  C50 UNL A   1      21.817  33.913  44.671  1.00  0.00    +0.000 C 
ATOM     70  N8  UNL A   1      22.581  34.991  45.025  1.00  0.00    +0.000 N 
ATOM     71  C51 UNL A   1      23.841  34.662  44.955  1.00  0.00    +0.000 C 
ATOM     72  C52 UNL A   1      24.971  35.526  45.461  1.00  0.00    +0.000 C 
ATOM     84  C59 UNL A   1      24.594  36.733  45.971  1.00  0.00    +0.000 C 
ATOM     85  C60 UNL A   1      23.370  37.440  45.653  1.00  0.00    +0.000 C 
ATOM     86  C61 UNL A   1      22.757  37.711  46.812  1.00  0.00    +0.000 C 
ATOM     87  C62 UNL A   1      23.623  37.289  47.910  1.00  0.00    +0.000 C 
ATOM     88  N9  UNL A   1      24.901  37.111  47.317  1.00  0.00    +0.000 N 
ATOM     89  C63 UNL A   1      24.034  33.307  44.432  1.00  0.00    +0.000 C 
ATOM     90  C64 UNL A   1      22.766  32.888  44.285  1.00  0.00    +0.000 C 
ATOM     91  C65 UNL A   1      19.984  36.442  50.555  1.00  0.00    +0.000 C 
ATOM     92  C66 UNL A   1      21.282  36.643  50.804  1.00  0.00    +0.000 C 
ENDROOT
BRANCH   36   35
ATOM     33  C26 UNL A   1      25.176  37.752  52.241  1.00  0.00    +0.000 C 
ATOM     34  C27 UNL A   1      24.627  37.961  50.981  1.00  0.00    +0.000 C 
ATOM    129  H31 UNL A   1      24.516  38.916  50.607  1.00  0.00    +0.000 H 
ATOM     35  C28 UNL A   1      24.232  36.852  50.232  1.00  0.00    +0.000 C 
ATOM    140  H42 UNL A   1      24.482  34.767  49.953  1.00  0.00    +0.000 H 
ATOM    141  H43 UNL A   1      25.656  34.435  52.064  1.00  0.00    +0.000 H 
ATOM    128  H30 UNL A   1      25.454  38.548  52.834  1.00  0.00    +0.000 H 
ATOM     93  C67 UNL A   1      24.642  35.560  50.594  1.00  0.00    +0.000 C 
ATOM     94  C68 UNL A   1      25.264  35.355  51.811  1.00  0.00    +0.000 C 
ATOM     32  C25 UNL A   1      25.340  36.437  52.684  1.00  0.00    +0.000 C 
BRANCH   32   30
ATOM     30  C24 UNL A   1      25.118  36.185  54.128  1.00  0.00    +0.000 C 
ATOM     31  O2  UNL A   1      25.804  35.391  54.727  1.00  0.00    +0.000 O 
BRANCH   30   29
ATOM     29  N5  UNL A   1      24.147  36.971  54.752  1.00  0.00    +0.000 N 
ATOM    127  H29 UNL A   1      23.335  37.155  54.227  1.00  0.00    +0.000 H 
BRANCH   29   28
ATOM     28  C23 UNL A   1      24.190  37.557  56.102  1.00  0.00    +0.000 C 
ATOM    125  H27 UNL A   1      23.430  37.088  56.690  1.00  0.00    +0.000 H 
ATOM    126  H28 UNL A   1      25.182  37.386  56.466  1.00  0.00    +0.000 H 
BRANCH   28   27
ATOM     27  C22 UNL A   1      23.972  39.068  56.166  1.00  0.00    +0.000 C 
ATOM    124  H26 UNL A   1      24.448  39.365  57.077  1.00  0.00    +0.000 H 
ATOM    123  H25 UNL A   1      22.916  39.238  56.113  1.00  0.00    +0.000 H 
BRANCH   27   26
ATOM    121  H23 UNL A   1      25.154  40.720  55.601  1.00  0.00    +0.000 H 
ATOM     26  C21 UNL A   1      24.626  39.939  55.094  1.00  0.00    +0.000 C 
ATOM    122  H24 UNL A   1      25.225  39.256  54.530  1.00  0.00    +0.000 H 
BRANCH   26   25
ATOM     25  C20 UNL A   1      23.726  40.608  54.043  1.00  0.00    +0.000 C 
ATOM    119  H21 UNL A   1      23.055  39.845  53.707  1.00  0.00    +0.000 H 
ATOM    120  H22 UNL A   1      23.361  41.451  54.592  1.00  0.00    +0.000 H 
BRANCH   25   24
ATOM    117  H19 UNL A   1      25.177  40.802  52.520  1.00  0.00    +0.000 H 
ATOM    118  H20 UNL A   1      23.424  41.209  52.101  1.00  0.00    +0.000 H 
ATOM     24  C19 UNL A   1      24.259  41.296  52.763  1.00  0.00    +0.000 C 
BRANCH   24   23
ATOM    115  H17 UNL A   1      23.949  43.274  53.442  1.00  0.00    +0.000 H 
ATOM    116  H18 UNL A   1      25.610  42.877  52.858  1.00  0.00    +0.000 H 
ATOM     23  C18 UNL A   1      24.554  42.795  52.701  1.00  0.00    +0.000 C 
BRANCH   23   22
ATOM    114  H16 UNL A   1      23.468  43.260  50.969  1.00  0.00    +0.000 H 
ATOM     22  N4  UNL A   1      24.310  43.469  51.435  1.00  0.00    +0.000 N 
BRANCH   22   20
ATOM     20  C17 UNL A   1      25.156  44.373  50.831  1.00  0.00    +0.000 C 
ATOM     21  O1  UNL A   1      26.234  44.560  51.416  1.00  0.00    +0.000 O 
BRANCH   20   19
ATOM    110  H12 UNL A   1      23.913  43.690  46.525  1.00  0.00    +0.000 H 
ATOM    111  H13 UNL A   1      25.784  44.531  47.593  1.00  0.00    +0.000 H 
ATOM    112  H14 UNL A   1      25.454  43.207  48.562  1.00  0.00    +0.000 H 
ATOM     17  C15 UNL A   1      23.830  43.932  47.564  1.00  0.00    +0.000 C 
ATOM     18  N3  UNL A   1      25.118  44.116  48.244  1.00  0.00    +0.000 N 
ATOM     19  C16 UNL A   1      24.962  45.007  49.420  1.00  0.00    +0.000 C 
ATOM    142  H44 UNL A   1      23.877  46.873  49.463  1.00  0.00    +0.000 H 
ATOM    143  H45 UNL A   1      22.982  45.560  50.125  1.00  0.00    +0.000 H 
ATOM    113  H15 UNL A   1      25.809  45.656  49.331  1.00  0.00    +0.000 H 
ATOM     95  C69 UNL A   1      23.665  45.830  49.346  1.00  0.00    +0.000 C 
ATOM     96  S1  UNL A   1      22.970  45.507  47.707  1.00  0.00    +0.000 S 
BRANCH   17   16
ATOM      6  C6  UNL A   1      23.540  41.394  48.253  1.00  0.00    +0.000 C 
ATOM      7  N1  UNL A   1      22.605  40.647  48.884  1.00  0.00    +0.000 N 
ATOM      8  N2  UNL A   1      21.729  41.551  49.396  1.00  0.00    +0.000 N 
ATOM    109  H11 UNL A   1      21.324  43.618  49.026  1.00  0.00    +0.000 H 
ATOM     15  C13 UNL A   1      21.939  42.800  48.896  1.00  0.00    +0.000 C 
ATOM     16  C14 UNL A   1      23.120  42.774  48.185  1.00  0.00    +0.000 C 
BRANCH    6    5
ATOM     97  C70 UNL A   1      25.075  40.626  46.416  1.00  0.00    +0.000 C 
ATOM      2  C2  UNL A   1      27.313  39.758  46.886  1.00  0.00    +0.000 C 
ATOM      3  C3  UNL A   1      27.047  39.885  48.246  1.00  0.00    +0.000 C 
ATOM      4  C4  UNL A   1      25.820  40.400  48.677  1.00  0.00    +0.000 C 
ATOM     98  C71 UNL A   1      26.310  40.113  45.974  1.00  0.00    +0.000 C 
ATOM    102  H4  UNL A   1      27.757  39.598  48.938  1.00  0.00    +0.000 H 
ATOM      5  C5  UNL A   1      24.819  40.808  47.779  1.00  0.00    +0.000 C 
ATOM    103  H5  UNL A   1      25.644  40.483  49.690  1.00  0.00    +0.000 H 
ATOM    144  H46 UNL A   1      24.349  40.871  45.725  1.00  0.00    +0.000 H 
ATOM    145  H47 UNL A   1      26.479  39.995  44.964  1.00  0.00    +0.000 H 
BRANCH    2    1
ATOM      1  C1  UNL A   1      28.652  39.246  46.446  1.00  0.00    +0.000 C 
ATOM     99  H1  UNL A   1      28.994  39.814  45.606  1.00  0.00    +0.000 H 
ATOM    100  H2  UNL A   1      28.568  38.216  46.169  1.00  0.00    +0.000 H 
ATOM    101  H3  UNL A   1      29.353  39.343  47.250  1.00  0.00    +0.000 H 
ENDBRANCH    2    1
ENDBRANCH    6    5
BRANCH    8    9
ATOM    104  H6  UNL A   1      19.527  42.846  50.029  1.00  0.00    +0.000 H 
ATOM      9  C7  UNL A   1      20.875  41.273  50.489  1.00  0.00    +0.000 C 
ATOM     10  C8  UNL A   1      19.751  42.096  50.702  1.00  0.00    +0.000 C 
ATOM     11  C9  UNL A   1      18.942  41.900  51.820  1.00  0.00    +0.000 C 
ATOM    108  H10 UNL A   1      21.968  39.611  51.200  1.00  0.00    +0.000 H 
ATOM     13  C11 UNL A   1      20.270  39.968  52.417  1.00  0.00    +0.000 C 
ATOM     14  C12 UNL A   1      21.141  40.211  51.348  1.00  0.00    +0.000 C 
ATOM    105  H7  UNL A   1      18.162  42.546  52.017  1.00  0.00    +0.000 H 
ATOM    107  H9  UNL A   1      20.424  39.149  53.024  1.00  0.00    +0.000 H 
ATOM     12  C10 UNL A   1      19.193  40.825  52.668  1.00  0.00    +0.000 C 
ATOM    106  H8  UNL A   1      18.584  40.660  53.484  1.00  0.00    +0.000 H 
ENDBRANCH    8    9
ENDBRANCH   17   16
ENDBRANCH   20   19
ENDBRANCH   22   20
ENDBRANCH   23   22
ENDBRANCH   24   23
ENDBRANCH   25   24
ENDBRANCH   26   25
ENDBRANCH   27   26
ENDBRANCH   28   27
ENDBRANCH   29   28
ENDBRANCH   30   29
ENDBRANCH   32   30
ENDBRANCH   36   35
BRANCH   40   41
ATOM     41  C33 UNL A   1      17.230  37.135  48.827  1.00  0.00    +0.000 C 
ATOM     42  C34 UNL A   1      17.155  38.229  49.721  1.00  0.00    +0.000 C 
ATOM     43  F1  UNL A   1      18.247  38.920  50.076  1.00  0.00    +0.000 F 
ATOM     44  C35 UNL A   1      15.955  38.646  50.310  1.00  0.00    +0.000 C 
ATOM     45  F2  UNL A   1      15.965  39.652  51.196  1.00  0.00    +0.000 F 
ATOM     46  C36 UNL A   1      14.766  38.019  50.005  1.00  0.00    +0.000 C 
ATOM     47  F3  UNL A   1      13.619  38.406  50.577  1.00  0.00    +0.000 F 
ATOM     48  C37 UNL A   1      14.779  36.978  49.108  1.00  0.00    +0.000 C 
ATOM     49  F4  UNL A   1      13.636  36.353  48.788  1.00  0.00    +0.000 F 
ATOM     50  C38 UNL A   1      15.982  36.539  48.546  1.00  0.00    +0.000 C 
ATOM     51  F5  UNL A   1      15.848  35.481  47.748  1.00  0.00    +0.000 F 
ENDBRANCH   40   41
BRANCH   57   58
ATOM     65  C48 UNL A   1      18.009  31.664  42.915  1.00  0.00    +0.000 C 
ATOM     66  F9  UNL A   1      17.163  31.764  41.880  1.00  0.00    +0.000 F 
ATOM     67  C49 UNL A   1      18.684  32.795  43.369  1.00  0.00    +0.000 C 
ATOM     68  F10 UNL A   1      18.395  33.960  42.772  1.00  0.00    +0.000 F 
ATOM     58  C44 UNL A   1      19.617  32.730  44.421  1.00  0.00    +0.000 C 
ATOM     59  C45 UNL A   1      19.802  31.476  45.024  1.00  0.00    +0.000 C 
ATOM     60  F6  UNL A   1      20.682  31.324  46.024  1.00  0.00    +0.000 F 
ATOM     61  C46 UNL A   1      19.091  30.353  44.597  1.00  0.00    +0.000 C 
ATOM     62  F7  UNL A   1      19.270  29.177  45.215  1.00  0.00    +0.000 F 
ATOM     63  C47 UNL A   1      18.210  30.443  43.532  1.00  0.00    +0.000 C 
ATOM     64  F8  UNL A   1      17.552  29.357  43.105  1.00  0.00    +0.000 F 
ENDBRANCH   57   58
BRANCH   72   73
ATOM     73  C53 UNL A   1      26.233  35.023  46.054  1.00  0.00    +0.000 C 
ATOM     74  C54 UNL A   1      27.451  35.542  45.572  1.00  0.00    +0.000 C 
ATOM     75  F11 UNL A   1      27.487  36.177  44.389  1.00  0.00    +0.000 F 
ATOM     76  C55 UNL A   1      28.604  35.514  46.348  1.00  0.00    +0.000 C 
ATOM     77  F12 UNL A   1      29.721  36.110  45.908  1.00  0.00    +0.000 F 
ATOM     78  C56 UNL A   1      28.575  34.934  47.605  1.00  0.00    +0.000 C 
ATOM     79  F13 UNL A   1      29.658  34.984  48.393  1.00  0.00    +0.000 F 
ATOM     80  C57 UNL A   1      27.410  34.335  48.061  1.00  0.00    +0.000 C 
ATOM     81  F14 UNL A   1      27.375  33.795  49.288  1.00  0.00    +0.000 F 
ATOM     82  C58 UNL A   1      26.247  34.372  47.291  1.00  0.00    +0.000 C 
ATOM     83  F15 UNL A   1      25.114  33.876  47.808  1.00  0.00    +0.000 F 
ENDBRANCH   72   73
TORSDOF 19
ENDMDL
MODEL 10
REMARK VINA RESULT:     -11.4     21.375     28.544
ROOT
ATOM    130  H32 UNL A   1      18.396  38.040  45.690  1.00  0.00    +0.000 H 
ATOM    131  H33 UNL A   1      19.476  36.613  43.750  1.00  0.00    +0.000 H 
ATOM    132  H34 UNL A   1      18.928  34.169  47.024  1.00  0.00    +0.000 H 
ATOM    133  H35 UNL A   1      22.665  37.501  44.683  1.00  0.00    +0.000 H 
ATOM    134  H36 UNL A   1      21.445  37.914  46.889  1.00  0.00    +0.000 H 
ATOM    135  H37 UNL A   1      25.381  36.891  47.717  1.00  0.00    +0.000 H 
ATOM    136  H38 UNL A   1      24.460  32.601  44.077  1.00  0.00    +0.000 H 
ATOM    137  H39 UNL A   1      22.036  31.801  43.738  1.00  0.00    +0.000 H 
ATOM    138  H40 UNL A   1      18.818  35.968  51.181  1.00  0.00    +0.000 H 
ATOM    139  H41 UNL A   1      21.320  36.353  51.639  1.00  0.00    +0.000 H 
ATOM     36  C29 UNL A   1      22.816  36.617  49.115  1.00  0.00    +0.000 C 
ATOM     37  C30 UNL A   1      21.380  36.410  49.380  1.00  0.00    +0.000 C 
ATOM     38  N6  UNL A   1      20.500  36.209  48.458  1.00  0.00    +0.000 N 
ATOM     39  C31 UNL A   1      19.261  36.219  49.049  1.00  0.00    +0.000 C 
ATOM     40  C32 UNL A   1      18.165  36.414  48.262  1.00  0.00    +0.000 C 
ATOM     52  C39 UNL A   1      18.494  36.218  46.845  1.00  0.00    +0.000 C 
ATOM     53  C40 UNL A   1      18.653  37.041  45.742  1.00  0.00    +0.000 C 
ATOM     54  C41 UNL A   1      19.235  36.268  44.692  1.00  0.00    +0.000 C 
ATOM     55  C42 UNL A   1      19.418  34.978  45.155  1.00  0.00    +0.000 C 
ATOM     56  N7  UNL A   1      18.944  34.968  46.450  1.00  0.00    +0.000 N 
ATOM     57  C43 UNL A   1      20.023  33.772  44.618  1.00  0.00    +0.000 C 
ATOM     69  C50 UNL A   1      21.381  33.751  44.522  1.00  0.00    +0.000 C 
ATOM     70  N8  UNL A   1      22.161  34.804  44.915  1.00  0.00    +0.000 N 
ATOM     71  C51 UNL A   1      23.415  34.454  44.846  1.00  0.00    +0.000 C 
ATOM     72  C52 UNL A   1      24.556  35.282  45.388  1.00  0.00    +0.000 C 
ATOM     84  C59 UNL A   1      24.196  36.479  45.930  1.00  0.00    +0.000 C 
ATOM     85  C60 UNL A   1      22.988  37.218  45.622  1.00  0.00    +0.000 C 
ATOM     86  C61 UNL A   1      22.369  37.466  46.784  1.00  0.00    +0.000 C 
ATOM     87  C62 UNL A   1      23.217  36.995  47.877  1.00  0.00    +0.000 C 
ATOM     88  N9  UNL A   1      24.497  36.811  47.290  1.00  0.00    +0.000 N 
ATOM     89  C63 UNL A   1      23.589  33.111  44.285  1.00  0.00    +0.000 C 
ATOM     90  C64 UNL A   1      22.315  32.720  44.114  1.00  0.00    +0.000 C 
ATOM     91  C65 UNL A   1      19.538  36.138  50.461  1.00  0.00    +0.000 C 
ATOM     92  C66 UNL A   1      20.836  36.307  50.728  1.00  0.00    +0.000 C 
ENDROOT
BRANCH   36   35
ATOM     33  C26 UNL A   1      25.785  35.451  51.038  1.00  0.00    +0.000 C 
ATOM     34  C27 UNL A   1      24.590  35.342  50.336  1.00  0.00    +0.000 C 
ATOM    129  H31 UNL A   1      24.298  34.438  49.932  1.00  0.00    +0.000 H 
ATOM     35  C28 UNL A   1      23.795  36.478  50.189  1.00  0.00    +0.000 C 
ATOM    140  H42 UNL A   1      23.346  38.395  50.973  1.00  0.00    +0.000 H 
ATOM    141  H43 UNL A   1      25.329  38.490  52.387  1.00  0.00    +0.000 H 
ATOM    128  H30 UNL A   1      26.412  34.639  51.143  1.00  0.00    +0.000 H 
ATOM     93  C67 UNL A   1      24.028  37.622  50.970  1.00  0.00    +0.000 C 
ATOM     94  C68 UNL A   1      25.175  37.704  51.737  1.00  0.00    +0.000 C 
ATOM     32  C25 UNL A   1      26.117  36.688  51.597  1.00  0.00    +0.000 C 
BRANCH   32   30
ATOM     30  C24 UNL A   1      27.551  37.062  51.590  1.00  0.00    +0.000 C 
ATOM     31  O2  UNL A   1      28.408  36.212  51.535  1.00  0.00    +0.000 O 
BRANCH   30   29
ATOM     29  N5  UNL A   1      27.836  38.429  51.561  1.00  0.00    +0.000 N 
ATOM    127  H29 UNL A   1      27.076  39.026  51.379  1.00  0.00    +0.000 H 
BRANCH   29   28
ATOM     28  C23 UNL A   1      29.137  39.084  51.770  1.00  0.00    +0.000 C 
ATOM    125  H27 UNL A   1      28.972  39.970  52.346  1.00  0.00    +0.000 H 
ATOM    126  H28 UNL A   1      29.756  38.362  52.262  1.00  0.00    +0.000 H 
BRANCH   28   27
ATOM     27  C22 UNL A   1      29.882  39.481  50.497  1.00  0.00    +0.000 C 
ATOM    124  H26 UNL A   1      30.831  39.830  50.844  1.00  0.00    +0.000 H 
ATOM    123  H25 UNL A   1      29.276  40.202  49.987  1.00  0.00    +0.000 H 
BRANCH   27   26
ATOM    121  H23 UNL A   1      30.651  37.571  50.041  1.00  0.00    +0.000 H 
ATOM     26  C21 UNL A   1      30.227  38.384  49.489  1.00  0.00    +0.000 C 
ATOM    122  H24 UNL A   1      29.301  38.184  48.992  1.00  0.00    +0.000 H 
BRANCH   26   25
ATOM     25  C20 UNL A   1      31.203  38.717  48.349  1.00  0.00    +0.000 C 
ATOM    119  H21 UNL A   1      30.934  38.072  47.538  1.00  0.00    +0.000 H 
ATOM    120  H22 UNL A   1      31.072  39.776  48.270  1.00  0.00    +0.000 H 
BRANCH   25   24
ATOM    117  H19 UNL A   1      32.956  38.618  49.524  1.00  0.00    +0.000 H 
ATOM    118  H20 UNL A   1      32.955  37.743  47.897  1.00  0.00    +0.000 H 
ATOM     24  C19 UNL A   1      32.742  38.616  48.475  1.00  0.00    +0.000 C 
BRANCH   24   23
ATOM    115  H17 UNL A   1      34.668  39.450  48.221  1.00  0.00    +0.000 H 
ATOM    116  H18 UNL A   1      33.567  39.522  46.792  1.00  0.00    +0.000 H 
ATOM     23  C18 UNL A   1      33.684  39.645  47.849  1.00  0.00    +0.000 C 
BRANCH   23   22
ATOM    114  H16 UNL A   1      33.640  41.411  48.979  1.00  0.00    +0.000 H 
ATOM     22  N4  UNL A   1      33.393  41.050  48.097  1.00  0.00    +0.000 N 
BRANCH   22   20
ATOM     20  C17 UNL A   1      32.802  41.916  47.204  1.00  0.00    +0.000 C 
ATOM     21  O1  UNL A   1      33.205  41.827  46.034  1.00  0.00    +0.000 O 
BRANCH   20   19
ATOM    110  H12 UNL A   1      28.517  42.922  46.117  1.00  0.00    +0.000 H 
ATOM    111  H13 UNL A   1      30.504  44.096  46.270  1.00  0.00    +0.000 H 
ATOM    112  H14 UNL A   1      31.036  42.702  45.512  1.00  0.00    +0.000 H 
ATOM     17  C15 UNL A   1      29.339  42.453  46.616  1.00  0.00    +0.000 C 
ATOM     18  N3  UNL A   1      30.638  43.089  46.368  1.00  0.00    +0.000 N 
ATOM     19  C16 UNL A   1      31.569  42.826  47.492  1.00  0.00    +0.000 C 
ATOM    142  H44 UNL A   1      31.100  42.991  49.593  1.00  0.00    +0.000 H 
ATOM    143  H45 UNL A   1      31.061  41.368  49.022  1.00  0.00    +0.000 H 
ATOM    113  H15 UNL A   1      32.013  43.787  47.653  1.00  0.00    +0.000 H 
ATOM     95  C69 UNL A   1      30.823  42.379  48.761  1.00  0.00    +0.000 C 
ATOM     96  S1  UNL A   1      29.063  42.576  48.391  1.00  0.00    +0.000 S 
BRANCH   17   16
ATOM      6  C6  UNL A   1      28.395  40.010  46.236  1.00  0.00    +0.000 C 
ATOM      7  N1  UNL A   1      28.813  38.879  45.621  1.00  0.00    +0.000 N 
ATOM      8  N2  UNL A   1      29.913  39.255  44.918  1.00  0.00    +0.000 N 
ATOM    109  H11 UNL A   1      31.225  40.943  44.980  1.00  0.00    +0.000 H 
ATOM     15  C13 UNL A   1      30.340  40.498  45.271  1.00  0.00    +0.000 C 
ATOM     16  C14 UNL A   1      29.379  41.057  46.086  1.00  0.00    +0.000 C 
BRANCH    6    5
ATOM     97  C70 UNL A   1      26.886  39.665  48.217  1.00  0.00    +0.000 C 
ATOM      2  C2  UNL A   1      24.537  40.345  48.180  1.00  0.00    +0.000 C 
ATOM      3  C3  UNL A   1      24.696  40.727  46.851  1.00  0.00    +0.000 C 
ATOM      4  C4  UNL A   1      25.942  40.600  46.229  1.00  0.00    +0.000 C 
ATOM     98  C71 UNL A   1      25.635  39.794  48.852  1.00  0.00    +0.000 C 
ATOM    102  H4  UNL A   1      23.893  41.103  46.324  1.00  0.00    +0.000 H 
ATOM      5  C5  UNL A   1      27.070  40.096  46.899  1.00  0.00    +0.000 C 
ATOM    103  H5  UNL A   1      26.036  40.888  45.242  1.00  0.00    +0.000 H 
ATOM    144  H46 UNL A   1      27.677  39.247  48.730  1.00  0.00    +0.000 H 
ATOM    145  H47 UNL A   1      25.526  39.477  49.827  1.00  0.00    +0.000 H 
BRANCH    2    1
ATOM      1  C1  UNL A   1      23.203  40.532  48.841  1.00  0.00    +0.000 C 
ATOM     99  H1  UNL A   1      23.228  40.107  49.824  1.00  0.00    +0.000 H 
ATOM    100  H2  UNL A   1      22.446  40.047  48.261  1.00  0.00    +0.000 H 
ATOM    101  H3  UNL A   1      22.983  41.577  48.912  1.00  0.00    +0.000 H 
ENDBRANCH    2    1
ENDBRANCH    6    5
BRANCH    8    9
ATOM    104  H6  UNL A   1      29.284  36.793  44.233  1.00  0.00    +0.000 H 
ATOM      9  C7  UNL A   1      30.398  38.544  43.795  1.00  0.00    +0.000 C 
ATOM     10  C8  UNL A   1      29.982  37.212  43.599  1.00  0.00    +0.000 C 
ATOM     11  C9  UNL A   1      30.511  36.461  42.552  1.00  0.00    +0.000 C 
ATOM    108  H10 UNL A   1      31.595  40.115  43.046  1.00  0.00    +0.000 H 
ATOM     13  C11 UNL A   1      31.737  38.406  41.801  1.00  0.00    +0.000 C 
ATOM     14  C12 UNL A   1      31.281  39.143  42.901  1.00  0.00    +0.000 C 
ATOM    105  H7  UNL A   1      30.263  35.464  42.450  1.00  0.00    +0.000 H 
ATOM    107  H9  UNL A   1      32.343  38.858  41.101  1.00  0.00    +0.000 H 
ATOM     12  C10 UNL A   1      31.377  37.064  41.644  1.00  0.00    +0.000 C 
ATOM    106  H8  UNL A   1      31.754  36.519  40.852  1.00  0.00    +0.000 H 
ENDBRANCH    8    9
ENDBRANCH   17   16
ENDBRANCH   20   19
ENDBRANCH   22   20
ENDBRANCH   23   22
ENDBRANCH   24   23
ENDBRANCH   25   24
ENDBRANCH   26   25
ENDBRANCH   27   26
ENDBRANCH   28   27
ENDBRANCH   29   28
ENDBRANCH   30   29
ENDBRANCH   32   30
ENDBRANCH   36   35
BRANCH   40   41
ATOM     41  C33 UNL A   1      16.813  36.932  48.730  1.00  0.00    +0.000 C 
ATOM     42  C34 UNL A   1      16.745  37.874  49.783  1.00  0.00    +0.000 C 
ATOM     43  F1  UNL A   1      17.851  38.426  50.301  1.00  0.00    +0.000 F 
ATOM     44  C35 UNL A   1      15.537  38.274  50.367  1.00  0.00    +0.000 C 
ATOM     45  F2  UNL A   1      15.549  39.126  51.402  1.00  0.00    +0.000 F 
ATOM     46  C36 UNL A   1      14.335  37.784  49.902  1.00  0.00    +0.000 C 
ATOM     47  F3  UNL A   1      13.178  38.153  50.466  1.00  0.00    +0.000 F 
ATOM     48  C37 UNL A   1      14.344  36.898  48.852  1.00  0.00    +0.000 C 
ATOM     49  F4  UNL A   1      13.190  36.410  48.375  1.00  0.00    +0.000 F 
ATOM     50  C38 UNL A   1      15.553  36.473  48.291  1.00  0.00    +0.000 C 
ATOM     51  F5  UNL A   1      15.408  35.564  47.327  1.00  0.00    +0.000 F 
ENDBRANCH   40   41
BRANCH   57   58
ATOM     65  C48 UNL A   1      17.596  31.602  42.633  1.00  0.00    +0.000 C 
ATOM     66  F9  UNL A   1      16.804  31.730  41.558  1.00  0.00    +0.000 F 
ATOM     67  C49 UNL A   1      18.283  32.711  43.121  1.00  0.00    +0.000 C 
ATOM     68  F10 UNL A   1      18.058  33.886  42.513  1.00  0.00    +0.000 F 
ATOM     58  C44 UNL A   1      19.163  32.617  44.216  1.00  0.00    +0.000 C 
ATOM     59  C45 UNL A   1      19.279  31.357  44.824  1.00  0.00    +0.000 C 
ATOM     60  F6  UNL A   1      20.106  31.177  45.865  1.00  0.00    +0.000 F 
ATOM     61  C46 UNL A   1      18.556  30.257  44.360  1.00  0.00    +0.000 C 
ATOM     62  F7  UNL A   1      18.668  29.076  44.983  1.00  0.00    +0.000 F 
ATOM     63  C47 UNL A   1      17.729  30.376  43.255  1.00  0.00    +0.000 C 
ATOM     64  F8  UNL A   1      17.060  29.310  42.794  1.00  0.00    +0.000 F 
ENDBRANCH   57   58
BRANCH   72   73
ATOM     73  C53 UNL A   1      25.803  34.738  45.977  1.00  0.00    +0.000 C 
ATOM     74  C54 UNL A   1      25.700  33.671  46.891  1.00  0.00    +0.000 C 
ATOM     75  F11 UNL A   1      24.523  33.405  47.480  1.00  0.00    +0.000 F 
ATOM     76  C55 UNL A   1      26.767  32.807  47.113  1.00  0.00    +0.000 C 
ATOM     77  F12 UNL A   1      26.606  31.737  47.905  1.00  0.00    +0.000 F 
ATOM     78  C56 UNL A   1      27.968  33.012  46.457  1.00  0.00    +0.000 C 
ATOM     79  F13 UNL A   1      28.969  32.132  46.597  1.00  0.00    +0.000 F 
ATOM     80  C57 UNL A   1      28.120  34.111  45.624  1.00  0.00    +0.000 C 
ATOM     81  F14 UNL A   1      29.276  34.296  44.970  1.00  0.00    +0.000 F 
ATOM     82  C58 UNL A   1      27.049  34.973  45.389  1.00  0.00    +0.000 C 
ATOM     83  F15 UNL A   1      27.201  35.964  44.497  1.00  0.00    +0.000 F 
ENDBRANCH   72   73
TORSDOF 19
ENDMDL
