MODEL 1
REMARK VINA RESULT:     -11.3      0.000      0.000
ROOT
ATOM     30  C24 UNL A   1      40.762  27.780  29.106  1.00  0.00    +0.000 C 
ATOM     31  C25 UNL A   1      40.944  26.366  28.545  1.00  0.00    +0.000 C 
ATOM     32  N4  UNL A   1      41.706  25.394  28.950  1.00  0.00    +0.000 N 
ATOM     33  C26 UNL A   1      41.576  24.345  28.017  1.00  0.00    +0.000 C 
ATOM     34  C27 UNL A   1      42.438  23.291  27.932  1.00  0.00    +0.000 C 
ATOM     46  C34 UNL A   1      43.437  23.355  28.943  1.00  0.00    +0.000 C 
ATOM     47  C35 UNL A   1      43.455  23.051  30.277  1.00  0.00    +0.000 C 
ATOM     48  C36 UNL A   1      44.480  23.859  30.819  1.00  0.00    +0.000 C 
ATOM     49  C37 UNL A   1      45.068  24.597  29.789  1.00  0.00    +0.000 C 
ATOM     50  N5  UNL A   1      44.596  24.020  28.634  1.00  0.00    +0.000 N 
ATOM     51  C38 UNL A   1      45.806  25.836  29.664  1.00  0.00    +0.000 C 
ATOM     63  C45 UNL A   1      46.010  26.561  30.792  1.00  0.00    +0.000 C 
ATOM     64  N6  UNL A   1      45.840  27.928  30.767  1.00  0.00    +0.000 N 
ATOM     65  C46 UNL A   1      45.151  28.152  31.848  1.00  0.00    +0.000 C 
ATOM     66  C47 UNL A   1      44.392  29.387  32.125  1.00  0.00    +0.000 C 
ATOM     78  C54 UNL A   1      43.289  29.344  31.312  1.00  0.00    +0.000 C 
ATOM     79  C55 UNL A   1      42.249  30.342  31.164  1.00  0.00    +0.000 C 
ATOM     80  C56 UNL A   1      41.285  29.885  30.343  1.00  0.00    +0.000 C 
ATOM     81  C57 UNL A   1      41.598  28.523  29.883  1.00  0.00    +0.000 C 
ATOM     82  N7  UNL A   1      42.842  28.311  30.449  1.00  0.00    +0.000 N 
ATOM     83  C58 UNL A   1      45.082  27.045  32.810  1.00  0.00    +0.000 C 
ATOM     84  C59 UNL A   1      45.808  26.143  32.157  1.00  0.00    +0.000 C 
ATOM     85  C60 UNL A   1      40.499  24.705  27.144  1.00  0.00    +0.000 C 
ATOM     86  C61 UNL A   1      40.106  25.955  27.387  1.00  0.00    +0.000 C 
ATOM    114  H26 UNL A   1      42.853  22.379  30.778  1.00  0.00    +0.000 H 
ATOM    115  H27 UNL A   1      44.751  23.898  31.815  1.00  0.00    +0.000 H 
ATOM    116  H28 UNL A   1      45.015  24.075  27.745  1.00  0.00    +0.000 H 
ATOM    117  H29 UNL A   1      42.247  31.268  31.620  1.00  0.00    +0.000 H 
ATOM    118  H30 UNL A   1      40.443  30.416  30.073  1.00  0.00    +0.000 H 
ATOM    119  H31 UNL A   1      43.377  27.504  30.266  1.00  0.00    +0.000 H 
ATOM    120  H32 UNL A   1      44.609  26.985  33.726  1.00  0.00    +0.000 H 
ATOM    121  H33 UNL A   1      46.173  25.269  32.568  1.00  0.00    +0.000 H 
ATOM    122  H34 UNL A   1      40.087  24.085  26.429  1.00  0.00    +0.000 H 
ATOM    123  H35 UNL A   1      39.390  26.507  26.890  1.00  0.00    +0.000 H 
ENDROOT
BRANCH   30   29
ATOM    124  H36 UNL A   1      38.444  27.829  30.520  1.00  0.00    +0.000 H 
ATOM     29  C23 UNL A   1      39.457  28.388  28.746  1.00  0.00    +0.000 C 
ATOM    112  H24 UNL A   1      38.123  30.319  26.358  1.00  0.00    +0.000 H 
ATOM    113  H25 UNL A   1      40.130  29.053  26.854  1.00  0.00    +0.000 H 
ATOM     87  C62 UNL A   1      38.378  28.368  29.643  1.00  0.00    +0.000 C 
ATOM     88  C63 UNL A   1      37.218  29.082  29.345  1.00  0.00    +0.000 C 
ATOM     26  C20 UNL A   1      37.147  29.838  28.170  1.00  0.00    +0.000 C 
ATOM     27  C21 UNL A   1      38.201  29.804  27.249  1.00  0.00    +0.000 C 
ATOM     28  C22 UNL A   1      39.354  29.080  27.533  1.00  0.00    +0.000 C 
ATOM    125  H37 UNL A   1      36.413  29.053  29.990  1.00  0.00    +0.000 H 
BRANCH   26   24
ATOM     25  O2  UNL A   1      36.002  31.850  27.843  1.00  0.00    +0.000 O 
ATOM     24  C19 UNL A   1      35.950  30.630  27.808  1.00  0.00    +0.000 C 
BRANCH   24   23
ATOM    111  H23 UNL A   1      33.963  30.582  27.494  1.00  0.00    +0.000 H 
ATOM     23  N3  UNL A   1      34.769  30.018  27.458  1.00  0.00    +0.000 N 
BRANCH   23   22
ATOM    110  H22 UNL A   1      33.977  28.144  27.785  1.00  0.00    +0.000 H 
ATOM    109  H21 UNL A   1      35.517  28.163  26.935  1.00  0.00    +0.000 H 
ATOM     22  C18 UNL A   1      34.565  28.640  27.042  1.00  0.00    +0.000 C 
BRANCH   22   21
ATOM    107  H19 UNL A   1      33.073  29.337  25.702  1.00  0.00    +0.000 H 
ATOM    108  H20 UNL A   1      34.554  28.701  24.940  1.00  0.00    +0.000 H 
ATOM     21  C17 UNL A   1      33.821  28.571  25.708  1.00  0.00    +0.000 C 
BRANCH   21   20
ATOM    105  H17 UNL A   1      32.725  26.870  26.359  1.00  0.00    +0.000 H 
ATOM    106  H18 UNL A   1      32.394  27.417  24.687  1.00  0.00    +0.000 H 
ATOM     20  C16 UNL A   1      33.133  27.226  25.436  1.00  0.00    +0.000 C 
BRANCH   20   19
ATOM     19  C15 UNL A   1      34.043  26.133  24.867  1.00  0.00    +0.000 C 
ATOM    103  H15 UNL A   1      33.668  25.860  23.904  1.00  0.00    +0.000 H 
ATOM    104  H16 UNL A   1      35.027  26.553  24.841  1.00  0.00    +0.000 H 
BRANCH   19   18
ATOM     18  C14 UNL A   1      34.148  24.859  25.716  1.00  0.00    +0.000 C 
ATOM    101  H13 UNL A   1      35.039  24.924  26.303  1.00  0.00    +0.000 H 
ATOM    102  H14 UNL A   1      33.254  24.816  26.303  1.00  0.00    +0.000 H 
BRANCH   18   17
ATOM     17  C13 UNL A   1      34.199  23.555  24.920  1.00  0.00    +0.000 C 
ATOM     99  H11 UNL A   1      34.610  23.753  23.952  1.00  0.00    +0.000 H 
ATOM    100  H12 UNL A   1      34.808  22.857  25.454  1.00  0.00    +0.000 H 
BRANCH   17   16
ATOM     98  H10 UNL A   1      32.466  22.526  25.531  1.00  0.00    +0.000 H 
ATOM     16  N2  UNL A   1      32.880  22.982  24.763  1.00  0.00    +0.000 N 
BRANCH   16    2
ATOM      1  O1  UNL A   1      32.634  22.666  22.500  1.00  0.00    +0.000 O 
ATOM      2  C1  UNL A   1      32.182  23.051  23.574  1.00  0.00    +0.000 C 
BRANCH    2    3
ATOM     89  H1  UNL A   1      30.524  23.670  24.736  1.00  0.00    +0.000 H 
ATOM     90  H2  UNL A   1      30.144  23.173  23.075  1.00  0.00    +0.000 H 
ATOM      3  C2  UNL A   1      30.819  23.708  23.709  1.00  0.00    +0.000 C 
BRANCH    3    4
ATOM     97  H9  UNL A   1      29.270  26.007  24.492  1.00  0.00    +0.000 H 
ATOM      4  C3  UNL A   1      30.805  25.138  23.264  1.00  0.00    +0.000 C 
ATOM      5  C4  UNL A   1      31.598  25.748  22.257  1.00  0.00    +0.000 C 
ATOM      6  C5  UNL A   1      31.182  27.053  22.127  1.00  0.00    +0.000 C 
ATOM      7  N1  UNL A   1      30.161  27.295  23.024  1.00  0.00    +0.000 N 
ATOM     15  C12 UNL A   1      29.955  26.127  23.730  1.00  0.00    +0.000 C 
ATOM     91  H3  UNL A   1      32.353  25.294  21.719  1.00  0.00    +0.000 H 
ATOM     92  H4  UNL A   1      31.571  27.742  21.464  1.00  0.00    +0.000 H 
BRANCH    7    8
ATOM      8  C6  UNL A   1      29.436  28.509  23.155  1.00  0.00    +0.000 C 
ATOM      9  C7  UNL A   1      28.071  28.546  22.828  1.00  0.00    +0.000 C 
ATOM     10  C8  UNL A   1      27.344  29.731  22.977  1.00  0.00    +0.000 C 
ATOM     11  C9  UNL A   1      27.976  30.889  23.428  1.00  0.00    +0.000 C 
ATOM     12  C10 UNL A   1      29.332  30.860  23.742  1.00  0.00    +0.000 C 
ATOM     13  C11 UNL A   1      30.053  29.674  23.618  1.00  0.00    +0.000 C 
ATOM     14  F1  UNL A   1      31.365  29.717  23.895  1.00  0.00    +0.000 F 
ATOM     93  H5  UNL A   1      27.603  27.696  22.475  1.00  0.00    +0.000 H 
ATOM     94  H6  UNL A   1      26.337  29.749  22.752  1.00  0.00    +0.000 H 
ATOM     95  H7  UNL A   1      27.439  31.765  23.527  1.00  0.00    +0.000 H 
ATOM     96  H8  UNL A   1      29.804  31.719  24.069  1.00  0.00    +0.000 H 
ENDBRANCH    7    8
ENDBRANCH    3    4
ENDBRANCH    2    3
ENDBRANCH   16    2
ENDBRANCH   17   16
ENDBRANCH   18   17
ENDBRANCH   19   18
ENDBRANCH   20   19
ENDBRANCH   21   20
ENDBRANCH   22   21
ENDBRANCH   23   22
ENDBRANCH   24   23
ENDBRANCH   26   24
ENDBRANCH   30   29
BRANCH   34   35
ATOM     35  C28 UNL A   1      42.610  22.251  26.858  1.00  0.00    +0.000 C 
ATOM     36  C29 UNL A   1      43.547  22.362  25.820  1.00  0.00    +0.000 C 
ATOM     37  F2  UNL A   1      44.170  23.521  25.572  1.00  0.00    +0.000 F 
ATOM     38  C30 UNL A   1      43.940  21.247  25.070  1.00  0.00    +0.000 C 
ATOM     39  F3  UNL A   1      44.866  21.387  24.111  1.00  0.00    +0.000 F 
ATOM     40  C31 UNL A   1      43.435  19.989  25.354  1.00  0.00    +0.000 C 
ATOM     41  F4  UNL A   1      43.892  18.913  24.701  1.00  0.00    +0.000 F 
ATOM     42  C32 UNL A   1      42.483  19.849  26.343  1.00  0.00    +0.000 C 
ATOM     43  F5  UNL A   1      42.011  18.633  26.652  1.00  0.00    +0.000 F 
ATOM     44  C33 UNL A   1      42.054  20.964  27.061  1.00  0.00    +0.000 C 
ATOM     45  F6  UNL A   1      41.129  20.761  28.012  1.00  0.00    +0.000 F 
ENDBRANCH   34   35
BRANCH   51   52
ATOM     52  C39 UNL A   1      45.957  26.651  28.398  1.00  0.00    +0.000 C 
ATOM     53  C40 UNL A   1      44.868  27.208  27.708  1.00  0.00    +0.000 C 
ATOM     54  F7  UNL A   1      43.621  26.931  28.082  1.00  0.00    +0.000 F 
ATOM     55  C41 UNL A   1      45.027  28.059  26.617  1.00  0.00    +0.000 C 
ATOM     56  F8  UNL A   1      43.949  28.545  25.983  1.00  0.00    +0.000 F 
ATOM     57  C42 UNL A   1      46.296  28.397  26.191  1.00  0.00    +0.000 C 
ATOM     58  F9  UNL A   1      46.456  29.217  25.143  1.00  0.00    +0.000 F 
ATOM     59  C43 UNL A   1      47.396  27.871  26.848  1.00  0.00    +0.000 C 
ATOM     60  F10 UNL A   1      48.630  28.194  26.435  1.00  0.00    +0.000 F 
ATOM     61  C44 UNL A   1      47.231  27.006  27.934  1.00  0.00    +0.000 C 
ATOM     62  F11 UNL A   1      48.324  26.516  28.539  1.00  0.00    +0.000 F 
ENDBRANCH   51   52
BRANCH   66   67
ATOM     67  C48 UNL A   1      44.913  30.293  33.227  1.00  0.00    +0.000 C 
ATOM     68  C49 UNL A   1      44.191  30.429  34.447  1.00  0.00    +0.000 C 
ATOM     69  F12 UNL A   1      43.169  29.621  34.754  1.00  0.00    +0.000 F 
ATOM     70  C50 UNL A   1      44.479  31.395  35.415  1.00  0.00    +0.000 C 
ATOM     71  F13 UNL A   1      43.691  31.513  36.493  1.00  0.00    +0.000 F 
ATOM     72  C51 UNL A   1      45.556  32.232  35.252  1.00  0.00    +0.000 C 
ATOM     73  F14 UNL A   1      45.824  33.178  36.161  1.00  0.00    +0.000 F 
ATOM     74  C52 UNL A   1      46.364  32.060  34.146  1.00  0.00    +0.000 C 
ATOM     75  F15 UNL A   1      47.456  32.825  34.006  1.00  0.00    +0.000 F 
ATOM     76  C53 UNL A   1      46.057  31.103  33.161  1.00  0.00    +0.000 C 
ATOM     77  F16 UNL A   1      46.944  30.982  32.173  1.00  0.00    +0.000 F 
ENDBRANCH   66   67
TORSDOF 17
ENDMDL
MODEL 2
REMARK VINA RESULT:     -11.3     20.927     24.502
ROOT
ATOM     30  C24 UNL A   1      25.280  33.106  46.353  1.00  0.00    +0.000 C 
ATOM     31  C25 UNL A   1      26.187  32.037  46.971  1.00  0.00    +0.000 C 
ATOM     32  N4  UNL A   1      27.183  32.158  47.797  1.00  0.00    +0.000 N 
ATOM     33  C26 UNL A   1      27.744  30.875  47.966  1.00  0.00    +0.000 C 
ATOM     34  C27 UNL A   1      28.975  30.648  48.508  1.00  0.00    +0.000 C 
ATOM     46  C34 UNL A   1      29.583  31.859  48.940  1.00  0.00    +0.000 C 
ATOM     47  C35 UNL A   1      29.427  32.659  50.040  1.00  0.00    +0.000 C 
ATOM     48  C36 UNL A   1      29.839  33.943  49.616  1.00  0.00    +0.000 C 
ATOM     49  C37 UNL A   1      30.262  33.867  48.287  1.00  0.00    +0.000 C 
ATOM     50  N5  UNL A   1      30.369  32.521  48.031  1.00  0.00    +0.000 N 
ATOM     51  C38 UNL A   1      30.388  34.773  47.165  1.00  0.00    +0.000 C 
ATOM     63  C45 UNL A   1      29.990  36.056  47.347  1.00  0.00    +0.000 C 
ATOM     64  N6  UNL A   1      29.248  36.687  46.372  1.00  0.00    +0.000 N 
ATOM     65  C46 UNL A   1      28.304  37.264  47.057  1.00  0.00    +0.000 C 
ATOM     66  C47 UNL A   1      27.038  37.771  46.490  1.00  0.00    +0.000 C 
ATOM     78  C54 UNL A   1      26.285  36.665  46.195  1.00  0.00    +0.000 C 
ATOM     79  C55 UNL A   1      24.978  36.614  45.572  1.00  0.00    +0.000 C 
ATOM     80  C56 UNL A   1      24.528  35.346  45.545  1.00  0.00    +0.000 C 
ATOM     81  C57 UNL A   1      25.503  34.437  46.168  1.00  0.00    +0.000 C 
ATOM     82  N7  UNL A   1      26.548  35.296  46.458  1.00  0.00    +0.000 N 
ATOM     83  C58 UNL A   1      28.508  37.331  48.509  1.00  0.00    +0.000 C 
ATOM     84  C59 UNL A   1      29.685  36.716  48.592  1.00  0.00    +0.000 C 
ATOM     85  C60 UNL A   1      26.850  29.951  47.333  1.00  0.00    +0.000 C 
ATOM     86  C61 UNL A   1      25.904  30.610  46.663  1.00  0.00    +0.000 C 
ATOM    114  H26 UNL A   1      29.084  32.384  50.974  1.00  0.00    +0.000 H 
ATOM    115  H27 UNL A   1      29.830  34.798  50.195  1.00  0.00    +0.000 H 
ATOM    116  H28 UNL A   1      30.913  32.106  47.323  1.00  0.00    +0.000 H 
ATOM    117  H29 UNL A   1      24.465  37.431  45.203  1.00  0.00    +0.000 H 
ATOM    118  H30 UNL A   1      23.625  35.051  45.143  1.00  0.00    +0.000 H 
ATOM    119  H31 UNL A   1      27.408  34.981  46.820  1.00  0.00    +0.000 H 
ATOM    120  H32 UNL A   1      27.914  37.737  49.249  1.00  0.00    +0.000 H 
ATOM    121  H33 UNL A   1      30.291  36.712  49.428  1.00  0.00    +0.000 H 
ATOM    122  H34 UNL A   1      26.927  28.924  47.389  1.00  0.00    +0.000 H 
ATOM    123  H35 UNL A   1      25.154  30.222  46.071  1.00  0.00    +0.000 H 
ENDROOT
BRANCH   30   29
ATOM    124  H36 UNL A   1      24.427  32.447  43.861  1.00  0.00    +0.000 H 
ATOM     29  C23 UNL A   1      23.962  32.576  45.924  1.00  0.00    +0.000 C 
ATOM    112  H24 UNL A   1      21.100  31.477  47.270  1.00  0.00    +0.000 H 
ATOM    113  H25 UNL A   1      23.149  32.623  47.876  1.00  0.00    +0.000 H 
ATOM     87  C62 UNL A   1      23.725  32.229  44.585  1.00  0.00    +0.000 C 
ATOM     88  C63 UNL A   1      22.537  31.587  44.237  1.00  0.00    +0.000 C 
ATOM     26  C20 UNL A   1      21.603  31.265  45.227  1.00  0.00    +0.000 C 
ATOM     27  C21 UNL A   1      21.816  31.668  46.552  1.00  0.00    +0.000 C 
ATOM     28  C22 UNL A   1      22.992  32.324  46.901  1.00  0.00    +0.000 C 
ATOM    125  H37 UNL A   1      22.346  31.349  43.251  1.00  0.00    +0.000 H 
BRANCH   26   24
ATOM     25  O2  UNL A   1      20.288  29.348  44.970  1.00  0.00    +0.000 O 
ATOM     24  C19 UNL A   1      20.333  30.568  44.924  1.00  0.00    +0.000 C 
BRANCH   24   23
ATOM    111  H23 UNL A   1      19.027  32.093  45.069  1.00  0.00    +0.000 H 
ATOM     23  N3  UNL A   1      19.205  31.268  44.562  1.00  0.00    +0.000 N 
BRANCH   23   22
ATOM    110  H22 UNL A   1      18.679  30.205  42.876  1.00  0.00    +0.000 H 
ATOM    109  H21 UNL A   1      18.002  31.827  42.976  1.00  0.00    +0.000 H 
ATOM     22  C18 UNL A   1      18.243  30.938  43.522  1.00  0.00    +0.000 C 
BRANCH   22   21
ATOM    107  H19 UNL A   1      16.992  30.502  45.181  1.00  0.00    +0.000 H 
ATOM    108  H20 UNL A   1      16.146  30.870  43.655  1.00  0.00    +0.000 H 
ATOM     21  C17 UNL A   1      16.962  30.357  44.121  1.00  0.00    +0.000 C 
BRANCH   21   20
ATOM    105  H17 UNL A   1      17.668  28.354  44.078  1.00  0.00    +0.000 H 
ATOM    106  H18 UNL A   1      15.931  28.559  44.454  1.00  0.00    +0.000 H 
ATOM     20  C16 UNL A   1      16.757  28.862  43.845  1.00  0.00    +0.000 C 
BRANCH   20   19
ATOM     19  C15 UNL A   1      16.374  28.512  42.404  1.00  0.00    +0.000 C 
ATOM    103  H15 UNL A   1      16.137  29.422  41.895  1.00  0.00    +0.000 H 
ATOM    104  H16 UNL A   1      17.215  27.996  41.991  1.00  0.00    +0.000 H 
BRANCH   19   18
ATOM     18  C14 UNL A   1      15.178  27.560  42.256  1.00  0.00    +0.000 C 
ATOM    101  H13 UNL A   1      14.343  28.130  41.907  1.00  0.00    +0.000 H 
ATOM    102  H14 UNL A   1      15.487  26.797  41.572  1.00  0.00    +0.000 H 
BRANCH   18   17
ATOM     17  C13 UNL A   1      14.761  26.842  43.539  1.00  0.00    +0.000 C 
ATOM     99  H11 UNL A   1      15.430  27.120  44.326  1.00  0.00    +0.000 H 
ATOM    100  H12 UNL A   1      13.758  27.130  43.776  1.00  0.00    +0.000 H 
BRANCH   17   16
ATOM     98  H10 UNL A   1      15.629  24.924  43.578  1.00  0.00    +0.000 H 
ATOM     16  N2  UNL A   1      14.795  25.406  43.374  1.00  0.00    +0.000 N 
BRANCH   16    2
ATOM      1  O1  UNL A   1      12.587  25.181  42.776  1.00  0.00    +0.000 O 
ATOM      2  C1  UNL A   1      13.698  24.687  42.941  1.00  0.00    +0.000 C 
BRANCH    2    3
ATOM     89  H1  UNL A   1      13.217  22.646  43.234  1.00  0.00    +0.000 H 
ATOM     90  H2  UNL A   1      14.951  23.014  43.154  1.00  0.00    +0.000 H 
ATOM      3  C2  UNL A   1      13.983  23.208  42.743  1.00  0.00    +0.000 C 
BRANCH    3    4
ATOM     97  H9  UNL A   1      15.737  23.857  40.552  1.00  0.00    +0.000 H 
ATOM      4  C3  UNL A   1      14.023  22.801  41.303  1.00  0.00    +0.000 C 
ATOM      5  C4  UNL A   1      13.125  21.946  40.611  1.00  0.00    +0.000 C 
ATOM      6  C5  UNL A   1      13.496  21.930  39.287  1.00  0.00    +0.000 C 
ATOM      7  N1  UNL A   1      14.605  22.734  39.116  1.00  0.00    +0.000 N 
ATOM     15  C12 UNL A   1      14.933  23.241  40.357  1.00  0.00    +0.000 C 
ATOM     91  H3  UNL A   1      12.334  21.429  41.028  1.00  0.00    +0.000 H 
ATOM     92  H4  UNL A   1      13.020  21.401  38.538  1.00  0.00    +0.000 H 
BRANCH    7    8
ATOM      8  C6  UNL A   1      15.250  23.014  37.882  1.00  0.00    +0.000 C 
ATOM      9  C7  UNL A   1      16.299  22.193  37.441  1.00  0.00    +0.000 C 
ATOM     10  C8  UNL A   1      16.923  22.447  36.215  1.00  0.00    +0.000 C 
ATOM     11  C9  UNL A   1      16.523  23.531  35.437  1.00  0.00    +0.000 C 
ATOM     12  C10 UNL A   1      15.490  24.356  35.876  1.00  0.00    +0.000 C 
ATOM     13  C11 UNL A   1      14.850  24.091  37.085  1.00  0.00    +0.000 C 
ATOM     14  F1  UNL A   1      13.892  24.942  37.477  1.00  0.00    +0.000 F 
ATOM     93  H5  UNL A   1      16.612  21.400  38.022  1.00  0.00    +0.000 H 
ATOM     94  H6  UNL A   1      17.682  21.829  35.887  1.00  0.00    +0.000 H 
ATOM     95  H7  UNL A   1      16.992  23.723  34.537  1.00  0.00    +0.000 H 
ATOM     96  H8  UNL A   1      15.198  25.165  35.304  1.00  0.00    +0.000 H 
ENDBRANCH    7    8
ENDBRANCH    3    4
ENDBRANCH    2    3
ENDBRANCH   16    2
ENDBRANCH   17   16
ENDBRANCH   18   17
ENDBRANCH   19   18
ENDBRANCH   20   19
ENDBRANCH   21   20
ENDBRANCH   22   21
ENDBRANCH   23   22
ENDBRANCH   24   23
ENDBRANCH   26   24
ENDBRANCH   30   29
BRANCH   34   35
ATOM     35  C28 UNL A   1      29.827  29.407  48.519  1.00  0.00    +0.000 C 
ATOM     36  C29 UNL A   1      30.992  29.266  47.751  1.00  0.00    +0.000 C 
ATOM     37  F2  UNL A   1      31.280  30.126  46.767  1.00  0.00    +0.000 F 
ATOM     38  C30 UNL A   1      31.946  28.285  48.047  1.00  0.00    +0.000 C 
ATOM     39  F3  UNL A   1      33.064  28.206  47.314  1.00  0.00    +0.000 F 
ATOM     40  C31 UNL A   1      31.779  27.440  49.133  1.00  0.00    +0.000 C 
ATOM     41  F4  UNL A   1      32.743  26.573  49.470  1.00  0.00    +0.000 F 
ATOM     42  C32 UNL A   1      30.626  27.525  49.886  1.00  0.00    +0.000 C 
ATOM     43  F5  UNL A   1      30.467  26.739  50.960  1.00  0.00    +0.000 F 
ATOM     44  C33 UNL A   1      29.652  28.471  49.567  1.00  0.00    +0.000 C 
ATOM     45  F6  UNL A   1      28.556  28.505  50.340  1.00  0.00    +0.000 F 
ENDBRANCH   34   35
BRANCH   51   52
ATOM     52  C39 UNL A   1      30.452  34.372  45.707  1.00  0.00    +0.000 C 
ATOM     53  C40 UNL A   1      29.324  33.976  44.969  1.00  0.00    +0.000 C 
ATOM     54  F7  UNL A   1      28.147  33.819  45.570  1.00  0.00    +0.000 F 
ATOM     55  C41 UNL A   1      29.373  33.730  43.599  1.00  0.00    +0.000 C 
ATOM     56  F8  UNL A   1      28.268  33.334  42.949  1.00  0.00    +0.000 F 
ATOM     57  C42 UNL A   1      30.562  33.891  42.916  1.00  0.00    +0.000 C 
ATOM     58  F9  UNL A   1      30.615  33.657  41.598  1.00  0.00    +0.000 F 
ATOM     59  C43 UNL A   1      31.696  34.283  43.609  1.00  0.00    +0.000 C 
ATOM     60  F10 UNL A   1      32.853  34.437  42.949  1.00  0.00    +0.000 F 
ATOM     61  C44 UNL A   1      31.645  34.516  44.986  1.00  0.00    +0.000 C 
ATOM     62  F11 UNL A   1      32.768  34.890  45.618  1.00  0.00    +0.000 F 
ENDBRANCH   51   52
BRANCH   66   67
ATOM     67  C48 UNL A   1      26.842  39.277  46.463  1.00  0.00    +0.000 C 
ATOM     68  C49 UNL A   1      27.701  40.099  45.678  1.00  0.00    +0.000 C 
ATOM     69  F12 UNL A   1      28.553  39.577  44.786  1.00  0.00    +0.000 F 
ATOM     70  C50 UNL A   1      27.731  41.493  45.763  1.00  0.00    +0.000 C 
ATOM     71  F13 UNL A   1      28.635  42.184  45.054  1.00  0.00    +0.000 F 
ATOM     72  C51 UNL A   1      26.848  42.151  46.584  1.00  0.00    +0.000 C 
ATOM     73  F14 UNL A   1      26.886  43.485  46.692  1.00  0.00    +0.000 F 
ATOM     74  C52 UNL A   1      25.910  41.409  47.273  1.00  0.00    +0.000 C 
ATOM     75  F15 UNL A   1      24.998  42.039  48.027  1.00  0.00    +0.000 F 
ATOM     76  C53 UNL A   1      25.899  40.004  47.204  1.00  0.00    +0.000 C 
ATOM     77  F16 UNL A   1      24.907  39.398  47.858  1.00  0.00    +0.000 F 
ENDBRANCH   66   67
TORSDOF 17
ENDMDL
MODEL 3
REMARK VINA RESULT:     -11.3      0.863      1.621
ROOT
ATOM     30  C24 UNL A   1      40.791  27.747  29.074  1.00  0.00    +0.000 C 
ATOM     31  C25 UNL A   1      40.983  26.333  28.516  1.00  0.00    +0.000 C 
ATOM     32  N4  UNL A   1      41.760  25.371  28.917  1.00  0.00    +0.000 N 
ATOM     33  C26 UNL A   1      41.631  24.317  27.990  1.00  0.00    +0.000 C 
ATOM     34  C27 UNL A   1      42.504  23.272  27.899  1.00  0.00    +0.000 C 
ATOM     46  C34 UNL A   1      43.511  23.350  28.900  1.00  0.00    +0.000 C 
ATOM     47  C35 UNL A   1      43.546  23.051  30.236  1.00  0.00    +0.000 C 
ATOM     48  C36 UNL A   1      44.567  23.872  30.765  1.00  0.00    +0.000 C 
ATOM     49  C37 UNL A   1      45.137  24.613  29.726  1.00  0.00    +0.000 C 
ATOM     50  N5  UNL A   1      44.660  24.027  28.578  1.00  0.00    +0.000 N 
ATOM     51  C38 UNL A   1      45.861  25.859  29.589  1.00  0.00    +0.000 C 
ATOM     63  C45 UNL A   1      46.068  26.590  30.713  1.00  0.00    +0.000 C 
ATOM     64  N6  UNL A   1      45.884  27.955  30.685  1.00  0.00    +0.000 N 
ATOM     65  C46 UNL A   1      45.203  28.176  31.771  1.00  0.00    +0.000 C 
ATOM     66  C47 UNL A   1      44.433  29.404  32.051  1.00  0.00    +0.000 C 
ATOM     78  C54 UNL A   1      43.323  29.346  31.250  1.00  0.00    +0.000 C 
ATOM     79  C55 UNL A   1      42.271  30.332  31.108  1.00  0.00    +0.000 C 
ATOM     80  C56 UNL A   1      41.304  29.862  30.298  1.00  0.00    +0.000 C 
ATOM     81  C57 UNL A   1      41.627  28.502  29.840  1.00  0.00    +0.000 C 
ATOM     82  N7  UNL A   1      42.879  28.305  30.394  1.00  0.00    +0.000 N 
ATOM     83  C58 UNL A   1      45.154  27.072  32.738  1.00  0.00    +0.000 C 
ATOM     84  C59 UNL A   1      45.884  26.175  32.081  1.00  0.00    +0.000 C 
ATOM     85  C60 UNL A   1      40.542  24.662  27.125  1.00  0.00    +0.000 C 
ATOM     86  C61 UNL A   1      40.138  25.909  27.368  1.00  0.00    +0.000 C 
ATOM    114  H26 UNL A   1      42.956  22.375  30.745  1.00  0.00    +0.000 H 
ATOM    115  H27 UNL A   1      44.848  23.918  31.757  1.00  0.00    +0.000 H 
ATOM    116  H28 UNL A   1      45.070  24.082  27.684  1.00  0.00    +0.000 H 
ATOM    117  H29 UNL A   1      42.264  31.260  31.560  1.00  0.00    +0.000 H 
ATOM    118  H30 UNL A   1      40.453  30.383  30.035  1.00  0.00    +0.000 H 
ATOM    119  H31 UNL A   1      43.420  27.503  30.210  1.00  0.00    +0.000 H 
ATOM    120  H32 UNL A   1      44.691  27.010  33.658  1.00  0.00    +0.000 H 
ATOM    121  H33 UNL A   1      46.262  25.306  32.492  1.00  0.00    +0.000 H 
ATOM    122  H34 UNL A   1      40.129  24.035  26.417  1.00  0.00    +0.000 H 
ATOM    123  H35 UNL A   1      39.412  26.452  26.875  1.00  0.00    +0.000 H 
ENDROOT
BRANCH   30   29
ATOM    124  H36 UNL A   1      38.472  27.729  30.486  1.00  0.00    +0.000 H 
ATOM     29  C23 UNL A   1      39.476  28.340  28.724  1.00  0.00    +0.000 C 
ATOM    112  H24 UNL A   1      38.112  30.294  26.373  1.00  0.00    +0.000 H 
ATOM    113  H25 UNL A   1      40.140  29.053  26.847  1.00  0.00    +0.000 H 
ATOM     87  C62 UNL A   1      38.397  28.285  29.620  1.00  0.00    +0.000 C 
ATOM     88  C63 UNL A   1      37.225  28.984  29.334  1.00  0.00    +0.000 C 
ATOM     26  C20 UNL A   1      37.143  29.761  28.175  1.00  0.00    +0.000 C 
ATOM     27  C21 UNL A   1      38.198  29.764  27.254  1.00  0.00    +0.000 C 
ATOM     28  C22 UNL A   1      39.363  29.054  27.525  1.00  0.00    +0.000 C 
ATOM    125  H37 UNL A   1      36.421  28.929  29.978  1.00  0.00    +0.000 H 
BRANCH   26   24
ATOM     25  O2  UNL A   1      35.992  31.760  27.789  1.00  0.00    +0.000 O 
ATOM     24  C19 UNL A   1      35.933  30.541  27.826  1.00  0.00    +0.000 C 
BRANCH   24   23
ATOM    111  H23 UNL A   1      34.671  28.974  27.841  1.00  0.00    +0.000 H 
ATOM     23  N3  UNL A   1      34.734  29.918  27.570  1.00  0.00    +0.000 N 
BRANCH   23   22
ATOM    110  H22 UNL A   1      33.809  31.423  26.509  1.00  0.00    +0.000 H 
ATOM    109  H21 UNL A   1      32.791  30.615  27.695  1.00  0.00    +0.000 H 
ATOM     22  C18 UNL A   1      33.547  30.484  26.948  1.00  0.00    +0.000 C 
BRANCH   22   21
ATOM    107  H19 UNL A   1      32.012  29.874  25.615  1.00  0.00    +0.000 H 
ATOM    108  H20 UNL A   1      33.679  29.656  25.020  1.00  0.00    +0.000 H 
ATOM     21  C17 UNL A   1      33.010  29.566  25.850  1.00  0.00    +0.000 C 
BRANCH   21   20
ATOM    105  H17 UNL A   1      33.570  27.948  27.109  1.00  0.00    +0.000 H 
ATOM    106  H18 UNL A   1      31.945  27.831  26.367  1.00  0.00    +0.000 H 
ATOM     20  C16 UNL A   1      32.977  28.079  26.229  1.00  0.00    +0.000 C 
BRANCH   20   19
ATOM     19  C15 UNL A   1      33.504  27.122  25.155  1.00  0.00    +0.000 C 
ATOM    103  H15 UNL A   1      32.689  26.866  24.513  1.00  0.00    +0.000 H 
ATOM    104  H16 UNL A   1      34.295  27.644  24.657  1.00  0.00    +0.000 H 
BRANCH   19   18
ATOM     18  C14 UNL A   1      34.121  25.820  25.683  1.00  0.00    +0.000 C 
ATOM    101  H13 UNL A   1      34.977  26.073  26.271  1.00  0.00    +0.000 H 
ATOM    102  H14 UNL A   1      33.352  25.329  26.241  1.00  0.00    +0.000 H 
BRANCH   18   17
ATOM     17  C13 UNL A   1      34.563  24.831  24.604  1.00  0.00    +0.000 C 
ATOM     99  H11 UNL A   1      34.295  25.220  23.644  1.00  0.00    +0.000 H 
ATOM    100  H12 UNL A   1      35.623  24.703  24.678  1.00  0.00    +0.000 H 
BRANCH   17   16
ATOM     98  H10 UNL A   1      34.092  23.047  25.621  1.00  0.00    +0.000 H 
ATOM     16  N2  UNL A   1      33.935  23.541  24.784  1.00  0.00    +0.000 N 
BRANCH   16    2
ATOM      1  O1  UNL A   1      33.498  22.720  22.681  1.00  0.00    +0.000 O 
ATOM      2  C1  UNL A   1      33.121  22.977  23.821  1.00  0.00    +0.000 C 
BRANCH    2    3
ATOM     89  H1  UNL A   1      31.714  22.181  25.190  1.00  0.00    +0.000 H 
ATOM     90  H2  UNL A   1      31.175  22.252  23.500  1.00  0.00    +0.000 H 
ATOM      3  C2  UNL A   1      31.693  22.757  24.288  1.00  0.00    +0.000 C 
BRANCH    3    4
ATOM     97  H9  UNL A   1      30.667  24.845  22.589  1.00  0.00    +0.000 H 
ATOM      4  C3  UNL A   1      30.956  24.033  24.557  1.00  0.00    +0.000 C 
ATOM      5  C4  UNL A   1      30.573  24.573  25.813  1.00  0.00    +0.000 C 
ATOM      6  C5  UNL A   1      30.001  25.803  25.584  1.00  0.00    +0.000 C 
ATOM      7  N1  UNL A   1      29.995  26.056  24.227  1.00  0.00    +0.000 N 
ATOM     15  C12 UNL A   1      30.558  24.959  23.608  1.00  0.00    +0.000 C 
ATOM     91  H3  UNL A   1      30.702  24.123  26.733  1.00  0.00    +0.000 H 
ATOM     92  H4  UNL A   1      29.633  26.436  26.312  1.00  0.00    +0.000 H 
BRANCH    7    8
ATOM      8  C6  UNL A   1      29.535  27.245  23.603  1.00  0.00    +0.000 C 
ATOM      9  C7  UNL A   1      30.454  28.119  23.002  1.00  0.00    +0.000 C 
ATOM     10  C8  UNL A   1      30.008  29.280  22.363  1.00  0.00    +0.000 C 
ATOM     11  C9  UNL A   1      28.649  29.589  22.340  1.00  0.00    +0.000 C 
ATOM     12  C10 UNL A   1      27.733  28.731  22.946  1.00  0.00    +0.000 C 
ATOM     13  C11 UNL A   1      28.174  27.561  23.561  1.00  0.00    +0.000 C 
ATOM     14  F1  UNL A   1      27.253  26.795  24.163  1.00  0.00    +0.000 F 
ATOM     93  H5  UNL A   1      31.464  27.905  23.032  1.00  0.00    +0.000 H 
ATOM     94  H6  UNL A   1      30.686  29.910  21.907  1.00  0.00    +0.000 H 
ATOM     95  H7  UNL A   1      28.322  30.452  21.877  1.00  0.00    +0.000 H 
ATOM     96  H8  UNL A   1      26.727  28.962  22.937  1.00  0.00    +0.000 H 
ENDBRANCH    7    8
ENDBRANCH    3    4
ENDBRANCH    2    3
ENDBRANCH   16    2
ENDBRANCH   17   16
ENDBRANCH   18   17
ENDBRANCH   19   18
ENDBRANCH   20   19
ENDBRANCH   21   20
ENDBRANCH   22   21
ENDBRANCH   23   22
ENDBRANCH   24   23
ENDBRANCH   26   24
ENDBRANCH   30   29
BRANCH   34   35
ATOM     35  C28 UNL A   1      42.677  22.229  26.827  1.00  0.00    +0.000 C 
ATOM     36  C29 UNL A   1      43.632  22.326  25.806  1.00  0.00    +0.000 C 
ATOM     37  F2  UNL A   1      44.279  23.474  25.569  1.00  0.00    +0.000 F 
ATOM     38  C30 UNL A   1      44.019  21.205  25.061  1.00  0.00    +0.000 C 
ATOM     39  F3  UNL A   1      44.963  21.330  24.118  1.00  0.00    +0.000 F 
ATOM     40  C31 UNL A   1      43.489  19.955  25.336  1.00  0.00    +0.000 C 
ATOM     41  F4  UNL A   1      43.939  18.872  24.689  1.00  0.00    +0.000 F 
ATOM     42  C32 UNL A   1      42.517  19.831  26.308  1.00  0.00    +0.000 C 
ATOM     43  F5  UNL A   1      42.020  18.622  26.609  1.00  0.00    +0.000 F 
ATOM     44  C33 UNL A   1      42.096  20.952  27.020  1.00  0.00    +0.000 C 
ATOM     45  F6  UNL A   1      41.151  20.764  27.955  1.00  0.00    +0.000 F 
ENDBRANCH   34   35
BRANCH   51   52
ATOM     52  C39 UNL A   1      45.991  26.671  28.320  1.00  0.00    +0.000 C 
ATOM     53  C40 UNL A   1      44.890  27.220  27.642  1.00  0.00    +0.000 C 
ATOM     54  F7  UNL A   1      43.649  26.938  28.033  1.00  0.00    +0.000 F 
ATOM     55  C41 UNL A   1      45.030  28.069  26.547  1.00  0.00    +0.000 C 
ATOM     56  F8  UNL A   1      43.942  28.547  25.925  1.00  0.00    +0.000 F 
ATOM     57  C42 UNL A   1      46.291  28.412  26.102  1.00  0.00    +0.000 C 
ATOM     58  F9  UNL A   1      46.433  29.229  25.050  1.00  0.00    +0.000 F 
ATOM     59  C43 UNL A   1      47.403  27.893  26.747  1.00  0.00    +0.000 C 
ATOM     60  F10 UNL A   1      48.629  28.221  26.316  1.00  0.00    +0.000 F 
ATOM     61  C44 UNL A   1      47.257  27.031  27.838  1.00  0.00    +0.000 C 
ATOM     62  F11 UNL A   1      48.360  26.548  28.429  1.00  0.00    +0.000 F 
ENDBRANCH   51   52
BRANCH   66   67
ATOM     67  C48 UNL A   1      44.956  30.319  33.145  1.00  0.00    +0.000 C 
ATOM     68  C49 UNL A   1      46.153  31.065  32.945  1.00  0.00    +0.000 C 
ATOM     69  F12 UNL A   1      46.732  31.158  31.741  1.00  0.00    +0.000 F 
ATOM     70  C50 UNL A   1      46.816  31.755  33.964  1.00  0.00    +0.000 C 
ATOM     71  F13 UNL A   1      47.987  32.355  33.708  1.00  0.00    +0.000 F 
ATOM     72  C51 UNL A   1      46.277  31.802  35.226  1.00  0.00    +0.000 C 
ATOM     73  F14 UNL A   1      46.917  32.437  36.215  1.00  0.00    +0.000 F 
ATOM     74  C52 UNL A   1      45.053  31.200  35.444  1.00  0.00    +0.000 C 
ATOM     75  F15 UNL A   1      44.482  31.292  36.653  1.00  0.00    +0.000 F 
ATOM     76  C53 UNL A   1      44.401  30.485  34.422  1.00  0.00    +0.000 C 
ATOM     77  F16 UNL A   1      43.196  30.004  34.729  1.00  0.00    +0.000 F 
ENDBRANCH   66   67
TORSDOF 17
ENDMDL
MODEL 4
REMARK VINA RESULT:     -11.2     21.079     24.726
ROOT
ATOM     30  C24 UNL A   1      25.150  33.417  46.213  1.00  0.00    +0.000 C 
ATOM     31  C25 UNL A   1      25.983  32.315  46.874  1.00  0.00    +0.000 C 
ATOM     32  N4  UNL A   1      26.937  32.398  47.753  1.00  0.00    +0.000 N 
ATOM     33  C26 UNL A   1      27.442  31.095  47.946  1.00  0.00    +0.000 C 
ATOM     34  C27 UNL A   1      28.633  30.822  48.552  1.00  0.00    +0.000 C 
ATOM     46  C34 UNL A   1      29.260  32.009  49.022  1.00  0.00    +0.000 C 
ATOM     47  C35 UNL A   1      29.073  32.811  50.116  1.00  0.00    +0.000 C 
ATOM     48  C36 UNL A   1      29.553  34.081  49.721  1.00  0.00    +0.000 C 
ATOM     49  C37 UNL A   1      30.044  33.994  48.416  1.00  0.00    +0.000 C 
ATOM     50  N5  UNL A   1      30.117  32.645  48.160  1.00  0.00    +0.000 N 
ATOM     51  C38 UNL A   1      30.263  34.898  47.307  1.00  0.00    +0.000 C 
ATOM     63  C45 UNL A   1      29.901  36.194  47.473  1.00  0.00    +0.000 C 
ATOM     64  N6  UNL A   1      29.236  36.854  46.463  1.00  0.00    +0.000 N 
ATOM     65  C46 UNL A   1      28.277  37.462  47.099  1.00  0.00    +0.000 C 
ATOM     66  C47 UNL A   1      27.063  38.016  46.467  1.00  0.00    +0.000 C 
ATOM     78  C54 UNL A   1      26.288  36.939  46.126  1.00  0.00    +0.000 C 
ATOM     79  C55 UNL A   1      25.015  36.937  45.434  1.00  0.00    +0.000 C 
ATOM     80  C56 UNL A   1      24.523  35.686  45.377  1.00  0.00    +0.000 C 
ATOM     81  C57 UNL A   1      25.430  34.740  46.047  1.00  0.00    +0.000 C 
ATOM     82  N7  UNL A   1      26.488  35.560  46.396  1.00  0.00    +0.000 N 
ATOM     83  C58 UNL A   1      28.406  37.517  48.560  1.00  0.00    +0.000 C 
ATOM     84  C59 UNL A   1      29.553  36.861  48.703  1.00  0.00    +0.000 C 
ATOM     85  C60 UNL A   1      26.551  30.206  47.261  1.00  0.00    +0.000 C 
ATOM     86  C61 UNL A   1      25.667  30.900  46.545  1.00  0.00    +0.000 C 
ATOM    114  H26 UNL A   1      28.670  32.547  51.028  1.00  0.00    +0.000 H 
ATOM    115  H27 UNL A   1      29.543  34.934  50.302  1.00  0.00    +0.000 H 
ATOM    116  H28 UNL A   1      30.683  32.214  47.480  1.00  0.00    +0.000 H 
ATOM    117  H29 UNL A   1      24.553  37.772  45.042  1.00  0.00    +0.000 H 
ATOM    118  H30 UNL A   1      23.633  35.424  44.925  1.00  0.00    +0.000 H 
ATOM    119  H31 UNL A   1      27.315  35.214  46.803  1.00  0.00    +0.000 H 
ATOM    120  H32 UNL A   1      27.787  37.942  49.269  1.00  0.00    +0.000 H 
ATOM    121  H33 UNL A   1      30.113  36.833  49.570  1.00  0.00    +0.000 H 
ATOM    122  H34 UNL A   1      26.589  29.176  47.316  1.00  0.00    +0.000 H 
ATOM    123  H35 UNL A   1      24.936  30.540  45.911  1.00  0.00    +0.000 H 
ENDROOT
BRANCH   30   29
ATOM    124  H36 UNL A   1      24.381  32.886  43.664  1.00  0.00    +0.000 H 
ATOM     29  C23 UNL A   1      23.839  32.936  45.711  1.00  0.00    +0.000 C 
ATOM    112  H24 UNL A   1      20.905  31.844  46.897  1.00  0.00    +0.000 H 
ATOM    113  H25 UNL A   1      22.952  32.917  47.630  1.00  0.00    +0.000 H 
ATOM     87  C62 UNL A   1      23.647  32.653  44.350  1.00  0.00    +0.000 C 
ATOM     88  C63 UNL A   1      22.460  32.053  43.929  1.00  0.00    +0.000 C 
ATOM     26  C20 UNL A   1      21.482  31.710  44.867  1.00  0.00    +0.000 C 
ATOM     27  C21 UNL A   1      21.652  32.050  46.216  1.00  0.00    +0.000 C 
ATOM     28  C22 UNL A   1      22.827  32.663  46.638  1.00  0.00    +0.000 C 
ATOM    125  H37 UNL A   1      22.304  31.864  42.926  1.00  0.00    +0.000 H 
BRANCH   26   24
ATOM     25  O2  UNL A   1      19.915  29.978  44.980  1.00  0.00    +0.000 O 
ATOM     24  C19 UNL A   1      20.211  31.055  44.485  1.00  0.00    +0.000 C 
BRANCH   24   23
ATOM    111  H23 UNL A   1      19.104  31.051  42.805  1.00  0.00    +0.000 H 
ATOM     23  N3  UNL A   1      19.366  31.624  43.560  1.00  0.00    +0.000 N 
BRANCH   23   22
ATOM    110  H22 UNL A   1      19.563  33.644  43.200  1.00  0.00    +0.000 H 
ATOM    109  H21 UNL A   1      18.526  33.228  44.560  1.00  0.00    +0.000 H 
ATOM     22  C18 UNL A   1      18.815  32.970  43.562  1.00  0.00    +0.000 C 
BRANCH   22   21
ATOM    107  H19 UNL A   1      16.795  33.518  43.200  1.00  0.00    +0.000 H 
ATOM    108  H20 UNL A   1      17.889  33.643  41.797  1.00  0.00    +0.000 H 
ATOM     21  C17 UNL A   1      17.592  33.065  42.648  1.00  0.00    +0.000 C 
BRANCH   21   20
ATOM    105  H17 UNL A   1      16.833  31.845  41.083  1.00  0.00    +0.000 H 
ATOM    106  H18 UNL A   1      17.902  31.024  42.261  1.00  0.00    +0.000 H 
ATOM     20  C16 UNL A   1      17.098  31.715  42.111  1.00  0.00    +0.000 C 
BRANCH   20   19
ATOM     19  C15 UNL A   1      15.889  31.127  42.843  1.00  0.00    +0.000 C 
ATOM    103  H15 UNL A   1      15.415  31.917  43.386  1.00  0.00    +0.000 H 
ATOM    104  H16 UNL A   1      15.268  30.693  42.088  1.00  0.00    +0.000 H 
BRANCH   19   18
ATOM     18  C14 UNL A   1      16.207  29.996  43.832  1.00  0.00    +0.000 C 
ATOM    101  H13 UNL A   1      16.991  30.331  44.477  1.00  0.00    +0.000 H 
ATOM    102  H14 UNL A   1      15.293  29.783  44.347  1.00  0.00    +0.000 H 
BRANCH   18   17
ATOM     17  C13 UNL A   1      16.651  28.682  43.189  1.00  0.00    +0.000 C 
ATOM     99  H11 UNL A   1      15.872  28.328  42.547  1.00  0.00    +0.000 H 
ATOM    100  H12 UNL A   1      17.546  28.865  42.632  1.00  0.00    +0.000 H 
BRANCH   17   16
ATOM     98  H10 UNL A   1      17.623  27.860  44.867  1.00  0.00    +0.000 H 
ATOM     16  N2  UNL A   1      16.933  27.676  44.188  1.00  0.00    +0.000 N 
BRANCH   16    2
ATOM      1  O1  UNL A   1      16.835  25.387  44.377  1.00  0.00    +0.000 O 
ATOM      2  C1  UNL A   1      16.269  26.465  44.224  1.00  0.00    +0.000 C 
BRANCH    2    3
ATOM     89  H1  UNL A   1      14.552  27.600  43.726  1.00  0.00    +0.000 H 
ATOM     90  H2  UNL A   1      14.288  26.301  44.906  1.00  0.00    +0.000 H 
ATOM      3  C2  UNL A   1      14.773  26.589  43.997  1.00  0.00    +0.000 C 
BRANCH    3    4
ATOM     97  H9  UNL A   1      15.802  25.807  41.423  1.00  0.00    +0.000 H 
ATOM      4  C3  UNL A   1      14.262  25.686  42.917  1.00  0.00    +0.000 C 
ATOM      5  C4  UNL A   1      13.044  24.957  42.889  1.00  0.00    +0.000 C 
ATOM      6  C5  UNL A   1      12.952  24.339  41.664  1.00  0.00    +0.000 C 
ATOM      7  N1  UNL A   1      14.074  24.639  40.918  1.00  0.00    +0.000 N 
ATOM     15  C12 UNL A   1      14.878  25.442  41.701  1.00  0.00    +0.000 C 
ATOM     91  H3  UNL A   1      12.351  24.902  43.653  1.00  0.00    +0.000 H 
ATOM     92  H4  UNL A   1      12.167  23.744  41.352  1.00  0.00    +0.000 H 
BRANCH    7    8
ATOM      8  C6  UNL A   1      14.320  24.230  39.581  1.00  0.00    +0.000 C 
ATOM      9  C7  UNL A   1      14.321  22.864  39.258  1.00  0.00    +0.000 C 
ATOM     10  C8  UNL A   1      14.537  22.453  37.939  1.00  0.00    +0.000 C 
ATOM     11  C9  UNL A   1      14.779  23.396  36.942  1.00  0.00    +0.000 C 
ATOM     12  C10 UNL A   1      14.791  24.752  37.259  1.00  0.00    +0.000 C 
ATOM     13  C11 UNL A   1      14.550  25.165  38.568  1.00  0.00    +0.000 C 
ATOM     14  F1  UNL A   1      14.616  26.480  38.823  1.00  0.00    +0.000 F 
ATOM     93  H5  UNL A   1      14.161  22.160  39.996  1.00  0.00    +0.000 H 
ATOM     94  H6  UNL A   1      14.519  21.448  37.704  1.00  0.00    +0.000 H 
ATOM     95  H7  UNL A   1      14.949  23.089  35.971  1.00  0.00    +0.000 H 
ATOM     96  H8  UNL A   1      14.978  25.452  36.524  1.00  0.00    +0.000 H 
ENDBRANCH    7    8
ENDBRANCH    3    4
ENDBRANCH    2    3
ENDBRANCH   16    2
ENDBRANCH   17   16
ENDBRANCH   18   17
ENDBRANCH   19   18
ENDBRANCH   20   19
ENDBRANCH   21   20
ENDBRANCH   22   21
ENDBRANCH   23   22
ENDBRANCH   24   23
ENDBRANCH   26   24
ENDBRANCH   30   29
BRANCH   34   35
ATOM     35  C28 UNL A   1      29.438  29.552  48.603  1.00  0.00    +0.000 C 
ATOM     36  C29 UNL A   1      30.645  29.376  47.910  1.00  0.00    +0.000 C 
ATOM     37  F2  UNL A   1      31.026  30.235  46.956  1.00  0.00    +0.000 F 
ATOM     38  C30 UNL A   1      31.542  28.358  48.255  1.00  0.00    +0.000 C 
ATOM     39  F3  UNL A   1      32.702  28.246  47.593  1.00  0.00    +0.000 F 
ATOM     40  C31 UNL A   1      31.277  27.511  49.318  1.00  0.00    +0.000 C 
ATOM     41  F4  UNL A   1      32.186  26.607  49.705  1.00  0.00    +0.000 F 
ATOM     42  C32 UNL A   1      30.081  27.630  49.996  1.00  0.00    +0.000 C 
ATOM     43  F5  UNL A   1      29.826  26.839  51.049  1.00  0.00    +0.000 F 
ATOM     44  C33 UNL A   1      29.164  28.612  49.626  1.00  0.00    +0.000 C 
ATOM     45  F6  UNL A   1      28.022  28.679  50.329  1.00  0.00    +0.000 F 
ENDBRANCH   34   35
BRANCH   51   52
ATOM     52  C39 UNL A   1      30.391  34.499  45.853  1.00  0.00    +0.000 C 
ATOM     53  C40 UNL A   1      29.305  34.057  45.079  1.00  0.00    +0.000 C 
ATOM     54  F7  UNL A   1      28.117  33.851  45.641  1.00  0.00    +0.000 F 
ATOM     55  C41 UNL A   1      29.409  33.811  43.712  1.00  0.00    +0.000 C 
ATOM     56  F8  UNL A   1      28.343  33.370  43.027  1.00  0.00    +0.000 F 
ATOM     57  C42 UNL A   1      30.612  34.021  43.067  1.00  0.00    +0.000 C 
ATOM     58  F9  UNL A   1      30.718  33.789  41.752  1.00  0.00    +0.000 F 
ATOM     59  C43 UNL A   1      31.706  34.461  43.796  1.00  0.00    +0.000 C 
ATOM     60  F10 UNL A   1      32.876  34.662  43.175  1.00  0.00    +0.000 F 
ATOM     61  C44 UNL A   1      31.599  34.692  45.171  1.00  0.00    +0.000 C 
ATOM     62  F11 UNL A   1      32.685  35.112  45.839  1.00  0.00    +0.000 F 
ENDBRANCH   51   52
BRANCH   66   67
ATOM     67  C48 UNL A   1      26.923  39.528  46.436  1.00  0.00    +0.000 C 
ATOM     68  C49 UNL A   1      27.802  40.315  45.638  1.00  0.00    +0.000 C 
ATOM     69  F12 UNL A   1      28.623  39.759  44.739  1.00  0.00    +0.000 F 
ATOM     70  C50 UNL A   1      27.885  41.708  45.718  1.00  0.00    +0.000 C 
ATOM     71  F13 UNL A   1      28.806  42.363  44.996  1.00  0.00    +0.000 F 
ATOM     72  C51 UNL A   1      27.036  42.400  46.547  1.00  0.00    +0.000 C 
ATOM     73  F14 UNL A   1      27.125  43.732  46.650  1.00  0.00    +0.000 F 
ATOM     74  C52 UNL A   1      26.079  41.695  47.250  1.00  0.00    +0.000 C 
ATOM     75  F15 UNL A   1      25.201  42.362  48.012  1.00  0.00    +0.000 F 
ATOM     76  C53 UNL A   1      26.016  40.292  47.186  1.00  0.00    +0.000 C 
ATOM     77  F16 UNL A   1      25.010  39.725  47.854  1.00  0.00    +0.000 F 
ENDBRANCH   66   67
TORSDOF 17
ENDMDL
MODEL 5
REMARK VINA RESULT:     -11.1      1.394      4.019
ROOT
ATOM     30  C24 UNL A   1      40.753  27.757  28.997  1.00  0.00    +0.000 C 
ATOM     31  C25 UNL A   1      40.919  26.329  28.469  1.00  0.00    +0.000 C 
ATOM     32  N4  UNL A   1      41.693  25.368  28.878  1.00  0.00    +0.000 N 
ATOM     33  C26 UNL A   1      41.536  24.294  27.978  1.00  0.00    +0.000 C 
ATOM     34  C27 UNL A   1      42.396  23.237  27.896  1.00  0.00    +0.000 C 
ATOM     46  C34 UNL A   1      43.423  23.328  28.876  1.00  0.00    +0.000 C 
ATOM     47  C35 UNL A   1      43.480  23.060  30.218  1.00  0.00    +0.000 C 
ATOM     48  C36 UNL A   1      44.519  23.882  30.708  1.00  0.00    +0.000 C 
ATOM     49  C37 UNL A   1      45.077  24.592  29.641  1.00  0.00    +0.000 C 
ATOM     50  N5  UNL A   1      44.572  23.984  28.516  1.00  0.00    +0.000 N 
ATOM     51  C38 UNL A   1      45.811  25.826  29.462  1.00  0.00    +0.000 C 
ATOM     63  C45 UNL A   1      46.048  26.581  30.563  1.00  0.00    +0.000 C 
ATOM     64  N6  UNL A   1      45.877  27.948  30.506  1.00  0.00    +0.000 N 
ATOM     65  C46 UNL A   1      45.219  28.201  31.600  1.00  0.00    +0.000 C 
ATOM     66  C47 UNL A   1      44.468  29.444  31.865  1.00  0.00    +0.000 C 
ATOM     78  C54 UNL A   1      43.343  29.379  31.086  1.00  0.00    +0.000 C 
ATOM     79  C55 UNL A   1      42.298  30.374  30.940  1.00  0.00    +0.000 C 
ATOM     80  C56 UNL A   1      41.312  29.895  30.161  1.00  0.00    +0.000 C 
ATOM     81  C57 UNL A   1      41.611  28.521  29.729  1.00  0.00    +0.000 C 
ATOM     82  N7  UNL A   1      42.872  28.324  30.264  1.00  0.00    +0.000 N 
ATOM     83  C58 UNL A   1      45.178  27.121  32.593  1.00  0.00    +0.000 C 
ATOM     84  C59 UNL A   1      45.885  26.200  31.944  1.00  0.00    +0.000 C 
ATOM     85  C60 UNL A   1      40.434  24.631  27.127  1.00  0.00    +0.000 C 
ATOM     86  C61 UNL A   1      40.048  25.888  27.347  1.00  0.00    +0.000 C 
ATOM    114  H26 UNL A   1      42.892  22.402  30.754  1.00  0.00    +0.000 H 
ATOM    115  H27 UNL A   1      44.819  23.948  31.693  1.00  0.00    +0.000 H 
ATOM    116  H28 UNL A   1      44.965  24.014  27.614  1.00  0.00    +0.000 H 
ATOM    117  H29 UNL A   1      42.310  31.312  31.371  1.00  0.00    +0.000 H 
ATOM    118  H30 UNL A   1      40.462  30.419  29.901  1.00  0.00    +0.000 H 
ATOM    119  H31 UNL A   1      43.401  27.512  30.088  1.00  0.00    +0.000 H 
ATOM    120  H32 UNL A   1      44.732  27.086  33.523  1.00  0.00    +0.000 H 
ATOM    121  H33 UNL A   1      46.262  25.338  32.368  1.00  0.00    +0.000 H 
ATOM    122  H34 UNL A   1      40.002  23.992  26.441  1.00  0.00    +0.000 H 
ATOM    123  H35 UNL A   1      39.318  26.426  26.856  1.00  0.00    +0.000 H 
ENDROOT
BRANCH   30   29
ATOM    124  H36 UNL A   1      38.451  27.769  30.437  1.00  0.00    +0.000 H 
ATOM     29  C23 UNL A   1      39.438  28.356  28.657  1.00  0.00    +0.000 C 
ATOM    112  H24 UNL A   1      38.059  30.299  26.305  1.00  0.00    +0.000 H 
ATOM    113  H25 UNL A   1      40.084  29.048  26.766  1.00  0.00    +0.000 H 
ATOM     87  C62 UNL A   1      38.370  28.317  29.567  1.00  0.00    +0.000 C 
ATOM     88  C63 UNL A   1      37.199  29.022  29.289  1.00  0.00    +0.000 C 
ATOM     26  C20 UNL A   1      37.108  29.789  28.124  1.00  0.00    +0.000 C 
ATOM     27  C21 UNL A   1      38.152  29.776  27.190  1.00  0.00    +0.000 C 
ATOM     28  C22 UNL A   1      39.315  29.061  27.454  1.00  0.00    +0.000 C 
ATOM    125  H37 UNL A   1      36.402  28.979  29.944  1.00  0.00    +0.000 H 
BRANCH   26   24
ATOM     25  O2  UNL A   1      35.791  31.720  28.191  1.00  0.00    +0.000 O 
ATOM     24  C19 UNL A   1      35.900  30.574  27.783  1.00  0.00    +0.000 C 
BRANCH   24   23
ATOM    111  H23 UNL A   1      34.494  30.606  26.343  1.00  0.00    +0.000 H 
ATOM     23  N3  UNL A   1      34.881  30.026  27.039  1.00  0.00    +0.000 N 
BRANCH   23   22
ATOM    110  H22 UNL A   1      34.712  28.223  28.022  1.00  0.00    +0.000 H 
ATOM    109  H21 UNL A   1      34.542  28.136  26.273  1.00  0.00    +0.000 H 
ATOM     22  C18 UNL A   1      34.305  28.696  27.153  1.00  0.00    +0.000 C 
BRANCH   22   21
ATOM    107  H19 UNL A   1      32.491  28.062  28.057  1.00  0.00    +0.000 H 
ATOM    108  H20 UNL A   1      32.548  29.776  27.567  1.00  0.00    +0.000 H 
ATOM     21  C17 UNL A   1      32.785  28.765  27.305  1.00  0.00    +0.000 C 
BRANCH   21   20
ATOM    105  H17 UNL A   1      32.637  27.865  25.386  1.00  0.00    +0.000 H 
ATOM    106  H18 UNL A   1      31.119  27.937  26.331  1.00  0.00    +0.000 H 
ATOM     20  C16 UNL A   1      32.006  28.450  26.021  1.00  0.00    +0.000 C 
BRANCH   20   19
ATOM     19  C15 UNL A   1      31.536  29.673  25.228  1.00  0.00    +0.000 C 
ATOM    103  H15 UNL A   1      30.939  30.278  25.878  1.00  0.00    +0.000 H 
ATOM    104  H16 UNL A   1      32.423  30.160  24.883  1.00  0.00    +0.000 H 
BRANCH   19   18
ATOM     18  C14 UNL A   1      30.706  29.362  23.974  1.00  0.00    +0.000 C 
ATOM    101  H13 UNL A   1      29.825  29.968  24.001  1.00  0.00    +0.000 H 
ATOM    102  H14 UNL A   1      31.340  29.570  23.138  1.00  0.00    +0.000 H 
BRANCH   18   17
ATOM     17  C13 UNL A   1      30.274  27.903  23.830  1.00  0.00    +0.000 C 
ATOM     99  H11 UNL A   1      30.519  27.377  24.729  1.00  0.00    +0.000 H 
ATOM    100  H12 UNL A   1      29.219  27.879  23.653  1.00  0.00    +0.000 H 
BRANCH   17   16
ATOM     98  H10 UNL A   1      30.842  27.658  21.817  1.00  0.00    +0.000 H 
ATOM     16  N2  UNL A   1      30.937  27.265  22.715  1.00  0.00    +0.000 N 
BRANCH   16    2
ATOM      1  O1  UNL A   1      31.232  24.990  22.856  1.00  0.00    +0.000 O 
ATOM      2  C1  UNL A   1      31.700  26.124  22.865  1.00  0.00    +0.000 C 
BRANCH    2    3
ATOM     89  H1  UNL A   1      33.271  27.403  23.484  1.00  0.00    +0.000 H 
ATOM     90  H2  UNL A   1      33.677  26.283  22.168  1.00  0.00    +0.000 H 
ATOM      3  C2  UNL A   1      33.174  26.408  23.104  1.00  0.00    +0.000 C 
BRANCH    3    4
ATOM     97  H9  UNL A   1      35.192  24.368  22.853  1.00  0.00    +0.000 H 
ATOM      4  C3  UNL A   1      33.807  25.464  24.078  1.00  0.00    +0.000 C 
ATOM      5  C4  UNL A   1      33.531  25.321  25.463  1.00  0.00    +0.000 C 
ATOM      6  C5  UNL A   1      34.285  24.272  25.936  1.00  0.00    +0.000 C 
ATOM      7  N1  UNL A   1      35.039  23.752  24.903  1.00  0.00    +0.000 N 
ATOM     15  C12 UNL A   1      34.758  24.502  23.779  1.00  0.00    +0.000 C 
ATOM     91  H3  UNL A   1      32.880  25.901  26.016  1.00  0.00    +0.000 H 
ATOM     92  H4  UNL A   1      34.286  23.927  26.910  1.00  0.00    +0.000 H 
BRANCH    7    8
ATOM      8  C6  UNL A   1      35.902  22.628  24.985  1.00  0.00    +0.000 C 
ATOM      9  C7  UNL A   1      35.377  21.333  24.861  1.00  0.00    +0.000 C 
ATOM     10  C8  UNL A   1      36.223  20.221  24.915  1.00  0.00    +0.000 C 
ATOM     11  C9  UNL A   1      37.591  20.392  25.117  1.00  0.00    +0.000 C 
ATOM     12  C10 UNL A   1      38.117  21.675  25.252  1.00  0.00    +0.000 C 
ATOM     13  C11 UNL A   1      37.279  22.785  25.173  1.00  0.00    +0.000 C 
ATOM     14  F1  UNL A   1      37.834  23.993  25.351  1.00  0.00    +0.000 F 
ATOM     93  H5  UNL A   1      34.361  21.200  24.731  1.00  0.00    +0.000 H 
ATOM     94  H6  UNL A   1      35.833  19.272  24.807  1.00  0.00    +0.000 H 
ATOM     95  H7  UNL A   1      38.213  19.569  25.167  1.00  0.00    +0.000 H 
ATOM     96  H8  UNL A   1      39.129  21.803  25.409  1.00  0.00    +0.000 H 
ENDBRANCH    7    8
ENDBRANCH    3    4
ENDBRANCH    2    3
ENDBRANCH   16    2
ENDBRANCH   17   16
ENDBRANCH   18   17
ENDBRANCH   19   18
ENDBRANCH   20   19
ENDBRANCH   21   20
ENDBRANCH   22   21
ENDBRANCH   23   22
ENDBRANCH   24   23
ENDBRANCH   26   24
ENDBRANCH   30   29
BRANCH   34   35
ATOM     35  C28 UNL A   1      42.537  22.168  26.847  1.00  0.00    +0.000 C 
ATOM     36  C29 UNL A   1      43.479  22.226  25.810  1.00  0.00    +0.000 C 
ATOM     37  F2  UNL A   1      44.141  23.358  25.539  1.00  0.00    +0.000 F 
ATOM     38  C30 UNL A   1      43.839  21.083  25.086  1.00  0.00    +0.000 C 
ATOM     39  F3  UNL A   1      44.771  21.171  24.128  1.00  0.00    +0.000 F 
ATOM     40  C31 UNL A   1      43.292  19.848  25.397  1.00  0.00    +0.000 C 
ATOM     41  F4  UNL A   1      43.716  18.743  24.769  1.00  0.00    +0.000 F 
ATOM     42  C32 UNL A   1      42.333  19.761  26.385  1.00  0.00    +0.000 C 
ATOM     43  F5  UNL A   1      41.821  18.568  26.720  1.00  0.00    +0.000 F 
ATOM     44  C33 UNL A   1      41.939  20.906  27.077  1.00  0.00    +0.000 C 
ATOM     45  F6  UNL A   1      41.004  20.754  28.029  1.00  0.00    +0.000 F 
ENDBRANCH   34   35
BRANCH   51   52
ATOM     52  C39 UNL A   1      45.926  26.607  28.171  1.00  0.00    +0.000 C 
ATOM     53  C40 UNL A   1      47.150  26.855  27.529  1.00  0.00    +0.000 C 
ATOM     54  F7  UNL A   1      48.297  26.511  28.109  1.00  0.00    +0.000 F 
ATOM     55  C41 UNL A   1      47.232  27.466  26.280  1.00  0.00    +0.000 C 
ATOM     56  F8  UNL A   1      48.431  27.697  25.723  1.00  0.00    +0.000 F 
ATOM     57  C42 UNL A   1      46.077  27.833  25.619  1.00  0.00    +0.000 C 
ATOM     58  F9  UNL A   1      46.148  28.419  24.416  1.00  0.00    +0.000 F 
ATOM     59  C43 UNL A   1      44.849  27.601  26.218  1.00  0.00    +0.000 C 
ATOM     60  F10 UNL A   1      43.725  27.960  25.582  1.00  0.00    +0.000 F 
ATOM     61  C44 UNL A   1      44.773  27.001  27.478  1.00  0.00    +0.000 C 
ATOM     62  F11 UNL A   1      43.564  26.799  28.024  1.00  0.00    +0.000 F 
ENDBRANCH   51   52
BRANCH   66   67
ATOM     67  C48 UNL A   1      45.021  30.379  32.926  1.00  0.00    +0.000 C 
ATOM     68  C49 UNL A   1      46.265  31.042  32.721  1.00  0.00    +0.000 C 
ATOM     69  F12 UNL A   1      46.874  31.043  31.529  1.00  0.00    +0.000 F 
ATOM     70  C50 UNL A   1      46.946  31.741  33.722  1.00  0.00    +0.000 C 
ATOM     71  F13 UNL A   1      48.157  32.258  33.467  1.00  0.00    +0.000 F 
ATOM     72  C51 UNL A   1      46.384  31.880  34.967  1.00  0.00    +0.000 C 
ATOM     73  F14 UNL A   1      47.040  32.525  35.940  1.00  0.00    +0.000 F 
ATOM     74  C52 UNL A   1      45.122  31.362  35.183  1.00  0.00    +0.000 C 
ATOM     75  F15 UNL A   1      44.532  31.547  36.372  1.00  0.00    +0.000 F 
ATOM     76  C53 UNL A   1      44.451  30.639  34.181  1.00  0.00    +0.000 C 
ATOM     77  F16 UNL A   1      43.212  30.245  34.481  1.00  0.00    +0.000 F 
ENDBRANCH   66   67
TORSDOF 17
ENDMDL
MODEL 6
REMARK VINA RESULT:     -11.1      4.916     11.338
ROOT
ATOM     30  C24 UNL A   1      39.332  29.475  30.513  1.00  0.00    +0.000 C 
ATOM     31  C25 UNL A   1      40.117  29.125  31.780  1.00  0.00    +0.000 C 
ATOM     32  N4  UNL A   1      39.892  29.441  33.021  1.00  0.00    +0.000 N 
ATOM     33  C26 UNL A   1      40.977  28.957  33.779  1.00  0.00    +0.000 C 
ATOM     34  C27 UNL A   1      41.252  29.353  35.056  1.00  0.00    +0.000 C 
ATOM     46  C34 UNL A   1      40.268  30.258  35.540  1.00  0.00    +0.000 C 
ATOM     47  C35 UNL A   1      39.000  30.106  36.034  1.00  0.00    +0.000 C 
ATOM     48  C36 UNL A   1      38.360  31.339  35.777  1.00  0.00    +0.000 C 
ATOM     49  C37 UNL A   1      39.273  32.205  35.169  1.00  0.00    +0.000 C 
ATOM     50  N5  UNL A   1      40.494  31.595  35.331  1.00  0.00    +0.000 N 
ATOM     51  C38 UNL A   1      39.214  33.366  34.305  1.00  0.00    +0.000 C 
ATOM     63  C45 UNL A   1      37.990  33.786  33.902  1.00  0.00    +0.000 C 
ATOM     64  N6  UNL A   1      37.791  34.154  32.589  1.00  0.00    +0.000 N 
ATOM     65  C46 UNL A   1      36.672  33.560  32.291  1.00  0.00    +0.000 C 
ATOM     66  C47 UNL A   1      36.182  33.321  30.919  1.00  0.00    +0.000 C 
ATOM     78  C54 UNL A   1      36.964  32.319  30.407  1.00  0.00    +0.000 C 
ATOM     79  C55 UNL A   1      36.926  31.746  29.076  1.00  0.00    +0.000 C 
ATOM     80  C56 UNL A   1      37.785  30.715  28.993  1.00  0.00    +0.000 C 
ATOM     81  C57 UNL A   1      38.466  30.501  30.280  1.00  0.00    +0.000 C 
ATOM     82  N7  UNL A   1      37.972  31.546  31.040  1.00  0.00    +0.000 N 
ATOM     83  C58 UNL A   1      35.898  33.034  33.423  1.00  0.00    +0.000 C 
ATOM     84  C59 UNL A   1      36.706  33.385  34.420  1.00  0.00    +0.000 C 
ATOM     85  C60 UNL A   1      41.756  28.135  32.901  1.00  0.00    +0.000 C 
ATOM     86  C61 UNL A   1      41.305  28.241  31.650  1.00  0.00    +0.000 C 
ATOM    114  H26 UNL A   1      38.600  29.273  36.493  1.00  0.00    +0.000 H 
ATOM    115  H27 UNL A   1      37.378  31.565  36.003  1.00  0.00    +0.000 H 
ATOM    116  H28 UNL A   1      41.372  32.038  35.302  1.00  0.00    +0.000 H 
ATOM    117  H29 UNL A   1      36.327  32.081  28.305  1.00  0.00    +0.000 H 
ATOM    118  H30 UNL A   1      37.946  30.151  28.144  1.00  0.00    +0.000 H 
ATOM    119  H31 UNL A   1      38.294  31.738  31.950  1.00  0.00    +0.000 H 
ATOM    120  H32 UNL A   1      34.994  32.538  33.440  1.00  0.00    +0.000 H 
ATOM    121  H33 UNL A   1      36.449  33.372  35.420  1.00  0.00    +0.000 H 
ATOM    122  H34 UNL A   1      42.551  27.546  33.194  1.00  0.00    +0.000 H 
ATOM    123  H35 UNL A   1      41.690  27.811  30.795  1.00  0.00    +0.000 H 
ENDROOT
BRANCH   30   29
ATOM    124  H36 UNL A   1      40.676  29.841  28.182  1.00  0.00    +0.000 H 
ATOM     29  C23 UNL A   1      39.559  28.518  29.402  1.00  0.00    +0.000 C 
ATOM    112  H24 UNL A   1      39.053  25.287  28.684  1.00  0.00    +0.000 H 
ATOM    113  H25 UNL A   1      38.451  26.969  30.323  1.00  0.00    +0.000 H 
ATOM     87  C62 UNL A   1      40.343  28.871  28.293  1.00  0.00    +0.000 C 
ATOM     88  C63 UNL A   1      40.672  27.905  27.343  1.00  0.00    +0.000 C 
ATOM     26  C20 UNL A   1      40.245  26.584  27.515  1.00  0.00    +0.000 C 
ATOM     27  C21 UNL A   1      39.411  26.250  28.590  1.00  0.00    +0.000 C 
ATOM     28  C22 UNL A   1      39.067  27.214  29.532  1.00  0.00    +0.000 C 
ATOM    125  H37 UNL A   1      41.229  28.163  26.513  1.00  0.00    +0.000 H 
BRANCH   26   24
ATOM     25  O2  UNL A   1      41.122  25.795  25.496  1.00  0.00    +0.000 O 
ATOM     24  C19 UNL A   1      40.576  25.511  26.551  1.00  0.00    +0.000 C 
BRANCH   24   23
ATOM    111  H23 UNL A   1      40.852  23.721  27.429  1.00  0.00    +0.000 H 
ATOM     23  N3  UNL A   1      40.255  24.198  26.809  1.00  0.00    +0.000 N 
BRANCH   23   22
ATOM    110  H22 UNL A   1      39.052  23.640  25.232  1.00  0.00    +0.000 H 
ATOM    109  H21 UNL A   1      38.247  23.706  26.795  1.00  0.00    +0.000 H 
ATOM     22  C18 UNL A   1      39.141  23.429  26.277  1.00  0.00    +0.000 C 
BRANCH   22   21
ATOM    107  H19 UNL A   1      38.594  21.537  27.071  1.00  0.00    +0.000 H 
ATOM    108  H20 UNL A   1      39.378  21.502  25.469  1.00  0.00    +0.000 H 
ATOM     21  C17 UNL A   1      39.374  21.928  26.451  1.00  0.00    +0.000 C 
BRANCH   21   20
ATOM    105  H17 UNL A   1      41.092  22.436  27.595  1.00  0.00    +0.000 H 
ATOM    106  H18 UNL A   1      40.529  20.744  27.746  1.00  0.00    +0.000 H 
ATOM     20  C16 UNL A   1      40.722  21.568  27.091  1.00  0.00    +0.000 C 
BRANCH   20   19
ATOM     19  C15 UNL A   1      41.800  21.092  26.114  1.00  0.00    +0.000 C 
ATOM    103  H15 UNL A   1      41.320  20.823  25.197  1.00  0.00    +0.000 H 
ATOM    104  H16 UNL A   1      42.489  21.904  26.014  1.00  0.00    +0.000 H 
BRANCH   19   18
ATOM     18  C14 UNL A   1      42.629  19.889  26.586  1.00  0.00    +0.000 C 
ATOM    101  H13 UNL A   1      43.501  20.261  27.081  1.00  0.00    +0.000 H 
ATOM    102  H14 UNL A   1      41.988  19.317  27.226  1.00  0.00    +0.000 H 
BRANCH   18   17
ATOM     17  C13 UNL A   1      43.081  18.940  25.476  1.00  0.00    +0.000 C 
ATOM     99  H11 UNL A   1      42.736  17.952  25.701  1.00  0.00    +0.000 H 
ATOM    100  H12 UNL A   1      42.669  19.283  24.550  1.00  0.00    +0.000 H 
BRANCH   17   16
ATOM     98  H10 UNL A   1      45.053  18.495  26.065  1.00  0.00    +0.000 H 
ATOM     16  N2  UNL A   1      44.522  18.921  25.355  1.00  0.00    +0.000 N 
BRANCH   16    2
ATOM      1  O1  UNL A   1      45.066  19.066  23.127  1.00  0.00    +0.000 O 
ATOM      2  C1  UNL A   1      45.178  19.480  24.276  1.00  0.00    +0.000 C 
BRANCH    2    3
ATOM     89  H1  UNL A   1      46.783  20.794  23.848  1.00  0.00    +0.000 H 
ATOM     90  H2  UNL A   1      46.609  20.337  25.554  1.00  0.00    +0.000 H 
ATOM      3  C2  UNL A   1      46.103  20.623  24.656  1.00  0.00    +0.000 C 
BRANCH    3    4
ATOM     97  H9  UNL A   1      45.845  22.265  27.009  1.00  0.00    +0.000 H 
ATOM      4  C3  UNL A   1      45.377  21.901  24.944  1.00  0.00    +0.000 C 
ATOM      5  C4  UNL A   1      44.561  22.660  24.064  1.00  0.00    +0.000 C 
ATOM      6  C5  UNL A   1      44.028  23.704  24.782  1.00  0.00    +0.000 C 
ATOM      7  N1  UNL A   1      44.486  23.643  26.083  1.00  0.00    +0.000 N 
ATOM     15  C12 UNL A   1      45.328  22.553  26.164  1.00  0.00    +0.000 C 
ATOM     91  H3  UNL A   1      44.397  22.462  23.064  1.00  0.00    +0.000 H 
ATOM     92  H4  UNL A   1      43.385  24.422  24.408  1.00  0.00    +0.000 H 
BRANCH    7    8
ATOM      8  C6  UNL A   1      44.117  24.516  27.140  1.00  0.00    +0.000 C 
ATOM      9  C7  UNL A   1      43.456  24.007  28.268  1.00  0.00    +0.000 C 
ATOM     10  C8  UNL A   1      43.112  24.856  29.325  1.00  0.00    +0.000 C 
ATOM     11  C9  UNL A   1      43.401  26.217  29.252  1.00  0.00    +0.000 C 
ATOM     12  C10 UNL A   1      44.046  26.730  28.129  1.00  0.00    +0.000 C 
ATOM     13  C11 UNL A   1      44.413  25.882  27.086  1.00  0.00    +0.000 C 
ATOM     14  F1  UNL A   1      44.994  26.437  26.013  1.00  0.00    +0.000 F 
ATOM     93  H5  UNL A   1      43.223  23.003  28.319  1.00  0.00    +0.000 H 
ATOM     94  H6  UNL A   1      42.641  24.474  30.160  1.00  0.00    +0.000 H 
ATOM     95  H7  UNL A   1      43.136  26.844  30.029  1.00  0.00    +0.000 H 
ATOM     96  H8  UNL A   1      44.254  27.740  28.070  1.00  0.00    +0.000 H 
ENDBRANCH    7    8
ENDBRANCH    3    4
ENDBRANCH    2    3
ENDBRANCH   16    2
ENDBRANCH   17   16
ENDBRANCH   18   17
ENDBRANCH   19   18
ENDBRANCH   20   19
ENDBRANCH   21   20
ENDBRANCH   22   21
ENDBRANCH   23   22
ENDBRANCH   24   23
ENDBRANCH   26   24
ENDBRANCH   30   29
BRANCH   34   35
ATOM     35  C28 UNL A   1      42.483  29.156  35.899  1.00  0.00    +0.000 C 
ATOM     36  C29 UNL A   1      42.734  27.990  36.637  1.00  0.00    +0.000 C 
ATOM     37  F2  UNL A   1      41.772  27.081  36.841  1.00  0.00    +0.000 F 
ATOM     38  C30 UNL A   1      44.018  27.683  37.101  1.00  0.00    +0.000 C 
ATOM     39  F3  UNL A   1      44.225  26.541  37.770  1.00  0.00    +0.000 F 
ATOM     40  C31 UNL A   1      45.091  28.512  36.816  1.00  0.00    +0.000 C 
ATOM     41  F4  UNL A   1      46.332  28.160  37.175  1.00  0.00    +0.000 F 
ATOM     42  C32 UNL A   1      44.874  29.688  36.126  1.00  0.00    +0.000 C 
ATOM     43  F5  UNL A   1      45.907  30.483  35.814  1.00  0.00    +0.000 F 
ATOM     44  C33 UNL A   1      43.588  30.020  35.702  1.00  0.00    +0.000 C 
ATOM     45  F6  UNL A   1      43.443  31.174  35.033  1.00  0.00    +0.000 F 
ENDBRANCH   34   35
BRANCH   51   52
ATOM     52  C39 UNL A   1      40.336  33.868  33.422  1.00  0.00    +0.000 C 
ATOM     53  C40 UNL A   1      41.063  35.038  33.695  1.00  0.00    +0.000 C 
ATOM     54  F7  UNL A   1      40.706  35.836  34.698  1.00  0.00    +0.000 F 
ATOM     55  C41 UNL A   1      42.173  35.422  32.946  1.00  0.00    +0.000 C 
ATOM     56  F8  UNL A   1      42.817  36.562  33.239  1.00  0.00    +0.000 F 
ATOM     57  C42 UNL A   1      42.604  34.629  31.901  1.00  0.00    +0.000 C 
ATOM     58  F9  UNL A   1      43.671  34.992  31.178  1.00  0.00    +0.000 F 
ATOM     59  C43 UNL A   1      41.914  33.464  31.604  1.00  0.00    +0.000 C 
ATOM     60  F10 UNL A   1      42.327  32.693  30.588  1.00  0.00    +0.000 F 
ATOM     61  C44 UNL A   1      40.793  33.090  32.350  1.00  0.00    +0.000 C 
ATOM     62  F11 UNL A   1      40.152  31.957  32.024  1.00  0.00    +0.000 F 
ENDBRANCH   51   52
BRANCH   66   67
ATOM     67  C48 UNL A   1      34.962  34.105  30.468  1.00  0.00    +0.000 C 
ATOM     68  C49 UNL A   1      34.197  33.663  29.351  1.00  0.00    +0.000 C 
ATOM     69  F12 UNL A   1      34.384  32.456  28.802  1.00  0.00    +0.000 F 
ATOM     70  C50 UNL A   1      33.201  34.431  28.740  1.00  0.00    +0.000 C 
ATOM     71  F13 UNL A   1      32.593  33.976  27.635  1.00  0.00    +0.000 F 
ATOM     72  C51 UNL A   1      32.860  35.655  29.261  1.00  0.00    +0.000 C 
ATOM     73  F14 UNL A   1      31.927  36.409  28.669  1.00  0.00    +0.000 F 
ATOM     74  C52 UNL A   1      33.485  36.077  30.418  1.00  0.00    +0.000 C 
ATOM     75  F15 UNL A   1      33.118  37.239  30.977  1.00  0.00    +0.000 F 
ATOM     76  C53 UNL A   1      34.504  35.312  31.016  1.00  0.00    +0.000 C 
ATOM     77  F16 UNL A   1      34.987  35.787  32.165  1.00  0.00    +0.000 F 
ENDBRANCH   66   67
TORSDOF 17
ENDMDL
MODEL 7
REMARK VINA RESULT:     -11.1      2.188      8.213
ROOT
ATOM     30  C24 UNL A   1      39.599  29.063  28.962  1.00  0.00    +0.000 C 
ATOM     31  C25 UNL A   1      40.370  30.250  29.548  1.00  0.00    +0.000 C 
ATOM     32  N4  UNL A   1      41.640  30.522  29.518  1.00  0.00    +0.000 N 
ATOM     33  C26 UNL A   1      41.839  31.678  30.300  1.00  0.00    +0.000 C 
ATOM     34  C27 UNL A   1      43.057  32.090  30.755  1.00  0.00    +0.000 C 
ATOM     46  C34 UNL A   1      44.100  31.246  30.281  1.00  0.00    +0.000 C 
ATOM     47  C35 UNL A   1      44.763  31.137  29.089  1.00  0.00    +0.000 C 
ATOM     48  C36 UNL A   1      45.218  29.799  29.048  1.00  0.00    +0.000 C 
ATOM     49  C37 UNL A   1      44.844  29.157  30.231  1.00  0.00    +0.000 C 
ATOM     50  N5  UNL A   1      44.437  30.171  31.065  1.00  0.00    +0.000 N 
ATOM     51  C38 UNL A   1      44.601  27.797  30.665  1.00  0.00    +0.000 C 
ATOM     63  C45 UNL A   1      44.718  26.813  29.739  1.00  0.00    +0.000 C 
ATOM     64  N6  UNL A   1      43.776  25.808  29.686  1.00  0.00    +0.000 N 
ATOM     65  C46 UNL A   1      43.525  25.716  28.412  1.00  0.00    +0.000 C 
ATOM     66  C47 UNL A   1      42.341  25.054  27.830  1.00  0.00    +0.000 C 
ATOM     78  C54 UNL A   1      41.282  25.886  28.080  1.00  0.00    +0.000 C 
ATOM     79  C55 UNL A   1      39.884  25.675  27.758  1.00  0.00    +0.000 C 
ATOM     80  C56 UNL A   1      39.167  26.768  28.076  1.00  0.00    +0.000 C 
ATOM     81  C57 UNL A   1      40.038  27.818  28.628  1.00  0.00    +0.000 C 
ATOM     82  N7  UNL A   1      41.265  27.180  28.663  1.00  0.00    +0.000 N 
ATOM     83  C58 UNL A   1      44.470  26.397  27.517  1.00  0.00    +0.000 C 
ATOM     84  C59 UNL A   1      45.300  26.906  28.423  1.00  0.00    +0.000 C 
ATOM     85  C60 UNL A   1      40.537  32.187  30.615  1.00  0.00    +0.000 C 
ATOM     86  C61 UNL A   1      39.598  31.326  30.224  1.00  0.00    +0.000 C 
ATOM    114  H26 UNL A   1      44.901  31.870  28.376  1.00  0.00    +0.000 H 
ATOM    115  H27 UNL A   1      45.743  29.366  28.271  1.00  0.00    +0.000 H 
ATOM    116  H28 UNL A   1      44.394  30.133  32.047  1.00  0.00    +0.000 H 
ATOM    117  H29 UNL A   1      39.495  24.812  27.347  1.00  0.00    +0.000 H 
ATOM    118  H30 UNL A   1      38.147  26.859  27.950  1.00  0.00    +0.000 H 
ATOM    119  H31 UNL A   1      42.066  27.592  29.061  1.00  0.00    +0.000 H 
ATOM    120  H32 UNL A   1      44.485  26.461  26.487  1.00  0.00    +0.000 H 
ATOM    121  H33 UNL A   1      46.227  27.310  28.213  1.00  0.00    +0.000 H 
ATOM    122  H34 UNL A   1      40.353  33.091  31.079  1.00  0.00    +0.000 H 
ATOM    123  H35 UNL A   1      38.577  31.391  30.358  1.00  0.00    +0.000 H 
ENDROOT
BRANCH   30   29
ATOM    124  H36 UNL A   1      37.519  29.042  30.708  1.00  0.00    +0.000 H 
ATOM     29  C23 UNL A   1      38.166  29.362  28.716  1.00  0.00    +0.000 C 
ATOM    112  H24 UNL A   1      36.187  30.496  26.264  1.00  0.00    +0.000 H 
ATOM    113  H25 UNL A   1      38.447  29.705  26.648  1.00  0.00    +0.000 H 
ATOM     87  C62 UNL A   1      37.237  29.362  29.768  1.00  0.00    +0.000 C 
ATOM     88  C63 UNL A   1      35.933  29.800  29.539  1.00  0.00    +0.000 C 
ATOM     26  C20 UNL A   1      35.566  30.264  28.272  1.00  0.00    +0.000 C 
ATOM     27  C21 UNL A   1      36.478  30.204  27.211  1.00  0.00    +0.000 C 
ATOM     28  C22 UNL A   1      37.775  29.752  27.430  1.00  0.00    +0.000 C 
ATOM    125  H37 UNL A   1      35.240  29.781  30.304  1.00  0.00    +0.000 H 
BRANCH   26   24
ATOM     25  O2  UNL A   1      33.865  31.867  28.358  1.00  0.00    +0.000 O 
ATOM     24  C19 UNL A   1      34.203  30.758  27.972  1.00  0.00    +0.000 C 
BRANCH   24   23
ATOM    111  H23 UNL A   1      32.710  30.453  26.658  1.00  0.00    +0.000 H 
ATOM     23  N3  UNL A   1      33.298  29.979  27.290  1.00  0.00    +0.000 N 
BRANCH   23   22
ATOM    110  H22 UNL A   1      32.207  28.359  27.947  1.00  0.00    +0.000 H 
ATOM    109  H21 UNL A   1      33.947  28.107  27.879  1.00  0.00    +0.000 H 
ATOM     22  C18 UNL A   1      33.101  28.541  27.389  1.00  0.00    +0.000 C 
BRANCH   22   21
ATOM    107  H19 UNL A   1      31.984  28.175  25.621  1.00  0.00    +0.000 H 
ATOM    108  H20 UNL A   1      33.750  28.284  25.406  1.00  0.00    +0.000 H 
ATOM     21  C17 UNL A   1      32.947  27.910  26.005  1.00  0.00    +0.000 C 
BRANCH   21   20
ATOM    105  H17 UNL A   1      33.104  26.042  27.006  1.00  0.00    +0.000 H 
ATOM    106  H18 UNL A   1      32.212  26.021  25.455  1.00  0.00    +0.000 H 
ATOM     20  C16 UNL A   1      33.065  26.380  25.992  1.00  0.00    +0.000 C 
BRANCH   20   19
ATOM     19  C15 UNL A   1      34.292  25.828  25.260  1.00  0.00    +0.000 C 
ATOM    103  H15 UNL A   1      34.143  25.972  24.211  1.00  0.00    +0.000 H 
ATOM    104  H16 UNL A   1      35.133  26.361  25.650  1.00  0.00    +0.000 H 
BRANCH   19   18
ATOM     18  C14 UNL A   1      34.584  24.340  25.498  1.00  0.00    +0.000 C 
ATOM    101  H13 UNL A   1      34.806  23.890  24.554  1.00  0.00    +0.000 H 
ATOM    102  H14 UNL A   1      35.400  24.302  26.189  1.00  0.00    +0.000 H 
BRANCH   18   17
ATOM     17  C13 UNL A   1      33.443  23.553  26.142  1.00  0.00    +0.000 C 
ATOM     99  H11 UNL A   1      33.855  22.754  26.723  1.00  0.00    +0.000 H 
ATOM    100  H12 UNL A   1      32.880  24.220  26.761  1.00  0.00    +0.000 H 
BRANCH   17   16
ATOM     98  H10 UNL A   1      32.918  22.370  24.480  1.00  0.00    +0.000 H 
ATOM     16  N2  UNL A   1      32.555  23.000  25.143  1.00  0.00    +0.000 N 
BRANCH   16    2
ATOM      1  O1  UNL A   1      30.481  23.349  26.070  1.00  0.00    +0.000 O 
ATOM      2  C1  UNL A   1      31.214  23.327  25.087  1.00  0.00    +0.000 C 
BRANCH    2    3
ATOM     89  H1  UNL A   1      29.703  23.263  23.604  1.00  0.00    +0.000 H 
ATOM     90  H2  UNL A   1      31.364  23.079  23.005  1.00  0.00    +0.000 H 
ATOM      3  C2  UNL A   1      30.716  23.600  23.678  1.00  0.00    +0.000 C 
BRANCH    3    4
ATOM     97  H9  UNL A   1      29.090  25.874  24.371  1.00  0.00    +0.000 H 
ATOM      4  C3  UNL A   1      30.763  25.049  23.304  1.00  0.00    +0.000 C 
ATOM      5  C4  UNL A   1      31.678  25.699  22.435  1.00  0.00    +0.000 C 
ATOM      6  C5  UNL A   1      31.286  27.012  22.317  1.00  0.00    +0.000 C 
ATOM      7  N1  UNL A   1      30.161  27.222  23.090  1.00  0.00    +0.000 N 
ATOM     15  C12 UNL A   1      29.865  26.023  23.707  1.00  0.00    +0.000 C 
ATOM     91  H3  UNL A   1      32.493  25.264  21.974  1.00  0.00    +0.000 H 
ATOM     92  H4  UNL A   1      31.757  27.728  21.741  1.00  0.00    +0.000 H 
BRANCH    7    8
ATOM      8  C6  UNL A   1      29.430  28.435  23.187  1.00  0.00    +0.000 C 
ATOM      9  C7  UNL A   1      28.063  28.454  22.870  1.00  0.00    +0.000 C 
ATOM     10  C8  UNL A   1      27.329  29.638  22.987  1.00  0.00    +0.000 C 
ATOM     11  C9  UNL A   1      27.957  30.813  23.395  1.00  0.00    +0.000 C 
ATOM     12  C10 UNL A   1      29.317  30.803  23.700  1.00  0.00    +0.000 C 
ATOM     13  C11 UNL A   1      30.044  29.618  23.608  1.00  0.00    +0.000 C 
ATOM     14  F1  UNL A   1      31.357  29.677  23.874  1.00  0.00    +0.000 F 
ATOM     93  H5  UNL A   1      27.597  27.590  22.549  1.00  0.00    +0.000 H 
ATOM     94  H6  UNL A   1      26.321  29.643  22.769  1.00  0.00    +0.000 H 
ATOM     95  H7  UNL A   1      27.416  31.690  23.471  1.00  0.00    +0.000 H 
ATOM     96  H8  UNL A   1      29.785  31.674  23.995  1.00  0.00    +0.000 H 
ENDBRANCH    7    8
ENDBRANCH    3    4
ENDBRANCH    2    3
ENDBRANCH   16    2
ENDBRANCH   17   16
ENDBRANCH   18   17
ENDBRANCH   19   18
ENDBRANCH   20   19
ENDBRANCH   21   20
ENDBRANCH   22   21
ENDBRANCH   23   22
ENDBRANCH   24   23
ENDBRANCH   26   24
ENDBRANCH   30   29
BRANCH   34   35
ATOM     35  C28 UNL A   1      43.420  33.113  31.797  1.00  0.00    +0.000 C 
ATOM     36  C29 UNL A   1      43.709  34.452  31.495  1.00  0.00    +0.000 C 
ATOM     37  F2  UNL A   1      43.932  34.844  30.234  1.00  0.00    +0.000 F 
ATOM     38  C30 UNL A   1      43.678  35.446  32.480  1.00  0.00    +0.000 C 
ATOM     39  F3  UNL A   1      43.923  36.719  32.144  1.00  0.00    +0.000 F 
ATOM     40  C31 UNL A   1      43.327  35.137  33.785  1.00  0.00    +0.000 C 
ATOM     41  F4  UNL A   1      43.200  36.109  34.698  1.00  0.00    +0.000 F 
ATOM     42  C32 UNL A   1      43.074  33.825  34.126  1.00  0.00    +0.000 C 
ATOM     43  F5  UNL A   1      42.700  33.516  35.376  1.00  0.00    +0.000 F 
ATOM     44  C33 UNL A   1      43.150  32.825  33.157  1.00  0.00    +0.000 C 
ATOM     45  F6  UNL A   1      42.889  31.569  33.552  1.00  0.00    +0.000 F 
ENDBRANCH   34   35
BRANCH   51   52
ATOM     52  C39 UNL A   1      43.782  27.386  31.869  1.00  0.00    +0.000 C 
ATOM     53  C40 UNL A   1      44.294  26.600  32.914  1.00  0.00    +0.000 C 
ATOM     54  F7  UNL A   1      45.512  26.071  32.826  1.00  0.00    +0.000 F 
ATOM     55  C41 UNL A   1      43.571  26.333  34.074  1.00  0.00    +0.000 C 
ATOM     56  F8  UNL A   1      44.102  25.557  35.032  1.00  0.00    +0.000 F 
ATOM     57  C42 UNL A   1      42.307  26.865  34.233  1.00  0.00    +0.000 C 
ATOM     58  F9  UNL A   1      41.607  26.613  35.347  1.00  0.00    +0.000 F 
ATOM     59  C43 UNL A   1      41.769  27.649  33.225  1.00  0.00    +0.000 C 
ATOM     60  F10 UNL A   1      40.541  28.165  33.373  1.00  0.00    +0.000 F 
ATOM     61  C44 UNL A   1      42.494  27.903  32.056  1.00  0.00    +0.000 C 
ATOM     62  F11 UNL A   1      41.933  28.664  31.104  1.00  0.00    +0.000 F 
ENDBRANCH   51   52
BRANCH   66   67
ATOM     67  C48 UNL A   1      42.571  23.762  27.066  1.00  0.00    +0.000 C 
ATOM     68  C49 UNL A   1      42.220  22.511  27.650  1.00  0.00    +0.000 C 
ATOM     69  F12 UNL A   1      41.491  22.437  28.771  1.00  0.00    +0.000 F 
ATOM     70  C50 UNL A   1      42.592  21.274  27.115  1.00  0.00    +0.000 C 
ATOM     71  F13 UNL A   1      42.298  20.146  27.779  1.00  0.00    +0.000 F 
ATOM     72  C51 UNL A   1      43.272  21.217  25.924  1.00  0.00    +0.000 C 
ATOM     73  F14 UNL A   1      43.656  20.039  25.418  1.00  0.00    +0.000 F 
ATOM     74  C52 UNL A   1      43.530  22.396  25.254  1.00  0.00    +0.000 C 
ATOM     75  F15 UNL A   1      44.135  22.353  24.058  1.00  0.00    +0.000 F 
ATOM     76  C53 UNL A   1      43.175  23.640  25.806  1.00  0.00    +0.000 C 
ATOM     77  F16 UNL A   1      43.413  24.705  25.039  1.00  0.00    +0.000 F 
ENDBRANCH   66   67
TORSDOF 17
ENDMDL
MODEL 8
REMARK VINA RESULT:     -11.0      1.580      3.641
ROOT
ATOM     30  C24 UNL A   1      40.819  27.747  29.077  1.00  0.00    +0.000 C 
ATOM     31  C25 UNL A   1      41.004  26.332  28.519  1.00  0.00    +0.000 C 
ATOM     32  N4  UNL A   1      41.778  25.367  28.919  1.00  0.00    +0.000 N 
ATOM     33  C26 UNL A   1      41.644  24.313  27.993  1.00  0.00    +0.000 C 
ATOM     34  C27 UNL A   1      42.512  23.265  27.901  1.00  0.00    +0.000 C 
ATOM     46  C34 UNL A   1      43.521  23.339  28.901  1.00  0.00    +0.000 C 
ATOM     47  C35 UNL A   1      43.557  23.040  30.236  1.00  0.00    +0.000 C 
ATOM     48  C36 UNL A   1      44.582  23.858  30.764  1.00  0.00    +0.000 C 
ATOM     49  C37 UNL A   1      45.153  24.596  29.724  1.00  0.00    +0.000 C 
ATOM     50  N5  UNL A   1      44.672  24.011  28.576  1.00  0.00    +0.000 N 
ATOM     51  C38 UNL A   1      45.882  25.839  29.586  1.00  0.00    +0.000 C 
ATOM     63  C45 UNL A   1      46.094  26.569  30.708  1.00  0.00    +0.000 C 
ATOM     64  N6  UNL A   1      45.914  27.936  30.680  1.00  0.00    +0.000 N 
ATOM     65  C46 UNL A   1      45.236  28.159  31.768  1.00  0.00    +0.000 C 
ATOM     66  C47 UNL A   1      44.471  29.390  32.049  1.00  0.00    +0.000 C 
ATOM     78  C54 UNL A   1      43.360  29.337  31.249  1.00  0.00    +0.000 C 
ATOM     79  C55 UNL A   1      42.312  30.327  31.108  1.00  0.00    +0.000 C 
ATOM     80  C56 UNL A   1      41.342  29.860  30.300  1.00  0.00    +0.000 C 
ATOM     81  C57 UNL A   1      41.659  28.499  29.842  1.00  0.00    +0.000 C 
ATOM     82  N7  UNL A   1      42.911  28.297  30.394  1.00  0.00    +0.000 N 
ATOM     83  C58 UNL A   1      45.185  27.055  32.735  1.00  0.00    +0.000 C 
ATOM     84  C59 UNL A   1      45.910  26.155  32.077  1.00  0.00    +0.000 C 
ATOM     85  C60 UNL A   1      40.554  24.662  27.130  1.00  0.00    +0.000 C 
ATOM     86  C61 UNL A   1      40.156  25.911  27.373  1.00  0.00    +0.000 C 
ATOM    114  H26 UNL A   1      42.965  22.366  30.746  1.00  0.00    +0.000 H 
ATOM    115  H27 UNL A   1      44.865  23.902  31.756  1.00  0.00    +0.000 H 
ATOM    116  H28 UNL A   1      45.081  24.065  27.682  1.00  0.00    +0.000 H 
ATOM    117  H29 UNL A   1      42.309  31.255  31.560  1.00  0.00    +0.000 H 
ATOM    118  H30 UNL A   1      40.493  30.385  30.038  1.00  0.00    +0.000 H 
ATOM    119  H31 UNL A   1      43.449  27.493  30.209  1.00  0.00    +0.000 H 
ATOM    120  H32 UNL A   1      44.723  26.996  33.656  1.00  0.00    +0.000 H 
ATOM    121  H33 UNL A   1      46.285  25.285  32.488  1.00  0.00    +0.000 H 
ATOM    122  H34 UNL A   1      40.139  24.037  26.422  1.00  0.00    +0.000 H 
ATOM    123  H35 UNL A   1      39.431  26.456  26.881  1.00  0.00    +0.000 H 
ENDROOT
BRANCH   30   29
ATOM    124  H36 UNL A   1      38.493  27.712  30.479  1.00  0.00    +0.000 H 
ATOM     29  C23 UNL A   1      39.506  28.344  28.729  1.00  0.00    +0.000 C 
ATOM    112  H24 UNL A   1      38.153  30.330  26.397  1.00  0.00    +0.000 H 
ATOM    113  H25 UNL A   1      40.178  29.081  26.864  1.00  0.00    +0.000 H 
ATOM     87  C62 UNL A   1      38.423  28.278  29.619  1.00  0.00    +0.000 C 
ATOM     88  C63 UNL A   1      37.252  28.982  29.338  1.00  0.00    +0.000 C 
ATOM     26  C20 UNL A   1      37.175  29.774  28.188  1.00  0.00    +0.000 C 
ATOM     27  C21 UNL A   1      38.235  29.788  27.271  1.00  0.00    +0.000 C 
ATOM     28  C22 UNL A   1      39.398  29.074  27.539  1.00  0.00    +0.000 C 
ATOM    125  H37 UNL A   1      36.445  28.919  29.977  1.00  0.00    +0.000 H 
BRANCH   26   24
ATOM     25  O2  UNL A   1      36.020  31.779  27.848  1.00  0.00    +0.000 O 
ATOM     24  C19 UNL A   1      35.968  30.558  27.844  1.00  0.00    +0.000 C 
BRANCH   24   23
ATOM    111  H23 UNL A   1      34.784  28.954  27.567  1.00  0.00    +0.000 H 
ATOM     23  N3  UNL A   1      34.776  29.938  27.546  1.00  0.00    +0.000 N 
BRANCH   23   22
ATOM    110  H22 UNL A   1      33.610  31.046  26.258  1.00  0.00    +0.000 H 
ATOM    109  H21 UNL A   1      33.247  31.265  27.966  1.00  0.00    +0.000 H 
ATOM     22  C18 UNL A   1      33.506  30.559  27.204  1.00  0.00    +0.000 C 
BRANCH   22   21
ATOM    107  H19 UNL A   1      31.933  29.413  28.054  1.00  0.00    +0.000 H 
ATOM    108  H20 UNL A   1      31.718  29.865  26.343  1.00  0.00    +0.000 H 
ATOM     21  C17 UNL A   1      32.395  29.515  27.094  1.00  0.00    +0.000 C 
BRANCH   21   20
ATOM    105  H17 UNL A   1      33.934  28.169  26.512  1.00  0.00    +0.000 H 
ATOM    106  H18 UNL A   1      32.562  27.444  27.404  1.00  0.00    +0.000 H 
ATOM     20  C16 UNL A   1      32.873  28.128  26.642  1.00  0.00    +0.000 C 
BRANCH   20   19
ATOM     19  C15 UNL A   1      32.254  27.620  25.336  1.00  0.00    +0.000 C 
ATOM    103  H15 UNL A   1      32.194  28.444  24.657  1.00  0.00    +0.000 H 
ATOM    104  H16 UNL A   1      32.890  26.830  24.996  1.00  0.00    +0.000 H 
BRANCH   19   18
ATOM     18  C14 UNL A   1      30.852  27.011  25.468  1.00  0.00    +0.000 C 
ATOM    101  H13 UNL A   1      30.960  26.000  25.800  1.00  0.00    +0.000 H 
ATOM    102  H14 UNL A   1      30.320  27.631  26.159  1.00  0.00    +0.000 H 
BRANCH   18   17
ATOM     17  C13 UNL A   1      30.028  27.001  24.180  1.00  0.00    +0.000 C 
ATOM     99  H11 UNL A   1      29.071  27.438  24.376  1.00  0.00    +0.000 H 
ATOM    100  H12 UNL A   1      30.555  27.563  23.438  1.00  0.00    +0.000 H 
BRANCH   17   16
ATOM     98  H10 UNL A   1      28.936  25.267  23.696  1.00  0.00    +0.000 H 
ATOM     16  N2  UNL A   1      29.840  25.656  23.685  1.00  0.00    +0.000 N 
BRANCH   16    2
ATOM      1  O1  UNL A   1      31.675  25.299  22.348  1.00  0.00    +0.000 O 
ATOM      2  C1  UNL A   1      30.886  24.897  23.197  1.00  0.00    +0.000 C 
BRANCH    2    3
ATOM     89  H1  UNL A   1      30.992  22.795  22.958  1.00  0.00    +0.000 H 
ATOM     90  H2  UNL A   1      30.044  23.355  24.350  1.00  0.00    +0.000 H 
ATOM      3  C2  UNL A   1      30.932  23.490  23.769  1.00  0.00    +0.000 C 
BRANCH    3    4
ATOM     97  H9  UNL A   1      33.727  22.967  23.308  1.00  0.00    +0.000 H 
ATOM      4  C3  UNL A   1      32.098  23.259  24.679  1.00  0.00    +0.000 C 
ATOM      5  C4  UNL A   1      32.105  23.219  26.098  1.00  0.00    +0.000 C 
ATOM      6  C5  UNL A   1      33.377  22.889  26.503  1.00  0.00    +0.000 C 
ATOM      7  N1  UNL A   1      34.181  22.729  25.391  1.00  0.00    +0.000 N 
ATOM     15  C12 UNL A   1      33.396  22.982  24.285  1.00  0.00    +0.000 C 
ATOM     91  H3  UNL A   1      31.299  23.405  26.716  1.00  0.00    +0.000 H 
ATOM     92  H4  UNL A   1      33.683  22.777  27.483  1.00  0.00    +0.000 H 
BRANCH    7    8
ATOM      8  C6  UNL A   1      35.545  22.336  25.398  1.00  0.00    +0.000 C 
ATOM      9  C7  UNL A   1      36.534  23.250  25.793  1.00  0.00    +0.000 C 
ATOM     10  C8  UNL A   1      37.877  22.863  25.826  1.00  0.00    +0.000 C 
ATOM     11  C9  UNL A   1      38.245  21.574  25.444  1.00  0.00    +0.000 C 
ATOM     12  C10 UNL A   1      37.268  20.666  25.040  1.00  0.00    +0.000 C 
ATOM     13  C11 UNL A   1      35.926  21.042  25.030  1.00  0.00    +0.000 C 
ATOM     14  F1  UNL A   1      35.036  20.140  24.593  1.00  0.00    +0.000 F 
ATOM     93  H5  UNL A   1      36.269  24.212  26.059  1.00  0.00    +0.000 H 
ATOM     94  H6  UNL A   1      38.598  23.534  26.134  1.00  0.00    +0.000 H 
ATOM     95  H7  UNL A   1      39.238  21.293  25.460  1.00  0.00    +0.000 H 
ATOM     96  H8  UNL A   1      37.539  19.714  24.749  1.00  0.00    +0.000 H 
ENDBRANCH    7    8
ENDBRANCH    3    4
ENDBRANCH    2    3
ENDBRANCH   16    2
ENDBRANCH   17   16
ENDBRANCH   18   17
ENDBRANCH   19   18
ENDBRANCH   20   19
ENDBRANCH   21   20
ENDBRANCH   22   21
ENDBRANCH   23   22
ENDBRANCH   24   23
ENDBRANCH   26   24
ENDBRANCH   30   29
BRANCH   34   35
ATOM     35  C28 UNL A   1      42.679  22.221  26.830  1.00  0.00    +0.000 C 
ATOM     36  C29 UNL A   1      43.691  22.268  25.859  1.00  0.00    +0.000 C 
ATOM     37  F2  UNL A   1      44.415  23.378  25.668  1.00  0.00    +0.000 F 
ATOM     38  C30 UNL A   1      44.050  21.132  25.125  1.00  0.00    +0.000 C 
ATOM     39  F3  UNL A   1      45.047  21.208  24.233  1.00  0.00    +0.000 F 
ATOM     40  C31 UNL A   1      43.434  19.913  25.360  1.00  0.00    +0.000 C 
ATOM     41  F4  UNL A   1      43.853  18.810  24.726  1.00  0.00    +0.000 F 
ATOM     42  C32 UNL A   1      42.407  19.839  26.279  1.00  0.00    +0.000 C 
ATOM     43  F5  UNL A   1      41.825  18.660  26.542  1.00  0.00    +0.000 F 
ATOM     44  C33 UNL A   1      42.015  20.979  26.980  1.00  0.00    +0.000 C 
ATOM     45  F6  UNL A   1      41.014  20.841  27.863  1.00  0.00    +0.000 F 
ENDBRANCH   34   35
BRANCH   51   52
ATOM     52  C39 UNL A   1      46.013  26.650  28.315  1.00  0.00    +0.000 C 
ATOM     53  C40 UNL A   1      44.912  27.189  27.630  1.00  0.00    +0.000 C 
ATOM     54  F7  UNL A   1      43.671  26.898  28.014  1.00  0.00    +0.000 F 
ATOM     55  C41 UNL A   1      45.052  28.037  26.534  1.00  0.00    +0.000 C 
ATOM     56  F8  UNL A   1      43.964  28.506  25.905  1.00  0.00    +0.000 F 
ATOM     57  C42 UNL A   1      46.313  28.390  26.097  1.00  0.00    +0.000 C 
ATOM     58  F9  UNL A   1      46.455  29.206  25.045  1.00  0.00    +0.000 F 
ATOM     59  C43 UNL A   1      47.425  27.881  26.750  1.00  0.00    +0.000 C 
ATOM     60  F10 UNL A   1      48.651  28.218  26.326  1.00  0.00    +0.000 F 
ATOM     61  C44 UNL A   1      47.279  27.020  27.841  1.00  0.00    +0.000 C 
ATOM     62  F11 UNL A   1      48.382  26.547  28.440  1.00  0.00    +0.000 F 
ENDBRANCH   51   52
BRANCH   66   67
ATOM     67  C48 UNL A   1      44.999  30.304  33.141  1.00  0.00    +0.000 C 
ATOM     68  C49 UNL A   1      44.411  30.287  34.438  1.00  0.00    +0.000 C 
ATOM     69  F12 UNL A   1      43.540  29.338  34.804  1.00  0.00    +0.000 F 
ATOM     70  C50 UNL A   1      44.686  31.236  35.427  1.00  0.00    +0.000 C 
ATOM     71  F13 UNL A   1      44.018  31.198  36.589  1.00  0.00    +0.000 F 
ATOM     72  C51 UNL A   1      45.624  32.213  35.200  1.00  0.00    +0.000 C 
ATOM     73  F14 UNL A   1      45.875  33.142  36.131  1.00  0.00    +0.000 F 
ATOM     74  C52 UNL A   1      46.314  32.200  34.005  1.00  0.00    +0.000 C 
ATOM     75  F15 UNL A   1      47.279  33.107  33.794  1.00  0.00    +0.000 F 
ATOM     76  C53 UNL A   1      46.017  31.259  33.002  1.00  0.00    +0.000 C 
ATOM     77  F16 UNL A   1      46.793  31.301  31.918  1.00  0.00    +0.000 F 
ENDBRANCH   66   67
TORSDOF 17
ENDMDL
MODEL 9
REMARK VINA RESULT:     -11.0      1.782      3.940
ROOT
ATOM     30  C24 UNL A   1      40.847  27.755  28.947  1.00  0.00    +0.000 C 
ATOM     31  C25 UNL A   1      41.003  26.313  28.454  1.00  0.00    +0.000 C 
ATOM     32  N4  UNL A   1      41.783  25.362  28.875  1.00  0.00    +0.000 N 
ATOM     33  C26 UNL A   1      41.611  24.265  28.007  1.00  0.00    +0.000 C 
ATOM     34  C27 UNL A   1      42.467  23.206  27.939  1.00  0.00    +0.000 C 
ATOM     46  C34 UNL A   1      43.509  23.320  28.901  1.00  0.00    +0.000 C 
ATOM     47  C35 UNL A   1      43.586  23.086  30.248  1.00  0.00    +0.000 C 
ATOM     48  C36 UNL A   1      44.634  23.919  30.701  1.00  0.00    +0.000 C 
ATOM     49  C37 UNL A   1      45.177  24.600  29.609  1.00  0.00    +0.000 C 
ATOM     50  N5  UNL A   1      44.654  23.965  28.507  1.00  0.00    +0.000 N 
ATOM     51  C38 UNL A   1      45.910  25.829  29.386  1.00  0.00    +0.000 C 
ATOM     63  C45 UNL A   1      46.163  26.611  30.464  1.00  0.00    +0.000 C 
ATOM     64  N6  UNL A   1      45.993  27.976  30.374  1.00  0.00    +0.000 N 
ATOM     65  C46 UNL A   1      45.352  28.259  31.471  1.00  0.00    +0.000 C 
ATOM     66  C47 UNL A   1      44.607  29.509  31.715  1.00  0.00    +0.000 C 
ATOM     78  C54 UNL A   1      43.470  29.426  30.955  1.00  0.00    +0.000 C 
ATOM     79  C55 UNL A   1      42.425  30.418  30.799  1.00  0.00    +0.000 C 
ATOM     80  C56 UNL A   1      41.426  29.921  30.047  1.00  0.00    +0.000 C 
ATOM     81  C57 UNL A   1      41.717  28.536  29.646  1.00  0.00    +0.000 C 
ATOM     82  N7  UNL A   1      42.985  28.350  30.167  1.00  0.00    +0.000 N 
ATOM     83  C58 UNL A   1      45.324  27.204  32.493  1.00  0.00    +0.000 C 
ATOM     84  C59 UNL A   1      46.020  26.266  31.857  1.00  0.00    +0.000 C 
ATOM     85  C60 UNL A   1      40.497  24.582  27.163  1.00  0.00    +0.000 C 
ATOM     86  C61 UNL A   1      40.116  25.845  27.357  1.00  0.00    +0.000 C 
ATOM    114  H26 UNL A   1      43.005  22.444  30.809  1.00  0.00    +0.000 H 
ATOM    115  H27 UNL A   1      44.948  24.010  31.680  1.00  0.00    +0.000 H 
ATOM    116  H28 UNL A   1      45.034  23.971  27.599  1.00  0.00    +0.000 H 
ATOM    117  H29 UNL A   1      42.444  31.367  31.205  1.00  0.00    +0.000 H 
ATOM    118  H30 UNL A   1      40.573  30.440  29.786  1.00  0.00    +0.000 H 
ATOM    119  H31 UNL A   1      43.511  27.533  30.005  1.00  0.00    +0.000 H 
ATOM    120  H32 UNL A   1      44.892  27.194  33.430  1.00  0.00    +0.000 H 
ATOM    121  H33 UNL A   1      46.402  25.414  32.297  1.00  0.00    +0.000 H 
ATOM    122  H34 UNL A   1      40.053  23.926  26.501  1.00  0.00    +0.000 H 
ATOM    123  H35 UNL A   1      39.379  26.372  26.862  1.00  0.00    +0.000 H 
ENDROOT
BRANCH   30   29
ATOM    124  H36 UNL A   1      38.559  27.782  30.408  1.00  0.00    +0.000 H 
ATOM     29  C23 UNL A   1      39.528  28.347  28.611  1.00  0.00    +0.000 C 
ATOM    112  H24 UNL A   1      38.124  30.256  26.246  1.00  0.00    +0.000 H 
ATOM    113  H25 UNL A   1      40.155  29.015  26.705  1.00  0.00    +0.000 H 
ATOM     87  C62 UNL A   1      38.469  28.318  29.531  1.00  0.00    +0.000 C 
ATOM     88  C63 UNL A   1      37.294  29.018  29.255  1.00  0.00    +0.000 C 
ATOM     26  C20 UNL A   1      37.191  29.769  28.080  1.00  0.00    +0.000 C 
ATOM     27  C21 UNL A   1      38.226  29.745  27.137  1.00  0.00    +0.000 C 
ATOM     28  C22 UNL A   1      39.393  29.035  27.400  1.00  0.00    +0.000 C 
ATOM    125  H37 UNL A   1      36.503  28.982  29.917  1.00  0.00    +0.000 H 
BRANCH   26   24
ATOM     25  O2  UNL A   1      35.871  31.699  28.134  1.00  0.00    +0.000 O 
ATOM     24  C19 UNL A   1      35.978  30.547  27.740  1.00  0.00    +0.000 C 
BRANCH   24   23
ATOM    111  H23 UNL A   1      34.818  30.352  26.108  1.00  0.00    +0.000 H 
ATOM     23  N3  UNL A   1      34.954  29.988  27.012  1.00  0.00    +0.000 N 
BRANCH   23   22
ATOM    110  H22 UNL A   1      34.183  28.740  28.460  1.00  0.00    +0.000 H 
ATOM    109  H21 UNL A   1      34.262  28.047  26.845  1.00  0.00    +0.000 H 
ATOM     22  C18 UNL A   1      34.046  28.926  27.416  1.00  0.00    +0.000 C 
BRANCH   22   21
ATOM    107  H19 UNL A   1      32.390  30.214  27.745  1.00  0.00    +0.000 H 
ATOM    108  H20 UNL A   1      32.477  29.471  26.126  1.00  0.00    +0.000 H 
ATOM     21  C17 UNL A   1      32.589  29.327  27.180  1.00  0.00    +0.000 C 
BRANCH   21   20
ATOM    105  H17 UNL A   1      31.787  27.953  28.590  1.00  0.00    +0.000 H 
ATOM    106  H18 UNL A   1      30.603  28.715  27.484  1.00  0.00    +0.000 H 
ATOM     20  C16 UNL A   1      31.566  28.258  27.589  1.00  0.00    +0.000 C 
BRANCH   20   19
ATOM     19  C15 UNL A   1      31.542  27.008  26.705  1.00  0.00    +0.000 C 
ATOM    103  H15 UNL A   1      32.522  26.579  26.714  1.00  0.00    +0.000 H 
ATOM    104  H16 UNL A   1      30.791  26.368  27.118  1.00  0.00    +0.000 H 
BRANCH   19   18
ATOM     18  C14 UNL A   1      31.141  27.245  25.243  1.00  0.00    +0.000 C 
ATOM    101  H13 UNL A   1      30.319  26.599  25.016  1.00  0.00    +0.000 H 
ATOM    102  H14 UNL A   1      30.899  28.285  25.164  1.00  0.00    +0.000 H 
BRANCH   18   17
ATOM     17  C13 UNL A   1      32.246  26.985  24.219  1.00  0.00    +0.000 C 
ATOM     99  H11 UNL A   1      32.768  27.900  24.030  1.00  0.00    +0.000 H 
ATOM    100  H12 UNL A   1      32.909  26.246  24.619  1.00  0.00    +0.000 H 
BRANCH   17   16
ATOM     98  H10 UNL A   1      31.180  27.094  22.406  1.00  0.00    +0.000 H 
ATOM     16  N2  UNL A   1      31.704  26.485  22.975  1.00  0.00    +0.000 N 
BRANCH   16    2
ATOM      1  O1  UNL A   1      32.796  24.842  21.798  1.00  0.00    +0.000 O 
ATOM      2  C1  UNL A   1      31.896  25.183  22.557  1.00  0.00    +0.000 C 
BRANCH    2    3
ATOM     89  H1  UNL A   1      30.279  23.849  22.253  1.00  0.00    +0.000 H 
ATOM     90  H2  UNL A   1      30.238  24.757  23.777  1.00  0.00    +0.000 H 
ATOM      3  C2  UNL A   1      30.846  24.218  23.082  1.00  0.00    +0.000 C 
BRANCH    3    4
ATOM     97  H9  UNL A   1      32.242  21.846  22.232  1.00  0.00    +0.000 H 
ATOM      4  C3  UNL A   1      31.430  23.051  23.816  1.00  0.00    +0.000 C 
ATOM      5  C4  UNL A   1      31.418  22.802  25.213  1.00  0.00    +0.000 C 
ATOM      6  C5  UNL A   1      31.988  21.568  25.425  1.00  0.00    +0.000 C 
ATOM      7  N1  UNL A   1      32.373  21.031  24.213  1.00  0.00    +0.000 N 
ATOM     15  C12 UNL A   1      32.050  21.955  23.240  1.00  0.00    +0.000 C 
ATOM     91  H3  UNL A   1      31.046  23.434  25.940  1.00  0.00    +0.000 H 
ATOM     92  H4  UNL A   1      32.109  21.115  26.346  1.00  0.00    +0.000 H 
BRANCH    7    8
ATOM      8  C6  UNL A   1      32.951  19.750  24.015  1.00  0.00    +0.000 C 
ATOM      9  C7  UNL A   1      32.293  18.804  23.213  1.00  0.00    +0.000 C 
ATOM     10  C8  UNL A   1      32.867  17.548  22.992  1.00  0.00    +0.000 C 
ATOM     11  C9  UNL A   1      34.084  17.219  23.586  1.00  0.00    +0.000 C 
ATOM     12  C10 UNL A   1      34.735  18.150  24.393  1.00  0.00    +0.000 C 
ATOM     13  C11 UNL A   1      34.177  19.411  24.595  1.00  0.00    +0.000 C 
ATOM     14  F1  UNL A   1      34.827  20.250  25.413  1.00  0.00    +0.000 F 
ATOM     93  H5  UNL A   1      31.383  19.035  22.785  1.00  0.00    +0.000 H 
ATOM     94  H6  UNL A   1      32.388  16.863  22.387  1.00  0.00    +0.000 H 
ATOM     95  H7  UNL A   1      34.501  16.287  23.430  1.00  0.00    +0.000 H 
ATOM     96  H8  UNL A   1      35.632  17.905  24.841  1.00  0.00    +0.000 H 
ENDBRANCH    7    8
ENDBRANCH    3    4
ENDBRANCH    2    3
ENDBRANCH   16    2
ENDBRANCH   17   16
ENDBRANCH   18   17
ENDBRANCH   19   18
ENDBRANCH   20   19
ENDBRANCH   21   20
ENDBRANCH   22   21
ENDBRANCH   23   22
ENDBRANCH   24   23
ENDBRANCH   26   24
ENDBRANCH   30   29
BRANCH   34   35
ATOM     35  C28 UNL A   1      42.592  22.109  26.916  1.00  0.00    +0.000 C 
ATOM     36  C29 UNL A   1      43.535  22.128  25.878  1.00  0.00    +0.000 C 
ATOM     37  F2  UNL A   1      44.213  23.243  25.579  1.00  0.00    +0.000 F 
ATOM     38  C30 UNL A   1      43.876  20.962  25.182  1.00  0.00    +0.000 C 
ATOM     39  F3  UNL A   1      44.809  21.013  24.222  1.00  0.00    +0.000 F 
ATOM     40  C31 UNL A   1      43.311  19.743  25.522  1.00  0.00    +0.000 C 
ATOM     41  F4  UNL A   1      43.717  18.618  24.921  1.00  0.00    +0.000 F 
ATOM     42  C32 UNL A   1      42.350  19.695  26.512  1.00  0.00    +0.000 C 
ATOM     43  F5  UNL A   1      41.820  18.519  26.875  1.00  0.00    +0.000 F 
ATOM     44  C33 UNL A   1      41.974  20.862  27.176  1.00  0.00    +0.000 C 
ATOM     45  F6  UNL A   1      41.038  20.748  28.131  1.00  0.00    +0.000 F 
ENDBRANCH   34   35
BRANCH   51   52
ATOM     52  C39 UNL A   1      46.006  26.575  28.074  1.00  0.00    +0.000 C 
ATOM     53  C40 UNL A   1      47.222  26.817  27.415  1.00  0.00    +0.000 C 
ATOM     54  F7  UNL A   1      48.377  26.499  27.994  1.00  0.00    +0.000 F 
ATOM     55  C41 UNL A   1      47.288  27.395  26.149  1.00  0.00    +0.000 C 
ATOM     56  F8  UNL A   1      48.480  27.622  25.577  1.00  0.00    +0.000 F 
ATOM     57  C42 UNL A   1      46.124  27.734  25.489  1.00  0.00    +0.000 C 
ATOM     58  F9  UNL A   1      46.180  28.288  24.271  1.00  0.00    +0.000 F 
ATOM     59  C43 UNL A   1      44.903  27.507  26.105  1.00  0.00    +0.000 C 
ATOM     60  F10 UNL A   1      43.771  27.838  25.469  1.00  0.00    +0.000 F 
ATOM     61  C44 UNL A   1      44.843  26.940  27.382  1.00  0.00    +0.000 C 
ATOM     62  F11 UNL A   1      43.641  26.742  27.942  1.00  0.00    +0.000 F 
ENDBRANCH   51   52
BRANCH   66   67
ATOM     67  C48 UNL A   1      45.177  30.470  32.743  1.00  0.00    +0.000 C 
ATOM     68  C49 UNL A   1      44.548  30.620  34.013  1.00  0.00    +0.000 C 
ATOM     69  F12 UNL A   1      43.586  29.785  34.425  1.00  0.00    +0.000 F 
ATOM     70  C50 UNL A   1      44.872  31.628  34.925  1.00  0.00    +0.000 C 
ATOM     71  F13 UNL A   1      44.166  31.752  36.059  1.00  0.00    +0.000 F 
ATOM     72  C51 UNL A   1      45.898  32.499  34.652  1.00  0.00    +0.000 C 
ATOM     73  F14 UNL A   1      46.199  33.484  35.507  1.00  0.00    +0.000 F 
ATOM     74  C52 UNL A   1      46.623  32.320  33.490  1.00  0.00    +0.000 C 
ATOM     75  F15 UNL A   1      47.669  33.120  33.240  1.00  0.00    +0.000 F 
ATOM     76  C53 UNL A   1      46.278  31.320  32.563  1.00  0.00    +0.000 C 
ATOM     77  F16 UNL A   1      47.089  31.199  31.511  1.00  0.00    +0.000 F 
ENDBRANCH   66   67
TORSDOF 17
ENDMDL
MODEL 10
REMARK VINA RESULT:     -11.0      4.011      9.357
ROOT
ATOM     30  C24 UNL A   1      40.292  29.133  28.978  1.00  0.00    +0.000 C 
ATOM     31  C25 UNL A   1      39.061  30.044  28.986  1.00  0.00    +0.000 C 
ATOM     32  N4  UNL A   1      38.975  31.339  29.060  1.00  0.00    +0.000 N 
ATOM     33  C26 UNL A   1      37.605  31.664  29.138  1.00  0.00    +0.000 C 
ATOM     34  C27 UNL A   1      37.133  32.882  29.531  1.00  0.00    +0.000 C 
ATOM     46  C34 UNL A   1      38.195  33.794  29.781  1.00  0.00    +0.000 C 
ATOM     47  C35 UNL A   1      39.005  34.549  28.976  1.00  0.00    +0.000 C 
ATOM     48  C36 UNL A   1      40.182  34.750  29.733  1.00  0.00    +0.000 C 
ATOM     49  C37 UNL A   1      40.029  34.139  30.980  1.00  0.00    +0.000 C 
ATOM     50  N5  UNL A   1      38.690  33.840  31.059  1.00  0.00    +0.000 N 
ATOM     51  C38 UNL A   1      40.896  33.604  32.008  1.00  0.00    +0.000 C 
ATOM     63  C45 UNL A   1      42.232  33.634  31.780  1.00  0.00    +0.000 C 
ATOM     64  N6  UNL A   1      43.003  32.533  32.086  1.00  0.00    +0.000 N 
ATOM     65  C46 UNL A   1      43.755  32.407  31.031  1.00  0.00    +0.000 C 
ATOM     66  C47 UNL A   1      44.508  31.190  30.671  1.00  0.00    +0.000 C 
ATOM     78  C54 UNL A   1      43.577  30.282  30.239  1.00  0.00    +0.000 C 
ATOM     79  C55 UNL A   1      43.793  28.912  29.818  1.00  0.00    +0.000 C 
ATOM     80  C56 UNL A   1      42.641  28.381  29.369  1.00  0.00    +0.000 C 
ATOM     81  C57 UNL A   1      41.552  29.367  29.440  1.00  0.00    +0.000 C 
ATOM     82  N7  UNL A   1      42.182  30.444  30.038  1.00  0.00    +0.000 N 
ATOM     83  C58 UNL A   1      43.773  33.551  30.111  1.00  0.00    +0.000 C 
ATOM     84  C59 UNL A   1      42.935  34.360  30.752  1.00  0.00    +0.000 C 
ATOM     85  C60 UNL A   1      36.883  30.453  28.884  1.00  0.00    +0.000 C 
ATOM     86  C61 UNL A   1      37.721  29.417  28.833  1.00  0.00    +0.000 C 
ATOM    114  H26 UNL A   1      38.802  34.896  28.026  1.00  0.00    +0.000 H 
ATOM    115  H27 UNL A   1      41.019  35.265  29.416  1.00  0.00    +0.000 H 
ATOM    116  H28 UNL A   1      38.177  33.687  31.886  1.00  0.00    +0.000 H 
ATOM    117  H29 UNL A   1      44.698  28.417  29.856  1.00  0.00    +0.000 H 
ATOM    118  H30 UNL A   1      42.535  27.415  29.023  1.00  0.00    +0.000 H 
ATOM    119  H31 UNL A   1      41.700  31.260  30.304  1.00  0.00    +0.000 H 
ATOM    120  H32 UNL A   1      44.287  33.688  29.226  1.00  0.00    +0.000 H 
ATOM    121  H33 UNL A   1      42.805  35.363  30.542  1.00  0.00    +0.000 H 
ATOM    122  H34 UNL A   1      35.860  30.392  28.758  1.00  0.00    +0.000 H 
ATOM    123  H35 UNL A   1      37.493  28.418  28.716  1.00  0.00    +0.000 H 
ENDROOT
BRANCH   30   29
ATOM    124  H36 UNL A   1      40.766  28.339  26.425  1.00  0.00    +0.000 H 
ATOM     29  C23 UNL A   1      40.040  27.815  28.345  1.00  0.00    +0.000 C 
ATOM    112  H24 UNL A   1      39.054  24.730  29.195  1.00  0.00    +0.000 H 
ATOM    113  H25 UNL A   1      39.199  26.977  30.095  1.00  0.00    +0.000 H 
ATOM     87  C62 UNL A   1      40.415  27.569  27.015  1.00  0.00    +0.000 C 
ATOM     88  C63 UNL A   1      40.312  26.279  26.495  1.00  0.00    +0.000 C 
ATOM     26  C20 UNL A   1      39.866  25.234  27.308  1.00  0.00    +0.000 C 
ATOM     27  C21 UNL A   1      39.434  25.495  28.615  1.00  0.00    +0.000 C 
ATOM     28  C22 UNL A   1      39.519  26.783  29.134  1.00  0.00    +0.000 C 
ATOM    125  H37 UNL A   1      40.564  26.097  25.511  1.00  0.00    +0.000 H 
BRANCH   26   24
ATOM     25  O2  UNL A   1      40.765  23.196  26.596  1.00  0.00    +0.000 O 
ATOM     24  C19 UNL A   1      39.752  23.841  26.820  1.00  0.00    +0.000 C 
BRANCH   24   23
ATOM    111  H23 UNL A   1      38.259  22.548  27.203  1.00  0.00    +0.000 H 
ATOM     23  N3  UNL A   1      38.525  23.266  26.585  1.00  0.00    +0.000 N 
BRANCH   23   22
ATOM    110  H22 UNL A   1      37.356  22.697  24.986  1.00  0.00    +0.000 H 
ATOM    109  H21 UNL A   1      37.998  24.333  24.894  1.00  0.00    +0.000 H 
ATOM     22  C18 UNL A   1      37.572  23.589  25.535  1.00  0.00    +0.000 C 
BRANCH   22   21
ATOM    107  H19 UNL A   1      35.865  23.385  26.782  1.00  0.00    +0.000 H 
ATOM    108  H20 UNL A   1      36.508  25.041  26.623  1.00  0.00    +0.000 H 
ATOM     21  C17 UNL A   1      36.266  24.126  26.122  1.00  0.00    +0.000 C 
BRANCH   21   20
ATOM    105  H17 UNL A   1      35.612  25.181  24.397  1.00  0.00    +0.000 H 
ATOM    106  H18 UNL A   1      34.929  23.541  24.612  1.00  0.00    +0.000 H 
ATOM     20  C16 UNL A   1      35.196  24.467  25.077  1.00  0.00    +0.000 C 
BRANCH   20   19
ATOM     19  C15 UNL A   1      33.897  25.050  25.641  1.00  0.00    +0.000 C 
ATOM    103  H15 UNL A   1      33.080  24.624  25.098  1.00  0.00    +0.000 H 
ATOM    104  H16 UNL A   1      33.892  24.807  26.683  1.00  0.00    +0.000 H 
BRANCH   19   18
ATOM     18  C14 UNL A   1      33.774  26.578  25.561  1.00  0.00    +0.000 C 
ATOM    101  H13 UNL A   1      33.969  26.977  26.533  1.00  0.00    +0.000 H 
ATOM    102  H14 UNL A   1      34.479  26.896  24.821  1.00  0.00    +0.000 H 
BRANCH   18   17
ATOM     17  C13 UNL A   1      32.410  27.093  25.102  1.00  0.00    +0.000 C 
ATOM     99  H11 UNL A   1      31.720  27.025  25.917  1.00  0.00    +0.000 H 
ATOM    100  H12 UNL A   1      32.523  28.109  24.785  1.00  0.00    +0.000 H 
BRANCH   17   16
ATOM     98  H10 UNL A   1      32.391  26.345  23.133  1.00  0.00    +0.000 H 
ATOM     16  N2  UNL A   1      31.904  26.323  23.988  1.00  0.00    +0.000 N 
BRANCH   16    2
ATOM      1  O1  UNL A   1      29.823  25.824  24.829  1.00  0.00    +0.000 O 
ATOM      2  C1  UNL A   1      30.759  25.555  24.083  1.00  0.00    +0.000 C 
BRANCH    2    3
ATOM     89  H1  UNL A   1      31.422  24.498  22.371  1.00  0.00    +0.000 H 
ATOM     90  H2  UNL A   1      29.786  24.092  22.929  1.00  0.00    +0.000 H 
ATOM      3  C2  UNL A   1      30.794  24.308  23.216  1.00  0.00    +0.000 C 
BRANCH    3    4
ATOM     97  H9  UNL A   1      32.359  22.036  22.387  1.00  0.00    +0.000 H 
ATOM      4  C3  UNL A   1      31.317  23.103  23.935  1.00  0.00    +0.000 C 
ATOM      5  C4  UNL A   1      31.138  22.751  25.298  1.00  0.00    +0.000 C 
ATOM      6  C5  UNL A   1      31.716  21.519  25.494  1.00  0.00    +0.000 C 
ATOM      7  N1  UNL A   1      32.267  21.081  24.307  1.00  0.00    +0.000 N 
ATOM     15  C12 UNL A   1      32.039  22.066  23.367  1.00  0.00    +0.000 C 
ATOM     91  H3  UNL A   1      30.658  23.320  26.015  1.00  0.00    +0.000 H 
ATOM     92  H4  UNL A   1      31.735  21.002  26.388  1.00  0.00    +0.000 H 
BRANCH    7    8
ATOM      8  C6  UNL A   1      32.905  19.831  24.094  1.00  0.00    +0.000 C 
ATOM      9  C7  UNL A   1      32.298  18.867  23.273  1.00  0.00    +0.000 C 
ATOM     10  C8  UNL A   1      32.931  17.643  23.038  1.00  0.00    +0.000 C 
ATOM     11  C9  UNL A   1      34.157  17.362  23.638  1.00  0.00    +0.000 C 
ATOM     12  C10 UNL A   1      34.759  18.310  24.463  1.00  0.00    +0.000 C 
ATOM     13  C11 UNL A   1      34.141  19.541  24.678  1.00  0.00    +0.000 C 
ATOM     14  F1  UNL A   1      34.746  20.397  25.514  1.00  0.00    +0.000 F 
ATOM     93  H5  UNL A   1      31.381  19.063  22.842  1.00  0.00    +0.000 H 
ATOM     94  H6  UNL A   1      32.489  16.945  22.420  1.00  0.00    +0.000 H 
ATOM     95  H7  UNL A   1      34.619  16.453  23.471  1.00  0.00    +0.000 H 
ATOM     96  H8  UNL A   1      35.663  18.101  24.914  1.00  0.00    +0.000 H 
ENDBRANCH    7    8
ENDBRANCH    3    4
ENDBRANCH    2    3
ENDBRANCH   16    2
ENDBRANCH   17   16
ENDBRANCH   18   17
ENDBRANCH   19   18
ENDBRANCH   20   19
ENDBRANCH   21   20
ENDBRANCH   22   21
ENDBRANCH   23   22
ENDBRANCH   24   23
ENDBRANCH   26   24
ENDBRANCH   30   29
BRANCH   34   35
ATOM     35  C28 UNL A   1      35.746  33.314  29.925  1.00  0.00    +0.000 C 
ATOM     36  C29 UNL A   1      35.292  33.331  31.251  1.00  0.00    +0.000 C 
ATOM     37  F2  UNL A   1      35.978  32.720  32.225  1.00  0.00    +0.000 F 
ATOM     38  C30 UNL A   1      34.163  34.068  31.626  1.00  0.00    +0.000 C 
ATOM     39  F3  UNL A   1      33.782  34.089  32.911  1.00  0.00    +0.000 F 
ATOM     40  C31 UNL A   1      33.475  34.832  30.697  1.00  0.00    +0.000 C 
ATOM     41  F4  UNL A   1      32.459  35.614  31.083  1.00  0.00    +0.000 F 
ATOM     42  C32 UNL A   1      33.871  34.808  29.375  1.00  0.00    +0.000 C 
ATOM     43  F5  UNL A   1      33.237  35.569  28.471  1.00  0.00    +0.000 F 
ATOM     44  C33 UNL A   1      34.968  34.039  28.990  1.00  0.00    +0.000 C 
ATOM     45  F6  UNL A   1      35.304  34.061  27.690  1.00  0.00    +0.000 F 
ENDBRANCH   34   35
BRANCH   51   52
ATOM     52  C39 UNL A   1      40.496  32.599  33.066  1.00  0.00    +0.000 C 
ATOM     53  C40 UNL A   1      40.039  31.306  32.764  1.00  0.00    +0.000 C 
ATOM     54  F7  UNL A   1      39.819  30.946  31.502  1.00  0.00    +0.000 F 
ATOM     55  C41 UNL A   1      39.793  30.349  33.746  1.00  0.00    +0.000 C 
ATOM     56  F8  UNL A   1      39.337  29.135  33.400  1.00  0.00    +0.000 F 
ATOM     57  C42 UNL A   1      40.017  30.655  35.073  1.00  0.00    +0.000 C 
ATOM     58  F9  UNL A   1      39.784  29.739  36.022  1.00  0.00    +0.000 F 
ATOM     59  C43 UNL A   1      40.471  31.920  35.412  1.00  0.00    +0.000 C 
ATOM     60  F10 UNL A   1      40.686  32.222  36.700  1.00  0.00    +0.000 F 
ATOM     61  C44 UNL A   1      40.703  32.881  34.423  1.00  0.00    +0.000 C 
ATOM     62  F11 UNL A   1      41.138  34.095  34.795  1.00  0.00    +0.000 F 
ENDBRANCH   51   52
BRANCH   66   67
ATOM     67  C48 UNL A   1      46.023  31.256  30.762  1.00  0.00    +0.000 C 
ATOM     68  C49 UNL A   1      46.811  31.321  29.577  1.00  0.00    +0.000 C 
ATOM     69  F12 UNL A   1      46.260  31.541  28.377  1.00  0.00    +0.000 F 
ATOM     70  C50 UNL A   1      48.200  31.167  29.560  1.00  0.00    +0.000 C 
ATOM     71  F13 UNL A   1      48.854  31.150  28.389  1.00  0.00    +0.000 F 
ATOM     72  C51 UNL A   1      48.889  31.015  30.738  1.00  0.00    +0.000 C 
ATOM     73  F14 UNL A   1      50.216  30.841  30.730  1.00  0.00    +0.000 F 
ATOM     74  C52 UNL A   1      48.187  31.070  31.925  1.00  0.00    +0.000 C 
ATOM     75  F15 UNL A   1      48.853  30.990  33.086  1.00  0.00    +0.000 F 
ATOM     76  C53 UNL A   1      46.786  31.201  31.937  1.00  0.00    +0.000 C 
ATOM     77  F16 UNL A   1      46.224  31.310  33.142  1.00  0.00    +0.000 F 
ENDBRANCH   66   67
TORSDOF 17
ENDMDL
