MODEL 1
REMARK VINA RESULT:      -9.3      0.000      0.000
ROOT
ATOM    129  H31 UNL A   1      21.778  -9.859  32.071  1.00  0.00    +0.000 H 
ATOM    130  H32 UNL A   1      29.504 -15.275  35.516  1.00  0.00    +0.000 H 
ATOM    131  H33 UNL A   1      30.611 -15.151  33.211  1.00  0.00    +0.000 H 
ATOM     30  C22 UNL A   1      28.966 -13.954  31.216  1.00  0.00    +0.000 C 
ATOM     31  C23 UNL A   1      28.694 -14.057  32.691  1.00  0.00    +0.000 C 
ATOM     32  N3  UNL A   1      27.664 -13.629  33.377  1.00  0.00    +0.000 N 
ATOM     33  C24 UNL A   1      27.893 -14.026  34.688  1.00  0.00    +0.000 C 
ATOM     34  C25 UNL A   1      27.155 -13.759  35.792  1.00  0.00    +0.000 C 
ATOM     46  C32 UNL A   1      25.941 -12.985  35.784  1.00  0.00    +0.000 C 
ATOM     47  C33 UNL A   1      25.146 -12.617  36.855  1.00  0.00    +0.000 C 
ATOM     48  C34 UNL A   1      24.039 -11.921  36.359  1.00  0.00    +0.000 C 
ATOM     49  C35 UNL A   1      24.179 -11.797  34.986  1.00  0.00    +0.000 C 
ATOM     50  N4  UNL A   1      25.346 -12.462  34.645  1.00  0.00    +0.000 N 
ATOM     51  C36 UNL A   1      23.312 -11.119  34.054  1.00  0.00    +0.000 C 
ATOM     63  C43 UNL A   1      23.517 -11.044  32.716  1.00  0.00    +0.000 C 
ATOM     64  N5  UNL A   1      24.565 -11.558  31.963  1.00  0.00    +0.000 N 
ATOM     65  C44 UNL A   1      24.310 -11.228  30.719  1.00  0.00    +0.000 C 
ATOM     66  C45 UNL A   1      25.124 -11.489  29.479  1.00  0.00    +0.000 C 
ATOM     78  C52 UNL A   1      26.299 -12.139  29.591  1.00  0.00    +0.000 C 
ATOM     79  C53 UNL A   1      27.196 -12.465  28.487  1.00  0.00    +0.000 C 
ATOM     80  C54 UNL A   1      28.235 -13.170  28.960  1.00  0.00    +0.000 C 
ATOM     81  C55 UNL A   1      28.101 -13.307  30.411  1.00  0.00    +0.000 C 
ATOM     82  N6  UNL A   1      26.928 -12.654  30.699  1.00  0.00    +0.000 N 
ATOM     83  C56 UNL A   1      23.047 -10.498  30.540  1.00  0.00    +0.000 C 
ATOM     84  C57 UNL A   1      22.629 -10.372  31.791  1.00  0.00    +0.000 C 
ATOM     85  C58 UNL A   1      29.123 -14.785  34.692  1.00  0.00    +0.000 C 
ATOM     86  C59 UNL A   1      29.697 -14.768  33.499  1.00  0.00    +0.000 C 
ATOM    122  H24 UNL A   1      25.337 -12.820  37.848  1.00  0.00    +0.000 H 
ATOM    123  H25 UNL A   1      23.252 -11.561  36.920  1.00  0.00    +0.000 H 
ATOM    124  H26 UNL A   1      25.700 -12.550  33.730  1.00  0.00    +0.000 H 
ATOM    125  H27 UNL A   1      27.054 -12.196  27.500  1.00  0.00    +0.000 H 
ATOM    126  H28 UNL A   1      29.006 -13.555  28.392  1.00  0.00    +0.000 H 
ATOM    127  H29 UNL A   1      26.571 -12.563  31.612  1.00  0.00    +0.000 H 
ATOM    128  H30 UNL A   1      22.603 -10.170  29.669  1.00  0.00    +0.000 H 
ENDROOT
BRANCH   30   29
ATOM    132  H34 UNL A   1      31.406 -12.930  30.831  1.00  0.00    +0.000 H 
ATOM    133  H35 UNL A   1      33.322 -13.949  29.751  1.00  0.00    +0.000 H 
ATOM    120  H22 UNL A   1      31.212 -17.573  29.406  1.00  0.00    +0.000 H 
ATOM     87  C60 UNL A   1      31.354 -13.906  30.501  1.00  0.00    +0.000 C 
ATOM     88  C61 UNL A   1      32.471 -14.505  29.927  1.00  0.00    +0.000 C 
ATOM    121  H23 UNL A   1      29.212 -16.478  30.244  1.00  0.00    +0.000 H 
ATOM     26  C18 UNL A   1      32.436 -15.860  29.589  1.00  0.00    +0.000 C 
ATOM     27  C19 UNL A   1      31.246 -16.582  29.695  1.00  0.00    +0.000 C 
ATOM     28  C20 UNL A   1      30.102 -15.958  30.195  1.00  0.00    +0.000 C 
ATOM     29  C21 UNL A   1      30.156 -14.624  30.633  1.00  0.00    +0.000 C 
BRANCH   26   24
ATOM     25  O6  UNL A   1      34.480 -16.963  29.923  1.00  0.00    +0.000 O 
ATOM     24  C17 UNL A   1      33.653 -16.551  29.115  1.00  0.00    +0.000 C 
BRANCH   24   23
ATOM    119  H21 UNL A   1      34.506 -17.415  27.520  1.00  0.00    +0.000 H 
ATOM     23  N2  UNL A   1      33.859 -16.716  27.768  1.00  0.00    +0.000 N 
BRANCH   23   22
ATOM    118  H20 UNL A   1      32.286 -15.663  26.974  1.00  0.00    +0.000 H 
ATOM    117  H19 UNL A   1      33.177 -16.665  25.821  1.00  0.00    +0.000 H 
ATOM     22  C16 UNL A   1      33.251 -16.001  26.658  1.00  0.00    +0.000 C 
BRANCH   22   21
ATOM    115  H17 UNL A   1      34.797 -14.597  27.003  1.00  0.00    +0.000 H 
ATOM    116  H18 UNL A   1      34.490 -15.007  25.292  1.00  0.00    +0.000 H 
ATOM     21  C15 UNL A   1      34.062 -14.780  26.246  1.00  0.00    +0.000 C 
BRANCH   21   20
ATOM    113  H15 UNL A   1      32.809 -13.246  27.004  1.00  0.00    +0.000 H 
ATOM    114  H16 UNL A   1      33.925 -12.765  25.687  1.00  0.00    +0.000 H 
ATOM     20  C14 UNL A   1      33.243 -13.501  26.059  1.00  0.00    +0.000 C 
BRANCH   20   19
ATOM     19  C13 UNL A   1      32.113 -13.589  25.028  1.00  0.00    +0.000 C 
ATOM    111  H13 UNL A   1      32.289 -12.847  24.278  1.00  0.00    +0.000 H 
ATOM    112  H14 UNL A   1      32.132 -14.590  24.650  1.00  0.00    +0.000 H 
BRANCH   19   18
ATOM     18  C12 UNL A   1      30.707 -13.373  25.587  1.00  0.00    +0.000 C 
ATOM    109  H11 UNL A   1      30.001 -13.647  24.831  1.00  0.00    +0.000 H 
ATOM    110  H12 UNL A   1      30.631 -13.978  26.466  1.00  0.00    +0.000 H 
BRANCH   18   17
ATOM     17  C11 UNL A   1      30.413 -11.944  26.016  1.00  0.00    +0.000 C 
ATOM    107  H9  UNL A   1      31.102 -11.291  25.521  1.00  0.00    +0.000 H 
ATOM    108  H10 UNL A   1      29.398 -11.734  25.748  1.00  0.00    +0.000 H 
BRANCH   17   16
ATOM    106  H8  UNL A   1      30.148 -12.458  27.998  1.00  0.00    +0.000 H 
ATOM     16  N1  UNL A   1      30.532 -11.741  27.443  1.00  0.00    +0.000 N 
BRANCH   16   14
ATOM     14  C10 UNL A   1      31.093 -10.708  28.142  1.00  0.00    +0.000 C 
ATOM     15  O5  UNL A   1      32.314 -10.579  28.048  1.00  0.00    +0.000 O 
BRANCH   14   13
ATOM      1  O1  UNL A   1      32.288  -7.037  30.030  1.00  0.00    +0.000 O 
ATOM      2  C1  UNL A   1      31.546  -7.998  29.909  1.00  0.00    +0.000 C 
ATOM      3  O2  UNL A   1      31.339  -8.950  30.851  1.00  0.00    +0.000 O 
ATOM      4  C2  UNL A   1      30.323  -9.876  30.427  1.00  0.00    +0.000 C 
ATOM     99  H1  UNL A   1      30.580 -10.891  30.649  1.00  0.00    +0.000 H 
ATOM    105  H7  UNL A   1      29.224  -9.910  28.538  1.00  0.00    +0.000 H 
ATOM     13  C9  UNL A   1      30.207  -9.721  28.913  1.00  0.00    +0.000 C 
ATOM     89  C62 UNL A   1      30.706  -8.324  28.744  1.00  0.00    +0.000 C 
BRANCH    4    5
ATOM    100  H2  UNL A   1      29.554 -10.861  32.872  1.00  0.00    +0.000 H 
ATOM      5  C3  UNL A   1      29.016  -9.675  31.202  1.00  0.00    +0.000 C 
ATOM      6  C4  UNL A   1      28.830 -10.234  32.488  1.00  0.00    +0.000 C 
ATOM      7  C5  UNL A   1      27.692  -9.962  33.255  1.00  0.00    +0.000 C 
ATOM    104  H6  UNL A   1      28.100  -8.420  29.765  1.00  0.00    +0.000 H 
ATOM    101  H3  UNL A   1      27.586 -10.368  34.198  1.00  0.00    +0.000 H 
ATOM     10  C7  UNL A   1      26.861  -8.600  31.459  1.00  0.00    +0.000 C 
ATOM      8  C6  UNL A   1      26.709  -9.140  32.731  1.00  0.00    +0.000 C 
ATOM     12  C8  UNL A   1      28.001  -8.846  30.700  1.00  0.00    +0.000 C 
BRANCH    8    9
ATOM      9  O3  UNL A   1      25.578  -8.829  33.430  1.00  0.00    +0.000 O 
ATOM    102  H4  UNL A   1      25.634  -8.301  34.202  1.00  0.00    +0.000 H 
ENDBRANCH    8    9
BRANCH   10   11
ATOM     11  O4  UNL A   1      25.881  -7.800  30.942  1.00  0.00    +0.000 O 
ATOM    103  H5  UNL A   1      25.514  -7.113  31.465  1.00  0.00    +0.000 H 
ENDBRANCH   10   11
ENDBRANCH    4    5
BRANCH   89   90
ATOM     90  C63 UNL A   1      30.499  -7.411  27.784  1.00  0.00    +0.000 C 
ATOM    134  H36 UNL A   1      30.736  -6.428  27.994  1.00  0.00    +0.000 H 
BRANCH   90   91
ATOM     98  C69 UNL A   1      30.805  -8.256  25.485  1.00  0.00    +0.000 C 
ATOM    135  H37 UNL A   1      28.003  -7.018  26.856  1.00  0.00    +0.000 H 
ATOM    136  H38 UNL A   1      27.129  -7.530  24.643  1.00  0.00    +0.000 H 
ATOM    139  H41 UNL A   1      31.795  -8.451  25.704  1.00  0.00    +0.000 H 
ATOM     91  C64 UNL A   1      29.960  -7.715  26.459  1.00  0.00    +0.000 C 
ATOM     92  C65 UNL A   1      28.621  -7.437  26.143  1.00  0.00    +0.000 C 
ATOM     93  C66 UNL A   1      28.118  -7.722  24.870  1.00  0.00    +0.000 C 
ATOM     94  C67 UNL A   1      28.965  -8.270  23.916  1.00  0.00    +0.000 C 
ATOM     96  C68 UNL A   1      30.299  -8.528  24.222  1.00  0.00    +0.000 C 
BRANCH   94   95
ATOM    137  H39 UNL A   1      27.661  -8.352  22.393  1.00  0.00    +0.000 H 
ATOM     95  O7  UNL A   1      28.534  -8.569  22.653  1.00  0.00    +0.000 O 
ENDBRANCH   94   95
BRANCH   96   97
ATOM     97  O8  UNL A   1      31.127  -9.050  23.271  1.00  0.00    +0.000 O 
ATOM    138  H40 UNL A   1      31.256  -9.977  23.219  1.00  0.00    +0.000 H 
ENDBRANCH   96   97
ENDBRANCH   90   91
ENDBRANCH   89   90
ENDBRANCH   14   13
ENDBRANCH   16   14
ENDBRANCH   17   16
ENDBRANCH   18   17
ENDBRANCH   19   18
ENDBRANCH   20   19
ENDBRANCH   21   20
ENDBRANCH   22   21
ENDBRANCH   23   22
ENDBRANCH   24   23
ENDBRANCH   26   24
ENDBRANCH   30   29
BRANCH   34   35
ATOM     35  C26 UNL A   1      27.638 -14.313  37.102  1.00  0.00    +0.000 C 
ATOM     36  C27 UNL A   1      27.073 -15.466  37.670  1.00  0.00    +0.000 C 
ATOM     37  F1  UNL A   1      26.045 -16.082  37.068  1.00  0.00    +0.000 F 
ATOM     38  C28 UNL A   1      27.533 -15.967  38.886  1.00  0.00    +0.000 C 
ATOM     39  F2  UNL A   1      26.938 -17.034  39.436  1.00  0.00    +0.000 F 
ATOM     40  C29 UNL A   1      28.593 -15.352  39.536  1.00  0.00    +0.000 C 
ATOM     41  F3  UNL A   1      29.039 -15.840  40.701  1.00  0.00    +0.000 F 
ATOM     42  C30 UNL A   1      29.184 -14.228  38.980  1.00  0.00    +0.000 C 
ATOM     43  F4  UNL A   1      30.218 -13.642  39.599  1.00  0.00    +0.000 F 
ATOM     44  C31 UNL A   1      28.703 -13.703  37.784  1.00  0.00    +0.000 C 
ATOM     45  F5  UNL A   1      29.284 -12.602  37.284  1.00  0.00    +0.000 F 
ENDBRANCH   34   35
BRANCH   51   52
ATOM     52  C37 UNL A   1      22.107 -10.414  34.611  1.00  0.00    +0.000 C 
ATOM     53  C38 UNL A   1      22.193  -9.134  35.175  1.00  0.00    +0.000 C 
ATOM     54  F6  UNL A   1      23.382  -8.522  35.285  1.00  0.00    +0.000 F 
ATOM     55  C39 UNL A   1      21.058  -8.491  35.667  1.00  0.00    +0.000 C 
ATOM     56  F7  UNL A   1      21.171  -7.289  36.248  1.00  0.00    +0.000 F 
ATOM     57  C40 UNL A   1      19.816  -9.098  35.567  1.00  0.00    +0.000 C 
ATOM     58  F8  UNL A   1      18.724  -8.473  36.029  1.00  0.00    +0.000 F 
ATOM     59  C41 UNL A   1      19.704 -10.356  34.994  1.00  0.00    +0.000 C 
ATOM     60  F9  UNL A   1      18.502 -10.936  34.879  1.00  0.00    +0.000 F 
ATOM     61  C42 UNL A   1      20.841 -11.015  34.534  1.00  0.00    +0.000 C 
ATOM     62  F10 UNL A   1      20.702 -12.236  33.995  1.00  0.00    +0.000 F 
ENDBRANCH   51   52
BRANCH   66   67
ATOM     67  C46 UNL A   1      24.657 -11.019  28.148  1.00  0.00    +0.000 C 
ATOM     68  C47 UNL A   1      25.191  -9.860  27.565  1.00  0.00    +0.000 C 
ATOM     69  F11 UNL A   1      26.131  -9.159  28.213  1.00  0.00    +0.000 F 
ATOM     70  C48 UNL A   1      24.727  -9.392  26.337  1.00  0.00    +0.000 C 
ATOM     71  F12 UNL A   1      25.217  -8.253  25.831  1.00  0.00    +0.000 F 
ATOM     72  C49 UNL A   1      23.747 -10.092  25.650  1.00  0.00    +0.000 C 
ATOM     73  F13 UNL A   1      23.303  -9.642  24.469  1.00  0.00    +0.000 F 
ATOM     74  C50 UNL A   1      23.222 -11.254  26.195  1.00  0.00    +0.000 C 
ATOM     75  F14 UNL A   1      22.286 -11.943  25.528  1.00  0.00    +0.000 F 
ATOM     76  C51 UNL A   1      23.661 -11.705  27.438  1.00  0.00    +0.000 C 
ATOM     77  F15 UNL A   1      23.121 -12.822  27.947  1.00  0.00    +0.000 F 
ENDBRANCH   66   67
TORSDOF 22
ENDMDL
MODEL 2
REMARK VINA RESULT:      -9.0     38.772     44.038
ROOT
ATOM    129  H31 UNL A   1      48.613  29.936  25.864  1.00  0.00    +0.000 H 
ATOM    130  H32 UNL A   1      39.926  25.874  28.855  1.00  0.00    +0.000 H 
ATOM    131  H33 UNL A   1      39.164  28.158  29.723  1.00  0.00    +0.000 H 
ATOM     30  C22 UNL A   1      41.190  30.159  29.608  1.00  0.00    +0.000 C 
ATOM     31  C23 UNL A   1      41.246  28.762  29.056  1.00  0.00    +0.000 C 
ATOM     32  N3  UNL A   1      42.215  28.163  28.410  1.00  0.00    +0.000 N 
ATOM     33  C24 UNL A   1      41.766  26.870  28.173  1.00  0.00    +0.000 C 
ATOM     34  C25 UNL A   1      42.373  25.881  27.473  1.00  0.00    +0.000 C 
ATOM     46  C32 UNL A   1      43.656  26.014  26.835  1.00  0.00    +0.000 C 
ATOM     47  C33 UNL A   1      44.335  25.088  26.062  1.00  0.00    +0.000 C 
ATOM     48  C34 UNL A   1      45.571  25.638  25.707  1.00  0.00    +0.000 C 
ATOM     49  C35 UNL A   1      45.634  26.931  26.201  1.00  0.00    +0.000 C 
ATOM     50  N4  UNL A   1      44.456  27.146  26.899  1.00  0.00    +0.000 N 
ATOM     51  C36 UNL A   1      46.691  27.900  26.045  1.00  0.00    +0.000 C 
ATOM     63  C43 UNL A   1      46.679  29.152  26.565  1.00  0.00    +0.000 C 
ATOM     64  N5  UNL A   1      45.692  29.776  27.316  1.00  0.00    +0.000 N 
ATOM     65  C44 UNL A   1      46.149  30.976  27.585  1.00  0.00    +0.000 C 
ATOM     66  C45 UNL A   1      45.487  32.101  28.336  1.00  0.00    +0.000 C 
ATOM     78  C52 UNL A   1      44.242  31.923  28.819  1.00  0.00    +0.000 C 
ATOM     79  C53 UNL A   1      43.472  32.913  29.565  1.00  0.00    +0.000 C 
ATOM     80  C54 UNL A   1      42.305  32.368  29.942  1.00  0.00    +0.000 C 
ATOM     81  C55 UNL A   1      42.224  31.002  29.424  1.00  0.00    +0.000 C 
ATOM     82  N6  UNL A   1      43.414  30.828  28.761  1.00  0.00    +0.000 N 
ATOM     83  C56 UNL A   1      47.499  31.233  27.064  1.00  0.00    +0.000 C 
ATOM     84  C57 UNL A   1      47.755  30.108  26.412  1.00  0.00    +0.000 C 
ATOM     85  C58 UNL A   1      40.469  26.750  28.799  1.00  0.00    +0.000 C 
ATOM     86  C59 UNL A   1      40.068  27.912  29.290  1.00  0.00    +0.000 C 
ATOM    122  H24 UNL A   1      43.989  24.154  25.794  1.00  0.00    +0.000 H 
ATOM    123  H25 UNL A   1      46.310  25.161  25.168  1.00  0.00    +0.000 H 
ATOM    124  H26 UNL A   1      44.222  27.978  27.370  1.00  0.00    +0.000 H 
ATOM    125  H27 UNL A   1      43.776  33.878  29.769  1.00  0.00    +0.000 H 
ATOM    126  H28 UNL A   1      41.580  32.838  30.507  1.00  0.00    +0.000 H 
ATOM    127  H29 UNL A   1      43.651  29.997  28.288  1.00  0.00    +0.000 H 
ATOM    128  H30 UNL A   1      48.092  32.069  27.177  1.00  0.00    +0.000 H 
ENDROOT
BRANCH   30   29
ATOM    132  H34 UNL A   1      38.978  31.406  28.770  1.00  0.00    +0.000 H 
ATOM    133  H35 UNL A   1      37.125  32.250  30.085  1.00  0.00    +0.000 H 
ATOM    120  H22 UNL A   1      38.793  30.541  33.549  1.00  0.00    +0.000 H 
ATOM     87  C60 UNL A   1      38.955  31.248  29.789  1.00  0.00    +0.000 C 
ATOM     88  C61 UNL A   1      37.866  31.690  30.534  1.00  0.00    +0.000 C 
ATOM    121  H23 UNL A   1      40.773  29.927  32.283  1.00  0.00    +0.000 H 
ATOM     26  C18 UNL A   1      37.780  31.374  31.892  1.00  0.00    +0.000 C 
ATOM     27  C19 UNL A   1      38.842  30.737  32.537  1.00  0.00    +0.000 C 
ATOM     28  C20 UNL A   1      39.972  30.366  31.804  1.00  0.00    +0.000 C 
ATOM     29  C21 UNL A   1      40.022  30.589  30.418  1.00  0.00    +0.000 C 
BRANCH   26   24
ATOM     25  O6  UNL A   1      36.643  31.896  33.877  1.00  0.00    +0.000 O 
ATOM     24  C17 UNL A   1      36.567  31.705  32.668  1.00  0.00    +0.000 C 
BRANCH   24   23
ATOM    119  H21 UNL A   1      34.944  30.922  31.787  1.00  0.00    +0.000 H 
ATOM     23  N2  UNL A   1      35.354  31.784  32.029  1.00  0.00    +0.000 N 
BRANCH   23   22
ATOM    118  H20 UNL A   1      34.802  33.729  32.383  1.00  0.00    +0.000 H 
ATOM    117  H19 UNL A   1      33.552  32.715  31.652  1.00  0.00    +0.000 H 
ATOM     22  C16 UNL A   1      34.592  32.966  31.662  1.00  0.00    +0.000 C 
BRANCH   22   21
ATOM    115  H17 UNL A   1      34.811  34.557  30.283  1.00  0.00    +0.000 H 
ATOM    116  H18 UNL A   1      36.009  33.239  30.144  1.00  0.00    +0.000 H 
ATOM     21  C15 UNL A   1      34.982  33.500  30.290  1.00  0.00    +0.000 C 
BRANCH   21   20
ATOM    113  H15 UNL A   1      33.277  32.517  29.498  1.00  0.00    +0.000 H 
ATOM    114  H16 UNL A   1      34.100  33.665  28.396  1.00  0.00    +0.000 H 
ATOM     20  C14 UNL A   1      34.208  32.885  29.121  1.00  0.00    +0.000 C 
BRANCH   20   19
ATOM     19  C13 UNL A   1      34.914  31.733  28.399  1.00  0.00    +0.000 C 
ATOM    111  H13 UNL A   1      35.706  32.146  27.810  1.00  0.00    +0.000 H 
ATOM    112  H14 UNL A   1      35.255  31.066  29.163  1.00  0.00    +0.000 H 
BRANCH   19   18
ATOM     18  C12 UNL A   1      34.022  30.902  27.476  1.00  0.00    +0.000 C 
ATOM    109  H11 UNL A   1      33.069  30.788  27.948  1.00  0.00    +0.000 H 
ATOM    110  H12 UNL A   1      33.967  31.430  26.548  1.00  0.00    +0.000 H 
BRANCH   18   17
ATOM     17  C11 UNL A   1      34.564  29.517  27.158  1.00  0.00    +0.000 C 
ATOM    107  H9  UNL A   1      35.632  29.572  27.108  1.00  0.00    +0.000 H 
ATOM    108  H10 UNL A   1      34.232  28.860  27.935  1.00  0.00    +0.000 H 
BRANCH   17   16
ATOM    106  H8  UNL A   1      34.689  29.081  25.144  1.00  0.00    +0.000 H 
ATOM     16  N1  UNL A   1      34.072  28.986  25.906  1.00  0.00    +0.000 N 
BRANCH   16   14
ATOM     14  C10 UNL A   1      32.884  28.374  25.614  1.00  0.00    +0.000 C 
ATOM     15  O5  UNL A   1      31.877  29.082  25.652  1.00  0.00    +0.000 O 
BRANCH   14   13
ATOM      1  O1  UNL A   1      29.548  25.667  25.718  1.00  0.00    +0.000 O 
ATOM      2  C1  UNL A   1      30.744  25.908  25.712  1.00  0.00    +0.000 C 
ATOM      3  O2  UNL A   1      31.607  25.609  26.713  1.00  0.00    +0.000 O 
ATOM      4  C2  UNL A   1      32.957  25.929  26.336  1.00  0.00    +0.000 C 
ATOM     99  H1  UNL A   1      33.500  26.399  27.130  1.00  0.00    +0.000 H 
ATOM    105  H7  UNL A   1      33.667  26.832  24.476  1.00  0.00    +0.000 H 
ATOM     13  C9  UNL A   1      32.855  26.906  25.169  1.00  0.00    +0.000 C 
ATOM     89  C62 UNL A   1      31.511  26.546  24.629  1.00  0.00    +0.000 C 
BRANCH    4    5
ATOM    100  H2  UNL A   1      34.963  25.500  24.510  1.00  0.00    +0.000 H 
ATOM      5  C3  UNL A   1      33.781  24.667  26.057  1.00  0.00    +0.000 C 
ATOM      6  C4  UNL A   1      34.818  24.663  25.095  1.00  0.00    +0.000 C 
ATOM      7  C5  UNL A   1      35.654  23.556  24.913  1.00  0.00    +0.000 C 
ATOM    104  H6  UNL A   1      32.849  23.467  27.530  1.00  0.00    +0.000 H 
ATOM    101  H3  UNL A   1      36.415  23.583  24.217  1.00  0.00    +0.000 H 
ATOM     10  C7  UNL A   1      34.416  22.397  26.615  1.00  0.00    +0.000 C 
ATOM      8  C6  UNL A   1      35.446  22.423  25.682  1.00  0.00    +0.000 C 
ATOM     12  C8  UNL A   1      33.596  23.503  26.818  1.00  0.00    +0.000 C 
BRANCH    8    9
ATOM      9  O3  UNL A   1      36.230  21.312  25.558  1.00  0.00    +0.000 O 
ATOM    102  H4  UNL A   1      36.120  20.740  24.825  1.00  0.00    +0.000 H 
ENDBRANCH    8    9
BRANCH   10   11
ATOM     11  O4  UNL A   1      34.207  21.271  27.361  1.00  0.00    +0.000 O 
ATOM    103  H5  UNL A   1      34.933  20.727  27.600  1.00  0.00    +0.000 H 
ENDBRANCH   10   11
ENDBRANCH    4    5
BRANCH   89   90
ATOM     90  C63 UNL A   1      30.968  26.691  23.412  1.00  0.00    +0.000 C 
ATOM    134  H36 UNL A   1      31.145  25.952  22.713  1.00  0.00    +0.000 H 
BRANCH   90   91
ATOM     98  C69 UNL A   1      28.767  27.801  23.276  1.00  0.00    +0.000 C 
ATOM    135  H37 UNL A   1      31.705  28.930  22.111  1.00  0.00    +0.000 H 
ATOM    136  H38 UNL A   1      30.306  30.807  21.446  1.00  0.00    +0.000 H 
ATOM    139  H41 UNL A   1      28.346  26.996  23.766  1.00  0.00    +0.000 H 
ATOM     91  C64 UNL A   1      30.139  27.827  23.009  1.00  0.00    +0.000 C 
ATOM     92  C65 UNL A   1      30.696  28.920  22.327  1.00  0.00    +0.000 C 
ATOM     93  C66 UNL A   1      29.894  29.997  21.936  1.00  0.00    +0.000 C 
ATOM     94  C67 UNL A   1      28.534  29.963  22.219  1.00  0.00    +0.000 C 
ATOM     96  C68 UNL A   1      27.977  28.870  22.878  1.00  0.00    +0.000 C 
BRANCH   94   95
ATOM    137  H39 UNL A   1      27.909  31.529  21.130  1.00  0.00    +0.000 H 
ATOM     95  O7  UNL A   1      27.697  30.984  21.861  1.00  0.00    +0.000 O 
ENDBRANCH   94   95
BRANCH   96   97
ATOM     97  O8  UNL A   1      26.637  28.841  23.135  1.00  0.00    +0.000 O 
ATOM    138  H40 UNL A   1      26.202  29.609  23.450  1.00  0.00    +0.000 H 
ENDBRANCH   96   97
ENDBRANCH   90   91
ENDBRANCH   89   90
ENDBRANCH   14   13
ENDBRANCH   16   14
ENDBRANCH   17   16
ENDBRANCH   18   17
ENDBRANCH   19   18
ENDBRANCH   20   19
ENDBRANCH   21   20
ENDBRANCH   22   21
ENDBRANCH   23   22
ENDBRANCH   24   23
ENDBRANCH   26   24
ENDBRANCH   30   29
BRANCH   34   35
ATOM     35  C26 UNL A   1      41.656  24.565  27.365  1.00  0.00    +0.000 C 
ATOM     36  C27 UNL A   1      40.512  24.411  26.567  1.00  0.00    +0.000 C 
ATOM     37  F1  UNL A   1      40.001  25.462  25.908  1.00  0.00    +0.000 F 
ATOM     38  C28 UNL A   1      39.858  23.184  26.477  1.00  0.00    +0.000 C 
ATOM     39  F2  UNL A   1      38.734  23.077  25.755  1.00  0.00    +0.000 F 
ATOM     40  C29 UNL A   1      40.359  22.078  27.147  1.00  0.00    +0.000 C 
ATOM     41  F3  UNL A   1      39.734  20.897  27.053  1.00  0.00    +0.000 F 
ATOM     42  C30 UNL A   1      41.503  22.200  27.920  1.00  0.00    +0.000 C 
ATOM     43  F4  UNL A   1      41.998  21.129  28.557  1.00  0.00    +0.000 F 
ATOM     44  C31 UNL A   1      42.138  23.434  28.042  1.00  0.00    +0.000 C 
ATOM     45  F5  UNL A   1      43.231  23.521  28.815  1.00  0.00    +0.000 F 
ENDBRANCH   34   35
BRANCH   51   52
ATOM     52  C37 UNL A   1      47.881  27.504  25.217  1.00  0.00    +0.000 C 
ATOM     53  C38 UNL A   1      47.911  27.688  23.828  1.00  0.00    +0.000 C 
ATOM     54  F6  UNL A   1      46.838  28.176  23.187  1.00  0.00    +0.000 F 
ATOM     55  C39 UNL A   1      49.033  27.332  23.083  1.00  0.00    +0.000 C 
ATOM     56  F7  UNL A   1      49.022  27.469  21.750  1.00  0.00    +0.000 F 
ATOM     57  C40 UNL A   1      50.158  26.825  23.717  1.00  0.00    +0.000 C 
ATOM     58  F8  UNL A   1      51.241  26.496  23.000  1.00  0.00    +0.000 F 
ATOM     59  C41 UNL A   1      50.158  26.654  25.092  1.00  0.00    +0.000 C 
ATOM     60  F9  UNL A   1      51.250  26.182  25.709  1.00  0.00    +0.000 F 
ATOM     61  C42 UNL A   1      49.025  26.975  25.835  1.00  0.00    +0.000 C 
ATOM     62  F10 UNL A   1      49.052  26.787  27.163  1.00  0.00    +0.000 F 
ENDBRANCH   51   52
BRANCH   66   67
ATOM     67  C46 UNL A   1      46.181  33.401  28.528  1.00  0.00    +0.000 C 
ATOM     68  C47 UNL A   1      47.020  33.614  29.632  1.00  0.00    +0.000 C 
ATOM     69  F11 UNL A   1      47.198  32.638  30.534  1.00  0.00    +0.000 F 
ATOM     70  C48 UNL A   1      47.641  34.844  29.840  1.00  0.00    +0.000 C 
ATOM     71  F12 UNL A   1      48.392  35.035  30.932  1.00  0.00    +0.000 F 
ATOM     72  C49 UNL A   1      47.466  35.874  28.929  1.00  0.00    +0.000 C 
ATOM     73  F13 UNL A   1      48.064  37.057  29.128  1.00  0.00    +0.000 F 
ATOM     74  C50 UNL A   1      46.662  35.680  27.817  1.00  0.00    +0.000 C 
ATOM     75  F14 UNL A   1      46.502  36.667  26.925  1.00  0.00    +0.000 F 
ATOM     76  C51 UNL A   1      46.013  34.461  27.625  1.00  0.00    +0.000 C 
ATOM     77  F15 UNL A   1      45.228  34.309  26.549  1.00  0.00    +0.000 F 
ENDBRANCH   66   67
TORSDOF 22
ENDMDL
MODEL 3
REMARK VINA RESULT:      -8.8     65.096     70.655
ROOT
ATOM    129  H31 UNL A   1      15.236  46.931   0.703  1.00  0.00    +0.000 H 
ATOM    130  H32 UNL A   1      16.515  56.718   2.564  1.00  0.00    +0.000 H 
ATOM    131  H33 UNL A   1      15.255  56.457   4.777  1.00  0.00    +0.000 H 
ATOM     30  C22 UNL A   1      14.102  53.875   5.138  1.00  0.00    +0.000 C 
ATOM     31  C23 UNL A   1      15.020  54.326   4.035  1.00  0.00    +0.000 C 
ATOM     32  N3  UNL A   1      15.487  53.650   3.016  1.00  0.00    +0.000 N 
ATOM     33  C24 UNL A   1      16.245  54.553   2.281  1.00  0.00    +0.000 C 
ATOM     34  C25 UNL A   1      16.996  54.323   1.177  1.00  0.00    +0.000 C 
ATOM     46  C32 UNL A   1      17.130  53.037   0.545  1.00  0.00    +0.000 C 
ATOM     47  C33 UNL A   1      17.904  52.689  -0.548  1.00  0.00    +0.000 C 
ATOM     48  C34 UNL A   1      17.668  51.342  -0.840  1.00  0.00    +0.000 C 
ATOM     49  C35 UNL A   1      16.799  50.832   0.112  1.00  0.00    +0.000 C 
ATOM     50  N4  UNL A   1      16.470  51.886   0.951  1.00  0.00    +0.000 N 
ATOM     51  C36 UNL A   1      16.307  49.483   0.247  1.00  0.00    +0.000 C 
ATOM     63  C43 UNL A   1      15.452  49.062   1.210  1.00  0.00    +0.000 C 
ATOM     64  N5  UNL A   1      14.887  49.783   2.254  1.00  0.00    +0.000 N 
ATOM     65  C44 UNL A   1      14.127  48.937   2.907  1.00  0.00    +0.000 C 
ATOM     66  C45 UNL A   1      13.305  49.159   4.149  1.00  0.00    +0.000 C 
ATOM     78  C52 UNL A   1      13.313  50.374   4.732  1.00  0.00    +0.000 C 
ATOM     79  C53 UNL A   1      12.570  50.742   5.934  1.00  0.00    +0.000 C 
ATOM     80  C54 UNL A   1      12.764  52.045   6.186  1.00  0.00    +0.000 C 
ATOM     81  C55 UNL A   1      13.683  52.596   5.188  1.00  0.00    +0.000 C 
ATOM     82  N6  UNL A   1      13.965  51.528   4.373  1.00  0.00    +0.000 N 
ATOM     83  C56 UNL A   1      14.097  47.588   2.325  1.00  0.00    +0.000 C 
ATOM     84  C57 UNL A   1      14.956  47.707   1.324  1.00  0.00    +0.000 C 
ATOM     85  C58 UNL A   1      16.123  55.838   2.932  1.00  0.00    +0.000 C 
ATOM     86  C59 UNL A   1      15.441  55.736   4.062  1.00  0.00    +0.000 C 
ATOM    122  H24 UNL A   1      18.545  53.315  -1.059  1.00  0.00    +0.000 H 
ATOM    123  H25 UNL A   1      18.073  50.816  -1.630  1.00  0.00    +0.000 H 
ATOM    124  H26 UNL A   1      15.858  51.825   1.720  1.00  0.00    +0.000 H 
ATOM    125  H27 UNL A   1      11.990  50.102   6.499  1.00  0.00    +0.000 H 
ATOM    126  H28 UNL A   1      12.334  52.576   6.960  1.00  0.00    +0.000 H 
ATOM    127  H29 UNL A   1      14.577  51.584   3.603  1.00  0.00    +0.000 H 
ATOM    128  H30 UNL A   1      13.549  46.765   2.619  1.00  0.00    +0.000 H 
ENDROOT
BRANCH   30   29
ATOM    132  H34 UNL A   1      11.865  55.334   5.026  1.00  0.00    +0.000 H 
ATOM    133  H35 UNL A   1      11.096  57.047   6.558  1.00  0.00    +0.000 H 
ATOM    120  H22 UNL A   1      14.311  56.196   9.136  1.00  0.00    +0.000 H 
ATOM     87  C60 UNL A   1      12.401  55.537   5.883  1.00  0.00    +0.000 C 
ATOM     88  C61 UNL A   1      11.931  56.486   6.786  1.00  0.00    +0.000 C 
ATOM    121  H23 UNL A   1      15.223  54.670   7.480  1.00  0.00    +0.000 H 
ATOM     26  C18 UNL A   1      12.594  56.677   8.000  1.00  0.00    +0.000 C 
ATOM     27  C19 UNL A   1      13.801  56.022   8.255  1.00  0.00    +0.000 C 
ATOM     28  C20 UNL A   1      14.315  55.130   7.311  1.00  0.00    +0.000 C 
ATOM     29  C21 UNL A   1      13.602  54.856   6.133  1.00  0.00    +0.000 C 
BRANCH   26   24
ATOM     25  O6  UNL A   1      12.226  58.780   8.972  1.00  0.00    +0.000 O 
ATOM     24  C17 UNL A   1      12.033  57.570   9.034  1.00  0.00    +0.000 C 
BRANCH   24   23
ATOM    119  H21 UNL A   1      11.620  57.270  10.973  1.00  0.00    +0.000 H 
ATOM     23  N2  UNL A   1      11.306  57.037  10.069  1.00  0.00    +0.000 N 
BRANCH   23   22
ATOM    118  H20 UNL A   1       9.929  55.970   8.985  1.00  0.00    +0.000 H 
ATOM    117  H19 UNL A   1       9.318  56.677  10.486  1.00  0.00    +0.000 H 
ATOM     22  C16 UNL A   1      10.137  56.175  10.015  1.00  0.00    +0.000 C 
BRANCH   22   21
ATOM    115  H17 UNL A   1      10.361  55.021  11.775  1.00  0.00    +0.000 H 
ATOM    116  H18 UNL A   1       9.586  54.191  10.396  1.00  0.00    +0.000 H 
ATOM     21  C15 UNL A   1      10.368  54.845  10.719  1.00  0.00    +0.000 C 
BRANCH   21   20
ATOM    113  H15 UNL A   1      12.346  54.890   9.952  1.00  0.00    +0.000 H 
ATOM    114  H16 UNL A   1      12.044  53.712  11.269  1.00  0.00    +0.000 H 
ATOM     20  C14 UNL A   1      11.686  54.153  10.362  1.00  0.00    +0.000 C 
BRANCH   20   19
ATOM     19  C13 UNL A   1      11.573  53.006   9.352  1.00  0.00    +0.000 C 
ATOM    111  H13 UNL A   1      11.541  53.430   8.371  1.00  0.00    +0.000 H 
ATOM    112  H14 UNL A   1      12.423  52.378   9.517  1.00  0.00    +0.000 H 
BRANCH   19   18
ATOM     18  C12 UNL A   1      10.345  52.111   9.522  1.00  0.00    +0.000 C 
ATOM    109  H11 UNL A   1       9.767  52.489  10.340  1.00  0.00    +0.000 H 
ATOM    110  H12 UNL A   1       9.817  52.137   8.592  1.00  0.00    +0.000 H 
BRANCH   18   17
ATOM     17  C11 UNL A   1      10.664  50.650   9.800  1.00  0.00    +0.000 C 
ATOM    107  H9  UNL A   1       9.855  50.225  10.357  1.00  0.00    +0.000 H 
ATOM    108  H10 UNL A   1      10.796  50.169   8.853  1.00  0.00    +0.000 H 
BRANCH   17   16
ATOM    106  H8  UNL A   1      12.700  50.373  10.003  1.00  0.00    +0.000 H 
ATOM     16  N1  UNL A   1      11.886  50.466  10.551  1.00  0.00    +0.000 N 
BRANCH   16   14
ATOM     14  C10 UNL A   1      12.088  50.400  11.901  1.00  0.00    +0.000 C 
ATOM     15  O5  UNL A   1      11.888  49.309  12.435  1.00  0.00    +0.000 O 
BRANCH   14   13
ATOM      1  O1  UNL A   1      15.031  50.421  15.033  1.00  0.00    +0.000 O 
ATOM      2  C1  UNL A   1      14.080  50.903  14.442  1.00  0.00    +0.000 C 
ATOM      3  O2  UNL A   1      12.848  51.099  14.971  1.00  0.00    +0.000 O 
ATOM      4  C2  UNL A   1      11.995  51.788  14.040  1.00  0.00    +0.000 C 
ATOM     99  H1  UNL A   1      11.007  51.376  14.012  1.00  0.00    +0.000 H 
ATOM    105  H7  UNL A   1      12.457  52.435  12.004  1.00  0.00    +0.000 H 
ATOM     13  C9  UNL A   1      12.635  51.614  12.665  1.00  0.00    +0.000 C 
ATOM     89  C62 UNL A   1      14.059  51.394  13.053  1.00  0.00    +0.000 C 
BRANCH    4    5
ATOM    100  H2  UNL A   1      13.052  54.118  13.043  1.00  0.00    +0.000 H 
ATOM      5  C3  UNL A   1      11.751  53.240  14.464  1.00  0.00    +0.000 C 
ATOM      6  C4  UNL A   1      12.362  54.318  13.782  1.00  0.00    +0.000 C 
ATOM      7  C5  UNL A   1      12.057  55.651  14.082  1.00  0.00    +0.000 C 
ATOM    104  H6  UNL A   1      10.369  52.789  16.002  1.00  0.00    +0.000 H 
ATOM    101  H3  UNL A   1      12.502  56.421  13.559  1.00  0.00    +0.000 H 
ATOM     10  C7  UNL A   1      10.555  54.876  15.790  1.00  0.00    +0.000 C 
ATOM      8  C6  UNL A   1      11.148  55.921  15.091  1.00  0.00    +0.000 C 
ATOM     12  C8  UNL A   1      10.835  53.549  15.481  1.00  0.00    +0.000 C 
BRANCH    8    9
ATOM      9  O3  UNL A   1      10.802  57.199  15.428  1.00  0.00    +0.000 O 
ATOM    102  H4  UNL A   1      10.657  57.837  14.758  1.00  0.00    +0.000 H 
ENDBRANCH    8    9
BRANCH   10   11
ATOM     11  O4  UNL A   1       9.669  55.151  16.793  1.00  0.00    +0.000 O 
ATOM    103  H5  UNL A   1       9.117  54.472  17.129  1.00  0.00    +0.000 H 
ENDBRANCH   10   11
ENDBRANCH    4    5
BRANCH   89   90
ATOM     90  C63 UNL A   1      15.207  51.582  12.387  1.00  0.00    +0.000 C 
ATOM    134  H36 UNL A   1      16.007  51.980  12.905  1.00  0.00    +0.000 H 
BRANCH   90   91
ATOM     98  C69 UNL A   1      15.884  49.994  10.622  1.00  0.00    +0.000 C 
ATOM    135  H37 UNL A   1      14.813  53.151  10.235  1.00  0.00    +0.000 H 
ATOM    136  H38 UNL A   1      15.148  52.592   7.891  1.00  0.00    +0.000 H 
ATOM    139  H41 UNL A   1      16.086  49.291  11.351  1.00  0.00    +0.000 H 
ATOM     91  C64 UNL A   1      15.401  51.259  10.974  1.00  0.00    +0.000 C 
ATOM     92  C65 UNL A   1      15.148  52.211   9.973  1.00  0.00    +0.000 C 
ATOM     93  C66 UNL A   1      15.347  51.895   8.626  1.00  0.00    +0.000 C 
ATOM     94  C67 UNL A   1      15.815  50.631   8.290  1.00  0.00    +0.000 C 
ATOM     96  C68 UNL A   1      16.086  49.693   9.283  1.00  0.00    +0.000 C 
BRANCH   94   95
ATOM    137  H39 UNL A   1      15.956  49.364   6.740  1.00  0.00    +0.000 H 
ATOM     95  O7  UNL A   1      16.032  50.263   6.991  1.00  0.00    +0.000 O 
ENDBRANCH   94   95
BRANCH   96   97
ATOM     97  O8  UNL A   1      16.562  48.459   8.941  1.00  0.00    +0.000 O 
ATOM    138  H40 UNL A   1      16.175  47.689   9.310  1.00  0.00    +0.000 H 
ENDBRANCH   96   97
ENDBRANCH   90   91
ENDBRANCH   89   90
ENDBRANCH   14   13
ENDBRANCH   16   14
ENDBRANCH   17   16
ENDBRANCH   18   17
ENDBRANCH   19   18
ENDBRANCH   20   19
ENDBRANCH   21   20
ENDBRANCH   22   21
ENDBRANCH   23   22
ENDBRANCH   24   23
ENDBRANCH   26   24
ENDBRANCH   30   29
BRANCH   34   35
ATOM     35  C26 UNL A   1      17.728  55.491   0.578  1.00  0.00    +0.000 C 
ATOM     36  C27 UNL A   1      17.175  56.253  -0.464  1.00  0.00    +0.000 C 
ATOM     37  F1  UNL A   1      15.984  55.923  -0.985  1.00  0.00    +0.000 F 
ATOM     38  C28 UNL A   1      17.866  57.333  -1.009  1.00  0.00    +0.000 C 
ATOM     39  F2  UNL A   1      17.344  58.008  -2.041  1.00  0.00    +0.000 F 
ATOM     40  C29 UNL A   1      19.102  57.699  -0.495  1.00  0.00    +0.000 C 
ATOM     41  F3  UNL A   1      19.761  58.743  -1.015  1.00  0.00    +0.000 F 
ATOM     42  C30 UNL A   1      19.654  56.978   0.552  1.00  0.00    +0.000 C 
ATOM     43  F4  UNL A   1      20.841  57.339   1.060  1.00  0.00    +0.000 F 
ATOM     44  C31 UNL A   1      18.983  55.875   1.074  1.00  0.00    +0.000 C 
ATOM     45  F5  UNL A   1      19.556  55.186   2.073  1.00  0.00    +0.000 F 
ENDBRANCH   34   35
BRANCH   51   52
ATOM     52  C37 UNL A   1      16.807  48.460  -0.733  1.00  0.00    +0.000 C 
ATOM     53  C38 UNL A   1      18.021  47.785  -0.546  1.00  0.00    +0.000 C 
ATOM     54  F6  UNL A   1      18.806  48.084   0.500  1.00  0.00    +0.000 F 
ATOM     55  C39 UNL A   1      18.454  46.825  -1.458  1.00  0.00    +0.000 C 
ATOM     56  F7  UNL A   1      19.642  46.229  -1.287  1.00  0.00    +0.000 F 
ATOM     57  C40 UNL A   1      17.664  46.494  -2.549  1.00  0.00    +0.000 C 
ATOM     58  F8  UNL A   1      18.077  45.561  -3.418  1.00  0.00    +0.000 F 
ATOM     59  C41 UNL A   1      16.451  47.134  -2.743  1.00  0.00    +0.000 C 
ATOM     60  F9  UNL A   1      15.677  46.803  -3.785  1.00  0.00    +0.000 F 
ATOM     61  C42 UNL A   1      16.031  48.119  -1.853  1.00  0.00    +0.000 C 
ATOM     62  F10 UNL A   1      14.857  48.728  -2.074  1.00  0.00    +0.000 F 
ENDBRANCH   51   52
BRANCH   66   67
ATOM     67  C46 UNL A   1      12.510  48.052   4.744  1.00  0.00    +0.000 C 
ATOM     68  C47 UNL A   1      11.231  47.742   4.256  1.00  0.00    +0.000 C 
ATOM     69  F11 UNL A   1      10.711  48.451   3.245  1.00  0.00    +0.000 F 
ATOM     70  C48 UNL A   1      10.464  46.733   4.836  1.00  0.00    +0.000 C 
ATOM     71  F12 UNL A   1       9.226  46.495   4.385  1.00  0.00    +0.000 F 
ATOM     72  C49 UNL A   1      10.973  45.990   5.890  1.00  0.00    +0.000 C 
ATOM     73  F13 UNL A   1      10.236  45.019   6.446  1.00  0.00    +0.000 F 
ATOM     74  C50 UNL A   1      12.244  46.262   6.373  1.00  0.00    +0.000 C 
ATOM     75  F14 UNL A   1      12.747  45.537   7.381  1.00  0.00    +0.000 F 
ATOM     76  C51 UNL A   1      12.999  47.293   5.815  1.00  0.00    +0.000 C 
ATOM     77  F15 UNL A   1      14.218  47.543   6.316  1.00  0.00    +0.000 F 
ENDBRANCH   66   67
TORSDOF 22
ENDMDL
MODEL 4
REMARK VINA RESULT:      -8.8     64.884     70.765
ROOT
ATOM    129  H31 UNL A   1      15.217  47.096   0.558  1.00  0.00    +0.000 H 
ATOM    130  H32 UNL A   1      17.108  56.875   1.854  1.00  0.00    +0.000 H 
ATOM    131  H33 UNL A   1      15.838  56.821   4.075  1.00  0.00    +0.000 H 
ATOM     30  C22 UNL A   1      14.527  54.341   4.582  1.00  0.00    +0.000 C 
ATOM     31  C23 UNL A   1      15.468  54.670   3.457  1.00  0.00    +0.000 C 
ATOM     32  N3  UNL A   1      15.891  53.908   2.479  1.00  0.00    +0.000 N 
ATOM     33  C24 UNL A   1      16.703  54.718   1.695  1.00  0.00    +0.000 C 
ATOM     34  C25 UNL A   1      17.435  54.378   0.607  1.00  0.00    +0.000 C 
ATOM     46  C32 UNL A   1      17.488  53.052   0.051  1.00  0.00    +0.000 C 
ATOM     47  C33 UNL A   1      18.237  52.594  -1.018  1.00  0.00    +0.000 C 
ATOM     48  C34 UNL A   1      17.917  51.250  -1.232  1.00  0.00    +0.000 C 
ATOM     49  C35 UNL A   1      17.020  50.851  -0.255  1.00  0.00    +0.000 C 
ATOM     50  N4  UNL A   1      16.758  51.970   0.522  1.00  0.00    +0.000 N 
ATOM     51  C36 UNL A   1      16.445  49.546  -0.043  1.00  0.00    +0.000 C 
ATOM     63  C43 UNL A   1      15.566  49.235   0.942  1.00  0.00    +0.000 C 
ATOM     64  N5  UNL A   1      15.049  50.049   1.941  1.00  0.00    +0.000 N 
ATOM     65  C44 UNL A   1      14.240  49.291   2.640  1.00  0.00    +0.000 C 
ATOM     66  C45 UNL A   1      13.435  49.635   3.866  1.00  0.00    +0.000 C 
ATOM     78  C52 UNL A   1      13.520  50.878   4.378  1.00  0.00    +0.000 C 
ATOM     79  C53 UNL A   1      12.804  51.361   5.555  1.00  0.00    +0.000 C 
ATOM     80  C54 UNL A   1      13.079  52.662   5.732  1.00  0.00    +0.000 C 
ATOM     81  C55 UNL A   1      14.029  53.096   4.706  1.00  0.00    +0.000 C 
ATOM     82  N6  UNL A   1      14.242  51.967   3.954  1.00  0.00    +0.000 N 
ATOM     83  C56 UNL A   1      14.123  47.915   2.137  1.00  0.00    +0.000 C 
ATOM     84  C57 UNL A   1      14.987  47.922   1.132  1.00  0.00    +0.000 C 
ATOM     85  C58 UNL A   1      16.662  56.043   2.271  1.00  0.00    +0.000 C 
ATOM     86  C59 UNL A   1      15.977  56.050   3.404  1.00  0.00    +0.000 C 
ATOM    122  H24 UNL A   1      18.915  53.148  -1.564  1.00  0.00    +0.000 H 
ATOM    123  H25 UNL A   1      18.286  50.655  -1.990  1.00  0.00    +0.000 H 
ATOM    124  H26 UNL A   1      16.145  51.992   1.292  1.00  0.00    +0.000 H 
ATOM    125  H27 UNL A   1      12.185  50.793   6.155  1.00  0.00    +0.000 H 
ATOM    126  H28 UNL A   1      12.684  53.262   6.473  1.00  0.00    +0.000 H 
ATOM    127  H29 UNL A   1      14.855  51.941   3.184  1.00  0.00    +0.000 H 
ATOM    128  H30 UNL A   1      13.526  47.146   2.477  1.00  0.00    +0.000 H 
ENDROOT
BRANCH   30   29
ATOM    132  H34 UNL A   1      12.198  55.655   4.607  1.00  0.00    +0.000 H 
ATOM    133  H35 UNL A   1      11.515  57.498   6.025  1.00  0.00    +0.000 H 
ATOM    120  H22 UNL A   1      15.080  57.136   8.229  1.00  0.00    +0.000 H 
ATOM     87  C60 UNL A   1      12.824  55.989   5.356  1.00  0.00    +0.000 C 
ATOM     88  C61 UNL A   1      12.408  57.014   6.200  1.00  0.00    +0.000 C 
ATOM    121  H23 UNL A   1      15.878  55.472   6.649  1.00  0.00    +0.000 H 
ATOM     26  C18 UNL A   1      13.205  57.385   7.286  1.00  0.00    +0.000 C 
ATOM     27  C19 UNL A   1      14.476  56.830   7.449  1.00  0.00    +0.000 C 
ATOM     28  C20 UNL A   1      14.927  55.859   6.552  1.00  0.00    +0.000 C 
ATOM     29  C21 UNL A   1      14.091  55.407   5.518  1.00  0.00    +0.000 C 
BRANCH   26   24
ATOM     25  O6  UNL A   1      13.456  59.267   8.664  1.00  0.00    +0.000 O 
ATOM     24  C17 UNL A   1      12.719  58.365   8.278  1.00  0.00    +0.000 C 
BRANCH   24   23
ATOM    119  H21 UNL A   1      10.773  57.902   8.144  1.00  0.00    +0.000 H 
ATOM     23  N2  UNL A   1      11.444  58.253   8.774  1.00  0.00    +0.000 N 
BRANCH   23   22
ATOM    118  H20 UNL A   1      10.316  59.440  10.010  1.00  0.00    +0.000 H 
ATOM    117  H19 UNL A   1      11.782  58.775  10.741  1.00  0.00    +0.000 H 
ATOM     22  C16 UNL A   1      10.948  58.581  10.100  1.00  0.00    +0.000 C 
BRANCH   22   21
ATOM    115  H17 UNL A   1       9.429  57.881  11.398  1.00  0.00    +0.000 H 
ATOM    116  H18 UNL A   1       9.636  56.962   9.881  1.00  0.00    +0.000 H 
ATOM     21  C15 UNL A   1      10.118  57.453  10.700  1.00  0.00    +0.000 C 
BRANCH   21   20
ATOM    113  H15 UNL A   1      11.853  56.822  11.745  1.00  0.00    +0.000 H 
ATOM    114  H16 UNL A   1      10.317  56.044  12.238  1.00  0.00    +0.000 H 
ATOM     20  C14 UNL A   1      10.931  56.380  11.429  1.00  0.00    +0.000 C 
BRANCH   20   19
ATOM     19  C13 UNL A   1      11.262  55.132  10.604  1.00  0.00    +0.000 C 
ATOM    111  H13 UNL A   1      11.018  54.272  11.191  1.00  0.00    +0.000 H 
ATOM    112  H14 UNL A   1      10.689  55.210   9.703  1.00  0.00    +0.000 H 
BRANCH   19   18
ATOM     18  C12 UNL A   1      12.723  55.011  10.170  1.00  0.00    +0.000 C 
ATOM    109  H11 UNL A   1      13.019  55.941   9.731  1.00  0.00    +0.000 H 
ATOM    110  H12 UNL A   1      13.283  54.767  11.047  1.00  0.00    +0.000 H 
BRANCH   18   17
ATOM     17  C11 UNL A   1      12.990  53.904   9.162  1.00  0.00    +0.000 C 
ATOM    107  H9  UNL A   1      12.437  53.035   9.455  1.00  0.00    +0.000 H 
ATOM    108  H10 UNL A   1      12.686  54.268   8.202  1.00  0.00    +0.000 H 
BRANCH   17   16
ATOM    106  H8  UNL A   1      15.018  54.281   9.247  1.00  0.00    +0.000 H 
ATOM     16  N1  UNL A   1      14.387  53.547   9.063  1.00  0.00    +0.000 N 
BRANCH   16   14
ATOM     14  C10 UNL A   1      14.971  52.349   8.755  1.00  0.00    +0.000 C 
ATOM     15  O5  UNL A   1      15.816  52.363   7.859  1.00  0.00    +0.000 O 
BRANCH   14   13
ATOM      1  O1  UNL A   1      17.734  49.633  10.613  1.00  0.00    +0.000 O 
ATOM      2  C1  UNL A   1      16.651  49.904  10.122  1.00  0.00    +0.000 C 
ATOM      3  O2  UNL A   1      16.136  49.338   9.004  1.00  0.00    +0.000 O 
ATOM      4  C2  UNL A   1      14.797  49.805   8.766  1.00  0.00    +0.000 C 
ATOM     99  H1  UNL A   1      14.620  50.023   7.733  1.00  0.00    +0.000 H 
ATOM    105  H7  UNL A   1      13.645  51.263   9.917  1.00  0.00    +0.000 H 
ATOM     13  C9  UNL A   1      14.643  51.091   9.571  1.00  0.00    +0.000 C 
ATOM     89  C62 UNL A   1      15.666  50.872  10.634  1.00  0.00    +0.000 C 
BRANCH    4    5
ATOM    100  H2  UNL A   1      15.142  47.228   9.650  1.00  0.00    +0.000 H 
ATOM      5  C3  UNL A   1      13.757  48.720   9.070  1.00  0.00    +0.000 C 
ATOM      6  C4  UNL A   1      14.139  47.454   9.571  1.00  0.00    +0.000 C 
ATOM      7  C5  UNL A   1      13.196  46.498   9.964  1.00  0.00    +0.000 C 
ATOM    104  H6  UNL A   1      12.065  49.898   8.590  1.00  0.00    +0.000 H 
ATOM    101  H3  UNL A   1      13.499  45.588  10.343  1.00  0.00    +0.000 H 
ATOM     10  C7  UNL A   1      11.451  48.021   9.322  1.00  0.00    +0.000 C 
ATOM      8  C6  UNL A   1      11.849  46.792   9.836  1.00  0.00    +0.000 C 
ATOM     12  C8  UNL A   1      12.384  48.985   8.952  1.00  0.00    +0.000 C 
BRANCH    8    9
ATOM      9  O3  UNL A   1      10.878  45.906  10.207  1.00  0.00    +0.000 O 
ATOM    102  H4  UNL A   1      10.767  45.106   9.732  1.00  0.00    +0.000 H 
ENDBRANCH    8    9
BRANCH   10   11
ATOM     11  O4  UNL A   1      10.121  48.299   9.186  1.00  0.00    +0.000 O 
ATOM    103  H5  UNL A   1       9.491  47.841   9.709  1.00  0.00    +0.000 H 
ENDBRANCH   10   11
ENDBRANCH    4    5
BRANCH   89   90
ATOM     90  C63 UNL A   1      15.790  51.368  11.874  1.00  0.00    +0.000 C 
ATOM    134  H36 UNL A   1      16.740  51.444  12.271  1.00  0.00    +0.000 H 
BRANCH   90   91
ATOM     98  C69 UNL A   1      13.928  50.863  13.415  1.00  0.00    +0.000 C 
ATOM    135  H37 UNL A   1      14.830  53.862  12.206  1.00  0.00    +0.000 H 
ATOM    136  H38 UNL A   1      12.955  54.575  13.583  1.00  0.00    +0.000 H 
ATOM    139  H41 UNL A   1      14.183  49.863  13.372  1.00  0.00    +0.000 H 
ATOM     91  C64 UNL A   1      14.667  51.811  12.699  1.00  0.00    +0.000 C 
ATOM     92  C65 UNL A   1      14.298  53.165  12.751  1.00  0.00    +0.000 C 
ATOM     93  C66 UNL A   1      13.217  53.577  13.535  1.00  0.00    +0.000 C 
ATOM     94  C67 UNL A   1      12.499  52.626  14.250  1.00  0.00    +0.000 C 
ATOM     96  C68 UNL A   1      12.851  51.280  14.183  1.00  0.00    +0.000 C 
BRANCH   94   95
ATOM    137  H39 UNL A   1      10.559  52.865  14.704  1.00  0.00    +0.000 H 
ATOM     95  O7  UNL A   1      11.430  52.965  15.033  1.00  0.00    +0.000 O 
ENDBRANCH   94   95
BRANCH   96   97
ATOM     97  O8  UNL A   1      12.128  50.352  14.877  1.00  0.00    +0.000 O 
ATOM    138  H40 UNL A   1      12.246  49.439  14.701  1.00  0.00    +0.000 H 
ENDBRANCH   96   97
ENDBRANCH   90   91
ENDBRANCH   89   90
ENDBRANCH   14   13
ENDBRANCH   16   14
ENDBRANCH   17   16
ENDBRANCH   18   17
ENDBRANCH   19   18
ENDBRANCH   20   19
ENDBRANCH   21   20
ENDBRANCH   22   21
ENDBRANCH   23   22
ENDBRANCH   24   23
ENDBRANCH   26   24
ENDBRANCH   30   29
BRANCH   34   35
ATOM     35  C26 UNL A   1      18.238  55.461  -0.056  1.00  0.00    +0.000 C 
ATOM     36  C27 UNL A   1      17.788  56.105  -1.220  1.00  0.00    +0.000 C 
ATOM     37  F1  UNL A   1      16.637  55.732  -1.798  1.00  0.00    +0.000 F 
ATOM     38  C28 UNL A   1      18.544  57.108  -1.824  1.00  0.00    +0.000 C 
ATOM     39  F2  UNL A   1      18.122  57.667  -2.966  1.00  0.00    +0.000 F 
ATOM     40  C29 UNL A   1      19.740  57.517  -1.254  1.00  0.00    +0.000 C 
ATOM     41  F3  UNL A   1      20.462  58.487  -1.831  1.00  0.00    +0.000 F 
ATOM     42  C30 UNL A   1      20.191  56.914  -0.089  1.00  0.00    +0.000 C 
ATOM     43  F4  UNL A   1      21.339  57.317   0.472  1.00  0.00    +0.000 F 
ATOM     44  C31 UNL A   1      19.456  55.886   0.496  1.00  0.00    +0.000 C 
ATOM     45  F5  UNL A   1      19.931  55.309   1.610  1.00  0.00    +0.000 F 
ENDBRANCH   34   35
BRANCH   51   52
ATOM     52  C37 UNL A   1      16.878  48.438  -0.961  1.00  0.00    +0.000 C 
ATOM     53  C38 UNL A   1      16.150  48.102  -2.112  1.00  0.00    +0.000 C 
ATOM     54  F6  UNL A   1      15.000  48.733  -2.392  1.00  0.00    +0.000 F 
ATOM     55  C39 UNL A   1      16.582  47.085  -2.960  1.00  0.00    +0.000 C 
ATOM     56  F7  UNL A   1      15.844  46.746  -4.026  1.00  0.00    +0.000 F 
ATOM     57  C40 UNL A   1      17.767  46.415  -2.697  1.00  0.00    +0.000 C 
ATOM     58  F8  UNL A   1      18.187  45.445  -3.521  1.00  0.00    +0.000 F 
ATOM     59  C41 UNL A   1      18.514  46.744  -1.576  1.00  0.00    +0.000 C 
ATOM     60  F9  UNL A   1      19.669  46.111  -1.330  1.00  0.00    +0.000 F 
ATOM     61  C42 UNL A   1      18.067  47.736  -0.707  1.00  0.00    +0.000 C 
ATOM     62  F10 UNL A   1      18.805  48.024   0.375  1.00  0.00    +0.000 F 
ENDBRANCH   51   52
BRANCH   66   67
ATOM     67  C46 UNL A   1      12.573  48.616   4.522  1.00  0.00    +0.000 C 
ATOM     68  C47 UNL A   1      13.110  47.704   5.443  1.00  0.00    +0.000 C 
ATOM     69  F11 UNL A   1      14.418  47.741   5.735  1.00  0.00    +0.000 F 
ATOM     70  C48 UNL A   1      12.316  46.720   6.029  1.00  0.00    +0.000 C 
ATOM     71  F12 UNL A   1      12.867  45.828   6.862  1.00  0.00    +0.000 F 
ATOM     72  C49 UNL A   1      10.963  46.652   5.736  1.00  0.00    +0.000 C 
ATOM     73  F13 UNL A   1      10.199  45.707   6.302  1.00  0.00    +0.000 F 
ATOM     74  C50 UNL A   1      10.404  47.558   4.849  1.00  0.00    +0.000 C 
ATOM     75  F14 UNL A   1       9.094  47.507   4.574  1.00  0.00    +0.000 F 
ATOM     76  C51 UNL A   1      11.204  48.522   4.236  1.00  0.00    +0.000 C 
ATOM     77  F15 UNL A   1      10.638  49.373   3.369  1.00  0.00    +0.000 F 
ENDBRANCH   66   67
TORSDOF 22
ENDMDL
MODEL 5
REMARK VINA RESULT:      -8.7     64.693     70.526
ROOT
ATOM    129  H31 UNL A   1      17.132  57.038   1.776  1.00  0.00    +0.000 H 
ATOM    130  H32 UNL A   1      15.149  47.264   0.577  1.00  0.00    +0.000 H 
ATOM    131  H33 UNL A   1      13.176  47.472   2.195  1.00  0.00    +0.000 H 
ATOM     30  C22 UNL A   1      12.996  50.021   3.457  1.00  0.00    +0.000 C 
ATOM     31  C23 UNL A   1      13.933  49.604   2.357  1.00  0.00    +0.000 C 
ATOM     32  N3  UNL A   1      14.855  50.302   1.743  1.00  0.00    +0.000 N 
ATOM     33  C24 UNL A   1      15.459  49.426   0.850  1.00  0.00    +0.000 C 
ATOM     34  C25 UNL A   1      16.421  49.685  -0.068  1.00  0.00    +0.000 C 
ATOM     46  C32 UNL A   1      17.012  50.981  -0.272  1.00  0.00    +0.000 C 
ATOM     47  C33 UNL A   1      17.958  51.360  -1.209  1.00  0.00    +0.000 C 
ATOM     48  C34 UNL A   1      18.276  52.704  -0.991  1.00  0.00    +0.000 C 
ATOM     49  C35 UNL A   1      17.480  53.182   0.037  1.00  0.00    +0.000 C 
ATOM     50  N4  UNL A   1      16.715  52.112   0.475  1.00  0.00    +0.000 N 
ATOM     51  C36 UNL A   1      17.420  54.517   0.579  1.00  0.00    +0.000 C 
ATOM     63  C43 UNL A   1      16.610  54.907   1.594  1.00  0.00    +0.000 C 
ATOM     64  N5  UNL A   1      15.681  54.161   2.307  1.00  0.00    +0.000 N 
ATOM     65  C44 UNL A   1      15.158  54.982   3.186  1.00  0.00    +0.000 C 
ATOM     66  C45 UNL A   1      14.072  54.727   4.198  1.00  0.00    +0.000 C 
ATOM     78  C52 UNL A   1      13.505  53.506   4.257  1.00  0.00    +0.000 C 
ATOM     79  C53 UNL A   1      12.447  53.108   5.180  1.00  0.00    +0.000 C 
ATOM     80  C54 UNL A   1      12.174  51.806   4.997  1.00  0.00    +0.000 C 
ATOM     81  C55 UNL A   1      13.008  51.289   3.911  1.00  0.00    +0.000 C 
ATOM     82  N6  UNL A   1      13.758  52.372   3.525  1.00  0.00    +0.000 N 
ATOM     83  C56 UNL A   1      15.728  56.336   3.153  1.00  0.00    +0.000 C 
ATOM     84  C57 UNL A   1      16.573  56.249   2.136  1.00  0.00    +0.000 C 
ATOM     85  C58 UNL A   1      14.846  48.132   1.047  1.00  0.00    +0.000 C 
ATOM     86  C59 UNL A   1      13.845  48.205   1.911  1.00  0.00    +0.000 C 
ATOM    122  H24 UNL A   1      18.359  50.755  -1.942  1.00  0.00    +0.000 H 
ATOM    123  H25 UNL A   1      18.984  53.247  -1.508  1.00  0.00    +0.000 H 
ATOM    124  H26 UNL A   1      16.058  52.149   1.208  1.00  0.00    +0.000 H 
ATOM    125  H27 UNL A   1      11.982  53.727   5.863  1.00  0.00    +0.000 H 
ATOM    126  H28 UNL A   1      11.487  51.257   5.537  1.00  0.00    +0.000 H 
ATOM    127  H29 UNL A   1      14.414  52.339   2.792  1.00  0.00    +0.000 H 
ATOM    128  H30 UNL A   1      15.524  57.142   3.763  1.00  0.00    +0.000 H 
ENDROOT
BRANCH   30   29
ATOM    132  H34 UNL A   1      10.466  49.435   2.822  1.00  0.00    +0.000 H 
ATOM    133  H35 UNL A   1       8.942  47.911   3.929  1.00  0.00    +0.000 H 
ATOM    120  H22 UNL A   1      12.039  46.654   6.484  1.00  0.00    +0.000 H 
ATOM     87  C60 UNL A   1      10.793  48.867   3.619  1.00  0.00    +0.000 C 
ATOM     88  C61 UNL A   1       9.930  47.957   4.221  1.00  0.00    +0.000 C 
ATOM    121  H23 UNL A   1      13.490  48.365   5.553  1.00  0.00    +0.000 H 
ATOM     26  C18 UNL A   1      10.406  47.106   5.221  1.00  0.00    +0.000 C 
ATOM     27  C19 UNL A   1      11.703  47.256   5.716  1.00  0.00    +0.000 C 
ATOM     28  C20 UNL A   1      12.543  48.227   5.167  1.00  0.00    +0.000 C 
ATOM     29  C21 UNL A   1      12.105  49.017   4.091  1.00  0.00    +0.000 C 
BRANCH   26   24
ATOM     25  O6  UNL A   1       8.682  45.522   5.072  1.00  0.00    +0.000 O 
ATOM     24  C17 UNL A   1       9.550  46.034   5.771  1.00  0.00    +0.000 C 
BRANCH   24   23
ATOM    119  H21 UNL A   1      10.061  44.708   7.185  1.00  0.00    +0.000 H 
ATOM     23  N2  UNL A   1       9.725  45.626   7.070  1.00  0.00    +0.000 N 
BRANCH   23   22
ATOM    118  H20 UNL A   1      10.384  46.880   8.555  1.00  0.00    +0.000 H 
ATOM    117  H19 UNL A   1       9.197  45.673   9.064  1.00  0.00    +0.000 H 
ATOM     22  C16 UNL A   1       9.482  46.364   8.299  1.00  0.00    +0.000 C 
BRANCH   22   21
ATOM    115  H17 UNL A   1       8.227  47.568   7.092  1.00  0.00    +0.000 H 
ATOM    116  H18 UNL A   1       7.517  47.007   8.633  1.00  0.00    +0.000 H 
ATOM     21  C15 UNL A   1       8.379  47.403   8.139  1.00  0.00    +0.000 C 
BRANCH   21   20
ATOM    113  H15 UNL A   1       9.002  49.428   8.033  1.00  0.00    +0.000 H 
ATOM    114  H16 UNL A   1       7.763  49.054   9.273  1.00  0.00    +0.000 H 
ATOM     20  C14 UNL A   1       8.673  48.753   8.797  1.00  0.00    +0.000 C 
BRANCH   20   19
ATOM     19  C13 UNL A   1       9.738  48.730   9.897  1.00  0.00    +0.000 C 
ATOM    111  H13 UNL A   1       9.286  48.351  10.789  1.00  0.00    +0.000 H 
ATOM    112  H14 UNL A   1      10.534  48.117   9.529  1.00  0.00    +0.000 H 
BRANCH   19   18
ATOM     18  C12 UNL A   1      10.364  50.087  10.223  1.00  0.00    +0.000 C 
ATOM    109  H11 UNL A   1       9.675  50.634  10.833  1.00  0.00    +0.000 H 
ATOM    110  H12 UNL A   1      11.289  49.885  10.719  1.00  0.00    +0.000 H 
BRANCH   18   17
ATOM     17  C11 UNL A   1      10.698  50.934   9.006  1.00  0.00    +0.000 C 
ATOM    107  H9  UNL A   1      11.233  50.327   8.305  1.00  0.00    +0.000 H 
ATOM    108  H10 UNL A   1       9.773  51.292   8.603  1.00  0.00    +0.000 H 
BRANCH   17   16
ATOM    106  H8  UNL A   1      11.044  52.793   9.835  1.00  0.00    +0.000 H 
ATOM     16  N1  UNL A   1      11.506  52.092   9.321  1.00  0.00    +0.000 N 
BRANCH   16   14
ATOM     14  C10 UNL A   1      12.811  52.365   9.016  1.00  0.00    +0.000 C 
ATOM     15  O5  UNL A   1      13.158  53.544   9.091  1.00  0.00    +0.000 O 
BRANCH   14   13
ATOM      1  O1  UNL A   1      16.568  51.529  10.926  1.00  0.00    +0.000 O 
ATOM      2  C1  UNL A   1      15.802  51.473   9.979  1.00  0.00    +0.000 C 
ATOM      3  O2  UNL A   1      16.021  52.027   8.762  1.00  0.00    +0.000 O 
ATOM      4  C2  UNL A   1      14.970  51.678   7.845  1.00  0.00    +0.000 C 
ATOM     99  H1  UNL A   1      14.661  52.510   7.246  1.00  0.00    +0.000 H 
ATOM    105  H7  UNL A   1      13.178  50.486   8.228  1.00  0.00    +0.000 H 
ATOM     13  C9  UNL A   1      13.789  51.226   8.699  1.00  0.00    +0.000 C 
ATOM     89  C62 UNL A   1      14.501  50.785   9.935  1.00  0.00    +0.000 C 
BRANCH    4    5
ATOM    100  H2  UNL A   1      16.325  52.068   5.489  1.00  0.00    +0.000 H 
ATOM      5  C3  UNL A   1      15.444  50.660   6.802  1.00  0.00    +0.000 C 
ATOM      6  C4  UNL A   1      16.181  51.062   5.663  1.00  0.00    +0.000 C 
ATOM      7  C5  UNL A   1      16.721  50.134   4.766  1.00  0.00    +0.000 C 
ATOM    104  H6  UNL A   1      14.713  48.951   7.815  1.00  0.00    +0.000 H 
ATOM    101  H3  UNL A   1      17.270  50.450   3.952  1.00  0.00    +0.000 H 
ATOM     10  C7  UNL A   1      15.765  48.368   6.087  1.00  0.00    +0.000 C 
ATOM      8  C6  UNL A   1      16.508  48.783   4.987  1.00  0.00    +0.000 C 
ATOM     12  C8  UNL A   1      15.246  49.284   6.996  1.00  0.00    +0.000 C 
BRANCH    8    9
ATOM      9  O3  UNL A   1      17.013  47.827   4.154  1.00  0.00    +0.000 O 
ATOM    102  H4  UNL A   1      17.683  47.247   4.457  1.00  0.00    +0.000 H 
ENDBRANCH    8    9
BRANCH   10   11
ATOM     11  O4  UNL A   1      15.547  47.035   6.291  1.00  0.00    +0.000 O 
ATOM    103  H5  UNL A   1      14.993  46.753   6.993  1.00  0.00    +0.000 H 
ENDBRANCH   10   11
ENDBRANCH    4    5
BRANCH   89   90
ATOM     90  C63 UNL A   1      14.161  49.920  10.902  1.00  0.00    +0.000 C 
ATOM    134  H36 UNL A   1      14.298  50.215  11.882  1.00  0.00    +0.000 H 
BRANCH   90   91
ATOM     98  C69 UNL A   1      12.986  47.905  11.710  1.00  0.00    +0.000 C 
ATOM    135  H37 UNL A   1      14.208  48.469   8.635  1.00  0.00    +0.000 H 
ATOM    136  H38 UNL A   1      13.285  46.250   8.257  1.00  0.00    +0.000 H 
ATOM    139  H41 UNL A   1      12.904  48.343  12.641  1.00  0.00    +0.000 H 
ATOM     91  C64 UNL A   1      13.609  48.588  10.660  1.00  0.00    +0.000 C 
ATOM     92  C65 UNL A   1      13.730  47.974   9.404  1.00  0.00    +0.000 C 
ATOM     93  C66 UNL A   1      13.208  46.695   9.185  1.00  0.00    +0.000 C 
ATOM     94  C67 UNL A   1      12.581  46.033  10.234  1.00  0.00    +0.000 C 
ATOM     96  C68 UNL A   1      12.478  46.634  11.486  1.00  0.00    +0.000 C 
BRANCH   94   95
ATOM    137  H39 UNL A   1      12.184  44.310   9.284  1.00  0.00    +0.000 H 
ATOM     95  O7  UNL A   1      12.053  44.781  10.084  1.00  0.00    +0.000 O 
ENDBRANCH   94   95
BRANCH   96   97
ATOM     97  O8  UNL A   1      11.876  45.966  12.513  1.00  0.00    +0.000 O 
ATOM    138  H40 UNL A   1      12.358  45.773  13.293  1.00  0.00    +0.000 H 
ENDBRANCH   96   97
ENDBRANCH   90   91
ENDBRANCH   89   90
ENDBRANCH   14   13
ENDBRANCH   16   14
ENDBRANCH   17   16
ENDBRANCH   18   17
ENDBRANCH   19   18
ENDBRANCH   20   19
ENDBRANCH   21   20
ENDBRANCH   22   21
ENDBRANCH   23   22
ENDBRANCH   24   23
ENDBRANCH   26   24
ENDBRANCH   30   29
BRANCH   34   35
ATOM     35  C26 UNL A   1      16.896  48.542  -0.919  1.00  0.00    +0.000 C 
ATOM     36  C27 UNL A   1      18.058  47.819  -0.602  1.00  0.00    +0.000 C 
ATOM     37  F1  UNL A   1      18.802  48.167   0.458  1.00  0.00    +0.000 F 
ATOM     38  C28 UNL A   1      18.486  46.762  -1.401  1.00  0.00    +0.000 C 
ATOM     39  F2  UNL A   1      19.628  46.125  -1.112  1.00  0.00    +0.000 F 
ATOM     40  C29 UNL A   1      17.740  46.378  -2.506  1.00  0.00    +0.000 C 
ATOM     41  F3  UNL A   1      18.149  45.356  -3.269  1.00  0.00    +0.000 F 
ATOM     42  C30 UNL A   1      16.575  47.060  -2.823  1.00  0.00    +0.000 C 
ATOM     43  F4  UNL A   1      15.845  46.682  -3.881  1.00  0.00    +0.000 F 
ATOM     44  C31 UNL A   1      16.164  48.141  -2.047  1.00  0.00    +0.000 C 
ATOM     45  F5  UNL A   1      15.044  48.793  -2.393  1.00  0.00    +0.000 F 
ENDBRANCH   34   35
BRANCH   51   52
ATOM     52  C37 UNL A   1      18.296  55.562  -0.051  1.00  0.00    +0.000 C 
ATOM     53  C38 UNL A   1      17.920  56.239  -1.220  1.00  0.00    +0.000 C 
ATOM     54  F6  UNL A   1      16.776  55.921  -1.846  1.00  0.00    +0.000 F 
ATOM     55  C39 UNL A   1      18.739  57.220  -1.775  1.00  0.00    +0.000 C 
ATOM     56  F7  UNL A   1      18.384  57.817  -2.920  1.00  0.00    +0.000 F 
ATOM     57  C40 UNL A   1      19.927  57.570  -1.150  1.00  0.00    +0.000 C 
ATOM     58  F8  UNL A   1      20.707  58.522  -1.679  1.00  0.00    +0.000 F 
ATOM     59  C41 UNL A   1      20.309  56.929   0.017  1.00  0.00    +0.000 C 
ATOM     60  F9  UNL A   1      21.447  57.278   0.633  1.00  0.00    +0.000 F 
ATOM     61  C42 UNL A   1      19.510  55.924   0.555  1.00  0.00    +0.000 C 
ATOM     62  F10 UNL A   1      19.913  55.314   1.680  1.00  0.00    +0.000 F 
ENDBRANCH   51   52
BRANCH   66   67
ATOM     67  C46 UNL A   1      13.612  55.808   5.110  1.00  0.00    +0.000 C 
ATOM     68  C47 UNL A   1      12.714  56.790   4.665  1.00  0.00    +0.000 C 
ATOM     69  F11 UNL A   1      12.265  56.764   3.403  1.00  0.00    +0.000 F 
ATOM     70  C48 UNL A   1      12.311  57.829   5.502  1.00  0.00    +0.000 C 
ATOM     71  F12 UNL A   1      11.496  58.783   5.034  1.00  0.00    +0.000 F 
ATOM     72  C49 UNL A   1      12.768  57.887   6.810  1.00  0.00    +0.000 C 
ATOM     73  F13 UNL A   1      12.379  58.886   7.614  1.00  0.00    +0.000 F 
ATOM     74  C50 UNL A   1      13.636  56.914   7.279  1.00  0.00    +0.000 C 
ATOM     75  F14 UNL A   1      14.068  56.956   8.546  1.00  0.00    +0.000 F 
ATOM     76  C51 UNL A   1      14.067  55.892   6.433  1.00  0.00    +0.000 C 
ATOM     77  F15 UNL A   1      14.920  54.976   6.911  1.00  0.00    +0.000 F 
ENDBRANCH   66   67
TORSDOF 22
ENDMDL
MODEL 6
REMARK VINA RESULT:      -8.7     64.422     69.763
ROOT
ATOM    129  H31 UNL A   1      17.558  50.754  -0.935  1.00  0.00    +0.000 H 
ATOM    130  H32 UNL A   1      11.320  49.577   6.850  1.00  0.00    +0.000 H 
ATOM    131  H33 UNL A   1      11.449  52.089   7.325  1.00  0.00    +0.000 H 
ATOM     30  C22 UNL A   1      13.355  53.462   5.711  1.00  0.00    +0.000 C 
ATOM     31  C23 UNL A   1      12.921  52.027   5.600  1.00  0.00    +0.000 C 
ATOM     32  N3  UNL A   1      13.309  51.105   4.756  1.00  0.00    +0.000 N 
ATOM     33  C24 UNL A   1      12.634  49.948   5.123  1.00  0.00    +0.000 C 
ATOM     34  C25 UNL A   1      12.638  48.738   4.515  1.00  0.00    +0.000 C 
ATOM     46  C32 UNL A   1      13.393  48.435   3.327  1.00  0.00    +0.000 C 
ATOM     47  C33 UNL A   1      13.427  47.255   2.604  1.00  0.00    +0.000 C 
ATOM     48  C34 UNL A   1      14.347  47.407   1.563  1.00  0.00    +0.000 C 
ATOM     49  C35 UNL A   1      14.837  48.703   1.595  1.00  0.00    +0.000 C 
ATOM     50  N4  UNL A   1      14.249  49.320   2.688  1.00  0.00    +0.000 N 
ATOM     51  C36 UNL A   1      15.770  49.332   0.694  1.00  0.00    +0.000 C 
ATOM     63  C43 UNL A   1      16.204  50.612   0.795  1.00  0.00    +0.000 C 
ATOM     64  N5  UNL A   1      15.860  51.580   1.729  1.00  0.00    +0.000 N 
ATOM     65  C44 UNL A   1      16.547  52.650   1.409  1.00  0.00    +0.000 C 
ATOM     66  C45 UNL A   1      16.542  54.013   2.051  1.00  0.00    +0.000 C 
ATOM     78  C52 UNL A   1      15.731  54.238   3.103  1.00  0.00    +0.000 C 
ATOM     79  C53 UNL A   1      15.615  55.499   3.829  1.00  0.00    +0.000 C 
ATOM     80  C54 UNL A   1      14.764  55.337   4.854  1.00  0.00    +0.000 C 
ATOM     81  C55 UNL A   1      14.237  53.972   4.830  1.00  0.00    +0.000 C 
ATOM     82  N6  UNL A   1      14.859  53.396   3.750  1.00  0.00    +0.000 N 
ATOM     83  C56 UNL A   1      17.436  52.467   0.253  1.00  0.00    +0.000 C 
ATOM     84  C57 UNL A   1      17.153  51.225  -0.111  1.00  0.00    +0.000 C 
ATOM     85  C58 UNL A   1      11.863  50.265   6.304  1.00  0.00    +0.000 C 
ATOM     86  C59 UNL A   1      11.944  51.555   6.594  1.00  0.00    +0.000 C 
ATOM    122  H24 UNL A   1      12.869  46.409   2.801  1.00  0.00    +0.000 H 
ATOM    123  H25 UNL A   1      14.617  46.677   0.886  1.00  0.00    +0.000 H 
ATOM    124  H26 UNL A   1      14.414  50.249   2.969  1.00  0.00    +0.000 H 
ATOM    125  H27 UNL A   1      16.108  56.374   3.592  1.00  0.00    +0.000 H 
ATOM    126  H28 UNL A   1      14.519  56.061   5.548  1.00  0.00    +0.000 H 
ATOM    127  H29 UNL A   1      14.695  52.468   3.465  1.00  0.00    +0.000 H 
ATOM    128  H30 UNL A   1      18.105  53.131  -0.165  1.00  0.00    +0.000 H 
ENDROOT
BRANCH   30   29
ATOM    132  H34 UNL A   1      11.181  55.017   5.772  1.00  0.00    +0.000 H 
ATOM    133  H35 UNL A   1      10.435  56.507   7.532  1.00  0.00    +0.000 H 
ATOM    120  H22 UNL A   1      13.534  55.131  10.024  1.00  0.00    +0.000 H 
ATOM     87  C60 UNL A   1      11.699  55.063   6.663  1.00  0.00    +0.000 C 
ATOM     88  C61 UNL A   1      11.240  55.882   7.690  1.00  0.00    +0.000 C 
ATOM    121  H23 UNL A   1      14.435  53.839   8.175  1.00  0.00    +0.000 H 
ATOM     26  C18 UNL A   1      11.873  55.855   8.936  1.00  0.00    +0.000 C 
ATOM     27  C19 UNL A   1      13.045  55.117   9.115  1.00  0.00    +0.000 C 
ATOM     28  C20 UNL A   1      13.552  54.359   8.057  1.00  0.00    +0.000 C 
ATOM     29  C21 UNL A   1      12.864  54.300   6.834  1.00  0.00    +0.000 C 
BRANCH   26   24
ATOM     25  O6  UNL A   1      11.302  57.829  10.067  1.00  0.00    +0.000 O 
ATOM     24  C17 UNL A   1      11.316  56.603  10.081  1.00  0.00    +0.000 C 
BRANCH   24   23
ATOM    119  H21 UNL A   1      10.264  55.137  10.956  1.00  0.00    +0.000 H 
ATOM     23  N2  UNL A   1      10.827  55.917  11.166  1.00  0.00    +0.000 N 
BRANCH   23   22
ATOM    118  H20 UNL A   1      10.207  56.783  12.919  1.00  0.00    +0.000 H 
ATOM    117  H19 UNL A   1      11.959  56.693  12.706  1.00  0.00    +0.000 H 
ATOM     22  C16 UNL A   1      11.026  56.184  12.580  1.00  0.00    +0.000 C 
BRANCH   22   21
ATOM    115  H17 UNL A   1      10.444  55.067  14.281  1.00  0.00    +0.000 H 
ATOM    116  H18 UNL A   1      10.674  54.129  12.778  1.00  0.00    +0.000 H 
ATOM     21  C15 UNL A   1      11.046  54.907  13.410  1.00  0.00    +0.000 C 
BRANCH   21   20
ATOM    113  H15 UNL A   1      12.763  55.138  14.634  1.00  0.00    +0.000 H 
ATOM    114  H16 UNL A   1      12.330  53.454  14.204  1.00  0.00    +0.000 H 
ATOM     20  C14 UNL A   1      12.438  54.464  13.869  1.00  0.00    +0.000 C 
BRANCH   20   19
ATOM     19  C13 UNL A   1      13.511  54.435  12.776  1.00  0.00    +0.000 C 
ATOM    111  H13 UNL A   1      13.056  54.736  11.857  1.00  0.00    +0.000 H 
ATOM    112  H14 UNL A   1      14.288  55.094  13.104  1.00  0.00    +0.000 H 
BRANCH   19   18
ATOM     18  C12 UNL A   1      14.173  53.075  12.554  1.00  0.00    +0.000 C 
ATOM    109  H11 UNL A   1      15.229  53.227  12.470  1.00  0.00    +0.000 H 
ATOM    110  H12 UNL A   1      13.905  52.465  13.391  1.00  0.00    +0.000 H 
BRANCH   18   17
ATOM     17  C11 UNL A   1      13.698  52.339  11.310  1.00  0.00    +0.000 C 
ATOM    107  H9  UNL A   1      13.055  52.990  10.755  1.00  0.00    +0.000 H 
ATOM    108  H10 UNL A   1      14.569  52.064  10.752  1.00  0.00    +0.000 H 
BRANCH   17   16
ATOM    106  H8  UNL A   1      12.175  51.242  12.169  1.00  0.00    +0.000 H 
ATOM     16  N1  UNL A   1      12.976  51.123  11.608  1.00  0.00    +0.000 N 
BRANCH   16   14
ATOM     14  C10 UNL A   1      13.231  49.833  11.233  1.00  0.00    +0.000 C 
ATOM     15  O5  UNL A   1      13.224  48.988  12.129  1.00  0.00    +0.000 O 
BRANCH   14   13
ATOM      1  O1  UNL A   1      13.130  45.925   9.447  1.00  0.00    +0.000 O 
ATOM      2  C1  UNL A   1      13.475  47.095   9.467  1.00  0.00    +0.000 C 
ATOM      3  O2  UNL A   1      14.756  47.532   9.540  1.00  0.00    +0.000 O 
ATOM      4  C2  UNL A   1      14.814  48.964   9.431  1.00  0.00    +0.000 C 
ATOM     99  H1  UNL A   1      15.504  49.397  10.127  1.00  0.00    +0.000 H 
ATOM    105  H7  UNL A   1      13.157  50.377   9.237  1.00  0.00    +0.000 H 
ATOM     13  C9  UNL A   1      13.412  49.475   9.752  1.00  0.00    +0.000 C 
ATOM     89  C62 UNL A   1      12.598  48.276   9.396  1.00  0.00    +0.000 C 
BRANCH    4    5
ATOM    100  H2  UNL A   1      15.436  51.477   8.514  1.00  0.00    +0.000 H 
ATOM      5  C3  UNL A   1      15.372  49.407   8.074  1.00  0.00    +0.000 C 
ATOM      6  C4  UNL A   1      15.677  50.762   7.810  1.00  0.00    +0.000 C 
ATOM      7  C5  UNL A   1      16.296  51.164   6.621  1.00  0.00    +0.000 C 
ATOM    104  H6  UNL A   1      15.483  47.465   7.239  1.00  0.00    +0.000 H 
ATOM    101  H3  UNL A   1      16.524  52.156   6.458  1.00  0.00    +0.000 H 
ATOM     10  C7  UNL A   1      16.283  48.873   5.894  1.00  0.00    +0.000 C 
ATOM      8  C6  UNL A   1      16.598  50.208   5.665  1.00  0.00    +0.000 C 
ATOM     12  C8  UNL A   1      15.691  48.464   7.084  1.00  0.00    +0.000 C 
BRANCH    8    9
ATOM      9  O3  UNL A   1      17.207  50.533   4.487  1.00  0.00    +0.000 O 
ATOM    102  H4  UNL A   1      17.745  51.298   4.433  1.00  0.00    +0.000 H 
ENDBRANCH    8    9
BRANCH   10   11
ATOM     11  O4  UNL A   1      16.572  47.938   4.941  1.00  0.00    +0.000 O 
ATOM    103  H5  UNL A   1      15.883  47.427   4.562  1.00  0.00    +0.000 H 
ENDBRANCH   10   11
ENDBRANCH    4    5
BRANCH   89   90
ATOM     90  C63 UNL A   1      11.313  48.142   9.038  1.00  0.00    +0.000 C 
ATOM    134  H36 UNL A   1      11.093  48.115   8.030  1.00  0.00    +0.000 H 
BRANCH   90   91
ATOM     98  C69 UNL A   1       8.901  48.295   9.543  1.00  0.00    +0.000 C 
ATOM    135  H37 UNL A   1      11.390  47.522  11.657  1.00  0.00    +0.000 H 
ATOM    136  H38 UNL A   1       9.526  47.346  13.211  1.00  0.00    +0.000 H 
ATOM    139  H41 UNL A   1       8.726  48.553   8.558  1.00  0.00    +0.000 H 
ATOM     91  C64 UNL A   1      10.202  48.029   9.982  1.00  0.00    +0.000 C 
ATOM     92  C65 UNL A   1      10.428  47.697  11.327  1.00  0.00    +0.000 C 
ATOM     93  C66 UNL A   1       9.360  47.603  12.225  1.00  0.00    +0.000 C 
ATOM     94  C67 UNL A   1       8.072  47.858  11.771  1.00  0.00    +0.000 C 
ATOM     96  C68 UNL A   1       7.849  48.207  10.442  1.00  0.00    +0.000 C 
BRANCH   94   95
ATOM    137  H39 UNL A   1       6.190  48.219  12.368  1.00  0.00    +0.000 H 
ATOM     95  O7  UNL A   1       6.986  47.784  12.600  1.00  0.00    +0.000 O 
ENDBRANCH   94   95
BRANCH   96   97
ATOM     97  O8  UNL A   1       6.580  48.472  10.012  1.00  0.00    +0.000 O 
ATOM    138  H40 UNL A   1       5.857  47.984  10.354  1.00  0.00    +0.000 H 
ENDBRANCH   96   97
ENDBRANCH   90   91
ENDBRANCH   89   90
ENDBRANCH   14   13
ENDBRANCH   16   14
ENDBRANCH   17   16
ENDBRANCH   18   17
ENDBRANCH   19   18
ENDBRANCH   20   19
ENDBRANCH   21   20
ENDBRANCH   22   21
ENDBRANCH   23   22
ENDBRANCH   24   23
ENDBRANCH   26   24
ENDBRANCH   30   29
BRANCH   34   35
ATOM     35  C26 UNL A   1      11.803  47.649   5.126  1.00  0.00    +0.000 C 
ATOM     36  C27 UNL A   1      10.405  47.632   5.000  1.00  0.00    +0.000 C 
ATOM     37  F1  UNL A   1       9.772  48.625   4.358  1.00  0.00    +0.000 F 
ATOM     38  C28 UNL A   1       9.644  46.615   5.572  1.00  0.00    +0.000 C 
ATOM     39  F2  UNL A   1       8.308  46.652   5.488  1.00  0.00    +0.000 F 
ATOM     40  C29 UNL A   1      10.268  45.574   6.244  1.00  0.00    +0.000 C 
ATOM     41  F3  UNL A   1       9.535  44.592   6.787  1.00  0.00    +0.000 F 
ATOM     42  C30 UNL A   1      11.649  45.555   6.358  1.00  0.00    +0.000 C 
ATOM     43  F4  UNL A   1      12.255  44.543   6.994  1.00  0.00    +0.000 F 
ATOM     44  C31 UNL A   1      12.410  46.590   5.819  1.00  0.00    +0.000 C 
ATOM     45  F5  UNL A   1      13.743  46.553   5.966  1.00  0.00    +0.000 F 
ENDBRANCH   34   35
BRANCH   51   52
ATOM     52  C37 UNL A   1      16.274  48.518  -0.464  1.00  0.00    +0.000 C 
ATOM     53  C38 UNL A   1      17.554  47.944  -0.466  1.00  0.00    +0.000 C 
ATOM     54  F6  UNL A   1      18.393  48.162   0.557  1.00  0.00    +0.000 F 
ATOM     55  C39 UNL A   1      17.992  47.176  -1.543  1.00  0.00    +0.000 C 
ATOM     56  F7  UNL A   1      19.237  46.680  -1.546  1.00  0.00    +0.000 F 
ATOM     57  C40 UNL A   1      17.147  46.934  -2.615  1.00  0.00    +0.000 C 
ATOM     58  F8  UNL A   1      17.566  46.184  -3.644  1.00  0.00    +0.000 F 
ATOM     59  C41 UNL A   1      15.870  47.473  -2.625  1.00  0.00    +0.000 C 
ATOM     60  F9  UNL A   1      15.045  47.225  -3.651  1.00  0.00    +0.000 F 
ATOM     61  C42 UNL A   1      15.442  48.271  -1.568  1.00  0.00    +0.000 C 
ATOM     62  F10 UNL A   1      14.205  48.788  -1.612  1.00  0.00    +0.000 F 
ENDBRANCH   51   52
BRANCH   66   67
ATOM     67  C46 UNL A   1      17.400  55.106   1.524  1.00  0.00    +0.000 C 
ATOM     68  C47 UNL A   1      16.954  55.934   0.483  1.00  0.00    +0.000 C 
ATOM     69  F11 UNL A   1      15.741  55.738  -0.054  1.00  0.00    +0.000 F 
ATOM     70  C48 UNL A   1      17.770  56.934  -0.044  1.00  0.00    +0.000 C 
ATOM     71  F12 UNL A   1      17.338  57.672  -1.074  1.00  0.00    +0.000 F 
ATOM     72  C49 UNL A   1      19.033  57.151   0.485  1.00  0.00    +0.000 C 
ATOM     73  F13 UNL A   1      19.817  58.113  -0.020  1.00  0.00    +0.000 F 
ATOM     74  C50 UNL A   1      19.486  56.362   1.531  1.00  0.00    +0.000 C 
ATOM     75  F14 UNL A   1      20.700  56.579   2.056  1.00  0.00    +0.000 F 
ATOM     76  C51 UNL A   1      18.684  55.340   2.036  1.00  0.00    +0.000 C 
ATOM     77  F15 UNL A   1      19.157  54.583   3.037  1.00  0.00    +0.000 F 
ENDBRANCH   66   67
TORSDOF 22
ENDMDL
MODEL 7
REMARK VINA RESULT:      -8.7     63.980     69.838
ROOT
ATOM    129  H31 UNL A   1      15.171  47.014   0.488  1.00  0.00    +0.000 H 
ATOM    130  H32 UNL A   1      16.638  56.717   2.628  1.00  0.00    +0.000 H 
ATOM    131  H33 UNL A   1      15.331  56.428   4.810  1.00  0.00    +0.000 H 
ATOM     30  C22 UNL A   1      14.113  53.865   5.082  1.00  0.00    +0.000 C 
ATOM     31  C23 UNL A   1      15.061  54.323   4.008  1.00  0.00    +0.000 C 
ATOM     32  N3  UNL A   1      15.532  53.664   2.980  1.00  0.00    +0.000 N 
ATOM     33  C24 UNL A   1      16.325  54.567   2.283  1.00  0.00    +0.000 C 
ATOM     34  C25 UNL A   1      17.090  54.348   1.187  1.00  0.00    +0.000 C 
ATOM     46  C32 UNL A   1      17.206  53.076   0.524  1.00  0.00    +0.000 C 
ATOM     47  C33 UNL A   1      17.993  52.738  -0.563  1.00  0.00    +0.000 C 
ATOM     48  C34 UNL A   1      17.732  51.405  -0.894  1.00  0.00    +0.000 C 
ATOM     49  C35 UNL A   1      16.834  50.892   0.028  1.00  0.00    +0.000 C 
ATOM     50  N4  UNL A   1      16.513  51.930   0.888  1.00  0.00    +0.000 N 
ATOM     51  C36 UNL A   1      16.309  49.551   0.118  1.00  0.00    +0.000 C 
ATOM     63  C43 UNL A   1      15.426  49.125   1.055  1.00  0.00    +0.000 C 
ATOM     64  N5  UNL A   1      14.858  49.833   2.106  1.00  0.00    +0.000 N 
ATOM     65  C44 UNL A   1      14.067  48.988   2.723  1.00  0.00    +0.000 C 
ATOM     66  C45 UNL A   1      13.227  49.197   3.956  1.00  0.00    +0.000 C 
ATOM     78  C52 UNL A   1      13.252  50.395   4.570  1.00  0.00    +0.000 C 
ATOM     79  C53 UNL A   1      12.495  50.750   5.767  1.00  0.00    +0.000 C 
ATOM     80  C54 UNL A   1      12.715  52.041   6.057  1.00  0.00    +0.000 C 
ATOM     81  C55 UNL A   1      13.664  52.596   5.091  1.00  0.00    +0.000 C 
ATOM     82  N6  UNL A   1      13.936  51.543   4.253  1.00  0.00    +0.000 N 
ATOM     83  C56 UNL A   1      14.016  47.655   2.106  1.00  0.00    +0.000 C 
ATOM     84  C57 UNL A   1      14.897  47.779   1.123  1.00  0.00    +0.000 C 
ATOM     85  C58 UNL A   1      16.219  55.837   2.965  1.00  0.00    +0.000 C 
ATOM     86  C59 UNL A   1      15.514  55.722   4.080  1.00  0.00    +0.000 C 
ATOM    122  H24 UNL A   1      18.657  53.362  -1.046  1.00  0.00    +0.000 H 
ATOM    123  H25 UNL A   1      18.139  50.891  -1.691  1.00  0.00    +0.000 H 
ATOM    124  H26 UNL A   1      15.886  51.864   1.644  1.00  0.00    +0.000 H 
ATOM    125  H27 UNL A   1      11.890  50.109   6.305  1.00  0.00    +0.000 H 
ATOM    126  H28 UNL A   1      12.282  52.562   6.837  1.00  0.00    +0.000 H 
ATOM    127  H29 UNL A   1      14.564  51.605   3.497  1.00  0.00    +0.000 H 
ATOM    128  H30 UNL A   1      13.445  46.838   2.368  1.00  0.00    +0.000 H 
ENDROOT
BRANCH   30   29
ATOM    132  H34 UNL A   1      11.909  55.375   4.970  1.00  0.00    +0.000 H 
ATOM    133  H35 UNL A   1      11.152  57.066   6.532  1.00  0.00    +0.000 H 
ATOM    120  H22 UNL A   1      14.302  56.080   9.141  1.00  0.00    +0.000 H 
ATOM     87  C60 UNL A   1      12.435  55.545   5.841  1.00  0.00    +0.000 C 
ATOM     88  C61 UNL A   1      11.971  56.482   6.759  1.00  0.00    +0.000 C 
ATOM    121  H23 UNL A   1      15.210  54.578   7.462  1.00  0.00    +0.000 H 
ATOM     26  C18 UNL A   1      12.617  56.627   7.989  1.00  0.00    +0.000 C 
ATOM     27  C19 UNL A   1      13.804  55.940   8.247  1.00  0.00    +0.000 C 
ATOM     28  C20 UNL A   1      14.316  55.061   7.290  1.00  0.00    +0.000 C 
ATOM     29  C21 UNL A   1      13.617  54.832   6.093  1.00  0.00    +0.000 C 
BRANCH   26   24
ATOM     25  O6  UNL A   1      12.226  58.720   8.975  1.00  0.00    +0.000 O 
ATOM     24  C17 UNL A   1      12.056  57.507   9.036  1.00  0.00    +0.000 C 
BRANCH   24   23
ATOM    119  H21 UNL A   1      11.493  57.387  10.957  1.00  0.00    +0.000 H 
ATOM     23  N2  UNL A   1      11.357  56.956  10.081  1.00  0.00    +0.000 N 
BRANCH   23   22
ATOM    118  H20 UNL A   1      10.079  55.706   9.075  1.00  0.00    +0.000 H 
ATOM    117  H19 UNL A   1       9.648  56.022  10.761  1.00  0.00    +0.000 H 
ATOM     22  C16 UNL A   1      10.444  55.825  10.074  1.00  0.00    +0.000 C 
BRANCH   22   21
ATOM    115  H17 UNL A   1      10.396  53.882  10.912  1.00  0.00    +0.000 H 
ATOM    116  H18 UNL A   1      11.570  54.127   9.588  1.00  0.00    +0.000 H 
ATOM     21  C15 UNL A   1      11.132  54.527  10.478  1.00  0.00    +0.000 C 
BRANCH   21   20
ATOM    113  H15 UNL A   1      12.800  55.593  11.240  1.00  0.00    +0.000 H 
ATOM    114  H16 UNL A   1      11.813  54.714  12.451  1.00  0.00    +0.000 H 
ATOM     20  C14 UNL A   1      12.272  54.694  11.485  1.00  0.00    +0.000 C 
BRANCH   20   19
ATOM     19  C13 UNL A   1      13.286  53.546  11.524  1.00  0.00    +0.000 C 
ATOM    111  H13 UNL A   1      14.200  53.925  11.930  1.00  0.00    +0.000 H 
ATOM    112  H14 UNL A   1      12.842  52.776  12.119  1.00  0.00    +0.000 H 
BRANCH   19   18
ATOM     18  C12 UNL A   1      13.598  52.909  10.169  1.00  0.00    +0.000 C 
ATOM    109  H11 UNL A   1      12.827  53.191   9.483  1.00  0.00    +0.000 H 
ATOM    110  H12 UNL A   1      14.564  53.265   9.880  1.00  0.00    +0.000 H 
BRANCH   18   17
ATOM     17  C11 UNL A   1      13.682  51.391  10.192  1.00  0.00    +0.000 C 
ATOM    107  H9  UNL A   1      13.876  51.046   9.198  1.00  0.00    +0.000 H 
ATOM    108  H10 UNL A   1      14.468  51.126  10.869  1.00  0.00    +0.000 H 
BRANCH   17   16
ATOM    106  H8  UNL A   1      11.987  51.263  11.364  1.00  0.00    +0.000 H 
ATOM     16  N1  UNL A   1      12.472  50.760  10.669  1.00  0.00    +0.000 N 
BRANCH   16   14
ATOM     14  C10 UNL A   1      11.896  49.573  10.309  1.00  0.00    +0.000 C 
ATOM     15  O5  UNL A   1      11.161  49.595   9.321  1.00  0.00    +0.000 O 
BRANCH   14   13
ATOM      1  O1  UNL A   1      11.416  45.532   8.928  1.00  0.00    +0.000 O 
ATOM      2  C1  UNL A   1      11.512  46.367   9.811  1.00  0.00    +0.000 C 
ATOM      3  O2  UNL A   1      10.550  46.656  10.722  1.00  0.00    +0.000 O 
ATOM      4  C2  UNL A   1      11.031  47.609  11.687  1.00  0.00    +0.000 C 
ATOM     99  H1  UNL A   1      10.303  48.361  11.913  1.00  0.00    +0.000 H 
ATOM    105  H7  UNL A   1      12.984  48.587  11.769  1.00  0.00    +0.000 H 
ATOM     13  C9  UNL A   1      12.247  48.280  11.056  1.00  0.00    +0.000 C 
ATOM     89  C62 UNL A   1      12.678  47.219  10.099  1.00  0.00    +0.000 C 
BRANCH    4    5
ATOM    100  H2  UNL A   1      13.381  46.765  12.830  1.00  0.00    +0.000 H 
ATOM      5  C3  UNL A   1      11.283  46.955  13.050  1.00  0.00    +0.000 C 
ATOM      6  C4  UNL A   1      12.591  46.635  13.482  1.00  0.00    +0.000 C 
ATOM      7  C5  UNL A   1      12.847  46.148  14.768  1.00  0.00    +0.000 C 
ATOM    104  H6  UNL A   1       9.261  46.964  13.675  1.00  0.00    +0.000 H 
ATOM    101  H3  UNL A   1      13.812  45.938  15.067  1.00  0.00    +0.000 H 
ATOM     10  C7  UNL A   1      10.489  46.235  15.222  1.00  0.00    +0.000 C 
ATOM      8  C6  UNL A   1      11.786  45.951  15.636  1.00  0.00    +0.000 C 
ATOM     12  C8  UNL A   1      10.230  46.743  13.953  1.00  0.00    +0.000 C 
BRANCH    8    9
ATOM      9  O3  UNL A   1      11.968  45.485  16.906  1.00  0.00    +0.000 O 
ATOM    102  H4  UNL A   1      11.446  45.820  17.608  1.00  0.00    +0.000 H 
ENDBRANCH    8    9
BRANCH   10   11
ATOM     11  O4  UNL A   1       9.446  46.026  16.079  1.00  0.00    +0.000 O 
ATOM    103  H5  UNL A   1       9.023  46.756  16.488  1.00  0.00    +0.000 H 
ENDBRANCH   10   11
ENDBRANCH    4    5
BRANCH   89   90
ATOM     90  C63 UNL A   1      13.865  46.950   9.537  1.00  0.00    +0.000 C 
ATOM    134  H36 UNL A   1      14.087  45.963   9.326  1.00  0.00    +0.000 H 
BRANCH   90   91
ATOM     98  C69 UNL A   1      15.818  48.326  10.160  1.00  0.00    +0.000 C 
ATOM    135  H37 UNL A   1      14.146  48.343   7.250  1.00  0.00    +0.000 H 
ATOM    136  H38 UNL A   1      15.819  50.027   6.717  1.00  0.00    +0.000 H 
ATOM    139  H41 UNL A   1      15.822  47.874  11.089  1.00  0.00    +0.000 H 
ATOM     91  C64 UNL A   1      14.867  47.961   9.202  1.00  0.00    +0.000 C 
ATOM     92  C65 UNL A   1      14.861  48.596   7.950  1.00  0.00    +0.000 C 
ATOM     93  C66 UNL A   1      15.816  49.570   7.643  1.00  0.00    +0.000 C 
ATOM     94  C67 UNL A   1      16.762  49.913   8.600  1.00  0.00    +0.000 C 
ATOM     96  C68 UNL A   1      16.757  49.298   9.850  1.00  0.00    +0.000 C 
BRANCH   94   95
ATOM    137  H39 UNL A   1      18.190  50.856   7.551  1.00  0.00    +0.000 H 
ATOM     95  O7  UNL A   1      17.721  50.860   8.362  1.00  0.00    +0.000 O 
ENDBRANCH   94   95
BRANCH   96   97
ATOM     97  O8  UNL A   1      17.681  49.656  10.789  1.00  0.00    +0.000 O 
ATOM    138  H40 UNL A   1      17.713  50.539  11.103  1.00  0.00    +0.000 H 
ENDBRANCH   96   97
ENDBRANCH   90   91
ENDBRANCH   89   90
ENDBRANCH   14   13
ENDBRANCH   16   14
ENDBRANCH   17   16
ENDBRANCH   18   17
ENDBRANCH   19   18
ENDBRANCH   20   19
ENDBRANCH   21   20
ENDBRANCH   22   21
ENDBRANCH   23   22
ENDBRANCH   24   23
ENDBRANCH   26   24
ENDBRANCH   30   29
BRANCH   34   35
ATOM     35  C26 UNL A   1      17.859  55.513   0.633  1.00  0.00    +0.000 C 
ATOM     36  C27 UNL A   1      19.117  55.877   1.141  1.00  0.00    +0.000 C 
ATOM     37  F1  UNL A   1      19.646  55.209   2.177  1.00  0.00    +0.000 F 
ATOM     38  C28 UNL A   1      19.818  56.960   0.616  1.00  0.00    +0.000 C 
ATOM     39  F2  UNL A   1      20.988  57.324   1.157  1.00  0.00    +0.000 F 
ATOM     40  C29 UNL A   1      19.298  57.673  -0.454  1.00  0.00    +0.000 C 
ATOM     41  F3  UNL A   1      19.978  58.710  -0.963  1.00  0.00    +0.000 F 
ATOM     42  C30 UNL A   1      18.071  57.315  -0.990  1.00  0.00    +0.000 C 
ATOM     43  F4  UNL A   1      17.573  57.993  -2.034  1.00  0.00    +0.000 F 
ATOM     44  C31 UNL A   1      17.350  56.256  -0.444  1.00  0.00    +0.000 C 
ATOM     45  F5  UNL A   1      16.156  55.950  -0.973  1.00  0.00    +0.000 F 
ENDBRANCH   34   35
BRANCH   51   52
ATOM     52  C37 UNL A   1      16.803  48.543  -0.879  1.00  0.00    +0.000 C 
ATOM     53  C38 UNL A   1      18.016  47.862  -0.706  1.00  0.00    +0.000 C 
ATOM     54  F6  UNL A   1      18.806  48.144   0.341  1.00  0.00    +0.000 F 
ATOM     55  C39 UNL A   1      18.445  46.915  -1.634  1.00  0.00    +0.000 C 
ATOM     56  F7  UNL A   1      19.632  46.315  -1.476  1.00  0.00    +0.000 F 
ATOM     57  C40 UNL A   1      17.651  46.603  -2.727  1.00  0.00    +0.000 C 
ATOM     58  F8  UNL A   1      18.058  45.682  -3.612  1.00  0.00    +0.000 F 
ATOM     59  C41 UNL A   1      16.437  47.248  -2.907  1.00  0.00    +0.000 C 
ATOM     60  F9  UNL A   1      15.659  46.934  -3.952  1.00  0.00    +0.000 F 
ATOM     61  C42 UNL A   1      16.023  48.220  -2.001  1.00  0.00    +0.000 C 
ATOM     62  F10 UNL A   1      14.849  48.835  -2.209  1.00  0.00    +0.000 F 
ENDBRANCH   51   52
BRANCH   66   67
ATOM     67  C46 UNL A   1      12.396  48.094   4.506  1.00  0.00    +0.000 C 
ATOM     68  C47 UNL A   1      12.981  47.043   5.228  1.00  0.00    +0.000 C 
ATOM     69  F11 UNL A   1      14.307  47.022   5.423  1.00  0.00    +0.000 F 
ATOM     70  C48 UNL A   1      12.212  45.985   5.712  1.00  0.00    +0.000 C 
ATOM     71  F12 UNL A   1      12.806  44.968   6.350  1.00  0.00    +0.000 F 
ATOM     72  C49 UNL A   1      10.840  45.975   5.515  1.00  0.00    +0.000 C 
ATOM     73  F13 UNL A   1      10.102  44.958   5.981  1.00  0.00    +0.000 F 
ATOM     74  C50 UNL A   1      10.236  47.015   4.826  1.00  0.00    +0.000 C 
ATOM     75  F14 UNL A   1       8.908  47.018   4.647  1.00  0.00    +0.000 F 
ATOM     76  C51 UNL A   1      11.008  48.057   4.314  1.00  0.00    +0.000 C 
ATOM     77  F15 UNL A   1      10.396  49.040   3.637  1.00  0.00    +0.000 F 
ENDBRANCH   66   67
TORSDOF 22
ENDMDL
MODEL 8
REMARK VINA RESULT:      -8.5     43.583     46.904
ROOT
ATOM    129  H31 UNL A   1      60.031  18.794  14.733  1.00  0.00    +0.000 H 
ATOM    130  H32 UNL A   1      50.814  22.787  14.806  1.00  0.00    +0.000 H 
ATOM    131  H33 UNL A   1      50.354  21.752  12.511  1.00  0.00    +0.000 H 
ATOM     30  C22 UNL A   1      52.636  20.512  11.337  1.00  0.00    +0.000 C 
ATOM     31  C23 UNL A   1      52.512  21.085  12.722  1.00  0.00    +0.000 C 
ATOM     32  N3  UNL A   1      53.402  21.141  13.680  1.00  0.00    +0.000 N 
ATOM     33  C24 UNL A   1      52.786  21.813  14.728  1.00  0.00    +0.000 C 
ATOM     34  C25 UNL A   1      53.266  22.060  15.971  1.00  0.00    +0.000 C 
ATOM     46  C32 UNL A   1      54.567  21.651  16.430  1.00  0.00    +0.000 C 
ATOM     47  C33 UNL A   1      55.129  21.809  17.685  1.00  0.00    +0.000 C 
ATOM     48  C34 UNL A   1      56.434  21.310  17.645  1.00  0.00    +0.000 C 
ATOM     49  C35 UNL A   1      56.664  20.780  16.386  1.00  0.00    +0.000 C 
ATOM     50  N4  UNL A   1      55.513  21.004  15.647  1.00  0.00    +0.000 N 
ATOM     51  C36 UNL A   1      57.846  20.117  15.894  1.00  0.00    +0.000 C 
ATOM     63  C43 UNL A   1      57.995  19.625  14.640  1.00  0.00    +0.000 C 
ATOM     64  N5  UNL A   1      57.088  19.625  13.588  1.00  0.00    +0.000 N 
ATOM     65  C44 UNL A   1      57.699  19.042  12.585  1.00  0.00    +0.000 C 
ATOM     66  C45 UNL A   1      57.182  18.732  11.204  1.00  0.00    +0.000 C 
ATOM     78  C52 UNL A   1      55.915  19.065  10.890  1.00  0.00    +0.000 C 
ATOM     79  C53 UNL A   1      55.273  18.833   9.599  1.00  0.00    +0.000 C 
ATOM     80  C54 UNL A   1      54.036  19.351   9.626  1.00  0.00    +0.000 C 
ATOM     81  C55 UNL A   1      53.779  19.913  10.953  1.00  0.00    +0.000 C 
ATOM     82  N6  UNL A   1      54.947  19.687  11.639  1.00  0.00    +0.000 N 
ATOM     83  C56 UNL A   1      59.082  18.639  12.879  1.00  0.00    +0.000 C 
ATOM     84  C57 UNL A   1      59.194  18.974  14.156  1.00  0.00    +0.000 C 
ATOM     85  C58 UNL A   1      51.473  22.202  14.268  1.00  0.00    +0.000 C 
ATOM     86  C59 UNL A   1      51.224  21.710  13.064  1.00  0.00    +0.000 C 
ATOM    122  H24 UNL A   1      54.663  22.223  18.507  1.00  0.00    +0.000 H 
ATOM    123  H25 UNL A   1      57.112  21.334  18.423  1.00  0.00    +0.000 H 
ATOM    124  H26 UNL A   1      55.385  20.742  14.706  1.00  0.00    +0.000 H 
ATOM    125  H27 UNL A   1      55.702  18.348   8.796  1.00  0.00    +0.000 H 
ATOM    126  H28 UNL A   1      53.371  19.353   8.837  1.00  0.00    +0.000 H 
ATOM    127  H29 UNL A   1      55.077  19.946  12.580  1.00  0.00    +0.000 H 
ATOM    128  H30 UNL A   1      59.781  18.208  12.255  1.00  0.00    +0.000 H 
ENDROOT
BRANCH   30   29
ATOM    132  H34 UNL A   1      52.217  22.523   9.624  1.00  0.00    +0.000 H 
ATOM    133  H35 UNL A   1      50.336  22.878   8.138  1.00  0.00    +0.000 H 
ATOM    120  H22 UNL A   1      48.773  19.120   9.203  1.00  0.00    +0.000 H 
ATOM     87  C60 UNL A   1      51.471  21.813   9.558  1.00  0.00    +0.000 C 
ATOM     88  C61 UNL A   1      50.418  21.997   8.668  1.00  0.00    +0.000 C 
ATOM    121  H23 UNL A   1      50.512  18.882  10.882  1.00  0.00    +0.000 H 
ATOM     26  C18 UNL A   1      49.472  20.984   8.493  1.00  0.00    +0.000 C 
ATOM     27  C19 UNL A   1      49.497  19.848   9.305  1.00  0.00    +0.000 C 
ATOM     28  C20 UNL A   1      50.509  19.703  10.257  1.00  0.00    +0.000 C 
ATOM     29  C21 UNL A   1      51.523  20.669  10.368  1.00  0.00    +0.000 C 
BRANCH   26   24
ATOM     25  O6  UNL A   1      48.129  22.194   6.999  1.00  0.00    +0.000 O 
ATOM     24  C17 UNL A   1      48.432  21.095   7.450  1.00  0.00    +0.000 C 
BRANCH   24   23
ATOM    119  H21 UNL A   1      47.554  19.308   7.695  1.00  0.00    +0.000 H 
ATOM     23  N2  UNL A   1      47.799  19.962   7.000  1.00  0.00    +0.000 N 
BRANCH   23   22
ATOM    118  H20 UNL A   1      47.434  20.490   5.052  1.00  0.00    +0.000 H 
ATOM    117  H19 UNL A   1      46.478  19.129   5.652  1.00  0.00    +0.000 H 
ATOM     22  C16 UNL A   1      47.441  19.596   5.641  1.00  0.00    +0.000 C 
BRANCH   22   21
ATOM    115  H17 UNL A   1      48.473  17.748   5.618  1.00  0.00    +0.000 H 
ATOM    116  H18 UNL A   1      48.114  18.455   4.018  1.00  0.00    +0.000 H 
ATOM     21  C15 UNL A   1      48.446  18.635   5.019  1.00  0.00    +0.000 C 
BRANCH   21   20
ATOM    113  H15 UNL A   1      50.224  18.991   3.919  1.00  0.00    +0.000 H 
ATOM    114  H16 UNL A   1      49.808  20.221   5.153  1.00  0.00    +0.000 H 
ATOM     20  C14 UNL A   1      49.871  19.181   4.912  1.00  0.00    +0.000 C 
BRANCH   20   19
ATOM     19  C13 UNL A   1      50.881  18.580   5.895  1.00  0.00    +0.000 C 
ATOM    111  H13 UNL A   1      51.707  18.202   5.332  1.00  0.00    +0.000 H 
ATOM    112  H14 UNL A   1      51.148  19.368   6.568  1.00  0.00    +0.000 H 
BRANCH   19   18
ATOM     18  C12 UNL A   1      50.341  17.444   6.765  1.00  0.00    +0.000 C 
ATOM    109  H11 UNL A   1      50.749  17.553   7.748  1.00  0.00    +0.000 H 
ATOM    110  H12 UNL A   1      49.275  17.525   6.745  1.00  0.00    +0.000 H 
BRANCH   18   17
ATOM     17  C11 UNL A   1      50.681  16.050   6.261  1.00  0.00    +0.000 C 
ATOM    107  H9  UNL A   1      49.810  15.434   6.351  1.00  0.00    +0.000 H 
ATOM    108  H10 UNL A   1      51.000  16.148   5.244  1.00  0.00    +0.000 H 
BRANCH   17   16
ATOM    106  H8  UNL A   1      51.513  14.609   7.484  1.00  0.00    +0.000 H 
ATOM     16  N1  UNL A   1      51.761  15.427   6.993  1.00  0.00    +0.000 N 
BRANCH   16   14
ATOM     14  C10 UNL A   1      53.073  15.795   7.111  1.00  0.00    +0.000 C 
ATOM     15  O5  UNL A   1      53.432  16.207   8.214  1.00  0.00    +0.000 O 
BRANCH   14   13
ATOM      1  O1  UNL A   1      56.709  17.945   6.326  1.00  0.00    +0.000 O 
ATOM      2  C1  UNL A   1      55.750  17.281   5.972  1.00  0.00    +0.000 C 
ATOM      3  O2  UNL A   1      54.779  17.699   5.123  1.00  0.00    +0.000 O 
ATOM      4  C2  UNL A   1      53.860  16.631   4.834  1.00  0.00    +0.000 C 
ATOM     99  H1  UNL A   1      52.841  16.960   4.838  1.00  0.00    +0.000 H 
ATOM    105  H7  UNL A   1      53.860  14.592   5.621  1.00  0.00    +0.000 H 
ATOM     13  C9  UNL A   1      54.044  15.596   5.939  1.00  0.00    +0.000 C 
ATOM     89  C62 UNL A   1      55.445  15.893   6.361  1.00  0.00    +0.000 C 
BRANCH    4    5
ATOM    100  H2  UNL A   1      55.998  16.861   3.125  1.00  0.00    +0.000 H 
ATOM      5  C3  UNL A   1      54.043  16.099   3.408  1.00  0.00    +0.000 C 
ATOM      6  C4  UNL A   1      55.255  16.282   2.704  1.00  0.00    +0.000 C 
ATOM      7  C5  UNL A   1      55.478  15.701   1.451  1.00  0.00    +0.000 C 
ATOM    104  H6  UNL A   1      52.146  15.169   3.277  1.00  0.00    +0.000 H 
ATOM    101  H3  UNL A   1      56.378  15.835   0.964  1.00  0.00    +0.000 H 
ATOM     10  C7  UNL A   1      53.264  14.770   1.538  1.00  0.00    +0.000 C 
ATOM      8  C6  UNL A   1      54.474  14.943   0.873  1.00  0.00    +0.000 C 
ATOM     12  C8  UNL A   1      53.045  15.325   2.795  1.00  0.00    +0.000 C 
BRANCH    8    9
ATOM      9  O3  UNL A   1      54.630  14.343  -0.343  1.00  0.00    +0.000 O 
ATOM    102  H4  UNL A   1      53.974  14.447  -1.005  1.00  0.00    +0.000 H 
ENDBRANCH    8    9
BRANCH   10   11
ATOM     11  O4  UNL A   1      52.273  14.032   0.956  1.00  0.00    +0.000 O 
ATOM    103  H5  UNL A   1      52.100  13.161   1.258  1.00  0.00    +0.000 H 
ENDBRANCH   10   11
ENDBRANCH    4    5
BRANCH   89   90
ATOM     90  C63 UNL A   1      56.376  15.141   6.965  1.00  0.00    +0.000 C 
ATOM    134  H36 UNL A   1      56.595  15.346   7.953  1.00  0.00    +0.000 H 
BRANCH   90   91
ATOM     98  C69 UNL A   1      57.431  12.911   7.060  1.00  0.00    +0.000 C 
ATOM    135  H37 UNL A   1      57.276  14.993   4.432  1.00  0.00    +0.000 H 
ATOM    136  H38 UNL A   1      58.485  13.164   3.376  1.00  0.00    +0.000 H 
ATOM    139  H41 UNL A   1      57.153  12.838   8.052  1.00  0.00    +0.000 H 
ATOM     91  C64 UNL A   1      57.100  14.049   6.316  1.00  0.00    +0.000 C 
ATOM     92  C65 UNL A   1      57.501  14.144   4.974  1.00  0.00    +0.000 C 
ATOM     93  C66 UNL A   1      58.203  13.099   4.367  1.00  0.00    +0.000 C 
ATOM     94  C67 UNL A   1      58.513  11.970   5.114  1.00  0.00    +0.000 C 
ATOM     96  C68 UNL A   1      58.134  11.883   6.451  1.00  0.00    +0.000 C 
BRANCH   94   95
ATOM    137  H39 UNL A   1      59.607  10.287   5.140  1.00  0.00    +0.000 H 
ATOM     95  O7  UNL A   1      59.200  10.915   4.578  1.00  0.00    +0.000 O 
ENDBRANCH   94   95
BRANCH   96   97
ATOM     97  O8  UNL A   1      58.461  10.775   7.180  1.00  0.00    +0.000 O 
ATOM    138  H40 UNL A   1      59.250  10.306   6.992  1.00  0.00    +0.000 H 
ENDBRANCH   96   97
ENDBRANCH   90   91
ENDBRANCH   89   90
ENDBRANCH   14   13
ENDBRANCH   16   14
ENDBRANCH   17   16
ENDBRANCH   18   17
ENDBRANCH   19   18
ENDBRANCH   20   19
ENDBRANCH   21   20
ENDBRANCH   22   21
ENDBRANCH   23   22
ENDBRANCH   24   23
ENDBRANCH   26   24
ENDBRANCH   30   29
BRANCH   34   35
ATOM     35  C26 UNL A   1      52.378  22.811  16.922  1.00  0.00    +0.000 C 
ATOM     36  C27 UNL A   1      52.280  24.211  16.891  1.00  0.00    +0.000 C 
ATOM     37  F1  UNL A   1      53.020  24.922  16.028  1.00  0.00    +0.000 F 
ATOM     38  C28 UNL A   1      51.452  24.893  17.780  1.00  0.00    +0.000 C 
ATOM     39  F2  UNL A   1      51.421  26.232  17.770  1.00  0.00    +0.000 F 
ATOM     40  C29 UNL A   1      50.675  24.188  18.687  1.00  0.00    +0.000 C 
ATOM     41  F3  UNL A   1      49.873  24.846  19.536  1.00  0.00    +0.000 F 
ATOM     42  C30 UNL A   1      50.735  22.803  18.718  1.00  0.00    +0.000 C 
ATOM     43  F4  UNL A   1      49.973  22.120  19.583  1.00  0.00    +0.000 F 
ATOM     44  C31 UNL A   1      51.589  22.121  17.856  1.00  0.00    +0.000 C 
ATOM     45  F5  UNL A   1      51.639  20.782  17.926  1.00  0.00    +0.000 F 
ENDBRANCH   34   35
BRANCH   51   52
ATOM     52  C37 UNL A   1      58.986  19.926  16.853  1.00  0.00    +0.000 C 
ATOM     53  C38 UNL A   1      59.200  18.711  17.519  1.00  0.00    +0.000 C 
ATOM     54  F6  UNL A   1      58.342  17.692  17.357  1.00  0.00    +0.000 F 
ATOM     55  C39 UNL A   1      60.276  18.551  18.389  1.00  0.00    +0.000 C 
ATOM     56  F7  UNL A   1      60.431  17.398  19.054  1.00  0.00    +0.000 F 
ATOM     57  C40 UNL A   1      61.180  19.586  18.577  1.00  0.00    +0.000 C 
ATOM     58  F8  UNL A   1      62.221  19.425  19.404  1.00  0.00    +0.000 F 
ATOM     59  C41 UNL A   1      61.000  20.789  17.913  1.00  0.00    +0.000 C 
ATOM     60  F9  UNL A   1      61.882  21.784  18.078  1.00  0.00    +0.000 F 
ATOM     61  C42 UNL A   1      59.906  20.965  17.071  1.00  0.00    +0.000 C 
ATOM     62  F10 UNL A   1      59.754  22.145  16.451  1.00  0.00    +0.000 F 
ENDBRANCH   51   52
BRANCH   66   67
ATOM     67  C46 UNL A   1      58.044  18.049  10.204  1.00  0.00    +0.000 C 
ATOM     68  C47 UNL A   1      58.127  16.649  10.161  1.00  0.00    +0.000 C 
ATOM     69  F11 UNL A   1      57.428  15.911  11.034  1.00  0.00    +0.000 F 
ATOM     70  C48 UNL A   1      58.964  16.004   9.253  1.00  0.00    +0.000 C 
ATOM     71  F12 UNL A   1      59.065  14.669   9.271  1.00  0.00    +0.000 F 
ATOM     72  C49 UNL A   1      59.707  16.743   8.345  1.00  0.00    +0.000 C 
ATOM     73  F13 UNL A   1      60.511  16.123   7.471  1.00  0.00    +0.000 F 
ATOM     74  C50 UNL A   1      59.623  18.127   8.351  1.00  0.00    +0.000 C 
ATOM     75  F14 UNL A   1      60.326  18.846   7.466  1.00  0.00    +0.000 F 
ATOM     76  C51 UNL A   1      58.810  18.775   9.281  1.00  0.00    +0.000 C 
ATOM     77  F15 UNL A   1      58.763  20.115   9.274  1.00  0.00    +0.000 F 
ENDBRANCH   66   67
TORSDOF 22
ENDMDL
MODEL 9
REMARK VINA RESULT:      -8.5     64.051     69.911
ROOT
ATOM    129  H31 UNL A   1      15.116  46.797   0.514  1.00  0.00    +0.000 H 
ATOM    130  H32 UNL A   1      16.565  56.509   2.627  1.00  0.00    +0.000 H 
ATOM    131  H33 UNL A   1      15.267  56.220   4.815  1.00  0.00    +0.000 H 
ATOM     30  C22 UNL A   1      14.058  53.655   5.097  1.00  0.00    +0.000 C 
ATOM     31  C23 UNL A   1      15.000  54.113   4.019  1.00  0.00    +0.000 C 
ATOM     32  N3  UNL A   1      15.469  53.453   2.990  1.00  0.00    +0.000 N 
ATOM     33  C24 UNL A   1      16.256  54.356   2.288  1.00  0.00    +0.000 C 
ATOM     34  C25 UNL A   1      17.017  54.138   1.189  1.00  0.00    +0.000 C 
ATOM     46  C32 UNL A   1      17.134  52.864   0.529  1.00  0.00    +0.000 C 
ATOM     47  C33 UNL A   1      17.917  52.526  -0.561  1.00  0.00    +0.000 C 
ATOM     48  C34 UNL A   1      17.658  51.192  -0.888  1.00  0.00    +0.000 C 
ATOM     49  C35 UNL A   1      16.766  50.678   0.038  1.00  0.00    +0.000 C 
ATOM     50  N4  UNL A   1      16.445  51.718   0.898  1.00  0.00    +0.000 N 
ATOM     51  C36 UNL A   1      16.245  49.337   0.134  1.00  0.00    +0.000 C 
ATOM     63  C43 UNL A   1      15.367  48.910   1.075  1.00  0.00    +0.000 C 
ATOM     64  N5  UNL A   1      14.801  49.618   2.127  1.00  0.00    +0.000 N 
ATOM     65  C44 UNL A   1      14.016  48.772   2.749  1.00  0.00    +0.000 C 
ATOM     66  C45 UNL A   1      13.180  48.981   3.985  1.00  0.00    +0.000 C 
ATOM     78  C52 UNL A   1      13.204  50.181   4.597  1.00  0.00    +0.000 C 
ATOM     79  C53 UNL A   1      12.452  50.536   5.796  1.00  0.00    +0.000 C 
ATOM     80  C54 UNL A   1      12.668  51.829   6.082  1.00  0.00    +0.000 C 
ATOM     81  C55 UNL A   1      13.612  52.384   5.111  1.00  0.00    +0.000 C 
ATOM     82  N6  UNL A   1      13.884  51.330   4.274  1.00  0.00    +0.000 N 
ATOM     83  C56 UNL A   1      13.966  47.438   2.135  1.00  0.00    +0.000 C 
ATOM     84  C57 UNL A   1      14.842  47.563   1.149  1.00  0.00    +0.000 C 
ATOM     85  C58 UNL A   1      16.149  55.628   2.968  1.00  0.00    +0.000 C 
ATOM     86  C59 UNL A   1      15.449  55.513   4.086  1.00  0.00    +0.000 C 
ATOM    122  H24 UNL A   1      18.578  53.152  -1.048  1.00  0.00    +0.000 H 
ATOM    123  H25 UNL A   1      18.064  50.677  -1.685  1.00  0.00    +0.000 H 
ATOM    124  H26 UNL A   1      15.822  51.652   1.656  1.00  0.00    +0.000 H 
ATOM    125  H27 UNL A   1      11.850  49.895   6.338  1.00  0.00    +0.000 H 
ATOM    126  H28 UNL A   1      12.238  52.350   6.863  1.00  0.00    +0.000 H 
ATOM    127  H29 UNL A   1      14.508  51.392   3.515  1.00  0.00    +0.000 H 
ATOM    128  H30 UNL A   1      13.398  46.620   2.401  1.00  0.00    +0.000 H 
ENDROOT
BRANCH   30   29
ATOM    132  H34 UNL A   1      11.898  55.225   4.952  1.00  0.00    +0.000 H 
ATOM    133  H35 UNL A   1      11.148  56.916   6.517  1.00  0.00    +0.000 H 
ATOM    120  H22 UNL A   1      14.207  55.815   9.187  1.00  0.00    +0.000 H 
ATOM     87  C60 UNL A   1      12.407  55.370   5.837  1.00  0.00    +0.000 C 
ATOM     88  C61 UNL A   1      11.945  56.307   6.756  1.00  0.00    +0.000 C 
ATOM    121  H23 UNL A   1      15.115  54.309   7.512  1.00  0.00    +0.000 H 
ATOM     26  C18 UNL A   1      12.565  56.421   8.003  1.00  0.00    +0.000 C 
ATOM     27  C19 UNL A   1      13.727  55.699   8.281  1.00  0.00    +0.000 C 
ATOM     28  C20 UNL A   1      14.238  54.818   7.325  1.00  0.00    +0.000 C 
ATOM     29  C21 UNL A   1      13.563  54.622   6.109  1.00  0.00    +0.000 C 
BRANCH   26   24
ATOM     25  O6  UNL A   1      12.175  58.515   8.986  1.00  0.00    +0.000 O 
ATOM     24  C17 UNL A   1      12.003  57.302   9.047  1.00  0.00    +0.000 C 
BRANCH   24   23
ATOM    119  H21 UNL A   1      11.534  57.092  10.986  1.00  0.00    +0.000 H 
ATOM     23  N2  UNL A   1      11.299  56.754  10.091  1.00  0.00    +0.000 N 
BRANCH   23   22
ATOM    118  H20 UNL A   1       9.714  55.862   9.141  1.00  0.00    +0.000 H 
ATOM    117  H19 UNL A   1       9.619  55.878  10.906  1.00  0.00    +0.000 H 
ATOM     22  C16 UNL A   1      10.255  55.744  10.057  1.00  0.00    +0.000 C 
BRANCH   22   21
ATOM    115  H17 UNL A   1      11.886  54.398  10.170  1.00  0.00    +0.000 H 
ATOM    116  H18 UNL A   1      10.364  53.837  10.918  1.00  0.00    +0.000 H 
ATOM     21  C15 UNL A   1      10.821  54.329  10.086  1.00  0.00    +0.000 C 
BRANCH   21   20
ATOM    113  H15 UNL A   1       9.553  53.817   8.464  1.00  0.00    +0.000 H 
ATOM    114  H16 UNL A   1      11.311  53.624   8.174  1.00  0.00    +0.000 H 
ATOM     20  C14 UNL A   1      10.495  53.485   8.851  1.00  0.00    +0.000 C 
BRANCH   20   19
ATOM     19  C13 UNL A   1      10.400  51.975   9.095  1.00  0.00    +0.000 C 
ATOM    111  H13 UNL A   1      11.077  51.488   8.425  1.00  0.00    +0.000 H 
ATOM    112  H14 UNL A   1      10.639  51.824  10.127  1.00  0.00    +0.000 H 
BRANCH   19   18
ATOM     18  C12 UNL A   1       9.011  51.371   8.888  1.00  0.00    +0.000 C 
ATOM    109  H11 UNL A   1       8.631  51.071   9.843  1.00  0.00    +0.000 H 
ATOM    110  H12 UNL A   1       8.415  52.127   8.422  1.00  0.00    +0.000 H 
BRANCH   18   17
ATOM     17  C11 UNL A   1       8.981  50.163   7.964  1.00  0.00    +0.000 C 
ATOM    107  H9  UNL A   1       8.104  49.589   8.182  1.00  0.00    +0.000 H 
ATOM    108  H10 UNL A   1       8.982  50.531   6.959  1.00  0.00    +0.000 H 
BRANCH   17   16
ATOM    106  H8  UNL A   1      10.928  49.586   7.593  1.00  0.00    +0.000 H 
ATOM     16  N1  UNL A   1      10.137  49.306   8.109  1.00  0.00    +0.000 N 
BRANCH   16   14
ATOM     14  C10 UNL A   1      10.304  48.168   8.848  1.00  0.00    +0.000 C 
ATOM     15  O5  UNL A   1       9.728  47.158   8.442  1.00  0.00    +0.000 O 
BRANCH   14   13
ATOM      1  O1  UNL A   1      14.445  47.026   8.938  1.00  0.00    +0.000 O 
ATOM      2  C1  UNL A   1      13.359  47.191   9.467  1.00  0.00    +0.000 C 
ATOM      3  O2  UNL A   1      12.603  46.213  10.022  1.00  0.00    +0.000 O 
ATOM      4  C2  UNL A   1      11.436  46.767  10.654  1.00  0.00    +0.000 C 
ATOM     99  H1  UNL A   1      10.556  46.189  10.460  1.00  0.00    +0.000 H 
ATOM    105  H7  UNL A   1      10.802  48.857  10.736  1.00  0.00    +0.000 H 
ATOM     13  C9  UNL A   1      11.247  48.159  10.059  1.00  0.00    +0.000 C 
ATOM     89  C62 UNL A   1      12.645  48.467   9.639  1.00  0.00    +0.000 C 
BRANCH    4    5
ATOM    100  H2  UNL A   1      13.014  45.201  12.266  1.00  0.00    +0.000 H 
ATOM      5  C3  UNL A   1      11.545  46.723  12.182  1.00  0.00    +0.000 C 
ATOM      6  C4  UNL A   1      12.467  45.869  12.830  1.00  0.00    +0.000 C 
ATOM      7  C5  UNL A   1      12.661  45.904  14.216  1.00  0.00    +0.000 C 
ATOM    104  H6  UNL A   1      10.116  48.242  12.548  1.00  0.00    +0.000 H 
ATOM    101  H3  UNL A   1      13.353  45.283  14.664  1.00  0.00    +0.000 H 
ATOM     10  C7  UNL A   1      10.981  47.615  14.363  1.00  0.00    +0.000 C 
ATOM      8  C6  UNL A   1      11.911  46.785  14.977  1.00  0.00    +0.000 C 
ATOM     12  C8  UNL A   1      10.800  47.603  12.983  1.00  0.00    +0.000 C 
BRANCH    8    9
ATOM      9  O3  UNL A   1      12.056  46.873  16.332  1.00  0.00    +0.000 O 
ATOM    102  H4  UNL A   1      12.140  47.711  16.740  1.00  0.00    +0.000 H 
ENDBRANCH    8    9
BRANCH   10   11
ATOM     11  O4  UNL A   1      10.235  48.472  15.122  1.00  0.00    +0.000 O 
ATOM    103  H5  UNL A   1       9.298  48.440  15.080  1.00  0.00    +0.000 H 
ENDBRANCH   10   11
ENDBRANCH    4    5
BRANCH   89   90
ATOM     90  C63 UNL A   1      13.283  49.630   9.436  1.00  0.00    +0.000 C 
ATOM    134  H36 UNL A   1      13.319  49.998   8.472  1.00  0.00    +0.000 H 
BRANCH   90   91
ATOM     98  C69 UNL A   1      15.325  50.427  10.572  1.00  0.00    +0.000 C 
ATOM    135  H37 UNL A   1      12.137  51.076  11.396  1.00  0.00    +0.000 H 
ATOM    136  H38 UNL A   1      13.233  52.364  13.145  1.00  0.00    +0.000 H 
ATOM    139  H41 UNL A   1      15.893  49.907   9.884  1.00  0.00    +0.000 H 
ATOM     91  C64 UNL A   1      13.928  50.410  10.491  1.00  0.00    +0.000 C 
ATOM     92  C65 UNL A   1      13.167  51.107  11.443  1.00  0.00    +0.000 C 
ATOM     93  C66 UNL A   1      13.794  51.841  12.454  1.00  0.00    +0.000 C 
ATOM     94  C67 UNL A   1      15.182  51.859  12.515  1.00  0.00    +0.000 C 
ATOM     96  C68 UNL A   1      15.937  51.152  11.583  1.00  0.00    +0.000 C 
BRANCH   94   95
ATOM    137  H39 UNL A   1      16.269  52.100  14.184  1.00  0.00    +0.000 H 
ATOM     95  O7  UNL A   1      15.853  52.557  13.481  1.00  0.00    +0.000 O 
ENDBRANCH   94   95
BRANCH   96   97
ATOM     97  O8  UNL A   1      17.300  51.163  11.663  1.00  0.00    +0.000 O 
ATOM    138  H40 UNL A   1      17.721  51.238  12.498  1.00  0.00    +0.000 H 
ENDBRANCH   96   97
ENDBRANCH   90   91
ENDBRANCH   89   90
ENDBRANCH   14   13
ENDBRANCH   16   14
ENDBRANCH   17   16
ENDBRANCH   18   17
ENDBRANCH   19   18
ENDBRANCH   20   19
ENDBRANCH   21   20
ENDBRANCH   22   21
ENDBRANCH   23   22
ENDBRANCH   24   23
ENDBRANCH   26   24
ENDBRANCH   30   29
BRANCH   34   35
ATOM     35  C26 UNL A   1      17.781  55.304   0.629  1.00  0.00    +0.000 C 
ATOM     36  C27 UNL A   1      19.030  55.684   1.145  1.00  0.00    +0.000 C 
ATOM     37  F1  UNL A   1      19.557  55.032   2.192  1.00  0.00    +0.000 F 
ATOM     38  C28 UNL A   1      19.727  56.768   0.615  1.00  0.00    +0.000 C 
ATOM     39  F2  UNL A   1      20.889  57.147   1.162  1.00  0.00    +0.000 F 
ATOM     40  C29 UNL A   1      19.210  57.465  -0.467  1.00  0.00    +0.000 C 
ATOM     41  F3  UNL A   1      19.885  58.502  -0.981  1.00  0.00    +0.000 F 
ATOM     42  C30 UNL A   1      17.990  57.091  -1.010  1.00  0.00    +0.000 C 
ATOM     43  F4  UNL A   1      17.496  57.753  -2.065  1.00  0.00    +0.000 F 
ATOM     44  C31 UNL A   1      17.275  56.031  -0.459  1.00  0.00    +0.000 C 
ATOM     45  F5  UNL A   1      16.088  55.708  -0.995  1.00  0.00    +0.000 F 
ENDBRANCH   34   35
BRANCH   51   52
ATOM     52  C37 UNL A   1      16.738  48.327  -0.863  1.00  0.00    +0.000 C 
ATOM     53  C38 UNL A   1      15.985  47.970  -1.991  1.00  0.00    +0.000 C 
ATOM     54  F6  UNL A   1      14.761  48.487  -2.177  1.00  0.00    +0.000 F 
ATOM     55  C39 UNL A   1      16.472  47.046  -2.913  1.00  0.00    +0.000 C 
ATOM     56  F7  UNL A   1      15.714  46.681  -3.957  1.00  0.00    +0.000 F 
ATOM     57  C40 UNL A   1      17.733  46.495  -2.747  1.00  0.00    +0.000 C 
ATOM     58  F8  UNL A   1      18.205  45.616  -3.643  1.00  0.00    +0.000 F 
ATOM     59  C41 UNL A   1      18.504  46.849  -1.651  1.00  0.00    +0.000 C 
ATOM     60  F9  UNL A   1      19.731  46.332  -1.498  1.00  0.00    +0.000 F 
ATOM     61  C42 UNL A   1      18.006  47.744  -0.709  1.00  0.00    +0.000 C 
ATOM     62  F10 UNL A   1      18.771  48.058   0.348  1.00  0.00    +0.000 F 
ENDBRANCH   51   52
BRANCH   66   67
ATOM     67  C46 UNL A   1      12.354  47.877   4.541  1.00  0.00    +0.000 C 
ATOM     68  C47 UNL A   1      12.844  47.060   5.570  1.00  0.00    +0.000 C 
ATOM     69  F11 UNL A   1      14.075  47.266   6.060  1.00  0.00    +0.000 F 
ATOM     70  C48 UNL A   1      12.091  45.997   6.068  1.00  0.00    +0.000 C 
ATOM     71  F12 UNL A   1      12.607  45.200   7.012  1.00  0.00    +0.000 F 
ATOM     72  C49 UNL A   1      10.820  45.754   5.573  1.00  0.00    +0.000 C 
ATOM     73  F13 UNL A   1      10.096  44.733   6.052  1.00  0.00    +0.000 F 
ATOM     74  C50 UNL A   1      10.304  46.564   4.573  1.00  0.00    +0.000 C 
ATOM     75  F14 UNL A   1       9.069  46.343   4.102  1.00  0.00    +0.000 F 
ATOM     76  C51 UNL A   1      11.069  47.606   4.051  1.00  0.00    +0.000 C 
ATOM     77  F15 UNL A   1      10.549  48.361   3.073  1.00  0.00    +0.000 F 
ENDBRANCH   66   67
TORSDOF 22
ENDMDL
MODEL 10
REMARK VINA RESULT:      -8.5     64.264     69.927
ROOT
ATOM    129  H31 UNL A   1      18.065  50.947  -1.429  1.00  0.00    +0.000 H 
ATOM    130  H32 UNL A   1      12.107  50.396   6.638  1.00  0.00    +0.000 H 
ATOM    131  H33 UNL A   1      12.165  52.946   6.848  1.00  0.00    +0.000 H 
ATOM     30  C22 UNL A   1      13.973  54.202   5.038  1.00  0.00    +0.000 C 
ATOM     31  C23 UNL A   1      13.586  52.750   5.091  1.00  0.00    +0.000 C 
ATOM     32  N3  UNL A   1      13.980  51.757   4.334  1.00  0.00    +0.000 N 
ATOM     33  C24 UNL A   1      13.355  50.625   4.840  1.00  0.00    +0.000 C 
ATOM     34  C25 UNL A   1      13.383  49.359   4.360  1.00  0.00    +0.000 C 
ATOM     46  C32 UNL A   1      14.111  48.957   3.185  1.00  0.00    +0.000 C 
ATOM     47  C33 UNL A   1      14.164  47.710   2.588  1.00  0.00    +0.000 C 
ATOM     48  C34 UNL A   1      15.048  47.781   1.506  1.00  0.00    +0.000 C 
ATOM     49  C35 UNL A   1      15.493  49.087   1.388  1.00  0.00    +0.000 C 
ATOM     50  N4  UNL A   1      14.917  49.797   2.430  1.00  0.00    +0.000 N 
ATOM     51  C36 UNL A   1      16.377  49.648   0.396  1.00  0.00    +0.000 C 
ATOM     63  C43 UNL A   1      16.769  50.944   0.350  1.00  0.00    +0.000 C 
ATOM     64  N5  UNL A   1      16.421  51.993   1.190  1.00  0.00    +0.000 N 
ATOM     65  C44 UNL A   1      17.060  53.045   0.739  1.00  0.00    +0.000 C 
ATOM     66  C45 UNL A   1      17.028  54.466   1.237  1.00  0.00    +0.000 C 
ATOM     78  C52 UNL A   1      16.242  54.775   2.286  1.00  0.00    +0.000 C 
ATOM     79  C53 UNL A   1      16.105  56.100   2.882  1.00  0.00    +0.000 C 
ATOM     80  C54 UNL A   1      15.290  56.020   3.945  1.00  0.00    +0.000 C 
ATOM     81  C55 UNL A   1      14.811  54.644   4.081  1.00  0.00    +0.000 C 
ATOM     82  N6  UNL A   1      15.419  53.978   3.045  1.00  0.00    +0.000 N 
ATOM     83  C56 UNL A   1      17.921  52.770  -0.421  1.00  0.00    +0.000 C 
ATOM     84  C57 UNL A   1      17.670  51.489  -0.645  1.00  0.00    +0.000 C 
ATOM     85  C58 UNL A   1      12.610  51.040   6.007  1.00  0.00    +0.000 C 
ATOM     86  C59 UNL A   1      12.655  52.354   6.160  1.00  0.00    +0.000 C 
ATOM    122  H24 UNL A   1      13.642  46.872   2.888  1.00  0.00    +0.000 H 
ATOM    123  H25 UNL A   1      15.322  46.993   0.899  1.00  0.00    +0.000 H 
ATOM    124  H26 UNL A   1      15.059  50.755   2.608  1.00  0.00    +0.000 H 
ATOM    125  H27 UNL A   1      16.560  56.961   2.539  1.00  0.00    +0.000 H 
ATOM    126  H28 UNL A   1      15.042  56.804   4.569  1.00  0.00    +0.000 H 
ATOM    127  H29 UNL A   1      15.278  53.021   2.864  1.00  0.00    +0.000 H 
ATOM    128  H30 UNL A   1      18.554  53.408  -0.927  1.00  0.00    +0.000 H 
ENDROOT
BRANCH   30   29
ATOM    132  H34 UNL A   1      11.796  55.752   4.974  1.00  0.00    +0.000 H 
ATOM    133  H35 UNL A   1      11.058  57.393   6.598  1.00  0.00    +0.000 H 
ATOM    120  H22 UNL A   1      14.176  56.253   9.181  1.00  0.00    +0.000 H 
ATOM     87  C60 UNL A   1      12.320  55.879   5.854  1.00  0.00    +0.000 C 
ATOM     88  C61 UNL A   1      11.865  56.786   6.806  1.00  0.00    +0.000 C 
ATOM    121  H23 UNL A   1      15.069  54.802   7.450  1.00  0.00    +0.000 H 
ATOM     26  C18 UNL A   1      12.507  56.873   8.044  1.00  0.00    +0.000 C 
ATOM     27  C19 UNL A   1      13.681  56.156   8.281  1.00  0.00    +0.000 C 
ATOM     28  C20 UNL A   1      14.183  55.307   7.292  1.00  0.00    +0.000 C 
ATOM     29  C21 UNL A   1      13.488  55.136   6.084  1.00  0.00    +0.000 C 
BRANCH   26   24
ATOM     25  O6  UNL A   1      12.199  58.922   9.144  1.00  0.00    +0.000 O 
ATOM     24  C17 UNL A   1      11.956  57.720   9.122  1.00  0.00    +0.000 C 
BRANCH   24   23
ATOM    119  H21 UNL A   1      11.389  57.430  11.023  1.00  0.00    +0.000 H 
ATOM     23  N2  UNL A   1      11.181  57.151  10.102  1.00  0.00    +0.000 N 
BRANCH   23   22
ATOM    118  H20 UNL A   1       9.837  56.136   8.930  1.00  0.00    +0.000 H 
ATOM    117  H19 UNL A   1       9.267  56.529  10.557  1.00  0.00    +0.000 H 
ATOM     22  C16 UNL A   1      10.095  56.195   9.967  1.00  0.00    +0.000 C 
BRANCH   22   21
ATOM    115  H17 UNL A   1      11.301  54.898  11.127  1.00  0.00    +0.000 H 
ATOM    116  H18 UNL A   1       9.620  54.359  10.857  1.00  0.00    +0.000 H 
ATOM     21  C15 UNL A   1      10.495  54.800  10.429  1.00  0.00    +0.000 C 
BRANCH   21   20
ATOM    113  H15 UNL A   1      10.079  53.545   8.770  1.00  0.00    +0.000 H 
ATOM    114  H16 UNL A   1      11.641  54.420   8.716  1.00  0.00    +0.000 H 
ATOM     20  C14 UNL A   1      10.948  53.860   9.309  1.00  0.00    +0.000 C 
BRANCH   20   19
ATOM     19  C13 UNL A   1      11.701  52.607   9.767  1.00  0.00    +0.000 C 
ATOM    111  H13 UNL A   1      11.429  52.409  10.782  1.00  0.00    +0.000 H 
ATOM    112  H14 UNL A   1      11.420  51.827   9.091  1.00  0.00    +0.000 H 
BRANCH   19   18
ATOM     18  C12 UNL A   1      13.225  52.703   9.694  1.00  0.00    +0.000 C 
ATOM    109  H11 UNL A   1      13.596  51.804   9.250  1.00  0.00    +0.000 H 
ATOM    110  H12 UNL A   1      13.449  53.576   9.118  1.00  0.00    +0.000 H 
BRANCH   18   17
ATOM     17  C11 UNL A   1      13.909  52.885  11.041  1.00  0.00    +0.000 C 
ATOM    107  H9  UNL A   1      14.813  53.440  10.892  1.00  0.00    +0.000 H 
ATOM    108  H10 UNL A   1      13.222  53.401  11.679  1.00  0.00    +0.000 H 
BRANCH   17   16
ATOM    106  H8  UNL A   1      14.902  51.083  11.209  1.00  0.00    +0.000 H 
ATOM     16  N1  UNL A   1      14.239  51.634  11.686  1.00  0.00    +0.000 N 
BRANCH   16   14
ATOM     14  C10 UNL A   1      13.775  51.096  12.855  1.00  0.00    +0.000 C 
ATOM     15  O5  UNL A   1      13.715  51.853  13.824  1.00  0.00    +0.000 O 
BRANCH   14   13
ATOM      1  O1  UNL A   1      11.498  49.029   9.853  1.00  0.00    +0.000 O 
ATOM      2  C1  UNL A   1      11.865  49.199  11.003  1.00  0.00    +0.000 C 
ATOM      3  O2  UNL A   1      11.058  49.533  12.040  1.00  0.00    +0.000 O 
ATOM      4  C2  UNL A   1      11.794  49.546  13.276  1.00  0.00    +0.000 C 
ATOM     99  H1  UNL A   1      11.540  50.384  13.891  1.00  0.00    +0.000 H 
ATOM    105  H7  UNL A   1      13.924  49.166  13.590  1.00  0.00    +0.000 H 
ATOM     13  C9  UNL A   1      13.268  49.648  12.896  1.00  0.00    +0.000 C 
ATOM     89  C62 UNL A   1      13.236  49.063  11.523  1.00  0.00    +0.000 C 
BRANCH    4    5
ATOM    100  H2  UNL A   1       9.334  48.598  14.045  1.00  0.00    +0.000 H 
ATOM      5  C3  UNL A   1      11.433  48.348  14.161  1.00  0.00    +0.000 C 
ATOM      6  C4  UNL A   1      10.087  47.989  14.401  1.00  0.00    +0.000 C 
ATOM      7  C5  UNL A   1       9.744  46.831  15.109  1.00  0.00    +0.000 C 
ATOM    104  H6  UNL A   1      13.427  47.738  14.528  1.00  0.00    +0.000 H 
ATOM    101  H3  UNL A   1       8.754  46.581  15.256  1.00  0.00    +0.000 H 
ATOM     10  C7  UNL A   1      12.085  46.373  15.405  1.00  0.00    +0.000 C 
ATOM      8  C6  UNL A   1      10.754  46.025  15.608  1.00  0.00    +0.000 C 
ATOM     12  C8  UNL A   1      12.432  47.510  14.681  1.00  0.00    +0.000 C 
BRANCH    8    9
ATOM      9  O3  UNL A   1      10.487  44.879  16.300  1.00  0.00    +0.000 O 
ATOM    102  H4  UNL A   1       9.810  44.302  16.008  1.00  0.00    +0.000 H 
ENDBRANCH    8    9
BRANCH   10   11
ATOM     11  O4  UNL A   1      13.075  45.581  15.911  1.00  0.00    +0.000 O 
ATOM    103  H5  UNL A   1      13.871  45.460  15.429  1.00  0.00    +0.000 H 
ENDBRANCH   10   11
ENDBRANCH    4    5
BRANCH   89   90
ATOM     90  C63 UNL A   1      14.184  48.471  10.781  1.00  0.00    +0.000 C 
ATOM    134  H36 UNL A   1      14.118  47.451  10.639  1.00  0.00    +0.000 H 
BRANCH   90   91
ATOM     98  C69 UNL A   1      15.141  49.722   8.880  1.00  0.00    +0.000 C 
ATOM    135  H37 UNL A   1      16.668  48.860  11.741  1.00  0.00    +0.000 H 
ATOM    136  H38 UNL A   1      18.517  50.036  10.683  1.00  0.00    +0.000 H 
ATOM    139  H41 UNL A   1      14.236  49.640   8.388  1.00  0.00    +0.000 H 
ATOM     91  C64 UNL A   1      15.302  49.177  10.158  1.00  0.00    +0.000 C 
ATOM     92  C65 UNL A   1      16.543  49.281  10.807  1.00  0.00    +0.000 C 
ATOM     93  C66 UNL A   1      17.609  49.949  10.198  1.00  0.00    +0.000 C 
ATOM     94  C67 UNL A   1      17.431  50.495   8.934  1.00  0.00    +0.000 C 
ATOM     96  C68 UNL A   1      16.207  50.376   8.280  1.00  0.00    +0.000 C 
BRANCH   94   95
ATOM    137  H39 UNL A   1      18.480  51.143   7.350  1.00  0.00    +0.000 H 
ATOM     95  O7  UNL A   1      18.436  51.159   8.285  1.00  0.00    +0.000 O 
ENDBRANCH   94   95
BRANCH   96   97
ATOM     97  O8  UNL A   1      16.049  50.902   7.030  1.00  0.00    +0.000 O 
ATOM    138  H40 UNL A   1      15.913  51.824   6.923  1.00  0.00    +0.000 H 
ENDBRANCH   96   97
ENDBRANCH   90   91
ENDBRANCH   89   90
ENDBRANCH   14   13
ENDBRANCH   16   14
ENDBRANCH   17   16
ENDBRANCH   18   17
ENDBRANCH   19   18
ENDBRANCH   20   19
ENDBRANCH   21   20
ENDBRANCH   22   21
ENDBRANCH   23   22
ENDBRANCH   24   23
ENDBRANCH   26   24
ENDBRANCH   30   29
BRANCH   34   35
ATOM     35  C26 UNL A   1      12.604  48.314   5.108  1.00  0.00    +0.000 C 
ATOM     36  C27 UNL A   1      11.285  47.985   4.758  1.00  0.00    +0.000 C 
ATOM     37  F1  UNL A   1      10.667  48.637   3.762  1.00  0.00    +0.000 F 
ATOM     38  C28 UNL A   1      10.576  47.014   5.462  1.00  0.00    +0.000 C 
ATOM     39  F2  UNL A   1       9.299  46.760   5.147  1.00  0.00    +0.000 F 
ATOM     40  C29 UNL A   1      11.185  46.323   6.498  1.00  0.00    +0.000 C 
ATOM     41  F3  UNL A   1      10.504  45.383   7.168  1.00  0.00    +0.000 F 
ATOM     42  C30 UNL A   1      12.496  46.611   6.844  1.00  0.00    +0.000 C 
ATOM     43  F4  UNL A   1      13.091  45.934   7.835  1.00  0.00    +0.000 F 
ATOM     44  C31 UNL A   1      13.195  47.607   6.167  1.00  0.00    +0.000 C 
ATOM     45  F5  UNL A   1      14.455  47.876   6.540  1.00  0.00    +0.000 F 
ENDBRANCH   34   35
BRANCH   51   52
ATOM     52  C37 UNL A   1      16.874  48.734  -0.688  1.00  0.00    +0.000 C 
ATOM     53  C38 UNL A   1      18.051  47.985  -0.545  1.00  0.00    +0.000 C 
ATOM     54  F6  UNL A   1      18.804  48.115   0.557  1.00  0.00    +0.000 F 
ATOM     55  C39 UNL A   1      18.481  47.128  -1.556  1.00  0.00    +0.000 C 
ATOM     56  F7  UNL A   1      19.636  46.462  -1.420  1.00  0.00    +0.000 F 
ATOM     57  C40 UNL A   1      17.723  46.973  -2.707  1.00  0.00    +0.000 C 
ATOM     58  F8  UNL A   1      18.133  46.138  -3.672  1.00  0.00    +0.000 F 
ATOM     59  C41 UNL A   1      16.546  47.687  -2.861  1.00  0.00    +0.000 C 
ATOM     60  F9  UNL A   1      15.802  47.525  -3.964  1.00  0.00    +0.000 F 
ATOM     61  C42 UNL A   1      16.131  48.571  -1.868  1.00  0.00    +0.000 C 
ATOM     62  F10 UNL A   1      14.993  49.256  -2.052  1.00  0.00    +0.000 F 
ENDBRANCH   51   52
BRANCH   66   67
ATOM     67  C46 UNL A   1      17.832  55.525   0.571  1.00  0.00    +0.000 C 
ATOM     68  C47 UNL A   1      17.348  56.189  -0.565  1.00  0.00    +0.000 C 
ATOM     69  F11 UNL A   1      16.148  55.867  -1.068  1.00  0.00    +0.000 F 
ATOM     70  C48 UNL A   1      18.115  57.154  -1.218  1.00  0.00    +0.000 C 
ATOM     71  F12 UNL A   1      17.650  57.732  -2.333  1.00  0.00    +0.000 F 
ATOM     72  C49 UNL A   1      19.364  57.499  -0.726  1.00  0.00    +0.000 C 
ATOM     73  F13 UNL A   1      20.100  58.427  -1.353  1.00  0.00    +0.000 F 
ATOM     74  C50 UNL A   1      19.853  56.874   0.410  1.00  0.00    +0.000 C 
ATOM     75  F14 UNL A   1      21.053  57.216   0.899  1.00  0.00    +0.000 F 
ATOM     76  C51 UNL A   1      19.102  55.886   1.045  1.00  0.00    +0.000 C 
ATOM     77  F15 UNL A   1      19.609  55.287   2.132  1.00  0.00    +0.000 F 
ENDBRANCH   66   67
TORSDOF 22
ENDMDL
