MODEL 1
REMARK VINA RESULT:     -12.5      0.000      0.000
ROOT
ATOM    129  H38 UNL A   1      25.215  30.236  46.137  1.00  0.00    +0.000 H 
ATOM     33  C26 UNL A   1      25.369  33.125  46.421  1.00  0.00    +0.000 C 
ATOM     34  C27 UNL A   1      26.289  32.043  47.005  1.00  0.00    +0.000 C 
ATOM     35  N4  UNL A   1      27.313  32.151  47.799  1.00  0.00    +0.000 N 
ATOM     36  C28 UNL A   1      27.870  30.863  47.946  1.00  0.00    +0.000 C 
ATOM     37  C29 UNL A   1      29.115  30.630  48.454  1.00  0.00    +0.000 C 
ATOM     49  C36 UNL A   1      29.727  31.843  48.873  1.00  0.00    +0.000 C 
ATOM     50  C37 UNL A   1      29.578  32.644  49.973  1.00  0.00    +0.000 C 
ATOM     51  C38 UNL A   1      29.948  33.931  49.528  1.00  0.00    +0.000 C 
ATOM     52  C39 UNL A   1      30.368  33.853  48.196  1.00  0.00    +0.000 C 
ATOM     53  N5  UNL A   1      30.491  32.508  47.947  1.00  0.00    +0.000 N 
ATOM     54  C40 UNL A   1      30.483  34.754  47.072  1.00  0.00    +0.000 C 
ATOM     66  C47 UNL A   1      30.117  36.045  47.268  1.00  0.00    +0.000 C 
ATOM     67  N6  UNL A   1      29.355  36.690  46.319  1.00  0.00    +0.000 N 
ATOM     68  C48 UNL A   1      28.434  37.260  47.037  1.00  0.00    +0.000 C 
ATOM     69  C49 UNL A   1      27.157  37.784  46.517  1.00  0.00    +0.000 C 
ATOM     81  C56 UNL A   1      26.380  36.686  46.256  1.00  0.00    +0.000 C 
ATOM     82  C57 UNL A   1      25.045  36.650  45.692  1.00  0.00    +0.000 C 
ATOM     83  C58 UNL A   1      24.590  35.383  45.669  1.00  0.00    +0.000 C 
ATOM     84  C59 UNL A   1      25.584  34.461  46.245  1.00  0.00    +0.000 C 
ATOM     85  N7  UNL A   1      26.641  35.314  46.508  1.00  0.00    +0.000 N 
ATOM     86  C60 UNL A   1      28.675  37.306  48.486  1.00  0.00    +0.000 C 
ATOM     87  C61 UNL A   1      29.855  36.697  48.526  1.00  0.00    +0.000 C 
ATOM     88  C62 UNL A   1      26.953  29.948  47.336  1.00  0.00    +0.000 C 
ATOM     89  C63 UNL A   1      25.989  30.617  46.703  1.00  0.00    +0.000 C 
ATOM    120  H29 UNL A   1      29.266  32.368  50.917  1.00  0.00    +0.000 H 
ATOM    121  H30 UNL A   1      29.914  34.794  50.095  1.00  0.00    +0.000 H 
ATOM    122  H31 UNL A   1      31.028  32.095  47.234  1.00  0.00    +0.000 H 
ATOM    123  H32 UNL A   1      24.521  37.474  45.357  1.00  0.00    +0.000 H 
ATOM    124  H33 UNL A   1      23.670  35.097  45.300  1.00  0.00    +0.000 H 
ATOM    125  H34 UNL A   1      27.508  34.993  46.844  1.00  0.00    +0.000 H 
ATOM    126  H35 UNL A   1      28.096  37.696  49.247  1.00  0.00    +0.000 H 
ATOM    127  H36 UNL A   1      30.490  36.691  49.340  1.00  0.00    +0.000 H 
ATOM    128  H37 UNL A   1      27.029  28.920  47.379  1.00  0.00    +0.000 H 
ENDROOT
BRANCH   33   32
ATOM    130  H39 UNL A   1      23.275  32.366  47.964  1.00  0.00    +0.000 H 
ATOM    131  H40 UNL A   1      21.035  31.777  47.236  1.00  0.00    +0.000 H 
ATOM    118  H27 UNL A   1      22.253  32.114  43.220  1.00  0.00    +0.000 H 
ATOM    119  H28 UNL A   1      24.506  32.647  43.941  1.00  0.00    +0.000 H 
ATOM     90  C64 UNL A   1      23.053  32.325  46.958  1.00  0.00    +0.000 C 
ATOM     91  C65 UNL A   1      21.763  32.000  46.539  1.00  0.00    +0.000 C 
ATOM     29  C22 UNL A   1      21.458  31.977  45.176  1.00  0.00    +0.000 C 
ATOM     30  C23 UNL A   1      22.468  32.187  44.226  1.00  0.00    +0.000 C 
ATOM     31  C24 UNL A   1      23.762  32.495  44.639  1.00  0.00    +0.000 C 
ATOM     32  C25 UNL A   1      24.046  32.596  46.005  1.00  0.00    +0.000 C 
BRANCH   29   27
ATOM     27  C21 UNL A   1      20.104  31.652  44.665  1.00  0.00    +0.000 C 
ATOM     28  O4  UNL A   1      19.873  30.538  44.240  1.00  0.00    +0.000 O 
BRANCH   27   26
ATOM     26  N3  UNL A   1      19.106  32.602  44.641  1.00  0.00    +0.000 N 
ATOM    117  H26 UNL A   1      18.603  32.719  45.479  1.00  0.00    +0.000 H 
BRANCH   26   25
ATOM     25  C20 UNL A   1      18.703  33.455  43.536  1.00  0.00    +0.000 C 
ATOM    115  H24 UNL A   1      18.673  34.471  43.871  1.00  0.00    +0.000 H 
ATOM    116  H25 UNL A   1      19.412  33.342  42.743  1.00  0.00    +0.000 H 
BRANCH   25   24
ATOM    113  H22 UNL A   1      16.701  32.821  43.849  1.00  0.00    +0.000 H 
ATOM    114  H23 UNL A   1      16.957  33.896  42.450  1.00  0.00    +0.000 H 
ATOM     24  C19 UNL A   1      17.322  33.061  43.011  1.00  0.00    +0.000 C 
BRANCH   24   23
ATOM    111  H20 UNL A   1      17.104  32.218  41.073  1.00  0.00    +0.000 H 
ATOM     23  C18 UNL A   1      17.326  31.859  42.056  1.00  0.00    +0.000 C 
ATOM    112  H21 UNL A   1      18.296  31.417  42.144  1.00  0.00    +0.000 H 
BRANCH   23   22
ATOM    110  H19 UNL A   1      16.561  29.933  41.742  1.00  0.00    +0.000 H 
ATOM    109  H18 UNL A   1      15.339  31.141  42.250  1.00  0.00    +0.000 H 
ATOM     22  C17 UNL A   1      16.325  30.750  42.392  1.00  0.00    +0.000 C 
BRANCH   22   21
ATOM    107  H16 UNL A   1      17.091  30.804  44.374  1.00  0.00    +0.000 H 
ATOM    108  H17 UNL A   1      15.414  30.205  44.205  1.00  0.00    +0.000 H 
ATOM     21  C16 UNL A   1      16.412  30.192  43.818  1.00  0.00    +0.000 C 
BRANCH   21   20
ATOM    105  H14 UNL A   1      17.186  28.408  42.944  1.00  0.00    +0.000 H 
ATOM    106  H15 UNL A   1      17.712  28.708  44.601  1.00  0.00    +0.000 H 
ATOM     20  C15 UNL A   1      16.890  28.742  43.917  1.00  0.00    +0.000 C 
BRANCH   20   19
ATOM     19  N2  UNL A   1      15.848  27.868  44.416  1.00  0.00    +0.000 N 
ATOM    104  H13 UNL A   1      15.203  28.227  45.067  1.00  0.00    +0.000 H 
BRANCH   19    2
ATOM      1  O1  UNL A   1      16.594  25.706  44.200  1.00  0.00    +0.000 O 
ATOM      2  C1  UNL A   1      15.723  26.553  44.016  1.00  0.00    +0.000 C 
BRANCH    2    3
ATOM      3  C2  UNL A   1      14.452  26.245  43.231  1.00  0.00    +0.000 C 
ATOM     92  H1  UNL A   1      13.680  26.918  43.540  1.00  0.00    +0.000 H 
ATOM     93  H2  UNL A   1      14.173  25.231  43.428  1.00  0.00    +0.000 H 
BRANCH    3    4
ATOM      4  C3  UNL A   1      14.671  26.398  41.751  1.00  0.00    +0.000 C 
ATOM      5  C4  UNL A   1      15.015  27.551  41.064  1.00  0.00    +0.000 C 
ATOM      6  C5  UNL A   1      15.299  27.195  39.730  1.00  0.00    +0.000 C 
ATOM      7  C6  UNL A   1      15.118  25.836  39.629  1.00  0.00    +0.000 C 
ATOM      8  N1  UNL A   1      14.650  25.352  40.834  1.00  0.00    +0.000 N 
ATOM     94  H3  UNL A   1      15.055  28.503  41.459  1.00  0.00    +0.000 H 
ATOM     95  H4  UNL A   1      15.590  27.835  38.973  1.00  0.00    +0.000 H 
ATOM     96  H5  UNL A   1      15.303  25.269  38.787  1.00  0.00    +0.000 H 
BRANCH    8    9
ATOM     97  H6  UNL A   1      15.364  23.781  42.833  1.00  0.00    +0.000 H 
ATOM     98  H7  UNL A   1      14.628  21.500  43.241  1.00  0.00    +0.000 H 
ATOM     99  H8  UNL A   1      13.082  23.875  39.288  1.00  0.00    +0.000 H 
ATOM    100  H9  UNL A   1      11.257  19.713  39.015  1.00  0.00    +0.000 H 
ATOM    101  H10 UNL A   1      10.853  20.497  40.538  1.00  0.00    +0.000 H 
ATOM    102  H11 UNL A   1      13.482  19.196  39.920  1.00  0.00    +0.000 H 
ATOM    103  H12 UNL A   1      12.191  18.483  40.876  1.00  0.00    +0.000 H 
ATOM      9  C7  UNL A   1      14.248  24.010  41.049  1.00  0.00    +0.000 C 
ATOM     10  C8  UNL A   1      14.719  23.318  42.173  1.00  0.00    +0.000 C 
ATOM     11  C9  UNL A   1      14.313  22.001  42.396  1.00  0.00    +0.000 C 
ATOM     12  C10 UNL A   1      13.483  21.363  41.475  1.00  0.00    +0.000 C 
ATOM     13  C11 UNL A   1      13.031  22.047  40.344  1.00  0.00    +0.000 C 
ATOM     14  C12 UNL A   1      13.413  23.371  40.125  1.00  0.00    +0.000 C 
ATOM     15  O2  UNL A   1      12.226  21.477  39.390  1.00  0.00    +0.000 O 
ATOM     16  C13 UNL A   1      11.640  20.257  39.853  1.00  0.00    +0.000 C 
ATOM     17  C14 UNL A   1      12.662  19.395  40.578  1.00  0.00    +0.000 C 
ATOM     18  O3  UNL A   1      13.151  20.061  41.747  1.00  0.00    +0.000 O 
ENDBRANCH    8    9
ENDBRANCH    3    4
ENDBRANCH    2    3
ENDBRANCH   19    2
ENDBRANCH   20   19
ENDBRANCH   21   20
ENDBRANCH   22   21
ENDBRANCH   23   22
ENDBRANCH   24   23
ENDBRANCH   25   24
ENDBRANCH   26   25
ENDBRANCH   27   26
ENDBRANCH   29   27
ENDBRANCH   33   32
BRANCH   37   38
ATOM     38  C30 UNL A   1      29.988  29.403  48.430  1.00  0.00    +0.000 C 
ATOM     39  C31 UNL A   1      29.805  28.424  49.440  1.00  0.00    +0.000 C 
ATOM     40  F1  UNL A   1      28.674  28.389  50.164  1.00  0.00    +0.000 F 
ATOM     41  C32 UNL A   1      30.805  27.517  49.784  1.00  0.00    +0.000 C 
ATOM     42  F2  UNL A   1      30.637  26.703  50.836  1.00  0.00    +0.000 F 
ATOM     43  C33 UNL A   1      31.994  27.505  49.084  1.00  0.00    +0.000 C 
ATOM     44  F3  UNL A   1      32.985  26.682  49.453  1.00  0.00    +0.000 F 
ATOM     45  C34 UNL A   1      32.166  28.376  48.021  1.00  0.00    +0.000 C 
ATOM     46  F4  UNL A   1      33.317  28.363  47.334  1.00  0.00    +0.000 F 
ATOM     47  C35 UNL A   1      31.184  29.322  47.704  1.00  0.00    +0.000 C 
ATOM     48  F5  UNL A   1      31.473  30.213  46.747  1.00  0.00    +0.000 F 
ENDBRANCH   37   38
BRANCH   54   55
ATOM     65  F10 UNL A   1      28.190  33.870  45.498  1.00  0.00    +0.000 F 
ATOM     55  C41 UNL A   1      30.512  34.353  45.613  1.00  0.00    +0.000 C 
ATOM     56  C42 UNL A   1      31.703  34.462  44.881  1.00  0.00    +0.000 C 
ATOM     57  F6  UNL A   1      32.841  34.803  45.504  1.00  0.00    +0.000 F 
ATOM     58  C43 UNL A   1      31.736  34.225  43.505  1.00  0.00    +0.000 C 
ATOM     59  F7  UNL A   1      32.892  34.344  42.836  1.00  0.00    +0.000 F 
ATOM     60  C44 UNL A   1      30.585  33.864  42.823  1.00  0.00    +0.000 C 
ATOM     61  F8  UNL A   1      30.621  33.626  41.504  1.00  0.00    +0.000 F 
ATOM     62  C45 UNL A   1      29.398  33.740  43.516  1.00  0.00    +0.000 C 
ATOM     63  F9  UNL A   1      28.276  33.375  42.876  1.00  0.00    +0.000 F 
ATOM     64  C46 UNL A   1      29.367  33.989  44.887  1.00  0.00    +0.000 C 
ENDBRANCH   54   55
BRANCH   69   70
ATOM     70  C50 UNL A   1      26.994  39.293  46.490  1.00  0.00    +0.000 C 
ATOM     71  C51 UNL A   1      26.103  40.041  47.272  1.00  0.00    +0.000 C 
ATOM     72  F11 UNL A   1      25.142  39.453  47.989  1.00  0.00    +0.000 F 
ATOM     73  C52 UNL A   1      26.136  41.447  47.317  1.00  0.00    +0.000 C 
ATOM     74  F12 UNL A   1      25.275  42.105  48.107  1.00  0.00    +0.000 F 
ATOM     75  C53 UNL A   1      27.044  42.167  46.564  1.00  0.00    +0.000 C 
ATOM     76  F13 UNL A   1      27.104  43.503  46.646  1.00  0.00    +0.000 F 
ATOM     77  C54 UNL A   1      27.874  41.486  45.709  1.00  0.00    +0.000 C 
ATOM     78  F14 UNL A   1      28.748  42.153  44.940  1.00  0.00    +0.000 F 
ATOM     79  C55 UNL A   1      27.821  40.093  45.648  1.00  0.00    +0.000 C 
ATOM     80  F15 UNL A   1      28.616  39.548  44.718  1.00  0.00    +0.000 F 
ENDBRANCH   69   70
TORSDOF 17
ENDMDL
MODEL 2
REMARK VINA RESULT:     -12.4     21.690     25.232
ROOT
ATOM    129  H38 UNL A   1      39.305  26.330  26.917  1.00  0.00    +0.000 H 
ATOM     33  C26 UNL A   1      40.865  27.694  28.957  1.00  0.00    +0.000 C 
ATOM     34  C27 UNL A   1      40.990  26.252  28.443  1.00  0.00    +0.000 C 
ATOM     35  N4  UNL A   1      41.777  25.290  28.825  1.00  0.00    +0.000 N 
ATOM     36  C28 UNL A   1      41.564  24.200  27.954  1.00  0.00    +0.000 C 
ATOM     37  C29 UNL A   1      42.411  23.135  27.854  1.00  0.00    +0.000 C 
ATOM     49  C36 UNL A   1      43.477  23.244  28.789  1.00  0.00    +0.000 C 
ATOM     50  C37 UNL A   1      43.578  23.022  30.135  1.00  0.00    +0.000 C 
ATOM     51  C38 UNL A   1      44.622  23.873  30.559  1.00  0.00    +0.000 C 
ATOM     52  C39 UNL A   1      45.157  24.530  29.446  1.00  0.00    +0.000 C 
ATOM     53  N5  UNL A   1      44.615  23.882  28.363  1.00  0.00    +0.000 N 
ATOM     54  C40 UNL A   1      45.901  25.743  29.195  1.00  0.00    +0.000 C 
ATOM     66  C47 UNL A   1      46.220  26.512  30.265  1.00  0.00    +0.000 C 
ATOM     67  N6  UNL A   1      46.065  27.879  30.194  1.00  0.00    +0.000 N 
ATOM     68  C48 UNL A   1      45.459  28.152  31.312  1.00  0.00    +0.000 C 
ATOM     69  C49 UNL A   1      44.737  29.405  31.600  1.00  0.00    +0.000 C 
ATOM     81  C56 UNL A   1      43.565  29.332  30.896  1.00  0.00    +0.000 C 
ATOM     82  C57 UNL A   1      42.514  30.327  30.803  1.00  0.00    +0.000 C 
ATOM     83  C58 UNL A   1      41.486  29.843  30.079  1.00  0.00    +0.000 C 
ATOM     84  C59 UNL A   1      41.758  28.463  29.644  1.00  0.00    +0.000 C 
ATOM     85  N7  UNL A   1      43.041  28.264  30.120  1.00  0.00    +0.000 N 
ATOM     86  C60 UNL A   1      45.445  27.084  32.321  1.00  0.00    +0.000 C 
ATOM     87  C61 UNL A   1      46.123  26.153  31.658  1.00  0.00    +0.000 C 
ATOM     88  C62 UNL A   1      40.425  24.532  27.153  1.00  0.00    +0.000 C 
ATOM     89  C63 UNL A   1      40.059  25.795  27.376  1.00  0.00    +0.000 C 
ATOM    120  H29 UNL A   1      43.016  22.377  30.712  1.00  0.00    +0.000 H 
ATOM    121  H30 UNL A   1      44.939  23.992  31.533  1.00  0.00    +0.000 H 
ATOM    122  H31 UNL A   1      44.976  23.876  27.448  1.00  0.00    +0.000 H 
ATOM    123  H32 UNL A   1      42.548  31.266  31.230  1.00  0.00    +0.000 H 
ATOM    124  H33 UNL A   1      40.625  30.369  29.860  1.00  0.00    +0.000 H 
ATOM    125  H34 UNL A   1      43.553  27.444  29.935  1.00  0.00    +0.000 H 
ATOM    126  H35 UNL A   1      45.030  27.064  33.266  1.00  0.00    +0.000 H 
ATOM    127  H36 UNL A   1      46.520  25.298  32.079  1.00  0.00    +0.000 H 
ATOM    128  H37 UNL A   1      39.956  23.888  26.498  1.00  0.00    +0.000 H 
ENDROOT
BRANCH   33   32
ATOM    130  H39 UNL A   1      38.589  27.673  30.428  1.00  0.00    +0.000 H 
ATOM    131  H40 UNL A   1      36.548  28.924  30.017  1.00  0.00    +0.000 H 
ATOM    118  H27 UNL A   1      38.147  30.339  26.389  1.00  0.00    +0.000 H 
ATOM    119  H28 UNL A   1      40.165  29.047  26.766  1.00  0.00    +0.000 H 
ATOM     90  C64 UNL A   1      38.499  28.250  29.578  1.00  0.00    +0.000 C 
ATOM     91  C65 UNL A   1      37.333  28.979  29.348  1.00  0.00    +0.000 C 
ATOM     29  C22 UNL A   1      37.226  29.784  28.211  1.00  0.00    +0.000 C 
ATOM     30  C23 UNL A   1      38.252  29.787  27.255  1.00  0.00    +0.000 C 
ATOM     31  C24 UNL A   1      39.411  29.048  27.471  1.00  0.00    +0.000 C 
ATOM     32  C25 UNL A   1      39.548  28.305  28.648  1.00  0.00    +0.000 C 
BRANCH   29   27
ATOM     27  C21 UNL A   1      36.020  30.594  27.915  1.00  0.00    +0.000 C 
ATOM     28  O4  UNL A   1      36.126  31.793  27.749  1.00  0.00    +0.000 O 
BRANCH   27   26
ATOM     26  N3  UNL A   1      34.772  30.013  27.848  1.00  0.00    +0.000 N 
ATOM    117  H26 UNL A   1      34.536  29.414  28.593  1.00  0.00    +0.000 H 
BRANCH   26   25
ATOM     25  C20 UNL A   1      33.759  30.173  26.819  1.00  0.00    +0.000 C 
ATOM    115  H24 UNL A   1      33.005  30.847  27.171  1.00  0.00    +0.000 H 
ATOM    116  H25 UNL A   1      34.227  30.561  25.939  1.00  0.00    +0.000 H 
BRANCH   25   24
ATOM    113  H22 UNL A   1      32.409  28.589  27.244  1.00  0.00    +0.000 H 
ATOM    114  H23 UNL A   1      32.646  28.955  25.515  1.00  0.00    +0.000 H 
ATOM     24  C19 UNL A   1      33.109  28.833  26.472  1.00  0.00    +0.000 C 
BRANCH   24   23
ATOM    111  H20 UNL A   1      34.816  27.928  25.586  1.00  0.00    +0.000 H 
ATOM     23  C18 UNL A   1      34.098  27.666  26.335  1.00  0.00    +0.000 C 
ATOM    112  H21 UNL A   1      34.522  27.524  27.307  1.00  0.00    +0.000 H 
BRANCH   23   22
ATOM    110  H19 UNL A   1      32.750  26.539  25.191  1.00  0.00    +0.000 H 
ATOM    109  H18 UNL A   1      33.062  25.882  26.829  1.00  0.00    +0.000 H 
ATOM     22  C17 UNL A   1      33.476  26.321  25.946  1.00  0.00    +0.000 C 
BRANCH   22   21
ATOM    107  H16 UNL A   1      34.136  25.135  24.310  1.00  0.00    +0.000 H 
ATOM    108  H17 UNL A   1      35.419  25.730  25.405  1.00  0.00    +0.000 H 
ATOM     21  C16 UNL A   1      34.441  25.305  25.321  1.00  0.00    +0.000 C 
BRANCH   21   20
ATOM    105  H14 UNL A   1      34.779  24.108  27.054  1.00  0.00    +0.000 H 
ATOM    106  H15 UNL A   1      33.537  23.494  25.962  1.00  0.00    +0.000 H 
ATOM     20  C15 UNL A   1      34.502  23.951  26.032  1.00  0.00    +0.000 C 
BRANCH   20   19
ATOM     19  N2  UNL A   1      35.468  23.066  25.414  1.00  0.00    +0.000 N 
ATOM    104  H13 UNL A   1      36.118  23.445  24.781  1.00  0.00    +0.000 H 
BRANCH   19    2
ATOM      1  O1  UNL A   1      36.523  21.028  25.530  1.00  0.00    +0.000 O 
ATOM      2  C1  UNL A   1      35.513  21.711  25.677  1.00  0.00    +0.000 C 
BRANCH    2    3
ATOM      3  C2  UNL A   1      34.174  21.096  26.073  1.00  0.00    +0.000 C 
ATOM     92  H1  UNL A   1      33.490  21.880  26.322  1.00  0.00    +0.000 H 
ATOM     93  H2  UNL A   1      34.335  20.451  26.912  1.00  0.00    +0.000 H 
BRANCH    3    4
ATOM      4  C3  UNL A   1      33.593  20.279  24.952  1.00  0.00    +0.000 C 
ATOM      5  C4  UNL A   1      33.763  18.923  24.721  1.00  0.00    +0.000 C 
ATOM      6  C5  UNL A   1      32.892  18.546  23.679  1.00  0.00    +0.000 C 
ATOM      7  C6  UNL A   1      32.214  19.677  23.292  1.00  0.00    +0.000 C 
ATOM      8  N1  UNL A   1      32.698  20.758  24.002  1.00  0.00    +0.000 N 
ATOM     94  H3  UNL A   1      34.413  18.298  25.223  1.00  0.00    +0.000 H 
ATOM     95  H4  UNL A   1      32.784  17.598  23.282  1.00  0.00    +0.000 H 
ATOM     96  H5  UNL A   1      31.465  19.713  22.583  1.00  0.00    +0.000 H 
BRANCH    8    9
ATOM     97  H6  UNL A   1      30.799  22.091  25.265  1.00  0.00    +0.000 H 
ATOM     98  H7  UNL A   1      30.159  24.411  24.922  1.00  0.00    +0.000 H 
ATOM     99  H8  UNL A   1      33.657  22.432  22.184  1.00  0.00    +0.000 H 
ATOM    100  H9  UNL A   1      33.153  26.689  20.649  1.00  0.00    +0.000 H 
ATOM    101  H10 UNL A   1      33.480  26.659  22.378  1.00  0.00    +0.000 H 
ATOM    102  H11 UNL A   1      30.821  26.077  21.123  1.00  0.00    +0.000 H 
ATOM    103  H12 UNL A   1      31.280  27.594  21.882  1.00  0.00    +0.000 H 
ATOM      9  C7  UNL A   1      32.301  22.100  23.774  1.00  0.00    +0.000 C 
ATOM     10  C8  UNL A   1      31.272  22.658  24.544  1.00  0.00    +0.000 C 
ATOM     11  C9  UNL A   1      30.891  23.984  24.333  1.00  0.00    +0.000 C 
ATOM     12  C10 UNL A   1      31.497  24.732  23.325  1.00  0.00    +0.000 C 
ATOM     13  C11 UNL A   1      32.509  24.167  22.543  1.00  0.00    +0.000 C 
ATOM     14  C12 UNL A   1      32.913  22.851  22.763  1.00  0.00    +0.000 C 
ATOM     15  O2  UNL A   1      33.137  24.838  21.525  1.00  0.00    +0.000 O 
ATOM     16  C13 UNL A   1      32.889  26.246  21.587  1.00  0.00    +0.000 C 
ATOM     17  C14 UNL A   1      31.425  26.535  21.878  1.00  0.00    +0.000 C 
ATOM     18  O3  UNL A   1      31.049  26.016  23.158  1.00  0.00    +0.000 O 
ENDBRANCH    8    9
ENDBRANCH    3    4
ENDBRANCH    2    3
ENDBRANCH   19    2
ENDBRANCH   20   19
ENDBRANCH   21   20
ENDBRANCH   22   21
ENDBRANCH   23   22
ENDBRANCH   24   23
ENDBRANCH   25   24
ENDBRANCH   26   25
ENDBRANCH   27   26
ENDBRANCH   29   27
ENDBRANCH   33   32
BRANCH   37   38
ATOM     38  C30 UNL A   1      42.524  22.044  26.821  1.00  0.00    +0.000 C 
ATOM     39  C31 UNL A   1      41.960  20.776  27.113  1.00  0.00    +0.000 C 
ATOM     40  F1  UNL A   1      41.045  20.640  28.087  1.00  0.00    +0.000 F 
ATOM     41  C32 UNL A   1      42.381  19.612  26.472  1.00  0.00    +0.000 C 
ATOM     42  F2  UNL A   1      41.918  18.421  26.878  1.00  0.00    +0.000 F 
ATOM     43  C33 UNL A   1      43.323  19.682  25.466  1.00  0.00    +0.000 C 
ATOM     44  F3  UNL A   1      43.781  18.561  24.893  1.00  0.00    +0.000 F 
ATOM     45  C34 UNL A   1      43.816  20.918  25.082  1.00  0.00    +0.000 C 
ATOM     46  F4  UNL A   1      44.727  20.990  24.101  1.00  0.00    +0.000 F 
ATOM     47  C35 UNL A   1      43.434  22.083  25.756  1.00  0.00    +0.000 C 
ATOM     48  F5  UNL A   1      44.048  23.223  25.413  1.00  0.00    +0.000 F 
ENDBRANCH   37   38
BRANCH   54   55
ATOM     65  F10 UNL A   1      48.328  26.366  27.700  1.00  0.00    +0.000 F 
ATOM     55  C41 UNL A   1      45.964  26.490  27.880  1.00  0.00    +0.000 C 
ATOM     56  C42 UNL A   1      44.780  26.880  27.239  1.00  0.00    +0.000 C 
ATOM     57  F6  UNL A   1      43.599  26.702  27.851  1.00  0.00    +0.000 F 
ATOM     58  C43 UNL A   1      44.795  27.454  25.966  1.00  0.00    +0.000 C 
ATOM     59  F7  UNL A   1      43.643  27.810  25.381  1.00  0.00    +0.000 F 
ATOM     60  C44 UNL A   1      45.993  27.662  25.301  1.00  0.00    +0.000 C 
ATOM     61  F8  UNL A   1      46.007  28.223  24.083  1.00  0.00    +0.000 F 
ATOM     62  C45 UNL A   1      47.177  27.297  25.907  1.00  0.00    +0.000 C 
ATOM     63  F9  UNL A   1      48.348  27.506  25.285  1.00  0.00    +0.000 F 
ATOM     64  C46 UNL A   1      47.156  26.713  27.173  1.00  0.00    +0.000 C 
ENDBRANCH   54   55
BRANCH   69   70
ATOM     70  C50 UNL A   1      45.375  30.351  32.601  1.00  0.00    +0.000 C 
ATOM     71  C51 UNL A   1      46.479  31.183  32.363  1.00  0.00    +0.000 C 
ATOM     72  F11 UNL A   1      47.218  31.060  31.258  1.00  0.00    +0.000 F 
ATOM     73  C52 UNL A   1      46.900  32.159  33.285  1.00  0.00    +0.000 C 
ATOM     74  F12 UNL A   1      47.946  32.943  32.988  1.00  0.00    +0.000 F 
ATOM     75  C53 UNL A   1      46.251  32.331  34.494  1.00  0.00    +0.000 C 
ATOM     76  F13 UNL A   1      46.625  33.293  35.347  1.00  0.00    +0.000 F 
ATOM     77  C54 UNL A   1      45.226  31.478  34.816  1.00  0.00    +0.000 C 
ATOM     78  F14 UNL A   1      44.592  31.594  35.992  1.00  0.00    +0.000 F 
ATOM     79  C55 UNL A   1      44.828  30.494  33.910  1.00  0.00    +0.000 C 
ATOM     80  F15 UNL A   1      43.876  29.670  34.369  1.00  0.00    +0.000 F 
ENDBRANCH   69   70
TORSDOF 17
ENDMDL
MODEL 3
REMARK VINA RESULT:     -12.4     21.328     25.238
ROOT
ATOM    129  H38 UNL A   1      39.323  26.378  26.833  1.00  0.00    +0.000 H 
ATOM     33  C26 UNL A   1      40.866  27.738  28.888  1.00  0.00    +0.000 C 
ATOM     34  C27 UNL A   1      40.986  26.292  28.381  1.00  0.00    +0.000 C 
ATOM     35  N4  UNL A   1      41.760  25.326  28.778  1.00  0.00    +0.000 N 
ATOM     36  C28 UNL A   1      41.550  24.234  27.909  1.00  0.00    +0.000 C 
ATOM     37  C29 UNL A   1      42.389  23.161  27.826  1.00  0.00    +0.000 C 
ATOM     49  C36 UNL A   1      43.443  23.265  28.774  1.00  0.00    +0.000 C 
ATOM     50  C37 UNL A   1      43.524  23.049  30.123  1.00  0.00    +0.000 C 
ATOM     51  C38 UNL A   1      44.569  23.893  30.557  1.00  0.00    +0.000 C 
ATOM     52  C39 UNL A   1      45.125  24.540  29.448  1.00  0.00    +0.000 C 
ATOM     53  N5  UNL A   1      44.592  23.892  28.361  1.00  0.00    +0.000 N 
ATOM     54  C40 UNL A   1      45.883  25.746  29.202  1.00  0.00    +0.000 C 
ATOM     66  C47 UNL A   1      46.194  26.517  30.273  1.00  0.00    +0.000 C 
ATOM     67  N6  UNL A   1      46.051  27.885  30.194  1.00  0.00    +0.000 N 
ATOM     68  C48 UNL A   1      45.433  28.168  31.302  1.00  0.00    +0.000 C 
ATOM     69  C49 UNL A   1      44.717  29.428  31.575  1.00  0.00    +0.000 C 
ATOM     81  C56 UNL A   1      43.554  29.362  30.855  1.00  0.00    +0.000 C 
ATOM     82  C57 UNL A   1      42.513  30.365  30.744  1.00  0.00    +0.000 C 
ATOM     83  C58 UNL A   1      41.491  29.887  30.009  1.00  0.00    +0.000 C 
ATOM     84  C59 UNL A   1      41.757  28.502  29.583  1.00  0.00    +0.000 C 
ATOM     85  N7  UNL A   1      43.032  28.295  30.078  1.00  0.00    +0.000 N 
ATOM     86  C60 UNL A   1      45.396  27.105  32.316  1.00  0.00    +0.000 C 
ATOM     87  C61 UNL A   1      46.075  26.166  31.666  1.00  0.00    +0.000 C 
ATOM     88  C62 UNL A   1      40.424  24.572  27.092  1.00  0.00    +0.000 C 
ATOM     89  C63 UNL A   1      40.066  25.839  27.304  1.00  0.00    +0.000 C 
ATOM    120  H29 UNL A   1      42.949  22.411  30.695  1.00  0.00    +0.000 H 
ATOM    121  H30 UNL A   1      44.875  24.014  31.535  1.00  0.00    +0.000 H 
ATOM    122  H31 UNL A   1      44.965  23.879  27.451  1.00  0.00    +0.000 H 
ATOM    123  H32 UNL A   1      42.549  31.306  31.167  1.00  0.00    +0.000 H 
ATOM    124  H33 UNL A   1      40.638  30.419  29.775  1.00  0.00    +0.000 H 
ATOM    125  H34 UNL A   1      43.539  27.470  29.903  1.00  0.00    +0.000 H 
ATOM    126  H35 UNL A   1      44.968  27.093  33.255  1.00  0.00    +0.000 H 
ATOM    127  H36 UNL A   1      46.459  25.309  32.096  1.00  0.00    +0.000 H 
ATOM    128  H37 UNL A   1      39.959  23.929  26.434  1.00  0.00    +0.000 H 
ENDROOT
BRANCH   33   32
ATOM    130  H39 UNL A   1      38.577  27.761  30.338  1.00  0.00    +0.000 H 
ATOM    131  H40 UNL A   1      36.554  29.027  29.891  1.00  0.00    +0.000 H 
ATOM    118  H27 UNL A   1      38.201  30.376  26.259  1.00  0.00    +0.000 H 
ATOM    119  H28 UNL A   1      40.201  29.068  26.672  1.00  0.00    +0.000 H 
ATOM     90  C64 UNL A   1      38.501  28.327  29.479  1.00  0.00    +0.000 C 
ATOM     91  C65 UNL A   1      37.345  29.065  29.228  1.00  0.00    +0.000 C 
ATOM     29  C22 UNL A   1      37.257  29.856  28.079  1.00  0.00    +0.000 C 
ATOM     30  C23 UNL A   1      38.292  29.835  27.133  1.00  0.00    +0.000 C 
ATOM     31  C24 UNL A   1      39.441  29.086  27.370  1.00  0.00    +0.000 C 
ATOM     32  C25 UNL A   1      39.559  28.358  28.558  1.00  0.00    +0.000 C 
BRANCH   29   27
ATOM     27  C21 UNL A   1      36.063  30.674  27.761  1.00  0.00    +0.000 C 
ATOM     28  O4  UNL A   1      36.128  31.885  27.827  1.00  0.00    +0.000 O 
BRANCH   27   26
ATOM     26  N3  UNL A   1      34.867  30.082  27.414  1.00  0.00    +0.000 N 
ATOM    117  H26 UNL A   1      34.929  29.169  27.053  1.00  0.00    +0.000 H 
BRANCH   26   25
ATOM     25  C20 UNL A   1      33.527  30.635  27.516  1.00  0.00    +0.000 C 
ATOM    115  H24 UNL A   1      33.080  30.302  28.430  1.00  0.00    +0.000 H 
ATOM    116  H25 UNL A   1      33.597  31.702  27.500  1.00  0.00    +0.000 H 
BRANCH   25   24
ATOM    113  H22 UNL A   1      31.643  30.458  26.552  1.00  0.00    +0.000 H 
ATOM    114  H23 UNL A   1      33.043  30.675  25.470  1.00  0.00    +0.000 H 
ATOM     24  C19 UNL A   1      32.656  30.188  26.341  1.00  0.00    +0.000 C 
BRANCH   24   23
ATOM    111  H20 UNL A   1      33.639  28.305  26.412  1.00  0.00    +0.000 H 
ATOM     23  C18 UNL A   1      32.702  28.680  26.056  1.00  0.00    +0.000 C 
ATOM    112  H21 UNL A   1      31.854  28.260  26.555  1.00  0.00    +0.000 H 
BRANCH   23   22
ATOM    110  H19 UNL A   1      32.163  29.143  24.084  1.00  0.00    +0.000 H 
ATOM    109  H18 UNL A   1      31.930  27.424  24.530  1.00  0.00    +0.000 H 
ATOM     22  C17 UNL A   1      32.562  28.285  24.583  1.00  0.00    +0.000 C 
BRANCH   22   21
ATOM    107  H16 UNL A   1      34.522  28.800  23.939  1.00  0.00    +0.000 H 
ATOM    108  H17 UNL A   1      34.263  27.075  24.338  1.00  0.00    +0.000 H 
ATOM     21  C16 UNL A   1      33.875  27.952  23.862  1.00  0.00    +0.000 C 
BRANCH   21   20
ATOM    105  H14 UNL A   1      32.891  28.138  21.979  1.00  0.00    +0.000 H 
ATOM    106  H15 UNL A   1      34.632  27.876  21.880  1.00  0.00    +0.000 H 
ATOM     20  C15 UNL A   1      33.726  27.603  22.379  1.00  0.00    +0.000 C 
BRANCH   20   19
ATOM     19  N2  UNL A   1      33.511  26.183  22.183  1.00  0.00    +0.000 N 
ATOM    104  H13 UNL A   1      34.270  25.569  22.306  1.00  0.00    +0.000 H 
BRANCH   19    2
ATOM      1  O1  UNL A   1      31.551  26.161  20.983  1.00  0.00    +0.000 O 
ATOM      2  C1  UNL A   1      32.284  25.657  21.831  1.00  0.00    +0.000 C 
BRANCH    2    3
ATOM      3  C2  UNL A   1      31.853  24.446  22.651  1.00  0.00    +0.000 C 
ATOM     92  H1  UNL A   1      32.656  23.739  22.678  1.00  0.00    +0.000 H 
ATOM     93  H2  UNL A   1      30.987  24.018  22.190  1.00  0.00    +0.000 H 
BRANCH    3    4
ATOM      4  C3  UNL A   1      31.496  24.835  24.059  1.00  0.00    +0.000 C 
ATOM      5  C4  UNL A   1      30.344  25.473  24.492  1.00  0.00    +0.000 C 
ATOM      6  C5  UNL A   1      30.347  25.469  25.901  1.00  0.00    +0.000 C 
ATOM      7  C6  UNL A   1      31.500  24.836  26.300  1.00  0.00    +0.000 C 
ATOM      8  N1  UNL A   1      32.252  24.523  25.184  1.00  0.00    +0.000 N 
ATOM     94  H3  UNL A   1      29.613  25.880  23.888  1.00  0.00    +0.000 H 
ATOM     95  H4  UNL A   1      29.620  25.866  26.517  1.00  0.00    +0.000 H 
ATOM     96  H5  UNL A   1      31.762  24.628  27.276  1.00  0.00    +0.000 H 
BRANCH    8    9
ATOM     97  H6  UNL A   1      34.509  25.800  25.682  1.00  0.00    +0.000 H 
ATOM     98  H7  UNL A   1      36.736  24.836  25.835  1.00  0.00    +0.000 H 
ATOM     99  H8  UNL A   1      32.940  22.001  24.740  1.00  0.00    +0.000 H 
ATOM    100  H9  UNL A   1      36.585  19.275  24.627  1.00  0.00    +0.000 H 
ATOM    101  H10 UNL A   1      36.447  20.107  26.171  1.00  0.00    +0.000 H 
ATOM    102  H11 UNL A   1      37.502  21.332  23.647  1.00  0.00    +0.000 H 
ATOM    103  H12 UNL A   1      38.483  20.732  24.976  1.00  0.00    +0.000 H 
ATOM      9  C7  UNL A   1      33.554  23.964  25.235  1.00  0.00    +0.000 C 
ATOM     10  C8  UNL A   1      34.650  24.790  25.521  1.00  0.00    +0.000 C 
ATOM     11  C9  UNL A   1      35.931  24.240  25.589  1.00  0.00    +0.000 C 
ATOM     12  C10 UNL A   1      36.123  22.886  25.321  1.00  0.00    +0.000 C 
ATOM     13  C11 UNL A   1      35.032  22.068  25.015  1.00  0.00    +0.000 C 
ATOM     14  C12 UNL A   1      33.745  22.604  24.969  1.00  0.00    +0.000 C 
ATOM     15  O2  UNL A   1      35.149  20.732  24.726  1.00  0.00    +0.000 O 
ATOM     16  C13 UNL A   1      36.430  20.219  25.107  1.00  0.00    +0.000 C 
ATOM     17  C14 UNL A   1      37.546  21.169  24.704  1.00  0.00    +0.000 C 
ATOM     18  O3  UNL A   1      37.413  22.425  25.378  1.00  0.00    +0.000 O 
ENDBRANCH    8    9
ENDBRANCH    3    4
ENDBRANCH    2    3
ENDBRANCH   19    2
ENDBRANCH   20   19
ENDBRANCH   21   20
ENDBRANCH   22   21
ENDBRANCH   23   22
ENDBRANCH   24   23
ENDBRANCH   25   24
ENDBRANCH   26   25
ENDBRANCH   27   26
ENDBRANCH   29   27
ENDBRANCH   33   32
BRANCH   37   38
ATOM     38  C30 UNL A   1      42.507  22.065  26.799  1.00  0.00    +0.000 C 
ATOM     39  C31 UNL A   1      41.965  20.791  27.106  1.00  0.00    +0.000 C 
ATOM     40  F1  UNL A   1      41.063  20.648  28.091  1.00  0.00    +0.000 F 
ATOM     41  C32 UNL A   1      42.396  19.629  26.469  1.00  0.00    +0.000 C 
ATOM     42  F2  UNL A   1      41.955  18.433  26.888  1.00  0.00    +0.000 F 
ATOM     43  C33 UNL A   1      43.326  19.705  25.452  1.00  0.00    +0.000 C 
ATOM     44  F3  UNL A   1      43.794  18.586  24.882  1.00  0.00    +0.000 F 
ATOM     45  C34 UNL A   1      43.796  20.945  25.054  1.00  0.00    +0.000 C 
ATOM     46  F4  UNL A   1      44.695  21.023  24.062  1.00  0.00    +0.000 F 
ATOM     47  C35 UNL A   1      43.405  22.110  25.724  1.00  0.00    +0.000 C 
ATOM     48  F5  UNL A   1      43.998  23.255  25.366  1.00  0.00    +0.000 F 
ENDBRANCH   37   38
BRANCH   54   55
ATOM     65  F10 UNL A   1      48.332  26.318  27.723  1.00  0.00    +0.000 F 
ATOM     55  C41 UNL A   1      45.969  26.486  27.885  1.00  0.00    +0.000 C 
ATOM     56  C42 UNL A   1      44.797  26.896  27.233  1.00  0.00    +0.000 C 
ATOM     57  F6  UNL A   1      43.610  26.743  27.837  1.00  0.00    +0.000 F 
ATOM     58  C43 UNL A   1      44.833  27.464  25.958  1.00  0.00    +0.000 C 
ATOM     59  F7  UNL A   1      43.692  27.840  25.363  1.00  0.00    +0.000 F 
ATOM     60  C44 UNL A   1      46.040  27.648  25.301  1.00  0.00    +0.000 C 
ATOM     61  F8  UNL A   1      46.074  28.203  24.081  1.00  0.00    +0.000 F 
ATOM     62  C45 UNL A   1      47.213  27.262  25.918  1.00  0.00    +0.000 C 
ATOM     63  F9  UNL A   1      48.392  27.447  25.304  1.00  0.00    +0.000 F 
ATOM     64  C46 UNL A   1      47.171  26.684  27.186  1.00  0.00    +0.000 C 
ENDBRANCH   54   55
BRANCH   69   70
ATOM     70  C50 UNL A   1      45.350  30.374  32.580  1.00  0.00    +0.000 C 
ATOM     71  C51 UNL A   1      46.412  31.254  32.330  1.00  0.00    +0.000 C 
ATOM     72  F11 UNL A   1      47.120  31.189  31.200  1.00  0.00    +0.000 F 
ATOM     73  C52 UNL A   1      46.824  32.223  33.264  1.00  0.00    +0.000 C 
ATOM     74  F12 UNL A   1      47.829  33.055  32.955  1.00  0.00    +0.000 F 
ATOM     75  C53 UNL A   1      46.208  32.339  34.496  1.00  0.00    +0.000 C 
ATOM     76  F13 UNL A   1      46.572  33.293  35.363  1.00  0.00    +0.000 F 
ATOM     77  C54 UNL A   1      45.227  31.438  34.827  1.00  0.00    +0.000 C 
ATOM     78  F14 UNL A   1      44.628  31.500  36.025  1.00  0.00    +0.000 F 
ATOM     79  C55 UNL A   1      44.839  30.462  33.908  1.00  0.00    +0.000 C 
ATOM     80  F15 UNL A   1      43.935  29.590  34.375  1.00  0.00    +0.000 F 
ENDBRANCH   69   70
TORSDOF 17
ENDMDL
MODEL 4
REMARK VINA RESULT:     -12.4     18.411     22.993
ROOT
ATOM    129  H38 UNL A   1      37.246  28.637  28.768  1.00  0.00    +0.000 H 
ATOM     33  C26 UNL A   1      40.037  29.314  29.222  1.00  0.00    +0.000 C 
ATOM     34  C27 UNL A   1      38.814  30.240  29.149  1.00  0.00    +0.000 C 
ATOM     35  N4  UNL A   1      38.737  31.536  29.219  1.00  0.00    +0.000 N 
ATOM     36  C28 UNL A   1      37.368  31.879  29.206  1.00  0.00    +0.000 C 
ATOM     37  C29 UNL A   1      36.892  33.107  29.562  1.00  0.00    +0.000 C 
ATOM     49  C36 UNL A   1      37.959  33.995  29.872  1.00  0.00    +0.000 C 
ATOM     50  C37 UNL A   1      38.841  34.711  29.110  1.00  0.00    +0.000 C 
ATOM     51  C38 UNL A   1      39.980  34.861  29.931  1.00  0.00    +0.000 C 
ATOM     52  C39 UNL A   1      39.722  34.288  31.181  1.00  0.00    +0.000 C 
ATOM     53  N5  UNL A   1      38.371  34.040  31.180  1.00  0.00    +0.000 N 
ATOM     54  C40 UNL A   1      40.499  33.751  32.275  1.00  0.00    +0.000 C 
ATOM     66  C47 UNL A   1      41.850  33.776  32.152  1.00  0.00    +0.000 C 
ATOM     67  N6  UNL A   1      42.588  32.671  32.512  1.00  0.00    +0.000 N 
ATOM     68  C48 UNL A   1      43.398  32.533  31.504  1.00  0.00    +0.000 C 
ATOM     69  C49 UNL A   1      44.163  31.311  31.195  1.00  0.00    +0.000 C 
ATOM     81  C56 UNL A   1      43.257  30.420  30.685  1.00  0.00    +0.000 C 
ATOM     82  C57 UNL A   1      43.488  29.053  30.261  1.00  0.00    +0.000 C 
ATOM     83  C58 UNL A   1      42.359  28.536  29.741  1.00  0.00    +0.000 C 
ATOM     84  C59 UNL A   1      41.274  29.532  29.753  1.00  0.00    +0.000 C 
ATOM     85  N7  UNL A   1      41.880  30.600  30.389  1.00  0.00    +0.000 N 
ATOM     86  C60 UNL A   1      43.481  33.669  30.577  1.00  0.00    +0.000 C 
ATOM     87  C61 UNL A   1      42.624  34.493  31.170  1.00  0.00    +0.000 C 
ATOM     88  C62 UNL A   1      36.649  30.678  28.906  1.00  0.00    +0.000 C 
ATOM     89  C63 UNL A   1      37.477  29.633  28.906  1.00  0.00    +0.000 C 
ATOM    120  H29 UNL A   1      38.705  35.063  28.150  1.00  0.00    +0.000 H 
ATOM    121  H30 UNL A   1      40.862  35.320  29.654  1.00  0.00    +0.000 H 
ATOM    122  H31 UNL A   1      37.802  33.917  31.973  1.00  0.00    +0.000 H 
ATOM    123  H32 UNL A   1      44.387  28.551  30.344  1.00  0.00    +0.000 H 
ATOM    124  H33 UNL A   1      42.266  27.572  29.382  1.00  0.00    +0.000 H 
ATOM    125  H34 UNL A   1      41.393  31.424  30.620  1.00  0.00    +0.000 H 
ATOM    126  H35 UNL A   1      44.041  33.790  29.718  1.00  0.00    +0.000 H 
ATOM    127  H36 UNL A   1      42.527  35.499  30.958  1.00  0.00    +0.000 H 
ATOM    128  H37 UNL A   1      35.636  30.629  28.718  1.00  0.00    +0.000 H 
ENDROOT
BRANCH   33   32
ATOM    130  H39 UNL A   1      40.590  28.495  26.699  1.00  0.00    +0.000 H 
ATOM    131  H40 UNL A   1      40.442  26.240  25.808  1.00  0.00    +0.000 H 
ATOM    118  H27 UNL A   1      38.803  24.909  29.450  1.00  0.00    +0.000 H 
ATOM    119  H28 UNL A   1      38.895  27.169  30.326  1.00  0.00    +0.000 H 
ATOM     90  C64 UNL A   1      40.224  27.730  27.286  1.00  0.00    +0.000 C 
ATOM     91  C65 UNL A   1      40.151  26.433  26.780  1.00  0.00    +0.000 C 
ATOM     29  C22 UNL A   1      39.683  25.393  27.588  1.00  0.00    +0.000 C 
ATOM     30  C23 UNL A   1      39.199  25.669  28.875  1.00  0.00    +0.000 C 
ATOM     31  C24 UNL A   1      39.254  26.965  29.380  1.00  0.00    +0.000 C 
ATOM     32  C25 UNL A   1      39.797  27.990  28.597  1.00  0.00    +0.000 C 
BRANCH   29   27
ATOM     27  C21 UNL A   1      39.593  23.991  27.115  1.00  0.00    +0.000 C 
ATOM     28  O4  UNL A   1      40.339  23.151  27.578  1.00  0.00    +0.000 O 
BRANCH   27   26
ATOM     26  N3  UNL A   1      38.692  23.626  26.138  1.00  0.00    +0.000 N 
ATOM    117  H26 UNL A   1      39.082  23.298  25.295  1.00  0.00    +0.000 H 
BRANCH   26   25
ATOM     25  C20 UNL A   1      37.241  23.662  26.194  1.00  0.00    +0.000 C 
ATOM    115  H24 UNL A   1      36.921  23.393  27.179  1.00  0.00    +0.000 H 
ATOM    116  H25 UNL A   1      36.916  24.652  25.952  1.00  0.00    +0.000 H 
BRANCH   25   24
ATOM    113  H22 UNL A   1      37.312  22.573  24.372  1.00  0.00    +0.000 H 
ATOM    114  H23 UNL A   1      36.447  21.775  25.712  1.00  0.00    +0.000 H 
ATOM     24  C19 UNL A   1      36.627  22.689  25.186  1.00  0.00    +0.000 C 
BRANCH   24   23
ATOM    111  H20 UNL A   1      35.282  22.952  23.561  1.00  0.00    +0.000 H 
ATOM     23  C18 UNL A   1      35.274  23.139  24.614  1.00  0.00    +0.000 C 
ATOM    112  H21 UNL A   1      34.531  22.582  25.145  1.00  0.00    +0.000 H 
BRANCH   23   22
ATOM    110  H19 UNL A   1      35.807  25.166  24.565  1.00  0.00    +0.000 H 
ATOM    109  H18 UNL A   1      34.634  24.740  25.851  1.00  0.00    +0.000 H 
ATOM     22  C17 UNL A   1      34.928  24.616  24.830  1.00  0.00    +0.000 C 
BRANCH   22   21
ATOM    107  H16 UNL A   1      33.548  26.143  24.299  1.00  0.00    +0.000 H 
ATOM    108  H17 UNL A   1      34.183  25.163  22.943  1.00  0.00    +0.000 H 
ATOM     21  C16 UNL A   1      33.804  25.166  23.944  1.00  0.00    +0.000 C 
BRANCH   21   20
ATOM    105  H14 UNL A   1      32.248  24.144  22.903  1.00  0.00    +0.000 H 
ATOM    106  H15 UNL A   1      32.727  23.402  24.430  1.00  0.00    +0.000 H 
ATOM     20  C15 UNL A   1      32.528  24.321  23.921  1.00  0.00    +0.000 C 
BRANCH   20   19
ATOM     19  N2  UNL A   1      31.434  24.987  24.599  1.00  0.00    +0.000 N 
ATOM    104  H13 UNL A   1      30.662  25.287  24.068  1.00  0.00    +0.000 H 
BRANCH   19    2
ATOM      1  O1  UNL A   1      31.643  24.339  26.794  1.00  0.00    +0.000 O 
ATOM      2  C1  UNL A   1      31.431  25.217  25.961  1.00  0.00    +0.000 C 
BRANCH    2    3
ATOM      3  C2  UNL A   1      31.043  26.635  26.364  1.00  0.00    +0.000 C 
ATOM     92  H1  UNL A   1      30.758  26.639  27.396  1.00  0.00    +0.000 H 
ATOM     93  H2  UNL A   1      30.229  26.950  25.744  1.00  0.00    +0.000 H 
BRANCH    3    4
ATOM      4  C3  UNL A   1      32.185  27.594  26.169  1.00  0.00    +0.000 C 
ATOM      5  C4  UNL A   1      33.370  27.651  26.887  1.00  0.00    +0.000 C 
ATOM      6  C5  UNL A   1      34.223  28.571  26.246  1.00  0.00    +0.000 C 
ATOM      7  C6  UNL A   1      33.543  29.060  25.156  1.00  0.00    +0.000 C 
ATOM      8  N1  UNL A   1      32.265  28.536  25.150  1.00  0.00    +0.000 N 
ATOM     94  H3  UNL A   1      33.589  27.115  27.741  1.00  0.00    +0.000 H 
ATOM     95  H4  UNL A   1      35.180  28.828  26.539  1.00  0.00    +0.000 H 
ATOM     96  H5  UNL A   1      33.925  29.714  24.456  1.00  0.00    +0.000 H 
BRANCH    8    9
ATOM     97  H6  UNL A   1      31.562  27.259  22.948  1.00  0.00    +0.000 H 
ATOM     98  H7  UNL A   1      29.789  27.870  21.401  1.00  0.00    +0.000 H 
ATOM     99  H8  UNL A   1      30.735  30.699  25.242  1.00  0.00    +0.000 H 
ATOM    100  H9  UNL A   1      27.395  32.794  22.963  1.00  0.00    +0.000 H 
ATOM    101  H10 UNL A   1      26.960  31.138  23.371  1.00  0.00    +0.000 H 
ATOM    102  H11 UNL A   1      28.764  31.934  21.113  1.00  0.00    +0.000 H 
ATOM    103  H12 UNL A   1      27.073  31.483  20.956  1.00  0.00    +0.000 H 
ATOM      9  C7  UNL A   1      31.256  28.916  24.230  1.00  0.00    +0.000 C 
ATOM     10  C8  UNL A   1      31.006  28.114  23.108  1.00  0.00    +0.000 C 
ATOM     11  C9  UNL A   1      30.001  28.476  22.208  1.00  0.00    +0.000 C 
ATOM     12  C10 UNL A   1      29.287  29.657  22.400  1.00  0.00    +0.000 C 
ATOM     13  C11 UNL A   1      29.552  30.467  23.509  1.00  0.00    +0.000 C 
ATOM     14  C12 UNL A   1      30.537  30.100  24.425  1.00  0.00    +0.000 C 
ATOM     15  O2  UNL A   1      28.899  31.649  23.752  1.00  0.00    +0.000 O 
ATOM     16  C13 UNL A   1      27.716  31.773  22.956  1.00  0.00    +0.000 C 
ATOM     17  C14 UNL A   1      27.970  31.343  21.520  1.00  0.00    +0.000 C 
ATOM     18  O3  UNL A   1      28.338  29.960  21.460  1.00  0.00    +0.000 O 
ENDBRANCH    8    9
ENDBRANCH    3    4
ENDBRANCH    2    3
ENDBRANCH   19    2
ENDBRANCH   20   19
ENDBRANCH   21   20
ENDBRANCH   22   21
ENDBRANCH   23   22
ENDBRANCH   24   23
ENDBRANCH   25   24
ENDBRANCH   26   25
ENDBRANCH   27   26
ENDBRANCH   29   27
ENDBRANCH   33   32
BRANCH   37   38
ATOM     38  C30 UNL A   1      35.500  33.581  29.888  1.00  0.00    +0.000 C 
ATOM     39  C31 UNL A   1      34.806  34.352  28.922  1.00  0.00    +0.000 C 
ATOM     40  F1  UNL A   1      35.196  34.354  27.637  1.00  0.00    +0.000 F 
ATOM     41  C32 UNL A   1      33.752  35.197  29.265  1.00  0.00    +0.000 C 
ATOM     42  F2  UNL A   1      33.218  36.009  28.340  1.00  0.00    +0.000 F 
ATOM     43  C33 UNL A   1      33.306  35.247  30.570  1.00  0.00    +0.000 C 
ATOM     44  F3  UNL A   1      32.340  36.107  30.919  1.00  0.00    +0.000 F 
ATOM     45  C34 UNL A   1      33.892  34.426  31.519  1.00  0.00    +0.000 C 
ATOM     46  F4  UNL A   1      33.457  34.468  32.787  1.00  0.00    +0.000 F 
ATOM     47  C35 UNL A   1      34.982  33.613  31.190  1.00  0.00    +0.000 C 
ATOM     48  F5  UNL A   1      35.575  32.945  32.187  1.00  0.00    +0.000 F 
ENDBRANCH   37   38
BRANCH   54   55
ATOM     65  F10 UNL A   1      39.366  31.120  31.721  1.00  0.00    +0.000 F 
ATOM     55  C41 UNL A   1      40.009  32.763  33.310  1.00  0.00    +0.000 C 
ATOM     56  C42 UNL A   1      40.150  33.051  34.675  1.00  0.00    +0.000 C 
ATOM     57  F6  UNL A   1      40.605  34.252  35.061  1.00  0.00    +0.000 F 
ATOM     58  C43 UNL A   1      39.829  32.109  35.656  1.00  0.00    +0.000 C 
ATOM     59  F7  UNL A   1      39.981  32.418  36.951  1.00  0.00    +0.000 F 
ATOM     60  C44 UNL A   1      39.348  30.858  35.301  1.00  0.00    +0.000 C 
ATOM     61  F8  UNL A   1      39.030  29.959  36.244  1.00  0.00    +0.000 F 
ATOM     62  C45 UNL A   1      39.191  30.546  33.966  1.00  0.00    +0.000 C 
ATOM     63  F9  UNL A   1      38.711  29.346  33.605  1.00  0.00    +0.000 F 
ATOM     64  C46 UNL A   1      39.525  31.485  32.991  1.00  0.00    +0.000 C 
ENDBRANCH   54   55
BRANCH   69   70
ATOM     70  C50 UNL A   1      45.666  31.368  31.410  1.00  0.00    +0.000 C 
ATOM     71  C51 UNL A   1      46.644  31.336  30.407  1.00  0.00    +0.000 C 
ATOM     72  F11 UNL A   1      46.337  31.035  29.142  1.00  0.00    +0.000 F 
ATOM     73  C52 UNL A   1      48.006  31.571  30.674  1.00  0.00    +0.000 C 
ATOM     74  F12 UNL A   1      48.891  31.554  29.667  1.00  0.00    +0.000 F 
ATOM     75  C53 UNL A   1      48.451  31.827  31.958  1.00  0.00    +0.000 C 
ATOM     76  F13 UNL A   1      49.740  32.097  32.201  1.00  0.00    +0.000 F 
ATOM     77  C54 UNL A   1      47.546  31.774  32.989  1.00  0.00    +0.000 C 
ATOM     78  F14 UNL A   1      47.946  31.986  34.251  1.00  0.00    +0.000 F 
ATOM     79  C55 UNL A   1      46.201  31.514  32.723  1.00  0.00    +0.000 C 
ATOM     80  F15 UNL A   1      45.432  31.404  33.814  1.00  0.00    +0.000 F 
ENDBRANCH   69   70
TORSDOF 17
ENDMDL
MODEL 5
REMARK VINA RESULT:     -12.4     18.267     23.016
ROOT
ATOM    129  H38 UNL A   1      37.190  28.631  28.878  1.00  0.00    +0.000 H 
ATOM     33  C26 UNL A   1      39.979  29.279  29.387  1.00  0.00    +0.000 C 
ATOM     34  C27 UNL A   1      38.768  30.218  29.283  1.00  0.00    +0.000 C 
ATOM     35  N4  UNL A   1      38.704  31.516  29.344  1.00  0.00    +0.000 N 
ATOM     36  C28 UNL A   1      37.339  31.873  29.301  1.00  0.00    +0.000 C 
ATOM     37  C29 UNL A   1      36.870  33.109  29.641  1.00  0.00    +0.000 C 
ATOM     49  C36 UNL A   1      37.940  33.986  29.968  1.00  0.00    +0.000 C 
ATOM     50  C37 UNL A   1      38.846  34.689  29.220  1.00  0.00    +0.000 C 
ATOM     51  C38 UNL A   1      39.969  34.831  30.064  1.00  0.00    +0.000 C 
ATOM     52  C39 UNL A   1      39.678  34.267  31.312  1.00  0.00    +0.000 C 
ATOM     53  N5  UNL A   1      38.325  34.035  31.284  1.00  0.00    +0.000 N 
ATOM     54  C40 UNL A   1      40.427  33.728  32.425  1.00  0.00    +0.000 C 
ATOM     66  C47 UNL A   1      41.779  33.738  32.330  1.00  0.00    +0.000 C 
ATOM     67  N6  UNL A   1      42.498  32.627  32.712  1.00  0.00    +0.000 N 
ATOM     68  C48 UNL A   1      43.327  32.473  31.722  1.00  0.00    +0.000 C 
ATOM     69  C49 UNL A   1      44.085  31.242  31.434  1.00  0.00    +0.000 C 
ATOM     81  C56 UNL A   1      43.179  30.358  30.911  1.00  0.00    +0.000 C 
ATOM     82  C57 UNL A   1      43.405  28.986  30.499  1.00  0.00    +0.000 C 
ATOM     83  C58 UNL A   1      42.280  28.478  29.958  1.00  0.00    +0.000 C 
ATOM     84  C59 UNL A   1      41.207  29.487  29.942  1.00  0.00    +0.000 C 
ATOM     85  N7  UNL A   1      41.811  30.552  30.585  1.00  0.00    +0.000 N 
ATOM     86  C60 UNL A   1      43.442  33.604  30.790  1.00  0.00    +0.000 C 
ATOM     87  C61 UNL A   1      42.582  34.440  31.361  1.00  0.00    +0.000 C 
ATOM     88  C62 UNL A   1      36.613  30.679  28.992  1.00  0.00    +0.000 C 
ATOM     89  C63 UNL A   1      37.430  29.625  29.015  1.00  0.00    +0.000 C 
ATOM    120  H29 UNL A   1      38.734  35.037  28.256  1.00  0.00    +0.000 H 
ATOM    121  H30 UNL A   1      40.861  35.278  29.803  1.00  0.00    +0.000 H 
ATOM    122  H31 UNL A   1      37.738  33.922  32.065  1.00  0.00    +0.000 H 
ATOM    123  H32 UNL A   1      44.295  28.475  30.604  1.00  0.00    +0.000 H 
ATOM    124  H33 UNL A   1      42.184  27.514  29.603  1.00  0.00    +0.000 H 
ATOM    125  H34 UNL A   1      41.329  31.382  30.801  1.00  0.00    +0.000 H 
ATOM    126  H35 UNL A   1      44.021  33.714  29.942  1.00  0.00    +0.000 H 
ATOM    127  H36 UNL A   1      42.500  35.446  31.141  1.00  0.00    +0.000 H 
ATOM    128  H37 UNL A   1      35.604  30.640  28.784  1.00  0.00    +0.000 H 
ENDROOT
BRANCH   33   32
ATOM    130  H39 UNL A   1      40.510  28.462  26.858  1.00  0.00    +0.000 H 
ATOM    131  H40 UNL A   1      40.360  26.207  25.968  1.00  0.00    +0.000 H 
ATOM    118  H27 UNL A   1      38.762  24.870  29.627  1.00  0.00    +0.000 H 
ATOM    119  H28 UNL A   1      38.855  27.130  30.501  1.00  0.00    +0.000 H 
ATOM     90  C64 UNL A   1      40.152  27.696  27.449  1.00  0.00    +0.000 C 
ATOM     91  C65 UNL A   1      40.078  26.399  26.943  1.00  0.00    +0.000 C 
ATOM     29  C22 UNL A   1      39.622  25.358  27.756  1.00  0.00    +0.000 C 
ATOM     30  C23 UNL A   1      39.150  25.631  29.048  1.00  0.00    +0.000 C 
ATOM     31  C24 UNL A   1      39.205  26.927  29.552  1.00  0.00    +0.000 C 
ATOM     32  C25 UNL A   1      39.737  27.954  28.764  1.00  0.00    +0.000 C 
BRANCH   29   27
ATOM     27  C21 UNL A   1      39.532  23.955  27.284  1.00  0.00    +0.000 C 
ATOM     28  O4  UNL A   1      40.341  23.136  27.672  1.00  0.00    +0.000 O 
BRANCH   27   26
ATOM     26  N3  UNL A   1      38.559  23.567  26.389  1.00  0.00    +0.000 N 
ATOM    117  H26 UNL A   1      37.956  24.279  26.074  1.00  0.00    +0.000 H 
BRANCH   26   25
ATOM     25  C20 UNL A   1      38.310  22.240  25.849  1.00  0.00    +0.000 C 
ATOM    115  H24 UNL A   1      38.768  22.163  24.885  1.00  0.00    +0.000 H 
ATOM    116  H25 UNL A   1      38.724  21.518  26.521  1.00  0.00    +0.000 H 
BRANCH   25   24
ATOM    113  H22 UNL A   1      36.659  21.320  24.880  1.00  0.00    +0.000 H 
ATOM    114  H23 UNL A   1      36.490  21.545  26.640  1.00  0.00    +0.000 H 
ATOM     24  C19 UNL A   1      36.810  21.974  25.714  1.00  0.00    +0.000 C 
BRANCH   24   23
ATOM    111  H20 UNL A   1      35.044  23.110  26.036  1.00  0.00    +0.000 H 
ATOM     23  C18 UNL A   1      35.959  23.233  25.497  1.00  0.00    +0.000 C 
ATOM    112  H21 UNL A   1      36.554  24.053  25.842  1.00  0.00    +0.000 H 
BRANCH   23   22
ATOM    110  H19 UNL A   1      36.350  23.050  23.445  1.00  0.00    +0.000 H 
ATOM    109  H18 UNL A   1      35.612  24.611  23.922  1.00  0.00    +0.000 H 
ATOM     22  C17 UNL A   1      35.612  23.548  24.039  1.00  0.00    +0.000 C 
BRANCH   22   21
ATOM    107  H16 UNL A   1      34.402  22.035  23.163  1.00  0.00    +0.000 H 
ATOM    108  H17 UNL A   1      33.604  23.047  24.403  1.00  0.00    +0.000 H 
ATOM     21  C16 UNL A   1      34.255  23.020  23.555  1.00  0.00    +0.000 C 
BRANCH   21   20
ATOM    105  H14 UNL A   1      33.943  24.871  22.543  1.00  0.00    +0.000 H 
ATOM    106  H15 UNL A   1      33.820  23.440  21.520  1.00  0.00    +0.000 H 
ATOM     20  C15 UNL A   1      33.582  23.866  22.472  1.00  0.00    +0.000 C 
BRANCH   20   19
ATOM     19  N2  UNL A   1      32.141  23.873  22.618  1.00  0.00    +0.000 N 
ATOM    104  H13 UNL A   1      31.652  23.025  22.515  1.00  0.00    +0.000 H 
BRANCH   19    2
ATOM      1  O1  UNL A   1      31.621  26.092  22.327  1.00  0.00    +0.000 O 
ATOM      2  C1  UNL A   1      31.425  25.020  22.895  1.00  0.00    +0.000 C 
BRANCH    2    3
ATOM      3  C2  UNL A   1      30.429  24.886  24.043  1.00  0.00    +0.000 C 
ATOM     92  H1  UNL A   1      29.570  24.350  23.698  1.00  0.00    +0.000 H 
ATOM     93  H2  UNL A   1      30.157  25.869  24.369  1.00  0.00    +0.000 H 
BRANCH    3    4
ATOM      4  C3  UNL A   1      31.030  24.150  25.208  1.00  0.00    +0.000 C 
ATOM      5  C4  UNL A   1      30.783  22.843  25.599  1.00  0.00    +0.000 C 
ATOM      6  C5  UNL A   1      31.697  22.512  26.618  1.00  0.00    +0.000 C 
ATOM      7  C6  UNL A   1      32.479  23.622  26.833  1.00  0.00    +0.000 C 
ATOM      8  N1  UNL A   1      32.023  24.657  26.039  1.00  0.00    +0.000 N 
ATOM     94  H3  UNL A   1      30.056  22.222  25.211  1.00  0.00    +0.000 H 
ATOM     95  H4  UNL A   1      31.767  21.607  27.110  1.00  0.00    +0.000 H 
ATOM     96  H5  UNL A   1      33.279  23.675  27.484  1.00  0.00    +0.000 H 
BRANCH    8    9
ATOM     97  H6  UNL A   1      34.386  25.489  25.203  1.00  0.00    +0.000 H 
ATOM     98  H7  UNL A   1      35.232  27.768  25.230  1.00  0.00    +0.000 H 
ATOM     99  H8  UNL A   1      30.828  26.796  27.050  1.00  0.00    +0.000 H 
ATOM    100  H9  UNL A   1      31.480  31.253  27.718  1.00  0.00    +0.000 H 
ATOM    101  H10 UNL A   1      31.678  30.817  26.025  1.00  0.00    +0.000 H 
ATOM    102  H11 UNL A   1      33.730  30.373  28.164  1.00  0.00    +0.000 H 
ATOM    103  H12 UNL A   1      33.747  31.682  26.992  1.00  0.00    +0.000 H 
ATOM      9  C7  UNL A   1      32.528  25.980  26.092  1.00  0.00    +0.000 C 
ATOM     10  C8  UNL A   1      33.810  26.251  25.594  1.00  0.00    +0.000 C 
ATOM     11  C9  UNL A   1      34.304  27.557  25.628  1.00  0.00    +0.000 C 
ATOM     12  C10 UNL A   1      33.544  28.574  26.203  1.00  0.00    +0.000 C 
ATOM     13  C11 UNL A   1      32.274  28.298  26.719  1.00  0.00    +0.000 C 
ATOM     14  C12 UNL A   1      31.763  27.002  26.666  1.00  0.00    +0.000 C 
ATOM     15  O2  UNL A   1      31.479  29.246  27.311  1.00  0.00    +0.000 O 
ATOM     16  C13 UNL A   1      31.940  30.572  27.033  1.00  0.00    +0.000 C 
ATOM     17  C14 UNL A   1      33.451  30.671  27.175  1.00  0.00    +0.000 C 
ATOM     18  O3  UNL A   1      34.108  29.823  26.227  1.00  0.00    +0.000 O 
ENDBRANCH    8    9
ENDBRANCH    3    4
ENDBRANCH    2    3
ENDBRANCH   19    2
ENDBRANCH   20   19
ENDBRANCH   21   20
ENDBRANCH   22   21
ENDBRANCH   23   22
ENDBRANCH   24   23
ENDBRANCH   25   24
ENDBRANCH   26   25
ENDBRANCH   27   26
ENDBRANCH   29   27
ENDBRANCH   33   32
BRANCH   37   38
ATOM     38  C30 UNL A   1      35.476  33.599  29.935  1.00  0.00    +0.000 C 
ATOM     39  C31 UNL A   1      34.798  34.343  28.936  1.00  0.00    +0.000 C 
ATOM     40  F1  UNL A   1      35.203  34.303  27.657  1.00  0.00    +0.000 F 
ATOM     41  C32 UNL A   1      33.745  35.204  29.240  1.00  0.00    +0.000 C 
ATOM     42  F2  UNL A   1      33.226  35.990  28.284  1.00  0.00    +0.000 F 
ATOM     43  C33 UNL A   1      33.284  35.298  30.537  1.00  0.00    +0.000 C 
ATOM     44  F3  UNL A   1      32.318  36.173  30.848  1.00  0.00    +0.000 F 
ATOM     45  C34 UNL A   1      33.854  34.504  31.519  1.00  0.00    +0.000 C 
ATOM     46  F4  UNL A   1      33.404  34.587  32.779  1.00  0.00    +0.000 F 
ATOM     47  C35 UNL A   1      34.943  33.675  31.228  1.00  0.00    +0.000 C 
ATOM     48  F5  UNL A   1      35.521  33.036  32.253  1.00  0.00    +0.000 F 
ENDBRANCH   37   38
BRANCH   54   55
ATOM     65  F10 UNL A   1      40.365  34.160  35.310  1.00  0.00    +0.000 F 
ATOM     55  C41 UNL A   1      39.904  32.751  33.455  1.00  0.00    +0.000 C 
ATOM     56  C42 UNL A   1      39.321  31.545  33.043  1.00  0.00    +0.000 C 
ATOM     57  F6  UNL A   1      39.340  31.202  31.747  1.00  0.00    +0.000 F 
ATOM     58  C43 UNL A   1      38.713  30.680  33.956  1.00  0.00    +0.000 C 
ATOM     59  F7  UNL A   1      38.161  29.537  33.526  1.00  0.00    +0.000 F 
ATOM     60  C44 UNL A   1      38.678  30.991  35.306  1.00  0.00    +0.000 C 
ATOM     61  F8  UNL A   1      38.103  30.155  36.183  1.00  0.00    +0.000 F 
ATOM     62  C45 UNL A   1      39.250  32.168  35.746  1.00  0.00    +0.000 C 
ATOM     63  F9  UNL A   1      39.240  32.478  37.051  1.00  0.00    +0.000 F 
ATOM     64  C46 UNL A   1      39.845  33.033  34.829  1.00  0.00    +0.000 C 
ENDBRANCH   54   55
BRANCH   69   70
ATOM     70  C50 UNL A   1      45.583  31.284  31.681  1.00  0.00    +0.000 C 
ATOM     71  C51 UNL A   1      46.213  31.285  32.933  1.00  0.00    +0.000 C 
ATOM     72  F11 UNL A   1      45.522  31.462  34.061  1.00  0.00    +0.000 F 
ATOM     73  C52 UNL A   1      47.607  31.146  33.076  1.00  0.00    +0.000 C 
ATOM     74  F12 UNL A   1      48.148  31.126  34.303  1.00  0.00    +0.000 F 
ATOM     75  C53 UNL A   1      48.431  31.023  31.974  1.00  0.00    +0.000 C 
ATOM     76  F13 UNL A   1      49.751  30.843  32.115  1.00  0.00    +0.000 F 
ATOM     77  C54 UNL A   1      47.874  31.113  30.723  1.00  0.00    +0.000 C 
ATOM     78  F14 UNL A   1      48.646  31.029  29.630  1.00  0.00    +0.000 F 
ATOM     79  C55 UNL A   1      46.494  31.277  30.585  1.00  0.00    +0.000 C 
ATOM     80  F15 UNL A   1      46.079  31.436  29.321  1.00  0.00    +0.000 F 
ENDBRANCH   69   70
TORSDOF 17
ENDMDL
MODEL 6
REMARK VINA RESULT:     -12.3     18.569     23.241
ROOT
ATOM    129  H38 UNL A   1      37.427  28.576  28.712  1.00  0.00    +0.000 H 
ATOM     33  C26 UNL A   1      40.208  29.316  29.127  1.00  0.00    +0.000 C 
ATOM     34  C27 UNL A   1      38.963  30.214  29.074  1.00  0.00    +0.000 C 
ATOM     35  N4  UNL A   1      38.858  31.508  29.149  1.00  0.00    +0.000 N 
ATOM     36  C28 UNL A   1      37.481  31.819  29.156  1.00  0.00    +0.000 C 
ATOM     37  C29 UNL A   1      36.982  33.035  29.523  1.00  0.00    +0.000 C 
ATOM     49  C36 UNL A   1      38.033  33.947  29.819  1.00  0.00    +0.000 C 
ATOM     50  C37 UNL A   1      38.888  34.684  29.046  1.00  0.00    +0.000 C 
ATOM     51  C38 UNL A   1      40.034  34.859  29.851  1.00  0.00    +0.000 C 
ATOM     52  C39 UNL A   1      39.808  34.277  31.103  1.00  0.00    +0.000 C 
ATOM     53  N5  UNL A   1      38.463  33.998  31.121  1.00  0.00    +0.000 N 
ATOM     54  C40 UNL A   1      40.613  33.756  32.185  1.00  0.00    +0.000 C 
ATOM     66  C47 UNL A   1      41.960  33.812  32.043  1.00  0.00    +0.000 C 
ATOM     67  N6  UNL A   1      42.729  32.723  32.389  1.00  0.00    +0.000 N 
ATOM     68  C48 UNL A   1      43.527  32.606  31.369  1.00  0.00    +0.000 C 
ATOM     69  C49 UNL A   1      44.316  31.402  31.045  1.00  0.00    +0.000 C 
ATOM     81  C56 UNL A   1      43.422  30.492  30.547  1.00  0.00    +0.000 C 
ATOM     82  C57 UNL A   1      43.679  29.132  30.116  1.00  0.00    +0.000 C 
ATOM     83  C58 UNL A   1      42.554  28.590  29.611  1.00  0.00    +0.000 C 
ATOM     84  C59 UNL A   1      41.447  29.561  29.641  1.00  0.00    +0.000 C 
ATOM     85  N7  UNL A   1      42.038  30.641  30.271  1.00  0.00    +0.000 N 
ATOM     86  C60 UNL A   1      43.571  33.746  30.444  1.00  0.00    +0.000 C 
ATOM     87  C61 UNL A   1      42.704  34.548  31.052  1.00  0.00    +0.000 C 
ATOM     88  C62 UNL A   1      36.785  30.603  28.864  1.00  0.00    +0.000 C 
ATOM     89  C63 UNL A   1      37.637  29.577  28.849  1.00  0.00    +0.000 C 
ATOM    120  H29 UNL A   1      38.730  35.035  28.089  1.00  0.00    +0.000 H 
ATOM    121  H30 UNL A   1      40.902  35.338  29.563  1.00  0.00    +0.000 H 
ATOM    122  H31 UNL A   1      37.908  33.861  31.922  1.00  0.00    +0.000 H 
ATOM    123  H32 UNL A   1      44.590  28.650  30.185  1.00  0.00    +0.000 H 
ATOM    124  H33 UNL A   1      42.478  27.625  29.251  1.00  0.00    +0.000 H 
ATOM    125  H34 UNL A   1      41.536  31.453  30.511  1.00  0.00    +0.000 H 
ATOM    126  H35 UNL A   1      44.115  33.881  29.577  1.00  0.00    +0.000 H 
ATOM    127  H36 UNL A   1      42.580  35.552  30.843  1.00  0.00    +0.000 H 
ATOM    128  H37 UNL A   1      35.771  30.531  28.690  1.00  0.00    +0.000 H 
ENDROOT
BRANCH   33   32
ATOM    130  H39 UNL A   1      40.684  28.533  26.578  1.00  0.00    +0.000 H 
ATOM    131  H40 UNL A   1      40.579  26.280  25.675  1.00  0.00    +0.000 H 
ATOM    118  H27 UNL A   1      39.142  24.868  29.372  1.00  0.00    +0.000 H 
ATOM    119  H28 UNL A   1      39.190  27.124  30.261  1.00  0.00    +0.000 H 
ATOM     90  C64 UNL A   1      40.370  27.752  27.173  1.00  0.00    +0.000 C 
ATOM     91  C65 UNL A   1      40.322  26.456  26.660  1.00  0.00    +0.000 C 
ATOM     29  C22 UNL A   1      39.926  25.395  27.479  1.00  0.00    +0.000 C 
ATOM     30  C23 UNL A   1      39.487  25.645  28.787  1.00  0.00    +0.000 C 
ATOM     31  C24 UNL A   1      39.516  26.939  29.299  1.00  0.00    +0.000 C 
ATOM     32  C25 UNL A   1      39.989  27.988  28.503  1.00  0.00    +0.000 C 
BRANCH   29   27
ATOM     27  C21 UNL A   1      39.866  23.994  26.999  1.00  0.00    +0.000 C 
ATOM     28  O4  UNL A   1      40.895  23.370  26.835  1.00  0.00    +0.000 O 
BRANCH   27   26
ATOM     26  N3  UNL A   1      38.660  23.391  26.711  1.00  0.00    +0.000 N 
ATOM    117  H26 UNL A   1      38.280  22.828  27.423  1.00  0.00    +0.000 H 
BRANCH   26   25
ATOM     25  C20 UNL A   1      37.878  23.484  25.490  1.00  0.00    +0.000 C 
ATOM    115  H24 UNL A   1      38.342  24.185  24.828  1.00  0.00    +0.000 H 
ATOM    116  H25 UNL A   1      37.834  22.514  25.040  1.00  0.00    +0.000 H 
BRANCH   25   24
ATOM    113  H22 UNL A   1      36.208  23.669  26.790  1.00  0.00    +0.000 H 
ATOM    114  H23 UNL A   1      36.432  25.005  25.631  1.00  0.00    +0.000 H 
ATOM     24  C19 UNL A   1      36.450  23.946  25.786  1.00  0.00    +0.000 C 
BRANCH   24   23
ATOM    111  H20 UNL A   1      34.432  23.465  25.325  1.00  0.00    +0.000 H 
ATOM     23  C18 UNL A   1      35.385  23.349  24.854  1.00  0.00    +0.000 C 
ATOM    112  H21 UNL A   1      35.474  23.879  23.928  1.00  0.00    +0.000 H 
BRANCH   23   22
ATOM    110  H19 UNL A   1      36.564  21.616  24.810  1.00  0.00    +0.000 H 
ATOM    109  H18 UNL A   1      35.389  21.747  23.464  1.00  0.00    +0.000 H 
ATOM     22  C17 UNL A   1      35.568  21.868  24.512  1.00  0.00    +0.000 C 
BRANCH   22   21
ATOM    107  H16 UNL A   1      33.916  20.530  24.572  1.00  0.00    +0.000 H 
ATOM    108  H17 UNL A   1      35.278  20.133  25.661  1.00  0.00    +0.000 H 
ATOM     21  C16 UNL A   1      34.646  20.898  25.263  1.00  0.00    +0.000 C 
BRANCH   21   20
ATOM    105  H14 UNL A   1      34.032  20.867  27.305  1.00  0.00    +0.000 H 
ATOM    106  H15 UNL A   1      34.313  22.478  26.642  1.00  0.00    +0.000 H 
ATOM     20  C15 UNL A   1      33.905  21.506  26.456  1.00  0.00    +0.000 C 
BRANCH   20   19
ATOM     19  N2  UNL A   1      32.489  21.653  26.187  1.00  0.00    +0.000 N 
ATOM    104  H13 UNL A   1      31.949  20.843  26.044  1.00  0.00    +0.000 H 
BRANCH   19    2
ATOM      1  O1  UNL A   1      31.877  23.695  27.046  1.00  0.00    +0.000 O 
ATOM      2  C1  UNL A   1      31.867  22.884  26.123  1.00  0.00    +0.000 C 
BRANCH    2    3
ATOM      3  C2  UNL A   1      31.070  23.127  24.845  1.00  0.00    +0.000 C 
ATOM     92  H1  UNL A   1      30.426  23.969  24.990  1.00  0.00    +0.000 H 
ATOM     93  H2  UNL A   1      30.501  22.246  24.631  1.00  0.00    +0.000 H 
BRANCH    3    4
ATOM      4  C3  UNL A   1      31.977  23.401  23.677  1.00  0.00    +0.000 C 
ATOM      5  C4  UNL A   1      32.452  22.490  22.747  1.00  0.00    +0.000 C 
ATOM      6  C5  UNL A   1      33.108  23.209  21.728  1.00  0.00    +0.000 C 
ATOM      7  C6  UNL A   1      33.026  24.541  22.059  1.00  0.00    +0.000 C 
ATOM      8  N1  UNL A   1      32.414  24.663  23.291  1.00  0.00    +0.000 N 
ATOM     94  H3  UNL A   1      32.344  21.464  22.792  1.00  0.00    +0.000 H 
ATOM     95  H4  UNL A   1      33.564  22.811  20.891  1.00  0.00    +0.000 H 
ATOM     96  H5  UNL A   1      33.367  25.324  21.480  1.00  0.00    +0.000 H 
BRANCH    8    9
ATOM     97  H6  UNL A   1      30.416  26.378  23.086  1.00  0.00    +0.000 H 
ATOM     98  H7  UNL A   1      30.129  28.449  24.325  1.00  0.00    +0.000 H 
ATOM     99  H8  UNL A   1      34.110  25.744  25.018  1.00  0.00    +0.000 H 
ATOM    100  H9  UNL A   1      34.634  29.408  27.671  1.00  0.00    +0.000 H 
ATOM    101  H10 UNL A   1      33.122  28.574  28.011  1.00  0.00    +0.000 H 
ATOM    102  H11 UNL A   1      33.589  30.407  25.685  1.00  0.00    +0.000 H 
ATOM    103  H12 UNL A   1      32.749  30.835  27.168  1.00  0.00    +0.000 H 
ATOM      9  C7  UNL A   1      32.268  25.889  23.987  1.00  0.00    +0.000 C 
ATOM     10  C8  UNL A   1      31.134  26.681  23.763  1.00  0.00    +0.000 C 
ATOM     11  C9  UNL A   1      30.979  27.881  24.459  1.00  0.00    +0.000 C 
ATOM     12  C10 UNL A   1      31.975  28.312  25.335  1.00  0.00    +0.000 C 
ATOM     13  C11 UNL A   1      33.115  27.531  25.541  1.00  0.00    +0.000 C 
ATOM     14  C12 UNL A   1      33.267  26.319  24.869  1.00  0.00    +0.000 C 
ATOM     15  O2  UNL A   1      34.140  27.900  26.375  1.00  0.00    +0.000 O 
ATOM     16  C13 UNL A   1      33.756  28.971  27.244  1.00  0.00    +0.000 C 
ATOM     17  C14 UNL A   1      32.985  30.043  26.490  1.00  0.00    +0.000 C 
ATOM     18  O3  UNL A   1      31.765  29.514  25.959  1.00  0.00    +0.000 O 
ENDBRANCH    8    9
ENDBRANCH    3    4
ENDBRANCH    2    3
ENDBRANCH   19    2
ENDBRANCH   20   19
ENDBRANCH   21   20
ENDBRANCH   22   21
ENDBRANCH   23   22
ENDBRANCH   24   23
ENDBRANCH   25   24
ENDBRANCH   26   25
ENDBRANCH   27   26
ENDBRANCH   29   27
ENDBRANCH   33   32
BRANCH   37   38
ATOM     38  C30 UNL A   1      35.585  33.476  29.870  1.00  0.00    +0.000 C 
ATOM     39  C31 UNL A   1      34.862  34.240  28.918  1.00  0.00    +0.000 C 
ATOM     40  F1  UNL A   1      35.236  34.262  27.629  1.00  0.00    +0.000 F 
ATOM     41  C32 UNL A   1      33.795  35.060  29.282  1.00  0.00    +0.000 C 
ATOM     42  F2  UNL A   1      33.232  35.868  28.372  1.00  0.00    +0.000 F 
ATOM     43  C33 UNL A   1      33.364  35.089  30.593  1.00  0.00    +0.000 C 
ATOM     44  F3  UNL A   1      32.384  35.925  30.961  1.00  0.00    +0.000 F 
ATOM     45  C34 UNL A   1      33.979  34.273  31.528  1.00  0.00    +0.000 C 
ATOM     46  F4  UNL A   1      33.559  34.294  32.801  1.00  0.00    +0.000 F 
ATOM     47  C35 UNL A   1      35.082  33.486  31.178  1.00  0.00    +0.000 C 
ATOM     48  F5  UNL A   1      35.702  32.823  32.162  1.00  0.00    +0.000 F 
ENDBRANCH   37   38
BRANCH   54   55
ATOM     65  F10 UNL A   1      39.562  31.088  31.641  1.00  0.00    +0.000 F 
ATOM     55  C41 UNL A   1      40.160  32.754  33.225  1.00  0.00    +0.000 C 
ATOM     56  C42 UNL A   1      40.299  33.049  34.588  1.00  0.00    +0.000 C 
ATOM     57  F6  UNL A   1      40.717  34.265  34.969  1.00  0.00    +0.000 F 
ATOM     58  C43 UNL A   1      40.014  32.100  35.572  1.00  0.00    +0.000 C 
ATOM     59  F7  UNL A   1      40.163  32.415  36.866  1.00  0.00    +0.000 F 
ATOM     60  C44 UNL A   1      39.572  30.833  35.223  1.00  0.00    +0.000 C 
ATOM     61  F8  UNL A   1      39.288  29.926  36.168  1.00  0.00    +0.000 F 
ATOM     62  C45 UNL A   1      39.417  30.513  33.889  1.00  0.00    +0.000 C 
ATOM     63  F9  UNL A   1      38.975  29.297  33.533  1.00  0.00    +0.000 F 
ATOM     64  C46 UNL A   1      39.715  31.460  32.910  1.00  0.00    +0.000 C 
ENDBRANCH   54   55
BRANCH   69   70
ATOM     70  C50 UNL A   1      45.819  31.494  31.239  1.00  0.00    +0.000 C 
ATOM     71  C51 UNL A   1      46.774  31.647  30.224  1.00  0.00    +0.000 C 
ATOM     72  F11 UNL A   1      46.448  31.516  28.936  1.00  0.00    +0.000 F 
ATOM     73  C52 UNL A   1      48.131  31.901  30.498  1.00  0.00    +0.000 C 
ATOM     74  F12 UNL A   1      48.991  32.066  29.482  1.00  0.00    +0.000 F 
ATOM     75  C53 UNL A   1      48.596  31.989  31.796  1.00  0.00    +0.000 C 
ATOM     76  F13 UNL A   1      49.879  32.278  32.052  1.00  0.00    +0.000 F 
ATOM     77  C54 UNL A   1      47.720  31.751  32.825  1.00  0.00    +0.000 C 
ATOM     78  F14 UNL A   1      48.141  31.798  34.098  1.00  0.00    +0.000 F 
ATOM     79  C55 UNL A   1      46.380  31.474  32.549  1.00  0.00    +0.000 C 
ATOM     80  F15 UNL A   1      45.642  31.176  33.628  1.00  0.00    +0.000 F 
ENDBRANCH   69   70
TORSDOF 17
ENDMDL
MODEL 7
REMARK VINA RESULT:     -12.3     18.214     22.919
ROOT
ATOM    129  H38 UNL A   1      37.172  28.689  28.877  1.00  0.00    +0.000 H 
ATOM     33  C26 UNL A   1      39.962  29.324  29.397  1.00  0.00    +0.000 C 
ATOM     34  C27 UNL A   1      38.753  30.267  29.305  1.00  0.00    +0.000 C 
ATOM     35  N4  UNL A   1      38.692  31.564  29.384  1.00  0.00    +0.000 N 
ATOM     36  C28 UNL A   1      37.328  31.925  29.344  1.00  0.00    +0.000 C 
ATOM     37  C29 UNL A   1      36.861  33.156  29.700  1.00  0.00    +0.000 C 
ATOM     49  C36 UNL A   1      37.933  34.028  30.039  1.00  0.00    +0.000 C 
ATOM     50  C37 UNL A   1      38.841  34.738  29.302  1.00  0.00    +0.000 C 
ATOM     51  C38 UNL A   1      39.963  34.866  30.149  1.00  0.00    +0.000 C 
ATOM     52  C39 UNL A   1      39.671  34.286  31.388  1.00  0.00    +0.000 C 
ATOM     53  N5  UNL A   1      38.317  34.057  31.356  1.00  0.00    +0.000 N 
ATOM     54  C40 UNL A   1      40.417  33.731  32.495  1.00  0.00    +0.000 C 
ATOM     66  C47 UNL A   1      41.770  33.739  32.402  1.00  0.00    +0.000 C 
ATOM     67  N6  UNL A   1      42.485  32.621  32.769  1.00  0.00    +0.000 N 
ATOM     68  C48 UNL A   1      43.314  32.479  31.778  1.00  0.00    +0.000 C 
ATOM     69  C49 UNL A   1      44.070  31.250  31.475  1.00  0.00    +0.000 C 
ATOM     81  C56 UNL A   1      43.163  30.375  30.939  1.00  0.00    +0.000 C 
ATOM     82  C57 UNL A   1      43.386  29.008  30.508  1.00  0.00    +0.000 C 
ATOM     83  C58 UNL A   1      42.261  28.510  29.960  1.00  0.00    +0.000 C 
ATOM     84  C59 UNL A   1      41.190  29.521  29.956  1.00  0.00    +0.000 C 
ATOM     85  N7  UNL A   1      41.796  30.576  30.614  1.00  0.00    +0.000 N 
ATOM     86  C60 UNL A   1      43.433  33.622  30.862  1.00  0.00    +0.000 C 
ATOM     87  C61 UNL A   1      42.575  34.453  31.443  1.00  0.00    +0.000 C 
ATOM     88  C62 UNL A   1      36.600  30.737  29.019  1.00  0.00    +0.000 C 
ATOM     89  C63 UNL A   1      37.414  29.680  29.028  1.00  0.00    +0.000 C 
ATOM    120  H29 UNL A   1      38.730  35.099  28.343  1.00  0.00    +0.000 H 
ATOM    121  H30 UNL A   1      40.857  35.315  29.895  1.00  0.00    +0.000 H 
ATOM    122  H31 UNL A   1      37.729  33.936  32.136  1.00  0.00    +0.000 H 
ATOM    123  H32 UNL A   1      44.275  28.494  30.607  1.00  0.00    +0.000 H 
ATOM    124  H33 UNL A   1      42.163  27.551  29.592  1.00  0.00    +0.000 H 
ATOM    125  H34 UNL A   1      41.315  31.405  30.841  1.00  0.00    +0.000 H 
ATOM    126  H35 UNL A   1      44.013  33.742  30.016  1.00  0.00    +0.000 H 
ATOM    127  H36 UNL A   1      42.495  35.461  31.236  1.00  0.00    +0.000 H 
ATOM    128  H37 UNL A   1      35.590  30.702  28.809  1.00  0.00    +0.000 H 
ENDROOT
BRANCH   33   32
ATOM    130  H39 UNL A   1      40.456  28.552  26.847  1.00  0.00    +0.000 H 
ATOM    131  H40 UNL A   1      40.306  26.312  25.922  1.00  0.00    +0.000 H 
ATOM    118  H27 UNL A   1      38.775  24.904  29.583  1.00  0.00    +0.000 H 
ATOM    119  H28 UNL A   1      38.869  27.150  30.494  1.00  0.00    +0.000 H 
ATOM     90  C64 UNL A   1      40.112  27.774  27.431  1.00  0.00    +0.000 C 
ATOM     91  C65 UNL A   1      40.038  26.485  26.904  1.00  0.00    +0.000 C 
ATOM     29  C22 UNL A   1      39.602  25.428  27.707  1.00  0.00    +0.000 C 
ATOM     30  C23 UNL A   1      39.149  25.677  29.011  1.00  0.00    +0.000 C 
ATOM     31  C24 UNL A   1      39.205  26.965  29.536  1.00  0.00    +0.000 C 
ATOM     32  C25 UNL A   1      39.717  28.008  28.757  1.00  0.00    +0.000 C 
BRANCH   29   27
ATOM     27  C21 UNL A   1      39.512  24.033  27.213  1.00  0.00    +0.000 C 
ATOM     28  O4  UNL A   1      40.270  23.190  27.650  1.00  0.00    +0.000 O 
BRANCH   27   26
ATOM     26  N3  UNL A   1      38.598  23.678  26.245  1.00  0.00    +0.000 N 
ATOM    117  H26 UNL A   1      38.965  23.221  25.454  1.00  0.00    +0.000 H 
BRANCH   26   25
ATOM     25  C20 UNL A   1      37.160  23.891  26.244  1.00  0.00    +0.000 C 
ATOM    115  H24 UNL A   1      36.727  23.359  27.066  1.00  0.00    +0.000 H 
ATOM    116  H25 UNL A   1      36.972  24.940  26.334  1.00  0.00    +0.000 H 
BRANCH   25   24
ATOM    113  H22 UNL A   1      37.123  23.754  24.125  1.00  0.00    +0.000 H 
ATOM    114  H23 UNL A   1      36.508  22.327  24.998  1.00  0.00    +0.000 H 
ATOM     24  C19 UNL A   1      36.531  23.395  24.941  1.00  0.00    +0.000 C 
BRANCH   24   23
ATOM    111  H20 UNL A   1      34.943  24.019  23.674  1.00  0.00    +0.000 H 
ATOM     23  C18 UNL A   1      35.082  23.854  24.722  1.00  0.00    +0.000 C 
ATOM    112  H21 UNL A   1      34.464  23.077  25.121  1.00  0.00    +0.000 H 
BRANCH   23   22
ATOM    110  H19 UNL A   1      34.732  25.921  24.738  1.00  0.00    +0.000 H 
ATOM    109  H18 UNL A   1      35.349  25.263  26.286  1.00  0.00    +0.000 H 
ATOM     22  C17 UNL A   1      34.680  25.134  25.461  1.00  0.00    +0.000 C 
BRANCH   22   21
ATOM    107  H16 UNL A   1      33.261  25.653  26.956  1.00  0.00    +0.000 H 
ATOM    108  H17 UNL A   1      32.656  25.664  25.272  1.00  0.00    +0.000 H 
ATOM     21  C16 UNL A   1      33.247  25.158  26.007  1.00  0.00    +0.000 C 
BRANCH   21   20
ATOM    105  H14 UNL A   1      33.087  23.082  25.547  1.00  0.00    +0.000 H 
ATOM    106  H15 UNL A   1      32.725  23.498  27.223  1.00  0.00    +0.000 H 
ATOM     20  C15 UNL A   1      32.606  23.782  26.198  1.00  0.00    +0.000 C 
BRANCH   20   19
ATOM     19  N2  UNL A   1      31.189  23.806  25.898  1.00  0.00    +0.000 N 
ATOM    104  H13 UNL A   1      30.656  22.996  26.068  1.00  0.00    +0.000 H 
BRANCH   19    2
ATOM      1  O1  UNL A   1      30.197  25.872  26.068  1.00  0.00    +0.000 O 
ATOM      2  C1  UNL A   1      30.555  24.919  25.381  1.00  0.00    +0.000 C 
BRANCH    2    3
ATOM      3  C2  UNL A   1      30.239  24.835  23.891  1.00  0.00    +0.000 C 
ATOM     92  H1  UNL A   1      29.441  25.511  23.666  1.00  0.00    +0.000 H 
ATOM     93  H2  UNL A   1      29.959  23.827  23.663  1.00  0.00    +0.000 H 
BRANCH    3    4
ATOM      4  C3  UNL A   1      31.436  25.195  23.055  1.00  0.00    +0.000 C 
ATOM      5  C4  UNL A   1      32.382  24.334  22.522  1.00  0.00    +0.000 C 
ATOM      6  C5  UNL A   1      33.210  25.078  21.658  1.00  0.00    +0.000 C 
ATOM      7  C6  UNL A   1      32.758  26.375  21.684  1.00  0.00    +0.000 C 
ATOM      8  N1  UNL A   1      31.730  26.476  22.602  1.00  0.00    +0.000 N 
ATOM     94  H3  UNL A   1      32.467  23.326  22.723  1.00  0.00    +0.000 H 
ATOM     95  H4  UNL A   1      34.006  24.716  21.107  1.00  0.00    +0.000 H 
ATOM     96  H5  UNL A   1      33.127  27.150  21.111  1.00  0.00    +0.000 H 
BRANCH    8    9
ATOM     97  H6  UNL A   1      32.276  27.971  24.709  1.00  0.00    +0.000 H 
ATOM     98  H7  UNL A   1      31.257  30.097  25.302  1.00  0.00    +0.000 H 
ATOM     99  H8  UNL A   1      29.739  27.702  21.352  1.00  0.00    +0.000 H 
ATOM    100  H9  UNL A   1      27.120  31.417  21.621  1.00  0.00    +0.000 H 
ATOM    101  H10 UNL A   1      28.831  31.831  21.606  1.00  0.00    +0.000 H 
ATOM    102  H11 UNL A   1      27.330  30.813  23.993  1.00  0.00    +0.000 H 
ATOM    103  H12 UNL A   1      27.750  32.493  23.693  1.00  0.00    +0.000 H 
ATOM      9  C7  UNL A   1      31.107  27.697  22.966  1.00  0.00    +0.000 C 
ATOM     10  C8  UNL A   1      31.527  28.369  24.121  1.00  0.00    +0.000 C 
ATOM     11  C9  UNL A   1      30.927  29.580  24.474  1.00  0.00    +0.000 C 
ATOM     12  C10 UNL A   1      29.881  30.089  23.706  1.00  0.00    +0.000 C 
ATOM     13  C11 UNL A   1      29.450  29.406  22.565  1.00  0.00    +0.000 C 
ATOM     14  C12 UNL A   1      30.059  28.208  22.192  1.00  0.00    +0.000 C 
ATOM     15  O2  UNL A   1      28.417  29.840  21.772  1.00  0.00    +0.000 O 
ATOM     16  C13 UNL A   1      28.081  31.204  22.042  1.00  0.00    +0.000 C 
ATOM     17  C14 UNL A   1      28.037  31.475  23.538  1.00  0.00    +0.000 C 
ATOM     18  O3  UNL A   1      29.324  31.266  24.131  1.00  0.00    +0.000 O 
ENDBRANCH    8    9
ENDBRANCH    3    4
ENDBRANCH    2    3
ENDBRANCH   19    2
ENDBRANCH   20   19
ENDBRANCH   21   20
ENDBRANCH   22   21
ENDBRANCH   23   22
ENDBRANCH   24   23
ENDBRANCH   25   24
ENDBRANCH   26   25
ENDBRANCH   27   26
ENDBRANCH   29   27
ENDBRANCH   33   32
BRANCH   37   38
ATOM     38  C30 UNL A   1      35.468  33.646  29.999  1.00  0.00    +0.000 C 
ATOM     39  C31 UNL A   1      34.790  34.400  29.008  1.00  0.00    +0.000 C 
ATOM     40  F1  UNL A   1      35.195  34.371  27.728  1.00  0.00    +0.000 F 
ATOM     41  C32 UNL A   1      33.739  35.260  29.320  1.00  0.00    +0.000 C 
ATOM     42  F2  UNL A   1      33.220  36.054  28.372  1.00  0.00    +0.000 F 
ATOM     43  C33 UNL A   1      33.278  35.342  30.618  1.00  0.00    +0.000 C 
ATOM     44  F3  UNL A   1      32.314  36.215  30.937  1.00  0.00    +0.000 F 
ATOM     45  C34 UNL A   1      33.848  34.538  31.593  1.00  0.00    +0.000 C 
ATOM     46  F4  UNL A   1      33.399  34.611  32.854  1.00  0.00    +0.000 F 
ATOM     47  C35 UNL A   1      34.936  33.711  31.294  1.00  0.00    +0.000 C 
ATOM     48  F5  UNL A   1      35.514  33.061  32.312  1.00  0.00    +0.000 F 
ENDBRANCH   37   38
BRANCH   54   55
ATOM     65  F10 UNL A   1      40.360  34.121  35.386  1.00  0.00    +0.000 F 
ATOM     55  C41 UNL A   1      39.891  32.741  33.512  1.00  0.00    +0.000 C 
ATOM     56  C42 UNL A   1      39.302  31.543  33.083  1.00  0.00    +0.000 C 
ATOM     57  F6  UNL A   1      39.318  31.220  31.782  1.00  0.00    +0.000 F 
ATOM     58  C43 UNL A   1      38.691  30.668  33.984  1.00  0.00    +0.000 C 
ATOM     59  F7  UNL A   1      38.134  29.533  33.538  1.00  0.00    +0.000 F 
ATOM     60  C44 UNL A   1      38.659  30.960  35.339  1.00  0.00    +0.000 C 
ATOM     61  F8  UNL A   1      38.081  30.114  36.204  1.00  0.00    +0.000 F 
ATOM     62  C45 UNL A   1      39.236  32.128  35.794  1.00  0.00    +0.000 C 
ATOM     63  F9  UNL A   1      39.229  32.418  37.104  1.00  0.00    +0.000 F 
ATOM     64  C46 UNL A   1      39.834  33.004  34.890  1.00  0.00    +0.000 C 
ENDBRANCH   54   55
BRANCH   69   70
ATOM     70  C50 UNL A   1      45.568  31.285  31.723  1.00  0.00    +0.000 C 
ATOM     71  C51 UNL A   1      46.195  31.360  32.974  1.00  0.00    +0.000 C 
ATOM     72  F11 UNL A   1      45.504  31.622  34.086  1.00  0.00    +0.000 F 
ATOM     73  C52 UNL A   1      47.586  31.210  33.131  1.00  0.00    +0.000 C 
ATOM     74  F12 UNL A   1      48.124  31.264  34.358  1.00  0.00    +0.000 F 
ATOM     75  C53 UNL A   1      48.411  31.001  32.042  1.00  0.00    +0.000 C 
ATOM     76  F13 UNL A   1      49.728  30.811  32.200  1.00  0.00    +0.000 F 
ATOM     77  C54 UNL A   1      47.858  31.016  30.786  1.00  0.00    +0.000 C 
ATOM     78  F14 UNL A   1      48.632  30.848  29.704  1.00  0.00    +0.000 F 
ATOM     79  C55 UNL A   1      46.482  31.192  30.633  1.00  0.00    +0.000 C 
ATOM     80  F15 UNL A   1      46.072  31.273  29.360  1.00  0.00    +0.000 F 
ENDBRANCH   69   70
TORSDOF 17
ENDMDL
MODEL 8
REMARK VINA RESULT:     -12.3     18.248     22.638
ROOT
ATOM    129  H38 UNL A   1      37.950  29.979  27.053  1.00  0.00    +0.000 H 
ATOM     33  C26 UNL A   1      37.753  30.590  29.889  1.00  0.00    +0.000 C 
ATOM     34  C27 UNL A   1      38.876  29.870  29.128  1.00  0.00    +0.000 C 
ATOM     35  N4  UNL A   1      39.970  29.321  29.568  1.00  0.00    +0.000 N 
ATOM     36  C28 UNL A   1      40.708  28.893  28.443  1.00  0.00    +0.000 C 
ATOM     37  C29 UNL A   1      42.027  28.549  28.491  1.00  0.00    +0.000 C 
ATOM     49  C36 UNL A   1      42.521  28.611  29.824  1.00  0.00    +0.000 C 
ATOM     50  C37 UNL A   1      42.409  27.788  30.911  1.00  0.00    +0.000 C 
ATOM     51  C38 UNL A   1      42.543  28.647  32.023  1.00  0.00    +0.000 C 
ATOM     52  C39 UNL A   1      42.796  29.946  31.570  1.00  0.00    +0.000 C 
ATOM     53  N5  UNL A   1      43.064  29.803  30.230  1.00  0.00    +0.000 N 
ATOM     54  C40 UNL A   1      42.644  31.289  32.082  1.00  0.00    +0.000 C 
ATOM     66  C47 UNL A   1      42.138  31.426  33.333  1.00  0.00    +0.000 C 
ATOM     67  N6  UNL A   1      41.182  32.386  33.580  1.00  0.00    +0.000 N 
ATOM     68  C48 UNL A   1      40.292  31.728  34.262  1.00  0.00    +0.000 C 
ATOM     69  C49 UNL A   1      38.901  32.165  34.484  1.00  0.00    +0.000 C 
ATOM     81  C56 UNL A   1      38.251  31.961  33.296  1.00  0.00    +0.000 C 
ATOM     82  C57 UNL A   1      36.871  32.264  32.968  1.00  0.00    +0.000 C 
ATOM     83  C58 UNL A   1      36.590  31.837  31.722  1.00  0.00    +0.000 C 
ATOM     84  C59 UNL A   1      37.764  31.184  31.117  1.00  0.00    +0.000 C 
ATOM     85  N7  UNL A   1      38.722  31.361  32.099  1.00  0.00    +0.000 N 
ATOM     86  C60 UNL A   1      40.708  30.417  34.778  1.00  0.00    +0.000 C 
ATOM     87  C61 UNL A   1      41.955  30.391  34.319  1.00  0.00    +0.000 C 
ATOM     88  C62 UNL A   1      39.851  29.048  27.308  1.00  0.00    +0.000 C 
ATOM     89  C63 UNL A   1      38.732  29.685  27.659  1.00  0.00    +0.000 C 
ATOM    120  H29 UNL A   1      42.259  26.767  30.916  1.00  0.00    +0.000 H 
ATOM    121  H30 UNL A   1      42.467  28.362  33.012  1.00  0.00    +0.000 H 
ATOM    122  H31 UNL A   1      43.556  30.441  29.665  1.00  0.00    +0.000 H 
ATOM    123  H32 UNL A   1      36.203  32.736  33.598  1.00  0.00    +0.000 H 
ATOM    124  H33 UNL A   1      35.677  31.950  31.256  1.00  0.00    +0.000 H 
ATOM    125  H34 UNL A   1      39.661  31.090  31.976  1.00  0.00    +0.000 H 
ATOM    126  H35 UNL A   1      40.185  29.722  35.334  1.00  0.00    +0.000 H 
ATOM    127  H36 UNL A   1      42.684  29.727  34.623  1.00  0.00    +0.000 H 
ATOM    128  H37 UNL A   1      40.067  28.716  26.355  1.00  0.00    +0.000 H 
ENDROOT
BRANCH   33   32
ATOM    130  H39 UNL A   1      36.386  32.714  28.908  1.00  0.00    +0.000 H 
ATOM    131  H40 UNL A   1      34.444  32.681  27.450  1.00  0.00    +0.000 H 
ATOM    118  H27 UNL A   1      34.304  28.482  27.734  1.00  0.00    +0.000 H 
ATOM    119  H28 UNL A   1      36.208  28.514  29.236  1.00  0.00    +0.000 H 
ATOM     90  C64 UNL A   1      35.951  31.816  28.647  1.00  0.00    +0.000 C 
ATOM     91  C65 UNL A   1      34.845  31.795  27.799  1.00  0.00    +0.000 C 
ATOM     29  C22 UNL A   1      34.277  30.575  27.423  1.00  0.00    +0.000 C 
ATOM     30  C23 UNL A   1      34.760  29.378  27.970  1.00  0.00    +0.000 C 
ATOM     31  C24 UNL A   1      35.854  29.394  28.830  1.00  0.00    +0.000 C 
ATOM     32  C25 UNL A   1      36.470  30.610  29.143  1.00  0.00    +0.000 C 
BRANCH   29   27
ATOM     27  C21 UNL A   1      33.109  30.483  26.515  1.00  0.00    +0.000 C 
ATOM     28  O4  UNL A   1      32.150  31.208  26.692  1.00  0.00    +0.000 O 
BRANCH   27   26
ATOM     26  N3  UNL A   1      33.079  29.570  25.483  1.00  0.00    +0.000 N 
ATOM    117  H26 UNL A   1      33.950  29.349  25.079  1.00  0.00    +0.000 H 
BRANCH   26   25
ATOM     25  C20 UNL A   1      31.927  28.890  24.917  1.00  0.00    +0.000 C 
ATOM    115  H24 UNL A   1      31.150  28.846  25.651  1.00  0.00    +0.000 H 
ATOM    116  H25 UNL A   1      31.600  29.434  24.056  1.00  0.00    +0.000 H 
BRANCH   25   24
ATOM    113  H22 UNL A   1      31.528  26.804  24.848  1.00  0.00    +0.000 H 
ATOM    114  H23 UNL A   1      32.349  27.478  23.416  1.00  0.00    +0.000 H 
ATOM     24  C19 UNL A   1      32.285  27.467  24.484  1.00  0.00    +0.000 C 
BRANCH   24   23
ATOM    111  H20 UNL A   1      34.269  26.782  24.151  1.00  0.00    +0.000 H 
ATOM     23  C18 UNL A   1      33.645  26.972  24.998  1.00  0.00    +0.000 C 
ATOM    112  H21 UNL A   1      34.015  27.743  25.641  1.00  0.00    +0.000 H 
BRANCH   23   22
ATOM    110  H19 UNL A   1      33.678  26.021  26.866  1.00  0.00    +0.000 H 
ATOM    109  H18 UNL A   1      34.404  25.065  25.536  1.00  0.00    +0.000 H 
ATOM     22  C17 UNL A   1      33.601  25.699  25.849  1.00  0.00    +0.000 C 
BRANCH   22   21
ATOM    107  H16 UNL A   1      31.488  25.579  25.651  1.00  0.00    +0.000 H 
ATOM    108  H17 UNL A   1      32.414  24.231  24.926  1.00  0.00    +0.000 H 
ATOM     21  C16 UNL A   1      32.300  24.891  25.761  1.00  0.00    +0.000 C 
BRANCH   21   20
ATOM    105  H14 UNL A   1      32.746  24.188  27.724  1.00  0.00    +0.000 H 
ATOM    106  H15 UNL A   1      31.028  24.235  27.329  1.00  0.00    +0.000 H 
ATOM     20  C15 UNL A   1      32.009  24.002  26.972  1.00  0.00    +0.000 C 
BRANCH   20   19
ATOM     19  N2  UNL A   1      32.040  22.596  26.622  1.00  0.00    +0.000 N 
ATOM    104  H13 UNL A   1      31.219  22.176  26.280  1.00  0.00    +0.000 H 
BRANCH   19    2
ATOM      1  O1  UNL A   1      33.922  21.873  27.726  1.00  0.00    +0.000 O 
ATOM      2  C1  UNL A   1      33.176  21.821  26.751  1.00  0.00    +0.000 C 
BRANCH    2    3
ATOM      3  C2  UNL A   1      33.496  20.956  25.537  1.00  0.00    +0.000 C 
ATOM     92  H1  UNL A   1      32.689  20.274  25.371  1.00  0.00    +0.000 H 
ATOM     93  H2  UNL A   1      34.406  20.428  25.731  1.00  0.00    +0.000 H 
BRANCH    3    4
ATOM      4  C3  UNL A   1      33.689  21.794  24.302  1.00  0.00    +0.000 C 
ATOM      5  C4  UNL A   1      32.744  22.100  23.336  1.00  0.00    +0.000 C 
ATOM      6  C5  UNL A   1      33.304  23.058  22.468  1.00  0.00    +0.000 C 
ATOM      7  C6  UNL A   1      34.579  23.312  22.917  1.00  0.00    +0.000 C 
ATOM      8  N1  UNL A   1      34.855  22.480  23.984  1.00  0.00    +0.000 N 
ATOM     94  H3  UNL A   1      31.797  21.698  23.263  1.00  0.00    +0.000 H 
ATOM     95  H4  UNL A   1      32.845  23.489  21.649  1.00  0.00    +0.000 H 
ATOM     96  H5  UNL A   1      35.225  24.012  22.520  1.00  0.00    +0.000 H 
BRANCH    8    9
ATOM     97  H6  UNL A   1      36.450  20.378  24.074  1.00  0.00    +0.000 H 
ATOM     98  H7  UNL A   1      38.648  20.248  25.103  1.00  0.00    +0.000 H 
ATOM     99  H8  UNL A   1      36.084  24.371  25.378  1.00  0.00    +0.000 H 
ATOM    100  H9  UNL A   1      39.915  25.145  27.715  1.00  0.00    +0.000 H 
ATOM    101  H10 UNL A   1      40.256  24.610  26.074  1.00  0.00    +0.000 H 
ATOM    102  H11 UNL A   1      39.446  22.814  28.333  1.00  0.00    +0.000 H 
ATOM    103  H12 UNL A   1      41.086  23.030  27.739  1.00  0.00    +0.000 H 
ATOM      9  C7  UNL A   1      36.120  22.396  24.619  1.00  0.00    +0.000 C 
ATOM     10  C8  UNL A   1      36.843  21.197  24.563  1.00  0.00    +0.000 C 
ATOM     11  C9  UNL A   1      38.096  21.116  25.173  1.00  0.00    +0.000 C 
ATOM     12  C10 UNL A   1      38.601  22.208  25.876  1.00  0.00    +0.000 C 
ATOM     13  C11 UNL A   1      37.869  23.397  25.948  1.00  0.00    +0.000 C 
ATOM     14  C12 UNL A   1      36.627  23.495  25.322  1.00  0.00    +0.000 C 
ATOM     15  O2  UNL A   1      38.297  24.505  26.635  1.00  0.00    +0.000 O 
ATOM     16  C13 UNL A   1      39.688  24.421  26.961  1.00  0.00    +0.000 C 
ATOM     17  C14 UNL A   1      40.050  23.037  27.478  1.00  0.00    +0.000 C 
ATOM     18  O3  UNL A   1      39.824  22.043  26.472  1.00  0.00    +0.000 O 
ENDBRANCH    8    9
ENDBRANCH    3    4
ENDBRANCH    2    3
ENDBRANCH   19    2
ENDBRANCH   20   19
ENDBRANCH   21   20
ENDBRANCH   22   21
ENDBRANCH   23   22
ENDBRANCH   24   23
ENDBRANCH   25   24
ENDBRANCH   26   25
ENDBRANCH   27   26
ENDBRANCH   29   27
ENDBRANCH   33   32
BRANCH   37   38
ATOM     38  C30 UNL A   1      43.046  28.350  27.400  1.00  0.00    +0.000 C 
ATOM     39  C31 UNL A   1      43.411  27.026  27.049  1.00  0.00    +0.000 C 
ATOM     40  F1  UNL A   1      42.633  25.987  27.391  1.00  0.00    +0.000 F 
ATOM     41  C32 UNL A   1      44.617  26.732  26.415  1.00  0.00    +0.000 C 
ATOM     42  F2  UNL A   1      44.981  25.455  26.228  1.00  0.00    +0.000 F 
ATOM     43  C33 UNL A   1      45.466  27.754  26.042  1.00  0.00    +0.000 C 
ATOM     44  F3  UNL A   1      46.656  27.475  25.494  1.00  0.00    +0.000 F 
ATOM     45  C34 UNL A   1      45.091  29.067  26.273  1.00  0.00    +0.000 C 
ATOM     46  F4  UNL A   1      45.910  30.063  25.906  1.00  0.00    +0.000 F 
ATOM     47  C35 UNL A   1      43.905  29.365  26.954  1.00  0.00    +0.000 C 
ATOM     48  F5  UNL A   1      43.671  30.649  27.252  1.00  0.00    +0.000 F 
ENDBRANCH   37   38
BRANCH   54   55
ATOM     65  F10 UNL A   1      40.437  31.983  30.304  1.00  0.00    +0.000 F 
ATOM     55  C41 UNL A   1      42.540  32.549  31.251  1.00  0.00    +0.000 C 
ATOM     56  C42 UNL A   1      43.526  33.540  31.355  1.00  0.00    +0.000 C 
ATOM     57  F6  UNL A   1      44.622  33.317  32.095  1.00  0.00    +0.000 F 
ATOM     58  C43 UNL A   1      43.397  34.769  30.702  1.00  0.00    +0.000 C 
ATOM     59  F7  UNL A   1      44.357  35.695  30.828  1.00  0.00    +0.000 F 
ATOM     60  C44 UNL A   1      42.284  35.038  29.921  1.00  0.00    +0.000 C 
ATOM     61  F8  UNL A   1      42.166  36.213  29.287  1.00  0.00    +0.000 F 
ATOM     62  C45 UNL A   1      41.299  34.080  29.791  1.00  0.00    +0.000 C 
ATOM     63  F9  UNL A   1      40.223  34.317  29.025  1.00  0.00    +0.000 F 
ATOM     64  C46 UNL A   1      41.427  32.860  30.454  1.00  0.00    +0.000 C 
ENDBRANCH   54   55
BRANCH   69   70
ATOM     70  C50 UNL A   1      38.536  32.609  35.889  1.00  0.00    +0.000 C 
ATOM     71  C51 UNL A   1      38.018  31.793  36.904  1.00  0.00    +0.000 C 
ATOM     72  F11 UNL A   1      37.593  30.552  36.652  1.00  0.00    +0.000 F 
ATOM     73  C52 UNL A   1      37.872  32.240  38.231  1.00  0.00    +0.000 C 
ATOM     74  F12 UNL A   1      37.396  31.402  39.163  1.00  0.00    +0.000 F 
ATOM     75  C53 UNL A   1      38.215  33.528  38.594  1.00  0.00    +0.000 C 
ATOM     76  F13 UNL A   1      38.119  33.935  39.867  1.00  0.00    +0.000 F 
ATOM     77  C54 UNL A   1      38.636  34.396  37.618  1.00  0.00    +0.000 C 
ATOM     78  F14 UNL A   1      38.950  35.663  37.928  1.00  0.00    +0.000 F 
ATOM     79  C55 UNL A   1      38.755  33.957  36.299  1.00  0.00    +0.000 C 
ATOM     80  F15 UNL A   1      39.093  34.914  35.424  1.00  0.00    +0.000 F 
ENDBRANCH   69   70
TORSDOF 17
ENDMDL
MODEL 9
REMARK VINA RESULT:     -12.2     21.002     24.992
ROOT
ATOM    129  H38 UNL A   1      39.303  26.443  26.917  1.00  0.00    +0.000 H 
ATOM     33  C26 UNL A   1      40.732  27.675  29.129  1.00  0.00    +0.000 C 
ATOM     34  C27 UNL A   1      40.893  26.268  28.534  1.00  0.00    +0.000 C 
ATOM     35  N4  UNL A   1      41.658  25.283  28.902  1.00  0.00    +0.000 N 
ATOM     36  C28 UNL A   1      41.502  24.250  27.953  1.00  0.00    +0.000 C 
ATOM     37  C29 UNL A   1      42.356  23.193  27.839  1.00  0.00    +0.000 C 
ATOM     49  C36 UNL A   1      43.364  23.243  28.841  1.00  0.00    +0.000 C 
ATOM     50  C37 UNL A   1      43.384  22.937  30.175  1.00  0.00    +0.000 C 
ATOM     51  C38 UNL A   1      44.397  23.759  30.713  1.00  0.00    +0.000 C 
ATOM     52  C39 UNL A   1      44.997  24.484  29.678  1.00  0.00    +0.000 C 
ATOM     53  N5  UNL A   1      44.523  23.905  28.526  1.00  0.00    +0.000 N 
ATOM     54  C40 UNL A   1      45.751  25.710  29.549  1.00  0.00    +0.000 C 
ATOM     66  C47 UNL A   1      46.002  26.410  30.683  1.00  0.00    +0.000 C 
ATOM     67  N6  UNL A   1      45.847  27.779  30.688  1.00  0.00    +0.000 N 
ATOM     68  C48 UNL A   1      45.174  27.982  31.782  1.00  0.00    +0.000 C 
ATOM     69  C49 UNL A   1      44.432  29.214  32.104  1.00  0.00    +0.000 C 
ATOM     81  C56 UNL A   1      43.305  29.186  31.326  1.00  0.00    +0.000 C 
ATOM     82  C57 UNL A   1      42.258  30.186  31.233  1.00  0.00    +0.000 C 
ATOM     83  C58 UNL A   1      41.278  29.750  30.419  1.00  0.00    +0.000 C 
ATOM     84  C59 UNL A   1      41.580  28.399  29.915  1.00  0.00    +0.000 C 
ATOM     85  N7  UNL A   1      42.832  28.170  30.455  1.00  0.00    +0.000 N 
ATOM     86  C60 UNL A   1      45.103  26.853  32.720  1.00  0.00    +0.000 C 
ATOM     87  C61 UNL A   1      45.822  25.965  32.042  1.00  0.00    +0.000 C 
ATOM     88  C62 UNL A   1      40.412  24.633  27.108  1.00  0.00    +0.000 C 
ATOM     89  C63 UNL A   1      40.029  25.880  27.386  1.00  0.00    +0.000 C 
ATOM    120  H29 UNL A   1      42.790  22.257  30.675  1.00  0.00    +0.000 H 
ATOM    121  H30 UNL A   1      44.655  23.816  31.711  1.00  0.00    +0.000 H 
ATOM    122  H31 UNL A   1      44.939  23.957  27.635  1.00  0.00    +0.000 H 
ATOM    123  H32 UNL A   1      42.264  31.097  31.719  1.00  0.00    +0.000 H 
ATOM    124  H33 UNL A   1      40.430  30.288  30.181  1.00  0.00    +0.000 H 
ATOM    125  H34 UNL A   1      43.357  27.363  30.251  1.00  0.00    +0.000 H 
ATOM    126  H35 UNL A   1      44.631  26.774  33.635  1.00  0.00    +0.000 H 
ATOM    127  H36 UNL A   1      46.196  25.085  32.431  1.00  0.00    +0.000 H 
ATOM    128  H37 UNL A   1      39.986  24.031  26.386  1.00  0.00    +0.000 H 
ENDROOT
BRANCH   33   32
ATOM    130  H39 UNL A   1      38.423  27.720  30.547  1.00  0.00    +0.000 H 
ATOM    131  H40 UNL A   1      36.416  29.001  30.068  1.00  0.00    +0.000 H 
ATOM    118  H27 UNL A   1      38.125  30.327  26.456  1.00  0.00    +0.000 H 
ATOM    119  H28 UNL A   1      40.108  29.004  26.901  1.00  0.00    +0.000 H 
ATOM     90  C64 UNL A   1      38.363  28.284  29.685  1.00  0.00    +0.000 C 
ATOM     91  C65 UNL A   1      37.217  29.031  29.417  1.00  0.00    +0.000 C 
ATOM     29  C22 UNL A   1      37.152  29.819  28.265  1.00  0.00    +0.000 C 
ATOM     30  C23 UNL A   1      38.199  29.787  27.333  1.00  0.00    +0.000 C 
ATOM     31  C24 UNL A   1      39.339  29.030  27.587  1.00  0.00    +0.000 C 
ATOM     32  C25 UNL A   1      39.435  28.305  28.780  1.00  0.00    +0.000 C 
BRANCH   29   27
ATOM     27  C21 UNL A   1      35.968  30.646  27.928  1.00  0.00    +0.000 C 
ATOM     28  O4  UNL A   1      36.093  31.846  27.786  1.00  0.00    +0.000 O 
BRANCH   27   26
ATOM     26  N3  UNL A   1      34.719  30.079  27.796  1.00  0.00    +0.000 N 
ATOM    117  H26 UNL A   1      34.015  30.451  28.375  1.00  0.00    +0.000 H 
BRANCH   26   25
ATOM     25  C20 UNL A   1      34.307  29.005  26.908  1.00  0.00    +0.000 C 
ATOM    115  H24 UNL A   1      34.402  29.332  25.894  1.00  0.00    +0.000 H 
ATOM    116  H25 UNL A   1      34.933  28.156  27.089  1.00  0.00    +0.000 H 
BRANCH   25   24
ATOM    113  H22 UNL A   1      32.842  27.578  27.482  1.00  0.00    +0.000 H 
ATOM    114  H23 UNL A   1      32.480  29.269  27.916  1.00  0.00    +0.000 H 
ATOM     24  C19 UNL A   1      32.855  28.601  27.169  1.00  0.00    +0.000 C 
BRANCH   24   23
ATOM    111  H20 UNL A   1      31.051  29.266  26.263  1.00  0.00    +0.000 H 
ATOM     23  C18 UNL A   1      31.930  28.742  25.951  1.00  0.00    +0.000 C 
ATOM    112  H21 UNL A   1      32.499  29.260  25.208  1.00  0.00    +0.000 H 
BRANCH   23   22
ATOM    110  H19 UNL A   1      32.264  27.163  24.613  1.00  0.00    +0.000 H 
ATOM    109  H18 UNL A   1      30.539  27.584  24.844  1.00  0.00    +0.000 H 
ATOM     22  C17 UNL A   1      31.491  27.424  25.305  1.00  0.00    +0.000 C 
BRANCH   22   21
ATOM    107  H16 UNL A   1      32.194  25.582  26.099  1.00  0.00    +0.000 H 
ATOM    108  H17 UNL A   1      31.325  26.642  27.248  1.00  0.00    +0.000 H 
ATOM     21  C16 UNL A   1      31.359  26.232  26.260  1.00  0.00    +0.000 C 
BRANCH   21   20
ATOM    105  H14 UNL A   1      29.312  25.836  26.705  1.00  0.00    +0.000 H 
ATOM    106  H15 UNL A   1      29.802  25.429  25.061  1.00  0.00    +0.000 H 
ATOM     20  C15 UNL A   1      30.079  25.410  26.094  1.00  0.00    +0.000 C 
BRANCH   20   19
ATOM     19  N2  UNL A   1      30.277  24.029  26.485  1.00  0.00    +0.000 N 
ATOM    104  H13 UNL A   1      29.539  23.553  26.929  1.00  0.00    +0.000 H 
BRANCH   19    2
ATOM      1  O1  UNL A   1      32.395  23.345  27.054  1.00  0.00    +0.000 O 
ATOM      2  C1  UNL A   1      31.459  23.352  26.259  1.00  0.00    +0.000 C 
BRANCH    2    3
ATOM      3  C2  UNL A   1      31.559  22.687  24.890  1.00  0.00    +0.000 C 
ATOM     92  H1  UNL A   1      30.606  22.276  24.631  1.00  0.00    +0.000 H 
ATOM     93  H2  UNL A   1      32.302  21.918  24.943  1.00  0.00    +0.000 H 
BRANCH    3    4
ATOM      4  C3  UNL A   1      31.971  23.672  23.831  1.00  0.00    +0.000 C 
ATOM      5  C4  UNL A   1      31.156  24.313  22.911  1.00  0.00    +0.000 C 
ATOM      6  C5  UNL A   1      31.930  25.282  22.243  1.00  0.00    +0.000 C 
ATOM      7  C6  UNL A   1      33.201  25.210  22.762  1.00  0.00    +0.000 C 
ATOM      8  N1  UNL A   1      33.259  24.171  23.670  1.00  0.00    +0.000 N 
ATOM     94  H3  UNL A   1      30.157  24.115  22.745  1.00  0.00    +0.000 H 
ATOM     95  H4  UNL A   1      31.604  25.925  21.504  1.00  0.00    +0.000 H 
ATOM     96  H5  UNL A   1      33.985  25.833  22.513  1.00  0.00    +0.000 H 
BRANCH    8    9
ATOM     97  H6  UNL A   1      34.679  25.513  25.447  1.00  0.00    +0.000 H 
ATOM     98  H7  UNL A   1      36.683  24.756  26.597  1.00  0.00    +0.000 H 
ATOM     99  H8  UNL A   1      34.558  21.891  23.291  1.00  0.00    +0.000 H 
ATOM    100  H9  UNL A   1      38.244  19.620  24.702  1.00  0.00    +0.000 H 
ATOM    101  H10 UNL A   1      37.205  20.067  26.050  1.00  0.00    +0.000 H 
ATOM    102  H11 UNL A   1      39.098  21.923  24.650  1.00  0.00    +0.000 H 
ATOM    103  H12 UNL A   1      39.396  21.136  26.193  1.00  0.00    +0.000 H 
ATOM      9  C7  UNL A   1      34.449  23.742  24.310  1.00  0.00    +0.000 C 
ATOM     10  C8  UNL A   1      35.076  24.583  25.240  1.00  0.00    +0.000 C 
ATOM     11  C9  UNL A   1      36.239  24.157  25.885  1.00  0.00    +0.000 C 
ATOM     12  C10 UNL A   1      36.800  22.922  25.565  1.00  0.00    +0.000 C 
ATOM     13  C11 UNL A   1      36.185  22.093  24.622  1.00  0.00    +0.000 C 
ATOM     14  C12 UNL A   1      35.010  22.500  23.991  1.00  0.00    +0.000 C 
ATOM     15  O2  UNL A   1      36.690  20.873  24.247  1.00  0.00    +0.000 O 
ATOM     16  C13 UNL A   1      37.691  20.412  25.161  1.00  0.00    +0.000 C 
ATOM     17  C14 UNL A   1      38.648  21.531  25.539  1.00  0.00    +0.000 C 
ATOM     18  O3  UNL A   1      37.957  22.586  26.218  1.00  0.00    +0.000 O 
ENDBRANCH    8    9
ENDBRANCH    3    4
ENDBRANCH    2    3
ENDBRANCH   19    2
ENDBRANCH   20   19
ENDBRANCH   21   20
ENDBRANCH   22   21
ENDBRANCH   23   22
ENDBRANCH   24   23
ENDBRANCH   25   24
ENDBRANCH   26   25
ENDBRANCH   27   26
ENDBRANCH   29   27
ENDBRANCH   33   32
BRANCH   37   38
ATOM     38  C30 UNL A   1      42.536  22.169  26.748  1.00  0.00    +0.000 C 
ATOM     39  C31 UNL A   1      42.002  20.870  26.947  1.00  0.00    +0.000 C 
ATOM     40  F1  UNL A   1      41.062  20.650  27.880  1.00  0.00    +0.000 F 
ATOM     41  C32 UNL A   1      42.478  19.759  26.253  1.00  0.00    +0.000 C 
ATOM     42  F2  UNL A   1      42.040  18.533  26.574  1.00  0.00    +0.000 F 
ATOM     43  C33 UNL A   1      43.449  19.915  25.285  1.00  0.00    +0.000 C 
ATOM     44  F3  UNL A   1      43.959  18.844  24.663  1.00  0.00    +0.000 F 
ATOM     45  C34 UNL A   1      43.916  21.186  24.990  1.00  0.00    +0.000 C 
ATOM     46  F4  UNL A   1      44.854  21.342  24.046  1.00  0.00    +0.000 F 
ATOM     47  C35 UNL A   1      43.477  22.298  25.718  1.00  0.00    +0.000 C 
ATOM     48  F5  UNL A   1      44.066  23.473  25.462  1.00  0.00    +0.000 F 
ENDBRANCH   37   38
BRANCH   54   55
ATOM     65  F10 UNL A   1      43.555  26.862  28.011  1.00  0.00    +0.000 F 
ATOM     55  C41 UNL A   1      45.891  26.537  28.290  1.00  0.00    +0.000 C 
ATOM     56  C42 UNL A   1      47.165  26.872  27.810  1.00  0.00    +0.000 C 
ATOM     57  F6  UNL A   1      48.256  26.357  28.395  1.00  0.00    +0.000 F 
ATOM     58  C43 UNL A   1      47.331  27.740  26.727  1.00  0.00    +0.000 C 
ATOM     59  F7  UNL A   1      48.564  28.042  26.299  1.00  0.00    +0.000 F 
ATOM     60  C44 UNL A   1      46.230  28.289  26.089  1.00  0.00    +0.000 C 
ATOM     61  F8  UNL A   1      46.391  29.113  25.043  1.00  0.00    +0.000 F 
ATOM     62  C45 UNL A   1      44.962  27.973  26.531  1.00  0.00    +0.000 C 
ATOM     63  F9  UNL A   1      43.885  28.482  25.914  1.00  0.00    +0.000 F 
ATOM     64  C46 UNL A   1      44.802  27.117  27.620  1.00  0.00    +0.000 C 
ENDBRANCH   54   55
BRANCH   69   70
ATOM     70  C50 UNL A   1      45.005  30.096  33.199  1.00  0.00    +0.000 C 
ATOM     71  C51 UNL A   1      44.486  30.247  34.492  1.00  0.00    +0.000 C 
ATOM     72  F11 UNL A   1      43.283  29.771  34.821  1.00  0.00    +0.000 F 
ATOM     73  C52 UNL A   1      45.174  30.944  35.504  1.00  0.00    +0.000 C 
ATOM     74  F12 UNL A   1      44.637  31.031  36.730  1.00  0.00    +0.000 F 
ATOM     75  C53 UNL A   1      46.397  31.538  35.261  1.00  0.00    +0.000 C 
ATOM     76  F13 UNL A   1      47.070  32.159  36.238  1.00  0.00    +0.000 F 
ATOM     77  C54 UNL A   1      46.903  31.501  33.985  1.00  0.00    +0.000 C 
ATOM     78  F14 UNL A   1      48.073  32.093  33.704  1.00  0.00    +0.000 F 
ATOM     79  C55 UNL A   1      46.206  30.832  32.978  1.00  0.00    +0.000 C 
ATOM     80  F15 UNL A   1      46.755  30.936  31.761  1.00  0.00    +0.000 F 
ENDBRANCH   69   70
TORSDOF 17
ENDMDL
MODEL 10
REMARK VINA RESULT:     -12.1     18.314     22.751
ROOT
ATOM    129  H38 UNL A   1      37.507  28.522  28.991  1.00  0.00    +0.000 H 
ATOM     33  C26 UNL A   1      40.253  29.280  29.574  1.00  0.00    +0.000 C 
ATOM     34  C27 UNL A   1      39.013  30.172  29.418  1.00  0.00    +0.000 C 
ATOM     35  N4  UNL A   1      38.900  31.467  29.457  1.00  0.00    +0.000 N 
ATOM     36  C28 UNL A   1      37.526  31.774  29.366  1.00  0.00    +0.000 C 
ATOM     37  C29 UNL A   1      37.001  32.996  29.671  1.00  0.00    +0.000 C 
ATOM     49  C36 UNL A   1      38.028  33.917  30.016  1.00  0.00    +0.000 C 
ATOM     50  C37 UNL A   1      38.931  34.641  29.286  1.00  0.00    +0.000 C 
ATOM     51  C38 UNL A   1      40.021  34.837  30.162  1.00  0.00    +0.000 C 
ATOM     52  C39 UNL A   1      39.712  34.282  31.408  1.00  0.00    +0.000 C 
ATOM     53  N5  UNL A   1      38.370  33.999  31.343  1.00  0.00    +0.000 N 
ATOM     54  C40 UNL A   1      40.444  33.788  32.553  1.00  0.00    +0.000 C 
ATOM     66  C47 UNL A   1      41.798  33.845  32.499  1.00  0.00    +0.000 C 
ATOM     67  N6  UNL A   1      42.544  32.767  32.920  1.00  0.00    +0.000 N 
ATOM     68  C48 UNL A   1      43.408  32.630  31.959  1.00  0.00    +0.000 C 
ATOM     69  C49 UNL A   1      44.219  31.423  31.715  1.00  0.00    +0.000 C 
ATOM     81  C56 UNL A   1      43.363  30.499  31.178  1.00  0.00    +0.000 C 
ATOM     82  C57 UNL A   1      43.651  29.130  30.795  1.00  0.00    +0.000 C 
ATOM     83  C58 UNL A   1      42.564  28.573  30.229  1.00  0.00    +0.000 C 
ATOM     84  C59 UNL A   1      41.455  29.541  30.164  1.00  0.00    +0.000 C 
ATOM     85  N7  UNL A   1      42.000  30.637  30.808  1.00  0.00    +0.000 N 
ATOM     86  C60 UNL A   1      43.512  33.750  31.013  1.00  0.00    +0.000 C 
ATOM     87  C61 UNL A   1      42.605  34.563  31.544  1.00  0.00    +0.000 C 
ATOM     88  C62 UNL A   1      36.853  30.549  29.054  1.00  0.00    +0.000 C 
ATOM     89  C63 UNL A   1      37.706  29.526  29.119  1.00  0.00    +0.000 C 
ATOM    120  H29 UNL A   1      38.836  34.970  28.313  1.00  0.00    +0.000 H 
ATOM    121  H30 UNL A   1      40.904  35.313  29.921  1.00  0.00    +0.000 H 
ATOM    122  H31 UNL A   1      37.763  33.877  32.108  1.00  0.00    +0.000 H 
ATOM    123  H32 UNL A   1      44.556  28.653  30.936  1.00  0.00    +0.000 H 
ATOM    124  H33 UNL A   1      42.514  27.600  29.886  1.00  0.00    +0.000 H 
ATOM    125  H34 UNL A   1      41.481  31.452  30.995  1.00  0.00    +0.000 H 
ATOM    126  H35 UNL A   1      44.112  33.868  30.182  1.00  0.00    +0.000 H 
ATOM    127  H36 UNL A   1      42.493  35.561  31.305  1.00  0.00    +0.000 H 
ATOM    128  H37 UNL A   1      35.853  30.470  28.815  1.00  0.00    +0.000 H 
ENDROOT
BRANCH   33   32
ATOM    130  H39 UNL A   1      39.110  27.064  30.635  1.00  0.00    +0.000 H 
ATOM    131  H40 UNL A   1      38.592  24.978  29.504  1.00  0.00    +0.000 H 
ATOM    118  H27 UNL A   1      40.481  26.400  26.020  1.00  0.00    +0.000 H 
ATOM    119  H28 UNL A   1      41.052  28.462  27.162  1.00  0.00    +0.000 H 
ATOM     90  C64 UNL A   1      39.389  26.927  29.651  1.00  0.00    +0.000 C 
ATOM     91  C65 UNL A   1      39.080  25.735  28.997  1.00  0.00    +0.000 C 
ATOM     29  C22 UNL A   1      39.431  25.564  27.655  1.00  0.00    +0.000 C 
ATOM     30  C23 UNL A   1      40.175  26.552  26.994  1.00  0.00    +0.000 C 
ATOM     31  C24 UNL A   1      40.501  27.736  27.647  1.00  0.00    +0.000 C 
ATOM     32  C25 UNL A   1      40.079  27.938  28.966  1.00  0.00    +0.000 C 
BRANCH   29   27
ATOM     27  C21 UNL A   1      39.121  24.327  26.899  1.00  0.00    +0.000 C 
ATOM     28  O4  UNL A   1      39.962  23.457  26.798  1.00  0.00    +0.000 O 
BRANCH   27   26
ATOM     26  N3  UNL A   1      37.899  24.157  26.284  1.00  0.00    +0.000 N 
ATOM    117  H26 UNL A   1      37.283  24.924  26.333  1.00  0.00    +0.000 H 
BRANCH   26   25
ATOM     25  C20 UNL A   1      37.405  22.991  25.571  1.00  0.00    +0.000 C 
ATOM    115  H24 UNL A   1      37.870  22.946  24.609  1.00  0.00    +0.000 H 
ATOM    116  H25 UNL A   1      37.641  22.118  26.143  1.00  0.00    +0.000 H 
BRANCH   25   24
ATOM    113  H22 UNL A   1      35.501  22.060  25.431  1.00  0.00    +0.000 H 
ATOM    114  H23 UNL A   1      35.513  23.680  26.176  1.00  0.00    +0.000 H 
ATOM     24  C19 UNL A   1      35.888  23.057  25.391  1.00  0.00    +0.000 C 
BRANCH   24   23
ATOM    111  H20 UNL A   1      36.308  23.988  23.528  1.00  0.00    +0.000 H 
ATOM     23  C18 UNL A   1      35.434  23.696  24.071  1.00  0.00    +0.000 C 
ATOM    112  H21 UNL A   1      34.846  22.954  23.572  1.00  0.00    +0.000 H 
BRANCH   23   22
ATOM    110  H19 UNL A   1      33.604  24.666  23.746  1.00  0.00    +0.000 H 
ATOM    109  H18 UNL A   1      35.027  25.754  23.752  1.00  0.00    +0.000 H 
ATOM     22  C17 UNL A   1      34.531  24.925  24.212  1.00  0.00    +0.000 C 
BRANCH   22   21
ATOM    107  H16 UNL A   1      33.430  24.652  26.010  1.00  0.00    +0.000 H 
ATOM    108  H17 UNL A   1      35.095  25.276  26.206  1.00  0.00    +0.000 H 
ATOM     21  C16 UNL A   1      34.181  25.325  25.651  1.00  0.00    +0.000 C 
BRANCH   21   20
ATOM    105  H14 UNL A   1      32.614  26.715  26.052  1.00  0.00    +0.000 H 
ATOM    106  H15 UNL A   1      34.211  27.224  26.600  1.00  0.00    +0.000 H 
ATOM     20  C15 UNL A   1      33.657  26.753  25.815  1.00  0.00    +0.000 C 
BRANCH   20   19
ATOM     19  N2  UNL A   1      33.836  27.530  24.606  1.00  0.00    +0.000 N 
ATOM    104  H13 UNL A   1      34.713  27.515  24.160  1.00  0.00    +0.000 H 
BRANCH   19    2
ATOM      1  O1  UNL A   1      32.517  29.407  24.467  1.00  0.00    +0.000 O 
ATOM      2  C1  UNL A   1      32.826  28.292  24.053  1.00  0.00    +0.000 C 
BRANCH    2    3
ATOM      3  C2  UNL A   1      32.044  27.600  22.941  1.00  0.00    +0.000 C 
ATOM     92  H1  UNL A   1      32.402  26.597  22.834  1.00  0.00    +0.000 H 
ATOM     93  H2  UNL A   1      32.186  28.152  22.036  1.00  0.00    +0.000 H 
BRANCH    3    4
ATOM      4  C3  UNL A   1      30.572  27.562  23.247  1.00  0.00    +0.000 C 
ATOM      5  C4  UNL A   1      29.639  28.564  23.029  1.00  0.00    +0.000 C 
ATOM      6  C5  UNL A   1      28.360  28.032  23.286  1.00  0.00    +0.000 C 
ATOM      7  C6  UNL A   1      28.537  26.721  23.662  1.00  0.00    +0.000 C 
ATOM      8  N1  UNL A   1      29.889  26.449  23.727  1.00  0.00    +0.000 N 
ATOM     94  H3  UNL A   1      29.845  29.530  22.730  1.00  0.00    +0.000 H 
ATOM     95  H4  UNL A   1      27.459  28.532  23.207  1.00  0.00    +0.000 H 
ATOM     96  H5  UNL A   1      27.781  26.049  23.864  1.00  0.00    +0.000 H 
BRANCH    8    9
ATOM     97  H6  UNL A   1      30.048  25.632  26.233  1.00  0.00    +0.000 H 
ATOM     98  H7  UNL A   1      30.917  23.506  27.030  1.00  0.00    +0.000 H 
ATOM     99  H8  UNL A   1      31.010  24.533  22.277  1.00  0.00    +0.000 H 
ATOM    100  H9  UNL A   1      32.972  20.445  22.692  1.00  0.00    +0.000 H 
ATOM    101  H10 UNL A   1      31.365  20.467  23.408  1.00  0.00    +0.000 H 
ATOM    102  H11 UNL A   1      33.831  21.588  24.690  1.00  0.00    +0.000 H 
ATOM    103  H12 UNL A   1      33.099  20.037  25.072  1.00  0.00    +0.000 H 
ATOM      9  C7  UNL A   1      30.432  25.225  24.192  1.00  0.00    +0.000 C 
ATOM     10  C8  UNL A   1      30.430  24.945  25.565  1.00  0.00    +0.000 C 
ATOM     11  C9  UNL A   1      30.949  23.733  26.025  1.00  0.00    +0.000 C 
ATOM     12  C10 UNL A   1      31.511  22.829  25.124  1.00  0.00    +0.000 C 
ATOM     13  C11 UNL A   1      31.530  23.119  23.757  1.00  0.00    +0.000 C 
ATOM     14  C12 UNL A   1      30.993  24.317  23.286  1.00  0.00    +0.000 C 
ATOM     15  O2  UNL A   1      32.080  22.284  22.817  1.00  0.00    +0.000 O 
ATOM     16  C13 UNL A   1      32.306  20.972  23.343  1.00  0.00    +0.000 C 
ATOM     17  C14 UNL A   1      32.917  21.034  24.734  1.00  0.00    +0.000 C 
ATOM     18  O3  UNL A   1      32.025  21.675  25.653  1.00  0.00    +0.000 O 
ENDBRANCH    8    9
ENDBRANCH    3    4
ENDBRANCH    2    3
ENDBRANCH   19    2
ENDBRANCH   20   19
ENDBRANCH   21   20
ENDBRANCH   22   21
ENDBRANCH   23   22
ENDBRANCH   24   23
ENDBRANCH   25   24
ENDBRANCH   26   25
ENDBRANCH   27   26
ENDBRANCH   29   27
ENDBRANCH   33   32
BRANCH   37   38
ATOM     38  C30 UNL A   1      35.582  33.439  29.914  1.00  0.00    +0.000 C 
ATOM     39  C31 UNL A   1      34.910  34.145  28.885  1.00  0.00    +0.000 C 
ATOM     40  F1  UNL A   1      35.357  34.104  27.619  1.00  0.00    +0.000 F 
ATOM     41  C32 UNL A   1      33.817  34.971  29.143  1.00  0.00    +0.000 C 
ATOM     42  F2  UNL A   1      33.302  35.725  28.161  1.00  0.00    +0.000 F 
ATOM     43  C33 UNL A   1      33.312  35.064  30.424  1.00  0.00    +0.000 C 
ATOM     44  F3  UNL A   1      32.306  35.908  30.692  1.00  0.00    +0.000 F 
ATOM     45  C34 UNL A   1      33.878  34.304  31.434  1.00  0.00    +0.000 C 
ATOM     46  F4  UNL A   1      33.385  34.387  32.678  1.00  0.00    +0.000 F 
ATOM     47  C35 UNL A   1      35.006  33.512  31.189  1.00  0.00    +0.000 C 
ATOM     48  F5  UNL A   1      35.573  32.907  32.240  1.00  0.00    +0.000 F 
ENDBRANCH   37   38
BRANCH   54   55
ATOM     65  F10 UNL A   1      40.263  34.266  35.425  1.00  0.00    +0.000 F 
ATOM     55  C41 UNL A   1      39.925  32.807  33.582  1.00  0.00    +0.000 C 
ATOM     56  C42 UNL A   1      39.407  31.571  33.172  1.00  0.00    +0.000 C 
ATOM     57  F6  UNL A   1      39.485  31.208  31.884  1.00  0.00    +0.000 F 
ATOM     58  C43 UNL A   1      38.802  30.698  34.079  1.00  0.00    +0.000 C 
ATOM     59  F7  UNL A   1      38.313  29.525  33.651  1.00  0.00    +0.000 F 
ATOM     60  C44 UNL A   1      38.707  31.030  35.422  1.00  0.00    +0.000 C 
ATOM     61  F8  UNL A   1      38.135  30.186  36.293  1.00  0.00    +0.000 F 
ATOM     62  C45 UNL A   1      39.214  32.237  35.859  1.00  0.00    +0.000 C 
ATOM     63  F9  UNL A   1      39.146  32.568  37.157  1.00  0.00    +0.000 F 
ATOM     64  C46 UNL A   1      39.806  33.110  34.947  1.00  0.00    +0.000 C 
ENDBRANCH   54   55
BRANCH   69   70
ATOM     70  C50 UNL A   1      45.706  31.523  32.007  1.00  0.00    +0.000 C 
ATOM     71  C51 UNL A   1      46.730  31.614  31.053  1.00  0.00    +0.000 C 
ATOM     72  F11 UNL A   1      46.493  31.407  29.755  1.00  0.00    +0.000 F 
ATOM     73  C52 UNL A   1      48.066  31.882  31.404  1.00  0.00    +0.000 C 
ATOM     74  F12 UNL A   1      48.996  31.985  30.442  1.00  0.00    +0.000 F 
ATOM     75  C53 UNL A   1      48.441  32.048  32.723  1.00  0.00    +0.000 C 
ATOM     76  F13 UNL A   1      49.705  32.351  33.050  1.00  0.00    +0.000 F 
ATOM     77  C54 UNL A   1      47.495  31.874  33.702  1.00  0.00    +0.000 C 
ATOM     78  F14 UNL A   1      47.827  31.997  34.995  1.00  0.00    +0.000 F 
ATOM     79  C55 UNL A   1      46.175  31.582  33.351  1.00  0.00    +0.000 C 
ATOM     80  F15 UNL A   1      45.364  31.351  34.392  1.00  0.00    +0.000 F 
ENDBRANCH   69   70
TORSDOF 17
ENDMDL
