MODEL 1
REMARK VINA RESULT:     -11.5      0.000      0.000
ROOT
ATOM     33  C26 UNL A   1      52.889  20.367  11.534  1.00  0.00    +0.000 C 
ATOM     34  C27 UNL A   1      52.705  20.936  12.912  1.00  0.00    +0.000 C 
ATOM     35  N4  UNL A   1      53.565  21.016  13.898  1.00  0.00    +0.000 N 
ATOM     36  C28 UNL A   1      52.900  21.667  14.927  1.00  0.00    +0.000 C 
ATOM     37  C29 UNL A   1      53.342  21.942  16.178  1.00  0.00    +0.000 C 
ATOM     49  C36 UNL A   1      54.643  21.582  16.678  1.00  0.00    +0.000 C 
ATOM     50  C37 UNL A   1      55.159  21.761  17.950  1.00  0.00    +0.000 C 
ATOM     51  C38 UNL A   1      56.478  21.293  17.957  1.00  0.00    +0.000 C 
ATOM     52  C39 UNL A   1      56.769  20.783  16.702  1.00  0.00    +0.000 C 
ATOM     53  N5  UNL A   1      55.636  20.971  15.926  1.00  0.00    +0.000 N 
ATOM     54  C40 UNL A   1      57.989  20.174  16.242  1.00  0.00    +0.000 C 
ATOM     66  C47 UNL A   1      58.191  19.685  14.993  1.00  0.00    +0.000 C 
ATOM     67  N6  UNL A   1      57.313  19.650  13.919  1.00  0.00    +0.000 N 
ATOM     68  C48 UNL A   1      57.971  19.092  12.933  1.00  0.00    +0.000 C 
ATOM     69  C49 UNL A   1      57.505  18.774  11.539  1.00  0.00    +0.000 C 
ATOM     81  C56 UNL A   1      56.239  19.065  11.184  1.00  0.00    +0.000 C 
ATOM     82  C57 UNL A   1      55.650  18.813   9.872  1.00  0.00    +0.000 C 
ATOM     83  C58 UNL A   1      54.388  19.273   9.864  1.00  0.00    +0.000 C 
ATOM     84  C59 UNL A   1      54.069  19.820  11.183  1.00  0.00    +0.000 C 
ATOM     85  N7  UNL A   1      55.225  19.648  11.903  1.00  0.00    +0.000 N 
ATOM     86  C60 UNL A   1      59.358  18.735  13.265  1.00  0.00    +0.000 C 
ATOM     87  C61 UNL A   1      59.428  19.082  14.543  1.00  0.00    +0.000 C 
ATOM     88  C62 UNL A   1      51.582  22.003  14.433  1.00  0.00    +0.000 C 
ATOM     89  C63 UNL A   1      51.389  21.516  13.216  1.00  0.00    +0.000 C 
ATOM    118  H27 UNL A   1      54.658  22.168  18.754  1.00  0.00    +0.000 H 
ATOM    119  H28 UNL A   1      57.124  21.322  18.761  1.00  0.00    +0.000 H 
ATOM    120  H29 UNL A   1      55.548  20.708  14.982  1.00  0.00    +0.000 H 
ATOM    121  H30 UNL A   1      56.126  18.355   9.079  1.00  0.00    +0.000 H 
ATOM    122  H31 UNL A   1      53.746  19.244   9.057  1.00  0.00    +0.000 H 
ATOM    123  H32 UNL A   1      55.318  19.915  12.845  1.00  0.00    +0.000 H 
ATOM    124  H33 UNL A   1      60.087  18.324  12.661  1.00  0.00    +0.000 H 
ATOM    125  H34 UNL A   1      60.257  18.941  15.140  1.00  0.00    +0.000 H 
ATOM    126  H35 UNL A   1      50.883  22.549  14.961  1.00  0.00    +0.000 H 
ATOM    127  H36 UNL A   1      50.538  21.539  12.633  1.00  0.00    +0.000 H 
ENDROOT
BRANCH   33   32
ATOM    129  H38 UNL A   1      50.522  22.638   8.302  1.00  0.00    +0.000 H 
ATOM    128  H37 UNL A   1      52.320  22.425   9.915  1.00  0.00    +0.000 H 
ATOM    116  H25 UNL A   1      49.287  18.707   9.152  1.00  0.00    +0.000 H 
ATOM    117  H26 UNL A   1      50.957  18.566  10.909  1.00  0.00    +0.000 H 
ATOM     90  C64 UNL A   1      51.667  21.641   9.767  1.00  0.00    +0.000 C 
ATOM     91  C65 UNL A   1      50.658  21.749   8.810  1.00  0.00    +0.000 C 
ATOM     29  C22 UNL A   1      49.832  20.655   8.541  1.00  0.00    +0.000 C 
ATOM     30  C23 UNL A   1      49.931  19.497   9.319  1.00  0.00    +0.000 C 
ATOM     31  C24 UNL A   1      50.901  19.411  10.320  1.00  0.00    +0.000 C 
ATOM     32  C25 UNL A   1      51.799  20.469  10.529  1.00  0.00    +0.000 C 
BRANCH   29   27
ATOM     27  C21 UNL A   1      48.836  20.695   7.447  1.00  0.00    +0.000 C 
ATOM     28  O2  UNL A   1      48.219  21.734   7.228  1.00  0.00    +0.000 O 
BRANCH   27   26
ATOM     26  N3  UNL A   1      48.581  19.572   6.700  1.00  0.00    +0.000 N 
ATOM    115  H24 UNL A   1      49.378  19.094   6.376  1.00  0.00    +0.000 H 
BRANCH   26   25
ATOM     25  C20 UNL A   1      47.307  18.983   6.317  1.00  0.00    +0.000 C 
ATOM    114  H23 UNL A   1      46.572  19.324   7.017  1.00  0.00    +0.000 H 
ATOM    113  H22 UNL A   1      47.405  17.918   6.332  1.00  0.00    +0.000 H 
BRANCH   25   24
ATOM    112  H21 UNL A   1      47.736  19.456   4.325  1.00  0.00    +0.000 H 
ATOM    111  H20 UNL A   1      46.349  20.353   5.019  1.00  0.00    +0.000 H 
ATOM     24  C19 UNL A   1      46.851  19.413   4.926  1.00  0.00    +0.000 C 
BRANCH   24   23
ATOM    109  H18 UNL A   1      46.500  17.748   3.661  1.00  0.00    +0.000 H 
ATOM    110  H19 UNL A   1      45.320  17.985   4.989  1.00  0.00    +0.000 H 
ATOM     23  C18 UNL A   1      45.906  18.441   4.218  1.00  0.00    +0.000 C 
BRANCH   23   22
ATOM    107  H16 UNL A   1      45.238  18.891   2.255  1.00  0.00    +0.000 H 
ATOM    108  H17 UNL A   1      43.955  18.644   3.483  1.00  0.00    +0.000 H 
ATOM     22  C17 UNL A   1      44.904  19.083   3.253  1.00  0.00    +0.000 C 
BRANCH   22   21
ATOM    105  H14 UNL A   1      44.028  20.767   4.208  1.00  0.00    +0.000 H 
ATOM    106  H15 UNL A   1      45.687  21.005   3.587  1.00  0.00    +0.000 H 
ATOM     21  C16 UNL A   1      44.714  20.598   3.406  1.00  0.00    +0.000 C 
BRANCH   21   20
ATOM     20  C15 UNL A   1      44.176  21.306   2.164  1.00  0.00    +0.000 C 
ATOM    103  H12 UNL A   1      43.227  21.743   2.394  1.00  0.00    +0.000 H 
ATOM    104  H13 UNL A   1      44.879  22.060   1.875  1.00  0.00    +0.000 H 
BRANCH   20   19
ATOM     19  N2  UNL A   1      44.016  20.384   1.059  1.00  0.00    +0.000 N 
ATOM    102  H11 UNL A   1      44.811  19.903   0.732  1.00  0.00    +0.000 H 
BRANCH   19    2
ATOM      1  O1  UNL A   1      42.660  19.368  -0.491  1.00  0.00    +0.000 O 
ATOM      2  C1  UNL A   1      42.806  20.147   0.447  1.00  0.00    +0.000 C 
BRANCH    2    3
ATOM      3  C2  UNL A   1      41.644  20.944   1.014  1.00  0.00    +0.000 C 
ATOM     92  H1  UNL A   1      41.058  21.321   0.201  1.00  0.00    +0.000 H 
ATOM     93  H2  UNL A   1      42.052  21.735   1.607  1.00  0.00    +0.000 H 
BRANCH    3    4
ATOM     97  H6  UNL A   1      37.608  19.787   3.035  1.00  0.00    +0.000 H 
ATOM      4  C3  UNL A   1      40.750  20.114   1.912  1.00  0.00    +0.000 C 
ATOM      5  C4  UNL A   1      41.304  18.994   2.560  1.00  0.00    +0.000 C 
ATOM      6  C5  UNL A   1      40.517  18.174   3.363  1.00  0.00    +0.000 C 
ATOM      7  C6  UNL A   1      39.168  18.464   3.528  1.00  0.00    +0.000 C 
ATOM      8  C7  UNL A   1      38.610  19.578   2.897  1.00  0.00    +0.000 C 
ATOM      9  C8  UNL A   1      39.380  20.422   2.082  1.00  0.00    +0.000 C 
ATOM     94  H3  UNL A   1      42.307  18.779   2.439  1.00  0.00    +0.000 H 
ATOM     95  H4  UNL A   1      40.932  17.356   3.835  1.00  0.00    +0.000 H 
ATOM     96  H5  UNL A   1      38.578  17.855   4.116  1.00  0.00    +0.000 H 
BRANCH    9   10
ATOM     10  N1  UNL A   1      38.842  21.595   1.492  1.00  0.00    +0.000 N 
ATOM     98  H7  UNL A   1      39.327  22.431   1.677  1.00  0.00    +0.000 H 
BRANCH   10   11
ATOM     99  H8  UNL A   1      36.869  21.848  -2.610  1.00  0.00    +0.000 H 
ATOM    100  H9  UNL A   1      34.626  21.856  -1.684  1.00  0.00    +0.000 H 
ATOM    101  H10 UNL A   1      34.316  21.807   0.720  1.00  0.00    +0.000 H 
ATOM     11  C9  UNL A   1      37.689  21.717   0.668  1.00  0.00    +0.000 C 
ATOM     12  C10 UNL A   1      37.839  21.756  -0.735  1.00  0.00    +0.000 C 
ATOM     13 Cl1  UNL A   1      39.413  21.725  -1.458  1.00  0.00    +0.000 Cl
ATOM     14  C11 UNL A   1      36.732  21.814  -1.589  1.00  0.00    +0.000 C 
ATOM     15  C12 UNL A   1      35.446  21.825  -1.058  1.00  0.00    +0.000 C 
ATOM     16  C13 UNL A   1      35.269  21.794   0.325  1.00  0.00    +0.000 C 
ATOM     17  C14 UNL A   1      36.377  21.745   1.181  1.00  0.00    +0.000 C 
ATOM     18 Cl2  UNL A   1      36.052  21.807   2.882  1.00  0.00    +0.000 Cl
ENDBRANCH   10   11
ENDBRANCH    9   10
ENDBRANCH    3    4
ENDBRANCH    2    3
ENDBRANCH   19    2
ENDBRANCH   20   19
ENDBRANCH   21   20
ENDBRANCH   22   21
ENDBRANCH   23   22
ENDBRANCH   24   23
ENDBRANCH   25   24
ENDBRANCH   26   25
ENDBRANCH   27   26
ENDBRANCH   29   27
ENDBRANCH   33   32
BRANCH   37   38
ATOM     38  C30 UNL A   1      52.405  22.668  17.098  1.00  0.00    +0.000 C 
ATOM     39  C31 UNL A   1      51.610  21.982  18.029  1.00  0.00    +0.000 C 
ATOM     40  F1  UNL A   1      51.644  20.641  18.087  1.00  0.00    +0.000 F 
ATOM     41  C32 UNL A   1      50.748  22.669  18.880  1.00  0.00    +0.000 C 
ATOM     42  F2  UNL A   1      49.964  21.988  19.727  1.00  0.00    +0.000 F 
ATOM     43  C33 UNL A   1      50.688  24.053  18.841  1.00  0.00    +0.000 C 
ATOM     44  F3  UNL A   1      49.861  24.712  19.663  1.00  0.00    +0.000 F 
ATOM     45  C34 UNL A   1      51.481  24.754  17.945  1.00  0.00    +0.000 C 
ATOM     46  F4  UNL A   1      51.433  26.093  17.914  1.00  0.00    +0.000 F 
ATOM     47  C35 UNL A   1      52.324  24.069  17.073  1.00  0.00    +0.000 C 
ATOM     48  F5  UNL A   1      53.066  24.774  16.207  1.00  0.00    +0.000 F 
ENDBRANCH   37   38
BRANCH   54   55
ATOM     65  F10 UNL A   1      58.585  17.758  17.613  1.00  0.00    +0.000 F 
ATOM     55  C41 UNL A   1      59.119  20.044  17.221  1.00  0.00    +0.000 C 
ATOM     56  C42 UNL A   1      59.947  21.131  17.536  1.00  0.00    +0.000 C 
ATOM     57  F6  UNL A   1      59.774  22.310  16.922  1.00  0.00    +0.000 F 
ATOM     58  C43 UNL A   1      60.981  20.997  18.459  1.00  0.00    +0.000 C 
ATOM     59  F7  UNL A   1      61.787  22.037  18.713  1.00  0.00    +0.000 F 
ATOM     60  C44 UNL A   1      61.187  19.787  19.104  1.00  0.00    +0.000 C 
ATOM     61  F8  UNL A   1      62.180  19.662  19.996  1.00  0.00    +0.000 F 
ATOM     62  C45 UNL A   1      60.371  18.704  18.818  1.00  0.00    +0.000 C 
ATOM     63  F9  UNL A   1      60.562  17.536  19.449  1.00  0.00    +0.000 F 
ATOM     64  C46 UNL A   1      59.352  18.826  17.877  1.00  0.00    +0.000 C 
ENDBRANCH   54   55
BRANCH   69   70
ATOM     70  C50 UNL A   1      58.415  18.116  10.566  1.00  0.00    +0.000 C 
ATOM     71  C51 UNL A   1      58.491  16.719  10.490  1.00  0.00    +0.000 C 
ATOM     72  F11 UNL A   1      57.750  15.962  11.314  1.00  0.00    +0.000 F 
ATOM     73  C52 UNL A   1      59.356  16.093   9.595  1.00  0.00    +0.000 C 
ATOM     74  F12 UNL A   1      59.439  14.756   9.571  1.00  0.00    +0.000 F 
ATOM     75  C53 UNL A   1      60.142  16.852   8.741  1.00  0.00    +0.000 C 
ATOM     76  F13 UNL A   1      60.971  16.250   7.878  1.00  0.00    +0.000 F 
ATOM     77  C54 UNL A   1      60.072  18.236   8.788  1.00  0.00    +0.000 C 
ATOM     78  F14 UNL A   1      60.821  18.973   7.956  1.00  0.00    +0.000 F 
ATOM     79  C55 UNL A   1      59.226  18.863   9.700  1.00  0.00    +0.000 C 
ATOM     80  F15 UNL A   1      59.187  20.204   9.733  1.00  0.00    +0.000 F 
ENDBRANCH   69   70
TORSDOF 18
ENDMDL
MODEL 2
REMARK VINA RESULT:     -11.5      0.984      7.355
ROOT
ATOM     33  C26 UNL A   1      53.483  19.752  11.581  1.00  0.00    +0.000 C 
ATOM     34  C27 UNL A   1      54.847  19.138  11.442  1.00  0.00    +0.000 C 
ATOM     35  N4  UNL A   1      55.834  19.106  12.303  1.00  0.00    +0.000 N 
ATOM     36  C28 UNL A   1      56.844  18.378  11.692  1.00  0.00    +0.000 C 
ATOM     37  C29 UNL A   1      58.090  18.110  12.153  1.00  0.00    +0.000 C 
ATOM     49  C36 UNL A   1      58.604  18.564  13.419  1.00  0.00    +0.000 C 
ATOM     50  C37 UNL A   1      59.873  18.398  13.945  1.00  0.00    +0.000 C 
ATOM     51  C38 UNL A   1      59.896  18.973  15.221  1.00  0.00    +0.000 C 
ATOM     52  C39 UNL A   1      58.655  19.534  15.471  1.00  0.00    +0.000 C 
ATOM     53  N5  UNL A   1      57.870  19.273  14.359  1.00  0.00    +0.000 N 
ATOM     54  C40 UNL A   1      58.214  20.253  16.638  1.00  0.00    +0.000 C 
ATOM     66  C47 UNL A   1      56.978  20.786  16.801  1.00  0.00    +0.000 C 
ATOM     67  N6  UNL A   1      55.901  20.774  15.926  1.00  0.00    +0.000 N 
ATOM     68  C48 UNL A   1      54.932  21.408  16.537  1.00  0.00    +0.000 C 
ATOM     69  C49 UNL A   1      53.544  21.721  16.050  1.00  0.00    +0.000 C 
ATOM     81  C56 UNL A   1      53.177  21.335  14.812  1.00  0.00    +0.000 C 
ATOM     82  C57 UNL A   1      51.869  21.569  14.207  1.00  0.00    +0.000 C 
ATOM     83  C58 UNL A   1      51.845  21.006  12.987  1.00  0.00    +0.000 C 
ATOM     84  C59 UNL A   1      53.150  20.404  12.712  1.00  0.00    +0.000 C 
ATOM     85  N7  UNL A   1      53.878  20.653  13.848  1.00  0.00    +0.000 N 
ATOM     86  C60 UNL A   1      55.278  21.870  17.890  1.00  0.00    +0.000 C 
ATOM     87  C61 UNL A   1      56.547  21.500  17.985  1.00  0.00    +0.000 C 
ATOM     88  C62 UNL A   1      56.338  17.946  10.407  1.00  0.00    +0.000 C 
ATOM     89  C63 UNL A   1      55.131  18.444  10.177  1.00  0.00    +0.000 C 
ATOM    118  H27 UNL A   1      60.666  17.932  13.478  1.00  0.00    +0.000 H 
ATOM    119  H28 UNL A   1      60.702  18.977  15.865  1.00  0.00    +0.000 H 
ATOM    120  H29 UNL A   1      56.932  19.549  14.252  1.00  0.00    +0.000 H 
ATOM    121  H30 UNL A   1      51.089  22.083  14.645  1.00  0.00    +0.000 H 
ATOM    122  H31 UNL A   1      51.036  21.002  12.346  1.00  0.00    +0.000 H 
ATOM    123  H32 UNL A   1      54.814  20.372  13.961  1.00  0.00    +0.000 H 
ATOM    124  H33 UNL A   1      54.687  22.355  18.583  1.00  0.00    +0.000 H 
ATOM    125  H34 UNL A   1      57.150  21.695  18.799  1.00  0.00    +0.000 H 
ATOM    126  H35 UNL A   1      56.850  17.331   9.755  1.00  0.00    +0.000 H 
ATOM    127  H36 UNL A   1      54.545  18.365   9.332  1.00  0.00    +0.000 H 
ENDROOT
BRANCH   33   32
ATOM    129  H38 UNL A   1      50.195  17.369   9.411  1.00  0.00    +0.000 H 
ATOM    128  H37 UNL A   1      51.820  17.690  11.181  1.00  0.00    +0.000 H 
ATOM    116  H25 UNL A   1      51.121  21.170   7.864  1.00  0.00    +0.000 H 
ATOM    117  H26 UNL A   1      52.888  21.406   9.512  1.00  0.00    +0.000 H 
ATOM     90  C64 UNL A   1      51.685  18.423  10.468  1.00  0.00    +0.000 C 
ATOM     91  C65 UNL A   1      50.722  18.254   9.474  1.00  0.00    +0.000 C 
ATOM     29  C22 UNL A   1      50.472  19.285   8.564  1.00  0.00    +0.000 C 
ATOM     30  C23 UNL A   1      51.274  20.431   8.568  1.00  0.00    +0.000 C 
ATOM     31  C24 UNL A   1      52.281  20.572   9.525  1.00  0.00    +0.000 C 
ATOM     32  C25 UNL A   1      52.472  19.585  10.505  1.00  0.00    +0.000 C 
BRANCH   29   27
ATOM     27  C21 UNL A   1      49.373  19.189   7.576  1.00  0.00    +0.000 C 
ATOM     28  O2  UNL A   1      49.006  18.084   7.185  1.00  0.00    +0.000 O 
BRANCH   27   26
ATOM     26  N3  UNL A   1      48.788  20.326   7.079  1.00  0.00    +0.000 N 
ATOM    115  H24 UNL A   1      48.489  20.975   7.756  1.00  0.00    +0.000 H 
BRANCH   26   25
ATOM     25  C20 UNL A   1      48.543  20.713   5.698  1.00  0.00    +0.000 C 
ATOM    114  H23 UNL A   1      49.175  20.111   5.078  1.00  0.00    +0.000 H 
ATOM    113  H22 UNL A   1      48.760  21.756   5.592  1.00  0.00    +0.000 H 
BRANCH   25   24
ATOM    112  H21 UNL A   1      46.878  21.229   4.542  1.00  0.00    +0.000 H 
ATOM    111  H20 UNL A   1      46.482  20.505   6.132  1.00  0.00    +0.000 H 
ATOM     24  C19 UNL A   1      47.102  20.468   5.261  1.00  0.00    +0.000 C 
BRANCH   24   23
ATOM    109  H18 UNL A   1      47.631  18.982   3.844  1.00  0.00    +0.000 H 
ATOM    110  H19 UNL A   1      46.821  18.394   5.330  1.00  0.00    +0.000 H 
ATOM     23  C18 UNL A   1      46.849  19.134   4.557  1.00  0.00    +0.000 C 
BRANCH   23   22
ATOM    107  H16 UNL A   1      45.705  18.630   2.843  1.00  0.00    +0.000 H 
ATOM    108  H17 UNL A   1      44.896  18.388   4.424  1.00  0.00    +0.000 H 
ATOM     22  C17 UNL A   1      45.511  19.022   3.819  1.00  0.00    +0.000 C 
BRANCH   22   21
ATOM    105  H14 UNL A   1      43.722  20.160   3.961  1.00  0.00    +0.000 H 
ATOM    106  H15 UNL A   1      45.237  21.059   4.261  1.00  0.00    +0.000 H 
ATOM     21  C16 UNL A   1      44.732  20.334   3.657  1.00  0.00    +0.000 C 
BRANCH   21   20
ATOM     20  C15 UNL A   1      44.711  20.896   2.237  1.00  0.00    +0.000 C 
ATOM    103  H12 UNL A   1      45.305  21.785   2.204  1.00  0.00    +0.000 H 
ATOM    104  H13 UNL A   1      45.105  20.153   1.574  1.00  0.00    +0.000 H 
BRANCH   20   19
ATOM     19  N2  UNL A   1      43.362  21.213   1.817  1.00  0.00    +0.000 N 
ATOM    102  H11 UNL A   1      42.921  21.999   2.212  1.00  0.00    +0.000 H 
BRANCH   19    2
ATOM      1  O1  UNL A   1      43.172  19.559   0.234  1.00  0.00    +0.000 O 
ATOM      2  C1  UNL A   1      42.669  20.468   0.889  1.00  0.00    +0.000 C 
BRANCH    2    3
ATOM      3  C2  UNL A   1      41.213  20.869   0.718  1.00  0.00    +0.000 C 
ATOM     92  H1  UNL A   1      40.902  20.612  -0.274  1.00  0.00    +0.000 H 
ATOM     93  H2  UNL A   1      41.144  21.922   0.893  1.00  0.00    +0.000 H 
BRANCH    3    4
ATOM     97  H6  UNL A   1      37.176  20.148   2.928  1.00  0.00    +0.000 H 
ATOM      4  C3  UNL A   1      40.297  20.179   1.708  1.00  0.00    +0.000 C 
ATOM      5  C4  UNL A   1      40.802  19.088   2.441  1.00  0.00    +0.000 C 
ATOM      6  C5  UNL A   1      39.991  18.394   3.333  1.00  0.00    +0.000 C 
ATOM      7  C6  UNL A   1      38.668  18.780   3.502  1.00  0.00    +0.000 C 
ATOM      8  C7  UNL A   1      38.158  19.866   2.786  1.00  0.00    +0.000 C 
ATOM      9  C8  UNL A   1      38.954  20.585   1.880  1.00  0.00    +0.000 C 
ATOM     94  H3  UNL A   1      41.786  18.802   2.317  1.00  0.00    +0.000 H 
ATOM     95  H4  UNL A   1      40.370  17.596   3.867  1.00  0.00    +0.000 H 
ATOM     96  H5  UNL A   1      38.059  18.263   4.156  1.00  0.00    +0.000 H 
BRANCH    9   10
ATOM     10  N1  UNL A   1      38.470  21.732   1.199  1.00  0.00    +0.000 N 
ATOM     98  H7  UNL A   1      38.953  22.572   1.374  1.00  0.00    +0.000 H 
BRANCH   10   11
ATOM     99  H8  UNL A   1      34.013  22.184   0.357  1.00  0.00    +0.000 H 
ATOM    100  H9  UNL A   1      34.334  22.264  -2.047  1.00  0.00    +0.000 H 
ATOM    101  H10 UNL A   1      36.563  22.036  -2.972  1.00  0.00    +0.000 H 
ATOM     11  C9  UNL A   1      37.374  21.823   0.297  1.00  0.00    +0.000 C 
ATOM     12  C10 UNL A   1      36.064  21.948   0.806  1.00  0.00    +0.000 C 
ATOM     13 Cl1  UNL A   1      35.773  21.926   2.514  1.00  0.00    +0.000 Cl
ATOM     14  C11 UNL A   1      34.961  22.101  -0.040  1.00  0.00    +0.000 C 
ATOM     15  C12 UNL A   1      35.143  22.140  -1.419  1.00  0.00    +0.000 C 
ATOM     16  C13 UNL A   1      36.426  22.011  -1.950  1.00  0.00    +0.000 C 
ATOM     17  C14 UNL A   1      37.531  21.849  -1.104  1.00  0.00    +0.000 C 
ATOM     18 Cl2  UNL A   1      39.068  21.603  -1.865  1.00  0.00    +0.000 Cl
ENDBRANCH   10   11
ENDBRANCH    9   10
ENDBRANCH    3    4
ENDBRANCH    2    3
ENDBRANCH   19    2
ENDBRANCH   20   19
ENDBRANCH   21   20
ENDBRANCH   22   21
ENDBRANCH   23   22
ENDBRANCH   24   23
ENDBRANCH   25   24
ENDBRANCH   26   25
ENDBRANCH   27   26
ENDBRANCH   29   27
ENDBRANCH   33   32
BRANCH   37   38
ATOM     38  C30 UNL A   1      58.990  17.287  11.277  1.00  0.00    +0.000 C 
ATOM     39  C31 UNL A   1      59.830  17.881  10.323  1.00  0.00    +0.000 C 
ATOM     40  F1  UNL A   1      59.816  19.211  10.146  1.00  0.00    +0.000 F 
ATOM     41  C32 UNL A   1      60.663  17.106   9.520  1.00  0.00    +0.000 C 
ATOM     42  F2  UNL A   1      61.421  17.691   8.583  1.00  0.00    +0.000 F 
ATOM     43  C33 UNL A   1      60.697  15.728   9.677  1.00  0.00    +0.000 C 
ATOM     44  F3  UNL A   1      61.501  14.985   8.906  1.00  0.00    +0.000 F 
ATOM     45  C34 UNL A   1      59.891  15.122  10.629  1.00  0.00    +0.000 C 
ATOM     46  F4  UNL A   1      59.932  13.792  10.790  1.00  0.00    +0.000 F 
ATOM     47  C35 UNL A   1      59.037  15.891  11.415  1.00  0.00    +0.000 C 
ATOM     48  F5  UNL A   1      58.258  15.274  12.316  1.00  0.00    +0.000 F 
ENDBRANCH   37   38
BRANCH   54   55
ATOM     65  F10 UNL A   1      58.812  18.248  18.561  1.00  0.00    +0.000 F 
ATOM     55  C41 UNL A   1      59.200  20.452  17.751  1.00  0.00    +0.000 C 
ATOM     56  C42 UNL A   1      59.880  21.667  17.923  1.00  0.00    +0.000 C 
ATOM     57  F6  UNL A   1      59.697  22.671  17.052  1.00  0.00    +0.000 F 
ATOM     58  C43 UNL A   1      60.780  21.840  18.970  1.00  0.00    +0.000 C 
ATOM     59  F7  UNL A   1      61.450  22.994  19.090  1.00  0.00    +0.000 F 
ATOM     60  C44 UNL A   1      60.994  20.818  19.882  1.00  0.00    +0.000 C 
ATOM     61  F8  UNL A   1      61.857  20.989  20.893  1.00  0.00    +0.000 F 
ATOM     62  C45 UNL A   1      60.321  19.614  19.740  1.00  0.00    +0.000 C 
ATOM     63  F9  UNL A   1      60.519  18.628  20.626  1.00  0.00    +0.000 F 
ATOM     64  C46 UNL A   1      59.440  19.427  18.679  1.00  0.00    +0.000 C 
ENDBRANCH   54   55
BRANCH   69   70
ATOM     70  C50 UNL A   1      52.591  22.474  16.904  1.00  0.00    +0.000 C 
ATOM     71  C51 UNL A   1      51.848  21.820  17.897  1.00  0.00    +0.000 C 
ATOM     72  F11 UNL A   1      51.980  20.496  18.068  1.00  0.00    +0.000 F 
ATOM     73  C52 UNL A   1      50.937  22.515  18.689  1.00  0.00    +0.000 C 
ATOM     74  F12 UNL A   1      50.210  21.857  19.603  1.00  0.00    +0.000 F 
ATOM     75  C53 UNL A   1      50.773  23.881  18.523  1.00  0.00    +0.000 C 
ATOM     76  F13 UNL A   1      49.899  24.550  19.289  1.00  0.00    +0.000 F 
ATOM     77  C54 UNL A   1      51.509  24.552  17.559  1.00  0.00    +0.000 C 
ATOM     78  F14 UNL A   1      51.361  25.875  17.404  1.00  0.00    +0.000 F 
ATOM     79  C55 UNL A   1      52.401  23.854  16.748  1.00  0.00    +0.000 C 
ATOM     80  F15 UNL A   1      53.091  24.526  15.815  1.00  0.00    +0.000 F 
ENDBRANCH   69   70
TORSDOF 18
ENDMDL
MODEL 3
REMARK VINA RESULT:     -11.3     45.473     50.454
ROOT
ATOM     33  C26 UNL A   1      13.987  53.809   5.033  1.00  0.00    +0.000 C 
ATOM     34  C27 UNL A   1      14.959  54.242   3.972  1.00  0.00    +0.000 C 
ATOM     35  N4  UNL A   1      15.443  53.559   2.964  1.00  0.00    +0.000 N 
ATOM     36  C28 UNL A   1      16.259  54.441   2.269  1.00  0.00    +0.000 C 
ATOM     37  C29 UNL A   1      17.029  54.201   1.180  1.00  0.00    +0.000 C 
ATOM     49  C36 UNL A   1      17.140  52.921   0.530  1.00  0.00    +0.000 C 
ATOM     50  C37 UNL A   1      17.943  52.563  -0.540  1.00  0.00    +0.000 C 
ATOM     51  C38 UNL A   1      17.683  51.224  -0.853  1.00  0.00    +0.000 C 
ATOM     52  C39 UNL A   1      16.751  50.736   0.048  1.00  0.00    +0.000 C 
ATOM     53  N5  UNL A   1      16.424  51.789   0.889  1.00  0.00    +0.000 N 
ATOM     54  C40 UNL A   1      16.197  49.410   0.136  1.00  0.00    +0.000 C 
ATOM     66  C47 UNL A   1      15.292  49.006   1.063  1.00  0.00    +0.000 C 
ATOM     67  N6  UNL A   1      14.721  49.733   2.098  1.00  0.00    +0.000 N 
ATOM     68  C48 UNL A   1      13.905  48.910   2.708  1.00  0.00    +0.000 C 
ATOM     69  C49 UNL A   1      13.042  49.150   3.917  1.00  0.00    +0.000 C 
ATOM     81  C56 UNL A   1      13.069  50.355   4.518  1.00  0.00    +0.000 C 
ATOM     82  C57 UNL A   1      12.290  50.730   5.695  1.00  0.00    +0.000 C 
ATOM     83  C58 UNL A   1      12.532  52.018   5.987  1.00  0.00    +0.000 C 
ATOM     84  C59 UNL A   1      13.512  52.549   5.038  1.00  0.00    +0.000 C 
ATOM     85  N7  UNL A   1      13.778  51.489   4.207  1.00  0.00    +0.000 N 
ATOM     86  C60 UNL A   1      13.845  47.570   2.107  1.00  0.00    +0.000 C 
ATOM     87  C61 UNL A   1      14.738  47.671   1.133  1.00  0.00    +0.000 C 
ATOM     88  C62 UNL A   1      16.169  55.719   2.940  1.00  0.00    +0.000 C 
ATOM     89  C63 UNL A   1      15.429  55.633   4.037  1.00  0.00    +0.000 C 
ATOM    118  H27 UNL A   1      18.617  53.177  -1.022  1.00  0.00    +0.000 H 
ATOM    119  H28 UNL A   1      18.113  50.691  -1.625  1.00  0.00    +0.000 H 
ATOM    120  H29 UNL A   1      15.779  51.740   1.630  1.00  0.00    +0.000 H 
ATOM    121  H30 UNL A   1      11.656  50.106   6.218  1.00  0.00    +0.000 H 
ATOM    122  H31 UNL A   1      12.098  52.549   6.758  1.00  0.00    +0.000 H 
ATOM    123  H32 UNL A   1      14.417  51.537   3.460  1.00  0.00    +0.000 H 
ATOM    124  H33 UNL A   1      13.260  46.762   2.374  1.00  0.00    +0.000 H 
ATOM    125  H34 UNL A   1      15.003  46.896   0.505  1.00  0.00    +0.000 H 
ATOM    126  H35 UNL A   1      16.623  56.586   2.609  1.00  0.00    +0.000 H 
ATOM    127  H36 UNL A   1      15.233  56.354   4.748  1.00  0.00    +0.000 H 
ENDROOT
BRANCH   33   32
ATOM    129  H38 UNL A   1      11.030  57.034   6.469  1.00  0.00    +0.000 H 
ATOM    128  H37 UNL A   1      11.837  55.401   4.870  1.00  0.00    +0.000 H 
ATOM    116  H25 UNL A   1      14.107  55.957   9.129  1.00  0.00    +0.000 H 
ATOM    117  H26 UNL A   1      15.035  54.470   7.448  1.00  0.00    +0.000 H 
ATOM     90  C64 UNL A   1      12.330  55.529   5.767  1.00  0.00    +0.000 C 
ATOM     91  C65 UNL A   1      11.842  56.440   6.702  1.00  0.00    +0.000 C 
ATOM     29  C22 UNL A   1      12.453  56.547   7.955  1.00  0.00    +0.000 C 
ATOM     30  C23 UNL A   1      13.629  55.840   8.222  1.00  0.00    +0.000 C 
ATOM     31  C24 UNL A   1      14.154  54.974   7.260  1.00  0.00    +0.000 C 
ATOM     32  C25 UNL A   1      13.490  54.785   6.037  1.00  0.00    +0.000 C 
BRANCH   29   27
ATOM     27  C21 UNL A   1      11.886  57.412   9.014  1.00  0.00    +0.000 C 
ATOM     28  O2  UNL A   1      12.168  58.607   9.036  1.00  0.00    +0.000 O 
BRANCH   27   26
ATOM     26  N3  UNL A   1      11.073  56.877   9.983  1.00  0.00    +0.000 N 
ATOM    115  H24 UNL A   1      11.078  57.353  10.844  1.00  0.00    +0.000 H 
BRANCH   26   25
ATOM     25  C20 UNL A   1      10.207  55.710   9.923  1.00  0.00    +0.000 C 
ATOM    114  H23 UNL A   1       9.855  55.622   8.916  1.00  0.00    +0.000 H 
ATOM    113  H22 UNL A   1       9.402  55.847  10.615  1.00  0.00    +0.000 H 
BRANCH   25   24
ATOM    112  H21 UNL A   1      11.916  54.506   9.854  1.00  0.00    +0.000 H 
ATOM    111  H20 UNL A   1      10.370  53.600   9.864  1.00  0.00    +0.000 H 
ATOM     24  C19 UNL A   1      10.934  54.415  10.270  1.00  0.00    +0.000 C 
BRANCH   24   23
ATOM    109  H18 UNL A   1      10.340  54.641  12.293  1.00  0.00    +0.000 H 
ATOM    110  H19 UNL A   1      11.135  53.089  11.879  1.00  0.00    +0.000 H 
ATOM     23  C18 UNL A   1      11.132  54.153  11.765  1.00  0.00    +0.000 C 
BRANCH   23   22
ATOM    107  H16 UNL A   1      13.194  54.612  11.571  1.00  0.00    +0.000 H 
ATOM    108  H17 UNL A   1      12.269  55.628  12.724  1.00  0.00    +0.000 H 
ATOM     22  C17 UNL A   1      12.460  54.643  12.349  1.00  0.00    +0.000 C 
BRANCH   22   21
ATOM    105  H14 UNL A   1      13.194  54.519  14.340  1.00  0.00    +0.000 H 
ATOM    106  H15 UNL A   1      12.246  53.113  13.775  1.00  0.00    +0.000 H 
ATOM     21  C16 UNL A   1      12.997  53.838  13.539  1.00  0.00    +0.000 C 
BRANCH   21   20
ATOM     20  C15 UNL A   1      14.278  53.054  13.258  1.00  0.00    +0.000 C 
ATOM    103  H12 UNL A   1      15.041  53.376  13.935  1.00  0.00    +0.000 H 
ATOM    104  H13 UNL A   1      14.071  52.011  13.391  1.00  0.00    +0.000 H 
BRANCH   20   19
ATOM     19  N2  UNL A   1      14.734  53.259  11.900  1.00  0.00    +0.000 N 
ATOM    102  H11 UNL A   1      14.816  54.182  11.568  1.00  0.00    +0.000 H 
BRANCH   19    2
ATOM      1  O1  UNL A   1      15.947  51.409  11.283  1.00  0.00    +0.000 O 
ATOM      2  C1  UNL A   1      15.059  52.225  11.051  1.00  0.00    +0.000 C 
BRANCH    2    3
ATOM      3  C2  UNL A   1      14.236  52.173   9.775  1.00  0.00    +0.000 C 
ATOM     92  H1  UNL A   1      14.228  53.147   9.332  1.00  0.00    +0.000 H 
ATOM     93  H2  UNL A   1      13.251  51.849  10.038  1.00  0.00    +0.000 H 
BRANCH    3    4
ATOM     97  H6  UNL A   1      14.498  48.048   7.624  1.00  0.00    +0.000 H 
ATOM      4  C3  UNL A   1      14.787  51.187   8.765  1.00  0.00    +0.000 C 
ATOM      5  C4  UNL A   1      15.780  51.627   7.869  1.00  0.00    +0.000 C 
ATOM      6  C5  UNL A   1      16.289  50.774   6.896  1.00  0.00    +0.000 C 
ATOM      7  C6  UNL A   1      15.815  49.472   6.806  1.00  0.00    +0.000 C 
ATOM      8  C7  UNL A   1      14.836  49.020   7.696  1.00  0.00    +0.000 C 
ATOM      9  C8  UNL A   1      14.304  49.860   8.688  1.00  0.00    +0.000 C 
ATOM     94  H3  UNL A   1      16.134  52.595   7.937  1.00  0.00    +0.000 H 
ATOM     95  H4  UNL A   1      17.018  51.105   6.244  1.00  0.00    +0.000 H 
ATOM     96  H5  UNL A   1      16.183  48.837   6.081  1.00  0.00    +0.000 H 
BRANCH    9   10
ATOM     10  N1  UNL A   1      13.362  49.394   9.641  1.00  0.00    +0.000 N 
ATOM     98  H7  UNL A   1      13.549  49.627  10.579  1.00  0.00    +0.000 H 
BRANCH   10   11
ATOM     99  H8  UNL A   1       8.929  49.102   8.618  1.00  0.00    +0.000 H 
ATOM    100  H9  UNL A   1       8.953  46.676   8.591  1.00  0.00    +0.000 H 
ATOM    101  H10 UNL A   1      11.000  45.487   9.112  1.00  0.00    +0.000 H 
ATOM     11  C9  UNL A   1      12.182  48.633   9.413  1.00  0.00    +0.000 C 
ATOM     12  C10 UNL A   1      10.973  49.298   9.116  1.00  0.00    +0.000 C 
ATOM     13 Cl1  UNL A   1      10.899  51.029   9.092  1.00  0.00    +0.000 Cl
ATOM     14  C11 UNL A   1       9.801  48.592   8.825  1.00  0.00    +0.000 C 
ATOM     15  C12 UNL A   1       9.812  47.201   8.817  1.00  0.00    +0.000 C 
ATOM     16  C13 UNL A   1      10.991  46.518   9.114  1.00  0.00    +0.000 C 
ATOM     17  C14 UNL A   1      12.164  47.224   9.414  1.00  0.00    +0.000 C 
ATOM     18 Cl2  UNL A   1      13.548  46.283   9.862  1.00  0.00    +0.000 Cl
ENDBRANCH   10   11
ENDBRANCH    9   10
ENDBRANCH    3    4
ENDBRANCH    2    3
ENDBRANCH   19    2
ENDBRANCH   20   19
ENDBRANCH   21   20
ENDBRANCH   22   21
ENDBRANCH   23   22
ENDBRANCH   24   23
ENDBRANCH   25   24
ENDBRANCH   26   25
ENDBRANCH   27   26
ENDBRANCH   29   27
ENDBRANCH   33   32
BRANCH   37   38
ATOM     38  C30 UNL A   1      17.817  55.350   0.624  1.00  0.00    +0.000 C 
ATOM     39  C31 UNL A   1      19.062  55.715   1.158  1.00  0.00    +0.000 C 
ATOM     40  F1  UNL A   1      19.559  55.059   2.219  1.00  0.00    +0.000 F 
ATOM     41  C32 UNL A   1      19.785  56.780   0.630  1.00  0.00    +0.000 C 
ATOM     42  F2  UNL A   1      20.949  57.141   1.188  1.00  0.00    +0.000 F 
ATOM     43  C33 UNL A   1      19.296  57.479  -0.464  1.00  0.00    +0.000 C 
ATOM     44  F3  UNL A   1      19.995  58.502  -0.974  1.00  0.00    +0.000 F 
ATOM     45  C34 UNL A   1      18.079  57.122  -1.023  1.00  0.00    +0.000 C 
ATOM     46  F4  UNL A   1      17.610  57.789  -2.087  1.00  0.00    +0.000 F 
ATOM     47  C35 UNL A   1      17.339  56.074  -0.479  1.00  0.00    +0.000 C 
ATOM     48  F5  UNL A   1      16.158  55.763  -1.033  1.00  0.00    +0.000 F 
ENDBRANCH   37   38
BRANCH   54   55
ATOM     65  F10 UNL A   1      18.668  48.031   0.390  1.00  0.00    +0.000 F 
ATOM     55  C41 UNL A   1      16.670  48.387  -0.853  1.00  0.00    +0.000 C 
ATOM     56  C42 UNL A   1      15.917  48.061  -1.991  1.00  0.00    +0.000 C 
ATOM     57  F6  UNL A   1      14.719  48.629  -2.192  1.00  0.00    +0.000 F 
ATOM     58  C43 UNL A   1      16.378  47.120  -2.907  1.00  0.00    +0.000 C 
ATOM     59  F7  UNL A   1      15.623  46.792  -3.965  1.00  0.00    +0.000 F 
ATOM     60  C44 UNL A   1      17.610  46.512  -2.722  1.00  0.00    +0.000 C 
ATOM     61  F8  UNL A   1      18.054  45.610  -3.608  1.00  0.00    +0.000 F 
ATOM     62  C45 UNL A   1      18.378  46.830  -1.612  1.00  0.00    +0.000 C 
ATOM     63  F9  UNL A   1      19.574  46.251  -1.436  1.00  0.00    +0.000 F 
ATOM     64  C46 UNL A   1      17.909  47.751  -0.679  1.00  0.00    +0.000 C 
ENDBRANCH   54   55
BRANCH   69   70
ATOM     70  C50 UNL A   1      12.191  48.065   4.469  1.00  0.00    +0.000 C 
ATOM     71  C51 UNL A   1      12.753  47.034   5.234  1.00  0.00    +0.000 C 
ATOM     72  F11 UNL A   1      14.075  47.010   5.457  1.00  0.00    +0.000 F 
ATOM     73  C52 UNL A   1      11.965  46.001   5.738  1.00  0.00    +0.000 C 
ATOM     74  F12 UNL A   1      12.534  45.005   6.431  1.00  0.00    +0.000 F 
ATOM     75  C53 UNL A   1      10.597  45.995   5.510  1.00  0.00    +0.000 C 
ATOM     76  F13 UNL A   1       9.839  45.004   5.999  1.00  0.00    +0.000 F 
ATOM     77  C54 UNL A   1      10.017  47.014   4.770  1.00  0.00    +0.000 C 
ATOM     78  F14 UNL A   1       8.694  47.018   4.558  1.00  0.00    +0.000 F 
ATOM     79  C55 UNL A   1      10.808  48.033   4.244  1.00  0.00    +0.000 C 
ATOM     80  F15 UNL A   1      10.222  48.999   3.521  1.00  0.00    +0.000 F 
ENDBRANCH   69   70
TORSDOF 18
ENDMDL
MODEL 4
REMARK VINA RESULT:     -11.3     17.566     23.581
ROOT
ATOM     33  C26 UNL A   1      42.106  26.092  27.773  1.00  0.00    +0.000 C 
ATOM     34  C27 UNL A   1      43.445  26.508  27.232  1.00  0.00    +0.000 C 
ATOM     35  N4  UNL A   1      44.061  27.659  27.340  1.00  0.00    +0.000 N 
ATOM     36  C28 UNL A   1      45.281  27.495  26.700  1.00  0.00    +0.000 C 
ATOM     37  C29 UNL A   1      46.256  28.412  26.491  1.00  0.00    +0.000 C 
ATOM     49  C36 UNL A   1      46.185  29.786  26.918  1.00  0.00    +0.000 C 
ATOM     50  C37 UNL A   1      47.094  30.806  26.697  1.00  0.00    +0.000 C 
ATOM     51  C38 UNL A   1      46.620  31.959  27.335  1.00  0.00    +0.000 C 
ATOM     52  C39 UNL A   1      45.397  31.667  27.915  1.00  0.00    +0.000 C 
ATOM     53  N5  UNL A   1      45.143  30.329  27.655  1.00  0.00    +0.000 N 
ATOM     54  C40 UNL A   1      44.524  32.541  28.655  1.00  0.00    +0.000 C 
ATOM     66  C47 UNL A   1      43.329  32.179  29.184  1.00  0.00    +0.000 C 
ATOM     67  N6  UNL A   1      42.690  30.948  29.133  1.00  0.00    +0.000 N 
ATOM     68  C48 UNL A   1      41.570  31.095  29.795  1.00  0.00    +0.000 C 
ATOM     69  C49 UNL A   1      40.471  30.097  30.039  1.00  0.00    +0.000 C 
ATOM     81  C56 UNL A   1      40.581  28.857  29.525  1.00  0.00    +0.000 C 
ATOM     82  C57 UNL A   1      39.597  27.788  29.678  1.00  0.00    +0.000 C 
ATOM     83  C58 UNL A   1      40.058  26.680  29.075  1.00  0.00    +0.000 C 
ATOM     84  C59 UNL A   1      41.355  26.973  28.462  1.00  0.00    +0.000 C 
ATOM     85  N7  UNL A   1      41.581  28.290  28.775  1.00  0.00    +0.000 N 
ATOM     86  C60 UNL A   1      41.384  32.436  30.368  1.00  0.00    +0.000 C 
ATOM     87  C61 UNL A   1      42.466  33.068  29.933  1.00  0.00    +0.000 C 
ATOM     88  C62 UNL A   1      45.340  26.122  26.246  1.00  0.00    +0.000 C 
ATOM     89  C63 UNL A   1      44.203  25.488  26.493  1.00  0.00    +0.000 C 
ATOM    118  H27 UNL A   1      47.968  30.731  26.156  1.00  0.00    +0.000 H 
ATOM    119  H28 UNL A   1      47.102  32.870  27.367  1.00  0.00    +0.000 H 
ATOM    120  H29 UNL A   1      44.343  29.838  27.949  1.00  0.00    +0.000 H 
ATOM    121  H30 UNL A   1      38.694  27.871  30.170  1.00  0.00    +0.000 H 
ATOM    122  H31 UNL A   1      39.575  25.769  29.047  1.00  0.00    +0.000 H 
ATOM    123  H32 UNL A   1      42.384  28.781  28.488  1.00  0.00    +0.000 H 
ATOM    124  H33 UNL A   1      40.614  32.793  30.956  1.00  0.00    +0.000 H 
ATOM    125  H34 UNL A   1      42.666  34.065  30.107  1.00  0.00    +0.000 H 
ATOM    126  H35 UNL A   1      46.160  25.693  25.788  1.00  0.00    +0.000 H 
ATOM    127  H36 UNL A   1      43.924  24.529  26.236  1.00  0.00    +0.000 H 
ENDROOT
BRANCH   33   32
ATOM    129  H38 UNL A   1      39.449  22.877  25.821  1.00  0.00    +0.000 H 
ATOM    128  H37 UNL A   1      40.268  25.146  26.068  1.00  0.00    +0.000 H 
ATOM    116  H25 UNL A   1      42.162  21.572  28.761  1.00  0.00    +0.000 H 
ATOM    117  H26 UNL A   1      42.838  23.871  29.152  1.00  0.00    +0.000 H 
ATOM     90  C64 UNL A   1      40.660  24.391  26.653  1.00  0.00    +0.000 C 
ATOM     91  C65 UNL A   1      40.217  23.080  26.481  1.00  0.00    +0.000 C 
ATOM     29  C22 UNL A   1      40.812  22.044  27.205  1.00  0.00    +0.000 C 
ATOM     30  C23 UNL A   1      41.759  22.334  28.192  1.00  0.00    +0.000 C 
ATOM     31  C24 UNL A   1      42.157  23.655  28.407  1.00  0.00    +0.000 C 
ATOM     32  C25 UNL A   1      41.637  24.691  27.616  1.00  0.00    +0.000 C 
BRANCH   29   27
ATOM     27  C21 UNL A   1      40.453  20.629  26.957  1.00  0.00    +0.000 C 
ATOM     28  O2  UNL A   1      41.022  19.740  27.585  1.00  0.00    +0.000 O 
BRANCH   27   26
ATOM     26  N3  UNL A   1      39.510  20.310  26.012  1.00  0.00    +0.000 N 
ATOM    115  H24 UNL A   1      39.606  19.418  25.608  1.00  0.00    +0.000 H 
BRANCH   26   25
ATOM     25  C20 UNL A   1      38.390  21.096  25.519  1.00  0.00    +0.000 C 
ATOM    114  H23 UNL A   1      38.763  21.742  24.751  1.00  0.00    +0.000 H 
ATOM    113  H22 UNL A   1      37.975  21.650  26.336  1.00  0.00    +0.000 H 
BRANCH   25   24
ATOM    112  H21 UNL A   1      37.198  19.378  25.532  1.00  0.00    +0.000 H 
ATOM    111  H20 UNL A   1      37.576  20.007  23.897  1.00  0.00    +0.000 H 
ATOM     24  C19 UNL A   1      37.290  20.239  24.903  1.00  0.00    +0.000 C 
BRANCH   24   23
ATOM    109  H18 UNL A   1      35.225  20.179  24.425  1.00  0.00    +0.000 H 
ATOM    110  H19 UNL A   1      35.666  21.137  25.874  1.00  0.00    +0.000 H 
ATOM     23  C18 UNL A   1      35.902  20.882  24.861  1.00  0.00    +0.000 C 
BRANCH   23   22
ATOM    107  H16 UNL A   1      36.743  22.346  23.577  1.00  0.00    +0.000 H 
ATOM    108  H17 UNL A   1      34.983  22.057  23.391  1.00  0.00    +0.000 H 
ATOM     22  C17 UNL A   1      35.804  22.186  24.065  1.00  0.00    +0.000 C 
BRANCH   22   21
ATOM    105  H14 UNL A   1      36.325  24.095  24.843  1.00  0.00    +0.000 H 
ATOM    106  H15 UNL A   1      34.595  23.862  24.455  1.00  0.00    +0.000 H 
ATOM     21  C16 UNL A   1      35.479  23.441  24.887  1.00  0.00    +0.000 C 
BRANCH   21   20
ATOM     20  C15 UNL A   1      35.158  23.180  26.358  1.00  0.00    +0.000 C 
ATOM    103  H12 UNL A   1      35.210  22.128  26.546  1.00  0.00    +0.000 H 
ATOM    104  H13 UNL A   1      35.871  23.707  26.957  1.00  0.00    +0.000 H 
BRANCH   20   19
ATOM     19  N2  UNL A   1      33.834  23.656  26.699  1.00  0.00    +0.000 N 
ATOM    102  H11 UNL A   1      33.626  24.607  26.552  1.00  0.00    +0.000 H 
BRANCH   19    2
ATOM      1  O1  UNL A   1      32.989  22.183  28.246  1.00  0.00    +0.000 O 
ATOM      2  C1  UNL A   1      32.853  22.842  27.219  1.00  0.00    +0.000 C 
BRANCH    2    3
ATOM      3  C2  UNL A   1      31.569  22.802  26.407  1.00  0.00    +0.000 C 
ATOM     92  H1  UNL A   1      31.200  23.801  26.300  1.00  0.00    +0.000 H 
ATOM     93  H2  UNL A   1      30.875  22.178  26.929  1.00  0.00    +0.000 H 
BRANCH    3    4
ATOM     97  H6  UNL A   1      31.695  22.912  21.751  1.00  0.00    +0.000 H 
ATOM      4  C3  UNL A   1      31.769  22.209  25.027  1.00  0.00    +0.000 C 
ATOM      5  C4  UNL A   1      32.183  20.867  24.927  1.00  0.00    +0.000 C 
ATOM      6  C5  UNL A   1      32.421  20.287  23.686  1.00  0.00    +0.000 C 
ATOM      7  C6  UNL A   1      32.248  21.038  22.531  1.00  0.00    +0.000 C 
ATOM      8  C7  UNL A   1      31.828  22.368  22.617  1.00  0.00    +0.000 C 
ATOM      9  C8  UNL A   1      31.580  22.979  23.857  1.00  0.00    +0.000 C 
ATOM     94  H3  UNL A   1      32.311  20.308  25.786  1.00  0.00    +0.000 H 
ATOM     95  H4  UNL A   1      32.724  19.302  23.622  1.00  0.00    +0.000 H 
ATOM     96  H5  UNL A   1      32.431  20.615  21.607  1.00  0.00    +0.000 H 
BRANCH    9   10
ATOM     10  N1  UNL A   1      31.087  24.306  23.956  1.00  0.00    +0.000 N 
ATOM     98  H7  UNL A   1      30.177  24.453  23.611  1.00  0.00    +0.000 H 
BRANCH   10   11
ATOM     99  H8  UNL A   1      31.371  27.701  26.985  1.00  0.00    +0.000 H 
ATOM    100  H9  UNL A   1      33.517  28.459  26.142  1.00  0.00    +0.000 H 
ATOM    101  H10 UNL A   1      34.527  27.342  24.242  1.00  0.00    +0.000 H 
ATOM     11  C9  UNL A   1      31.742  25.451  24.488  1.00  0.00    +0.000 C 
ATOM     12  C10 UNL A   1      31.174  26.127  25.589  1.00  0.00    +0.000 C 
ATOM     13 Cl1  UNL A   1      29.658  25.616  26.254  1.00  0.00    +0.000 Cl
ATOM     14  C11 UNL A   1      31.811  27.220  26.185  1.00  0.00    +0.000 C 
ATOM     15  C12 UNL A   1      33.038  27.660  25.698  1.00  0.00    +0.000 C 
ATOM     16  C13 UNL A   1      33.619  27.015  24.607  1.00  0.00    +0.000 C 
ATOM     17  C14 UNL A   1      32.978  25.925  24.003  1.00  0.00    +0.000 C 
ATOM     18 Cl2  UNL A   1      33.735  25.255  22.596  1.00  0.00    +0.000 Cl
ENDBRANCH   10   11
ENDBRANCH    9   10
ENDBRANCH    3    4
ENDBRANCH    2    3
ENDBRANCH   19    2
ENDBRANCH   20   19
ENDBRANCH   21   20
ENDBRANCH   22   21
ENDBRANCH   23   22
ENDBRANCH   24   23
ENDBRANCH   25   24
ENDBRANCH   26   25
ENDBRANCH   27   26
ENDBRANCH   29   27
ENDBRANCH   33   32
BRANCH   37   38
ATOM     38  C30 UNL A   1      47.488  27.959  25.764  1.00  0.00    +0.000 C 
ATOM     39  C31 UNL A   1      48.660  27.608  26.450  1.00  0.00    +0.000 C 
ATOM     40  F1  UNL A   1      48.715  27.712  27.787  1.00  0.00    +0.000 F 
ATOM     41  C32 UNL A   1      49.795  27.185  25.763  1.00  0.00    +0.000 C 
ATOM     42  F2  UNL A   1      50.918  26.902  26.437  1.00  0.00    +0.000 F 
ATOM     43  C33 UNL A   1      49.770  27.072  24.381  1.00  0.00    +0.000 C 
ATOM     44  F3  UNL A   1      50.861  26.661  23.721  1.00  0.00    +0.000 F 
ATOM     45  C34 UNL A   1      48.615  27.391  23.683  1.00  0.00    +0.000 C 
ATOM     46  F4  UNL A   1      48.586  27.271  22.349  1.00  0.00    +0.000 F 
ATOM     47  C35 UNL A   1      47.487  27.842  24.365  1.00  0.00    +0.000 C 
ATOM     48  F5  UNL A   1      46.390  28.158  23.660  1.00  0.00    +0.000 F 
ENDBRANCH   37   38
BRANCH   54   55
ATOM     65  F10 UNL A   1      46.101  33.420  30.849  1.00  0.00    +0.000 F 
ATOM     55  C41 UNL A   1      44.952  33.967  28.838  1.00  0.00    +0.000 C 
ATOM     56  C42 UNL A   1      44.575  34.970  27.933  1.00  0.00    +0.000 C 
ATOM     57  F6  UNL A   1      43.857  34.659  26.844  1.00  0.00    +0.000 F 
ATOM     58  C43 UNL A   1      44.968  36.291  28.126  1.00  0.00    +0.000 C 
ATOM     59  F7  UNL A   1      44.632  37.225  27.226  1.00  0.00    +0.000 F 
ATOM     60  C44 UNL A   1      45.716  36.640  29.240  1.00  0.00    +0.000 C 
ATOM     61  F8  UNL A   1      46.089  37.914  29.426  1.00  0.00    +0.000 F 
ATOM     62  C45 UNL A   1      46.087  35.667  30.156  1.00  0.00    +0.000 C 
ATOM     63  F9  UNL A   1      46.802  36.005  31.239  1.00  0.00    +0.000 F 
ATOM     64  C46 UNL A   1      45.719  34.341  29.952  1.00  0.00    +0.000 C 
ENDBRANCH   54   55
BRANCH   69   70
ATOM     70  C50 UNL A   1      39.260  30.475  30.811  1.00  0.00    +0.000 C 
ATOM     71  C51 UNL A   1      39.194  30.251  32.193  1.00  0.00    +0.000 C 
ATOM     72  F11 UNL A   1      40.224  29.671  32.828  1.00  0.00    +0.000 F 
ATOM     73  C52 UNL A   1      38.054  30.584  32.922  1.00  0.00    +0.000 C 
ATOM     74  F12 UNL A   1      38.001  30.321  34.235  1.00  0.00    +0.000 F 
ATOM     75  C53 UNL A   1      36.971  31.172  32.288  1.00  0.00    +0.000 C 
ATOM     76  F13 UNL A   1      35.876  31.496  32.990  1.00  0.00    +0.000 F 
ATOM     77  C54 UNL A   1      37.020  31.418  30.925  1.00  0.00    +0.000 C 
ATOM     78  F14 UNL A   1      35.979  31.997  30.311  1.00  0.00    +0.000 F 
ATOM     79  C55 UNL A   1      38.149  31.062  30.190  1.00  0.00    +0.000 C 
ATOM     80  F15 UNL A   1      38.165  31.300  28.870  1.00  0.00    +0.000 F 
ENDBRANCH   69   70
TORSDOF 18
ENDMDL
MODEL 5
REMARK VINA RESULT:     -11.3      1.155      7.387
ROOT
ATOM     33  C26 UNL A   1      53.676  19.531  11.654  1.00  0.00    +0.000 C 
ATOM     34  C27 UNL A   1      55.042  18.911  11.569  1.00  0.00    +0.000 C 
ATOM     35  N4  UNL A   1      56.009  18.914  12.452  1.00  0.00    +0.000 N 
ATOM     36  C28 UNL A   1      57.033  18.163  11.892  1.00  0.00    +0.000 C 
ATOM     37  C29 UNL A   1      58.268  17.914  12.390  1.00  0.00    +0.000 C 
ATOM     49  C36 UNL A   1      58.754  18.417  13.648  1.00  0.00    +0.000 C 
ATOM     50  C37 UNL A   1      60.012  18.272  14.208  1.00  0.00    +0.000 C 
ATOM     51  C38 UNL A   1      60.008  18.897  15.460  1.00  0.00    +0.000 C 
ATOM     52  C39 UNL A   1      58.762  19.467  15.661  1.00  0.00    +0.000 C 
ATOM     53  N5  UNL A   1      58.001  19.162  14.543  1.00  0.00    +0.000 N 
ATOM     54  C40 UNL A   1      58.296  20.231  16.790  1.00  0.00    +0.000 C 
ATOM     66  C47 UNL A   1      57.057  20.769  16.905  1.00  0.00    +0.000 C 
ATOM     67  N6  UNL A   1      55.999  20.723  16.007  1.00  0.00    +0.000 N 
ATOM     68  C48 UNL A   1      55.017  21.380  16.572  1.00  0.00    +0.000 C 
ATOM     69  C49 UNL A   1      53.640  21.672  16.043  1.00  0.00    +0.000 C 
ATOM     81  C56 UNL A   1      53.300  21.238  14.814  1.00  0.00    +0.000 C 
ATOM     82  C57 UNL A   1      52.006  21.447  14.171  1.00  0.00    +0.000 C 
ATOM     83  C58 UNL A   1      52.008  20.838  12.974  1.00  0.00    +0.000 C 
ATOM     84  C59 UNL A   1      53.318  20.225  12.751  1.00  0.00    +0.000 C 
ATOM     85  N7  UNL A   1      54.022  20.520  13.892  1.00  0.00    +0.000 N 
ATOM     86  C60 UNL A   1      55.334  21.894  17.913  1.00  0.00    +0.000 C 
ATOM     87  C61 UNL A   1      56.601  21.528  18.050  1.00  0.00    +0.000 C 
ATOM     88  C62 UNL A   1      56.554  17.681  10.614  1.00  0.00    +0.000 C 
ATOM     89  C63 UNL A   1      55.353  18.169  10.338  1.00  0.00    +0.000 C 
ATOM    118  H27 UNL A   1      60.814  17.789  13.776  1.00  0.00    +0.000 H 
ATOM    119  H28 UNL A   1      60.799  18.926  16.121  1.00  0.00    +0.000 H 
ATOM    120  H29 UNL A   1      57.066  19.434  14.405  1.00  0.00    +0.000 H 
ATOM    121  H30 UNL A   1      51.216  21.978  14.572  1.00  0.00    +0.000 H 
ATOM    122  H31 UNL A   1      51.213  20.808  12.317  1.00  0.00    +0.000 H 
ATOM    123  H32 UNL A   1      54.955  20.243  14.036  1.00  0.00    +0.000 H 
ATOM    124  H33 UNL A   1      54.728  22.406  18.574  1.00  0.00    +0.000 H 
ATOM    125  H34 UNL A   1      57.186  21.755  18.869  1.00  0.00    +0.000 H 
ATOM    126  H35 UNL A   1      57.080  17.042   9.997  1.00  0.00    +0.000 H 
ATOM    127  H36 UNL A   1      54.786  18.057   9.485  1.00  0.00    +0.000 H 
ENDROOT
BRANCH   33   32
ATOM    129  H38 UNL A   1      50.473  17.039   9.477  1.00  0.00    +0.000 H 
ATOM    128  H37 UNL A   1      52.058  17.429  11.269  1.00  0.00    +0.000 H 
ATOM    116  H25 UNL A   1      51.358  20.823   7.864  1.00  0.00    +0.000 H 
ATOM    117  H26 UNL A   1      53.089  21.128   9.539  1.00  0.00    +0.000 H 
ATOM     90  C64 UNL A   1      51.923  18.144  10.538  1.00  0.00    +0.000 C 
ATOM     91  C65 UNL A   1      50.982  17.935   9.530  1.00  0.00    +0.000 C 
ATOM     29  C22 UNL A   1      50.731  18.942   8.594  1.00  0.00    +0.000 C 
ATOM     30  C23 UNL A   1      51.511  20.102   8.587  1.00  0.00    +0.000 C 
ATOM     31  C24 UNL A   1      52.497  20.283   9.559  1.00  0.00    +0.000 C 
ATOM     32  C25 UNL A   1      52.688  19.321  10.564  1.00  0.00    +0.000 C 
BRANCH   29   27
ATOM     27  C21 UNL A   1      49.652  18.803   7.588  1.00  0.00    +0.000 C 
ATOM     28  O2  UNL A   1      49.299  17.682   7.230  1.00  0.00    +0.000 O 
BRANCH   27   26
ATOM     26  N3  UNL A   1      49.071  19.918   7.038  1.00  0.00    +0.000 N 
ATOM    115  H24 UNL A   1      48.919  20.663   7.663  1.00  0.00    +0.000 H 
BRANCH   26   25
ATOM     25  C20 UNL A   1      48.647  20.160   5.668  1.00  0.00    +0.000 C 
ATOM    114  H23 UNL A   1      49.190  19.486   5.039  1.00  0.00    +0.000 H 
ATOM    113  H22 UNL A   1      48.850  21.183   5.424  1.00  0.00    +0.000 H 
BRANCH   25   24
ATOM    112  H21 UNL A   1      46.727  20.833   5.181  1.00  0.00    +0.000 H 
ATOM    111  H20 UNL A   1      46.764  19.483   6.358  1.00  0.00    +0.000 H 
ATOM     24  C19 UNL A   1      47.161  19.893   5.452  1.00  0.00    +0.000 C 
BRANCH   24   23
ATOM    109  H18 UNL A   1      47.510  19.114   3.511  1.00  0.00    +0.000 H 
ATOM    110  H19 UNL A   1      46.906  17.944   4.727  1.00  0.00    +0.000 H 
ATOM     23  C18 UNL A   1      46.827  18.928   4.313  1.00  0.00    +0.000 C 
BRANCH   23   22
ATOM    107  H16 UNL A   1      45.416  18.666   2.750  1.00  0.00    +0.000 H 
ATOM    108  H17 UNL A   1      44.786  18.468   4.417  1.00  0.00    +0.000 H 
ATOM     22  C17 UNL A   1      45.405  19.036   3.754  1.00  0.00    +0.000 C 
BRANCH   22   21
ATOM    105  H14 UNL A   1      43.834  20.406   4.170  1.00  0.00    +0.000 H 
ATOM    106  H15 UNL A   1      45.490  21.073   4.270  1.00  0.00    +0.000 H 
ATOM     21  C16 UNL A   1      44.808  20.449   3.730  1.00  0.00    +0.000 C 
BRANCH   21   20
ATOM     20  C15 UNL A   1      44.672  21.066   2.338  1.00  0.00    +0.000 C 
ATOM    103  H12 UNL A   1      45.100  22.046   2.347  1.00  0.00    +0.000 H 
ATOM    104  H13 UNL A   1      45.183  20.436   1.639  1.00  0.00    +0.000 H 
BRANCH   20   19
ATOM     19  N2  UNL A   1      43.284  21.159   1.938  1.00  0.00    +0.000 N 
ATOM    102  H11 UNL A   1      42.722  21.852   2.354  1.00  0.00    +0.000 H 
BRANCH   19    2
ATOM      1  O1  UNL A   1      43.317  19.409   0.450  1.00  0.00    +0.000 O 
ATOM      2  C1  UNL A   1      42.714  20.326   1.001  1.00  0.00    +0.000 C 
BRANCH    2    3
ATOM      3  C2  UNL A   1      41.262  20.638   0.679  1.00  0.00    +0.000 C 
ATOM     92  H1  UNL A   1      41.030  20.231  -0.283  1.00  0.00    +0.000 H 
ATOM     93  H2  UNL A   1      41.147  21.701   0.696  1.00  0.00    +0.000 H 
BRANCH    3    4
ATOM     97  H6  UNL A   1      37.182  20.291   2.901  1.00  0.00    +0.000 H 
ATOM      4  C3  UNL A   1      40.301  20.057   1.696  1.00  0.00    +0.000 C 
ATOM      5  C4  UNL A   1      40.731  18.971   2.482  1.00  0.00    +0.000 C 
ATOM      6  C5  UNL A   1      39.873  18.375   3.401  1.00  0.00    +0.000 C 
ATOM      7  C6  UNL A   1      38.578  18.856   3.546  1.00  0.00    +0.000 C 
ATOM      8  C7  UNL A   1      38.144  19.939   2.778  1.00  0.00    +0.000 C 
ATOM      9  C8  UNL A   1      38.987  20.560   1.843  1.00  0.00    +0.000 C 
ATOM     94  H3  UNL A   1      41.694  18.614   2.375  1.00  0.00    +0.000 H 
ATOM     95  H4  UNL A   1      40.198  17.580   3.973  1.00  0.00    +0.000 H 
ATOM     96  H5  UNL A   1      37.936  18.412   4.220  1.00  0.00    +0.000 H 
BRANCH    9   10
ATOM     10  N1  UNL A   1      38.582  21.703   1.107  1.00  0.00    +0.000 N 
ATOM     98  H7  UNL A   1      39.121  22.516   1.243  1.00  0.00    +0.000 H 
BRANCH   10   11
ATOM     99  H8  UNL A   1      36.924  21.962  -3.132  1.00  0.00    +0.000 H 
ATOM    100  H9  UNL A   1      34.618  21.966  -2.378  1.00  0.00    +0.000 H 
ATOM    101  H10 UNL A   1      34.127  21.913  -0.005  1.00  0.00    +0.000 H 
ATOM     11  C9  UNL A   1      37.494  21.825   0.198  1.00  0.00    +0.000 C 
ATOM     12  C10 UNL A   1      37.750  21.867  -1.189  1.00  0.00    +0.000 C 
ATOM     13 Cl1  UNL A   1      39.374  21.838  -1.791  1.00  0.00    +0.000 Cl
ATOM     14  C11 UNL A   1      36.711  21.925  -2.124  1.00  0.00    +0.000 C 
ATOM     15  C12 UNL A   1      35.388  21.935  -1.692  1.00  0.00    +0.000 C 
ATOM     16  C13 UNL A   1      35.107  21.901  -0.327  1.00  0.00    +0.000 C 
ATOM     17  C14 UNL A   1      36.147  21.852   0.611  1.00  0.00    +0.000 C 
ATOM     18 Cl2  UNL A   1      35.694  21.910   2.282  1.00  0.00    +0.000 Cl
ENDBRANCH   10   11
ENDBRANCH    9   10
ENDBRANCH    3    4
ENDBRANCH    2    3
ENDBRANCH   19    2
ENDBRANCH   20   19
ENDBRANCH   21   20
ENDBRANCH   22   21
ENDBRANCH   23   22
ENDBRANCH   24   23
ENDBRANCH   25   24
ENDBRANCH   26   25
ENDBRANCH   27   26
ENDBRANCH   29   27
ENDBRANCH   33   32
BRANCH   37   38
ATOM     38  C30 UNL A   1      59.186  17.058  11.566  1.00  0.00    +0.000 C 
ATOM     39  C31 UNL A   1      59.229  15.664  11.722  1.00  0.00    +0.000 C 
ATOM     40  F1  UNL A   1      58.469  15.066  12.653  1.00  0.00    +0.000 F 
ATOM     41  C32 UNL A   1      60.082  14.882  10.949  1.00  0.00    +0.000 C 
ATOM     42  F2  UNL A   1      60.141  13.558  11.150  1.00  0.00    +0.000 F 
ATOM     43  C33 UNL A   1      60.883  15.472   9.983  1.00  0.00    +0.000 C 
ATOM     44  F3  UNL A   1      61.701  14.717   9.237  1.00  0.00    +0.000 F 
ATOM     45  C34 UNL A   1      60.841  16.845   9.795  1.00  0.00    +0.000 C 
ATOM     46  F4  UNL A   1      61.605  17.415   8.853  1.00  0.00    +0.000 F 
ATOM     47  C35 UNL A   1      60.009  17.634  10.586  1.00  0.00    +0.000 C 
ATOM     48  F5  UNL A   1      60.002  18.961  10.391  1.00  0.00    +0.000 F 
ENDBRANCH   37   38
BRANCH   54   55
ATOM     65  F10 UNL A   1      59.662  22.694  17.160  1.00  0.00    +0.000 F 
ATOM     55  C41 UNL A   1      59.258  20.474  17.915  1.00  0.00    +0.000 C 
ATOM     56  C42 UNL A   1      59.559  19.476  18.854  1.00  0.00    +0.000 C 
ATOM     57  F6  UNL A   1      58.945  18.285  18.791  1.00  0.00    +0.000 F 
ATOM     58  C43 UNL A   1      60.465  19.713  19.883  1.00  0.00    +0.000 C 
ATOM     59  F7  UNL A   1      60.706  18.760  20.793  1.00  0.00    +0.000 F 
ATOM     60  C44 UNL A   1      61.109  20.937  19.976  1.00  0.00    +0.000 C 
ATOM     61  F8  UNL A   1      61.986  21.161  20.965  1.00  0.00    +0.000 F 
ATOM     62  C45 UNL A   1      60.838  21.933  19.050  1.00  0.00    +0.000 C 
ATOM     63  F9  UNL A   1      61.468  23.114  19.132  1.00  0.00    +0.000 F 
ATOM     64  C46 UNL A   1      59.912  21.709  18.035  1.00  0.00    +0.000 C 
ENDBRANCH   54   55
BRANCH   69   70
ATOM     70  C50 UNL A   1      52.669  22.458  16.846  1.00  0.00    +0.000 C 
ATOM     71  C51 UNL A   1      52.494  23.829  16.615  1.00  0.00    +0.000 C 
ATOM     72  F11 UNL A   1      53.223  24.448  15.674  1.00  0.00    +0.000 F 
ATOM     73  C52 UNL A   1      51.601  24.579  17.378  1.00  0.00    +0.000 C 
ATOM     74  F12 UNL A   1      51.483  25.896  17.165  1.00  0.00    +0.000 F 
ATOM     75  C53 UNL A   1      50.845  23.966  18.366  1.00  0.00    +0.000 C 
ATOM     76  F13 UNL A   1      49.983  24.686  19.096  1.00  0.00    +0.000 F 
ATOM     77  C54 UNL A   1      50.989  22.607  18.600  1.00  0.00    +0.000 C 
ATOM     78  F14 UNL A   1      50.252  22.009  19.546  1.00  0.00    +0.000 F 
ATOM     79  C55 UNL A   1      51.901  21.862  17.856  1.00  0.00    +0.000 C 
ATOM     80  F15 UNL A   1      52.030  20.551  18.113  1.00  0.00    +0.000 F 
ENDBRANCH   69   70
TORSDOF 18
ENDMDL
MODEL 6
REMARK VINA RESULT:     -11.3     20.187     25.310
ROOT
ATOM     33  C26 UNL A   1      40.684  27.836  28.311  1.00  0.00    +0.000 C 
ATOM     34  C27 UNL A   1      42.129  28.081  28.640  1.00  0.00    +0.000 C 
ATOM     35  N4  UNL A   1      42.688  29.134  29.184  1.00  0.00    +0.000 N 
ATOM     36  C28 UNL A   1      44.034  28.824  29.309  1.00  0.00    +0.000 C 
ATOM     37  C29 UNL A   1      45.043  29.605  29.765  1.00  0.00    +0.000 C 
ATOM     49  C36 UNL A   1      44.879  30.963  30.217  1.00  0.00    +0.000 C 
ATOM     50  C37 UNL A   1      45.850  31.856  30.636  1.00  0.00    +0.000 C 
ATOM     51  C38 UNL A   1      45.216  33.043  31.020  1.00  0.00    +0.000 C 
ATOM     52  C39 UNL A   1      43.856  32.904  30.798  1.00  0.00    +0.000 C 
ATOM     53  N5  UNL A   1      43.662  31.622  30.309  1.00  0.00    +0.000 N 
ATOM     54  C40 UNL A   1      42.808  33.867  31.019  1.00  0.00    +0.000 C 
ATOM     66  C47 UNL A   1      41.493  33.656  30.762  1.00  0.00    +0.000 C 
ATOM     67  N6  UNL A   1      40.876  32.526  30.246  1.00  0.00    +0.000 N 
ATOM     68  C48 UNL A   1      39.598  32.805  30.192  1.00  0.00    +0.000 C 
ATOM     69  C49 UNL A   1      38.460  31.959  29.690  1.00  0.00    +0.000 C 
ATOM     81  C56 UNL A   1      38.717  30.732  29.199  1.00  0.00    +0.000 C 
ATOM     82  C57 UNL A   1      37.718  29.803  28.678  1.00  0.00    +0.000 C 
ATOM     83  C58 UNL A   1      38.327  28.661  28.321  1.00  0.00    +0.000 C 
ATOM     84  C59 UNL A   1      39.765  28.791  28.556  1.00  0.00    +0.000 C 
ATOM     85  N7  UNL A   1      39.905  30.055  29.072  1.00  0.00    +0.000 N 
ATOM     86  C60 UNL A   1      39.255  34.142  30.699  1.00  0.00    +0.000 C 
ATOM     87  C61 UNL A   1      40.450  34.632  30.997  1.00  0.00    +0.000 C 
ATOM     88  C62 UNL A   1      44.203  27.470  28.828  1.00  0.00    +0.000 C 
ATOM     89  C63 UNL A   1      43.067  26.989  28.343  1.00  0.00    +0.000 C 
ATOM    118  H27 UNL A   1      46.866  31.678  30.661  1.00  0.00    +0.000 H 
ATOM    119  H28 UNL A   1      45.683  33.879  31.403  1.00  0.00    +0.000 H 
ATOM    120  H29 UNL A   1      42.791  31.236  30.063  1.00  0.00    +0.000 H 
ATOM    121  H30 UNL A   1      36.707  29.994  28.597  1.00  0.00    +0.000 H 
ATOM    122  H31 UNL A   1      37.856  27.825  27.941  1.00  0.00    +0.000 H 
ATOM    123  H32 UNL A   1      40.774  30.441  29.325  1.00  0.00    +0.000 H 
ATOM    124  H33 UNL A   1      38.326  34.583  30.799  1.00  0.00    +0.000 H 
ATOM    125  H34 UNL A   1      40.615  35.587  31.351  1.00  0.00    +0.000 H 
ATOM    126  H35 UNL A   1      45.093  26.946  28.857  1.00  0.00    +0.000 H 
ATOM    127  H36 UNL A   1      42.888  26.085  27.880  1.00  0.00    +0.000 H 
ENDROOT
BRANCH   33   32
ATOM    129  H38 UNL A   1      38.623  23.742  28.755  1.00  0.00    +0.000 H 
ATOM    128  H37 UNL A   1      39.305  25.919  29.577  1.00  0.00    +0.000 H 
ATOM    116  H25 UNL A   1      40.257  24.648  24.985  1.00  0.00    +0.000 H 
ATOM    117  H26 UNL A   1      41.118  26.741  25.866  1.00  0.00    +0.000 H 
ATOM     90  C64 UNL A   1      39.523  25.644  28.607  1.00  0.00    +0.000 C 
ATOM     91  C65 UNL A   1      39.095  24.409  28.123  1.00  0.00    +0.000 C 
ATOM     29  C22 UNL A   1      39.306  24.074  26.783  1.00  0.00    +0.000 C 
ATOM     30  C23 UNL A   1      40.059  24.919  25.961  1.00  0.00    +0.000 C 
ATOM     31  C24 UNL A   1      40.542  26.129  26.464  1.00  0.00    +0.000 C 
ATOM     32  C25 UNL A   1      40.249  26.518  27.781  1.00  0.00    +0.000 C 
BRANCH   29   27
ATOM     27  C21 UNL A   1      38.756  22.826  26.206  1.00  0.00    +0.000 C 
ATOM     28  O2  UNL A   1      39.498  21.865  26.023  1.00  0.00    +0.000 O 
BRANCH   27   26
ATOM     26  N3  UNL A   1      37.432  22.752  25.853  1.00  0.00    +0.000 N 
ATOM    115  H24 UNL A   1      37.005  21.878  26.005  1.00  0.00    +0.000 H 
BRANCH   26   25
ATOM     25  C20 UNL A   1      36.566  23.775  25.287  1.00  0.00    +0.000 C 
ATOM    114  H23 UNL A   1      37.153  24.662  25.165  1.00  0.00    +0.000 H 
ATOM    113  H22 UNL A   1      35.742  23.932  25.952  1.00  0.00    +0.000 H 
BRANCH   25   24
ATOM    112  H21 UNL A   1      35.997  22.325  23.891  1.00  0.00    +0.000 H 
ATOM    111  H20 UNL A   1      36.660  23.826  23.173  1.00  0.00    +0.000 H 
ATOM     24  C19 UNL A   1      36.020  23.394  23.914  1.00  0.00    +0.000 C 
BRANCH   24   23
ATOM    109  H18 UNL A   1      34.287  24.507  24.418  1.00  0.00    +0.000 H 
ATOM    110  H19 UNL A   1      34.618  24.324  22.666  1.00  0.00    +0.000 H 
ATOM     23  C18 UNL A   1      34.589  23.853  23.627  1.00  0.00    +0.000 C 
BRANCH   23   22
ATOM    107  H16 UNL A   1      32.643  23.164  23.141  1.00  0.00    +0.000 H 
ATOM    108  H17 UNL A   1      33.978  21.999  22.870  1.00  0.00    +0.000 H 
ATOM     22  C17 UNL A   1      33.548  22.735  23.517  1.00  0.00    +0.000 C 
BRANCH   22   21
ATOM    105  H14 UNL A   1      33.140  20.960  24.612  1.00  0.00    +0.000 H 
ATOM    106  H15 UNL A   1      34.010  22.239  25.507  1.00  0.00    +0.000 H 
ATOM     21  C16 UNL A   1      33.219  22.005  24.825  1.00  0.00    +0.000 C 
BRANCH   21   20
ATOM     20  C15 UNL A   1      31.923  22.450  25.501  1.00  0.00    +0.000 C 
ATOM    103  H12 UNL A   1      31.290  21.599  25.638  1.00  0.00    +0.000 H 
ATOM    104  H13 UNL A   1      32.170  22.894  26.443  1.00  0.00    +0.000 H 
BRANCH   20   19
ATOM     19  N2  UNL A   1      31.224  23.434  24.702  1.00  0.00    +0.000 N 
ATOM    102  H11 UNL A   1      31.060  23.236  23.751  1.00  0.00    +0.000 H 
BRANCH   19    2
ATOM      1  O1  UNL A   1      30.779  24.910  26.405  1.00  0.00    +0.000 O 
ATOM      2  C1  UNL A   1      30.777  24.634  25.208  1.00  0.00    +0.000 C 
BRANCH    2    3
ATOM      3  C2  UNL A   1      30.255  25.606  24.163  1.00  0.00    +0.000 C 
ATOM     92  H1  UNL A   1      29.742  26.403  24.662  1.00  0.00    +0.000 H 
ATOM     93  H2  UNL A   1      29.603  25.062  23.512  1.00  0.00    +0.000 H 
BRANCH    3    4
ATOM     97  H6  UNL A   1      33.641  28.650  23.178  1.00  0.00    +0.000 H 
ATOM      4  C3  UNL A   1      31.360  26.198  23.313  1.00  0.00    +0.000 C 
ATOM      5  C4  UNL A   1      31.696  25.555  22.106  1.00  0.00    +0.000 C 
ATOM      6  C5  UNL A   1      32.731  26.034  21.309  1.00  0.00    +0.000 C 
ATOM      7  C6  UNL A   1      33.441  27.159  21.707  1.00  0.00    +0.000 C 
ATOM      8  C7  UNL A   1      33.111  27.811  22.898  1.00  0.00    +0.000 C 
ATOM      9  C8  UNL A   1      32.071  27.350  23.722  1.00  0.00    +0.000 C 
ATOM     94  H3  UNL A   1      31.167  24.720  21.809  1.00  0.00    +0.000 H 
ATOM     95  H4  UNL A   1      32.969  25.557  20.426  1.00  0.00    +0.000 H 
ATOM     96  H5  UNL A   1      34.215  27.514  21.124  1.00  0.00    +0.000 H 
BRANCH    9   10
ATOM     10  N1  UNL A   1      31.680  28.042  24.898  1.00  0.00    +0.000 N 
ATOM     98  H7  UNL A   1      30.719  28.021  25.108  1.00  0.00    +0.000 H 
BRANCH   10   11
ATOM     99  H8  UNL A   1      35.258  28.302  27.710  1.00  0.00    +0.000 H 
ATOM    100  H9  UNL A   1      34.913  30.662  28.155  1.00  0.00    +0.000 H 
ATOM    101  H10 UNL A   1      33.033  31.815  27.147  1.00  0.00    +0.000 H 
ATOM     11  C9  UNL A   1      32.501  28.763  25.809  1.00  0.00    +0.000 C 
ATOM     12  C10 UNL A   1      33.597  28.116  26.417  1.00  0.00    +0.000 C 
ATOM     13 Cl1  UNL A   1      33.913  26.439  26.117  1.00  0.00    +0.000 Cl
ATOM     14  C11 UNL A   1      34.468  28.799  27.273  1.00  0.00    +0.000 C 
ATOM     15  C12 UNL A   1      34.266  30.151  27.534  1.00  0.00    +0.000 C 
ATOM     16  C13 UNL A   1      33.186  30.813  26.951  1.00  0.00    +0.000 C 
ATOM     17  C14 UNL A   1      32.308  30.128  26.101  1.00  0.00    +0.000 C 
ATOM     18 Cl2  UNL A   1      30.946  31.017  25.505  1.00  0.00    +0.000 Cl
ENDBRANCH   10   11
ENDBRANCH    9   10
ENDBRANCH    3    4
ENDBRANCH    2    3
ENDBRANCH   19    2
ENDBRANCH   20   19
ENDBRANCH   21   20
ENDBRANCH   22   21
ENDBRANCH   23   22
ENDBRANCH   24   23
ENDBRANCH   25   24
ENDBRANCH   26   25
ENDBRANCH   27   26
ENDBRANCH   29   27
ENDBRANCH   33   32
BRANCH   37   38
ATOM     38  C30 UNL A   1      46.421  29.009  29.794  1.00  0.00    +0.000 C 
ATOM     39  C31 UNL A   1      46.909  28.344  30.928  1.00  0.00    +0.000 C 
ATOM     40  F1  UNL A   1      46.159  28.262  32.038  1.00  0.00    +0.000 F 
ATOM     41  C32 UNL A   1      48.187  27.792  30.941  1.00  0.00    +0.000 C 
ATOM     42  F2  UNL A   1      48.650  27.204  32.052  1.00  0.00    +0.000 F 
ATOM     43  C33 UNL A   1      48.988  27.864  29.811  1.00  0.00    +0.000 C 
ATOM     44  F3  UNL A   1      50.216  27.330  29.823  1.00  0.00    +0.000 F 
ATOM     45  C34 UNL A   1      48.517  28.498  28.670  1.00  0.00    +0.000 C 
ATOM     46  F4  UNL A   1      49.285  28.558  27.574  1.00  0.00    +0.000 F 
ATOM     47  C35 UNL A   1      47.250  29.075  28.664  1.00  0.00    +0.000 C 
ATOM     48  F5  UNL A   1      46.829  29.695  27.551  1.00  0.00    +0.000 F 
ENDBRANCH   37   38
BRANCH   54   55
ATOM     65  F10 UNL A   1      42.779  34.515  33.785  1.00  0.00    +0.000 F 
ATOM     55  C41 UNL A   1      43.197  35.215  31.549  1.00  0.00    +0.000 C 
ATOM     56  C42 UNL A   1      43.584  36.258  30.694  1.00  0.00    +0.000 C 
ATOM     57  F6  UNL A   1      43.664  36.050  29.371  1.00  0.00    +0.000 F 
ATOM     58  C43 UNL A   1      43.927  37.508  31.201  1.00  0.00    +0.000 C 
ATOM     59  F7  UNL A   1      44.334  38.476  30.370  1.00  0.00    +0.000 F 
ATOM     60  C44 UNL A   1      43.860  37.749  32.565  1.00  0.00    +0.000 C 
ATOM     61  F8  UNL A   1      44.185  38.955  33.051  1.00  0.00    +0.000 F 
ATOM     62  C45 UNL A   1      43.465  36.737  33.427  1.00  0.00    +0.000 C 
ATOM     63  F9  UNL A   1      43.390  36.971  34.745  1.00  0.00    +0.000 F 
ATOM     64  C46 UNL A   1      43.147  35.478  32.926  1.00  0.00    +0.000 C 
ENDBRANCH   54   55
BRANCH   69   70
ATOM     70  C50 UNL A   1      37.067  32.477  29.701  1.00  0.00    +0.000 C 
ATOM     71  C51 UNL A   1      36.548  33.156  28.591  1.00  0.00    +0.000 C 
ATOM     72  F11 UNL A   1      37.318  33.363  27.512  1.00  0.00    +0.000 F 
ATOM     73  C52 UNL A   1      35.250  33.663  28.600  1.00  0.00    +0.000 C 
ATOM     74  F12 UNL A   1      34.792  34.346  27.542  1.00  0.00    +0.000 F 
ATOM     75  C53 UNL A   1      34.438  33.474  29.708  1.00  0.00    +0.000 C 
ATOM     76  F13 UNL A   1      33.188  33.958  29.715  1.00  0.00    +0.000 F 
ATOM     77  C54 UNL A   1      34.925  32.790  30.811  1.00  0.00    +0.000 C 
ATOM     78  F14 UNL A   1      34.139  32.596  31.879  1.00  0.00    +0.000 F 
ATOM     79  C55 UNL A   1      36.231  32.306  30.813  1.00  0.00    +0.000 C 
ATOM     80  F15 UNL A   1      36.681  31.659  31.899  1.00  0.00    +0.000 F 
ENDBRANCH   69   70
TORSDOF 18
ENDMDL
MODEL 7
REMARK VINA RESULT:     -11.2     40.587     47.812
ROOT
ATOM     33  C26 UNL A   1      25.722  34.615  45.983  1.00  0.00    +0.000 C 
ATOM     34  C27 UNL A   1      25.421  35.746  46.924  1.00  0.00    +0.000 C 
ATOM     35  N4  UNL A   1      26.145  36.798  47.215  1.00  0.00    +0.000 N 
ATOM     36  C28 UNL A   1      25.384  37.547  48.102  1.00  0.00    +0.000 C 
ATOM     37  C29 UNL A   1      25.715  38.697  48.737  1.00  0.00    +0.000 C 
ATOM     49  C36 UNL A   1      26.980  39.370  48.594  1.00  0.00    +0.000 C 
ATOM     50  C37 UNL A   1      27.432  40.505  49.245  1.00  0.00    +0.000 C 
ATOM     51  C38 UNL A   1      28.706  40.812  48.755  1.00  0.00    +0.000 C 
ATOM     52  C39 UNL A   1      29.065  39.844  47.832  1.00  0.00    +0.000 C 
ATOM     53  N5  UNL A   1      27.996  38.967  47.740  1.00  0.00    +0.000 N 
ATOM     54  C40 UNL A   1      30.291  39.727  47.085  1.00  0.00    +0.000 C 
ATOM     66  C47 UNL A   1      30.572  38.735  46.203  1.00  0.00    +0.000 C 
ATOM     67  N6  UNL A   1      29.791  37.648  45.836  1.00  0.00    +0.000 N 
ATOM     68  C48 UNL A   1      30.491  36.983  44.952  1.00  0.00    +0.000 C 
ATOM     69  C49 UNL A   1      30.150  35.705  44.235  1.00  0.00    +0.000 C 
ATOM     81  C56 UNL A   1      28.979  35.094  44.497  1.00  0.00    +0.000 C 
ATOM     82  C57 UNL A   1      28.516  33.854  43.881  1.00  0.00    +0.000 C 
ATOM     83  C58 UNL A   1      27.288  33.567  44.345  1.00  0.00    +0.000 C 
ATOM     84  C59 UNL A   1      26.893  34.586  45.318  1.00  0.00    +0.000 C 
ATOM     85  N7  UNL A   1      27.961  35.448  45.348  1.00  0.00    +0.000 N 
ATOM     86  C60 UNL A   1      31.791  37.593  44.635  1.00  0.00    +0.000 C 
ATOM     87  C61 UNL A   1      31.806  38.635  45.454  1.00  0.00    +0.000 C 
ATOM     88  C62 UNL A   1      24.124  36.856  48.266  1.00  0.00    +0.000 C 
ATOM     89  C63 UNL A   1      24.121  35.704  47.610  1.00  0.00    +0.000 C 
ATOM    118  H27 UNL A   1      26.919  41.034  49.967  1.00  0.00    +0.000 H 
ATOM    119  H28 UNL A   1      29.281  41.622  49.034  1.00  0.00    +0.000 H 
ATOM    120  H29 UNL A   1      27.962  38.176  47.156  1.00  0.00    +0.000 H 
ATOM    121  H30 UNL A   1      29.046  33.288  43.200  1.00  0.00    +0.000 H 
ATOM    122  H31 UNL A   1      26.716  32.757  44.061  1.00  0.00    +0.000 H 
ATOM    123  H32 UNL A   1      27.995  36.244  45.926  1.00  0.00    +0.000 H 
ATOM    124  H33 UNL A   1      32.504  37.289  43.953  1.00  0.00    +0.000 H 
ATOM    125  H34 UNL A   1      32.597  39.292  45.544  1.00  0.00    +0.000 H 
ATOM    126  H35 UNL A   1      23.331  37.212  48.823  1.00  0.00    +0.000 H 
ATOM    127  H36 UNL A   1      23.396  34.970  47.586  1.00  0.00    +0.000 H 
ENDROOT
BRANCH   33   32
ATOM    129  H38 UNL A   1      23.751  30.548  46.864  1.00  0.00    +0.000 H 
ATOM    128  H37 UNL A   1      25.368  32.303  47.290  1.00  0.00    +0.000 H 
ATOM    116  H25 UNL A   1      22.062  32.848  43.772  1.00  0.00    +0.000 H 
ATOM    117  H26 UNL A   1      23.806  34.513  44.063  1.00  0.00    +0.000 H 
ATOM     90  C64 UNL A   1      24.678  32.413  46.532  1.00  0.00    +0.000 C 
ATOM     91  C65 UNL A   1      23.723  31.421  46.314  1.00  0.00    +0.000 C 
ATOM     29  C22 UNL A   1      22.729  31.611  45.350  1.00  0.00    +0.000 C 
ATOM     30  C23 UNL A   1      22.768  32.733  44.517  1.00  0.00    +0.000 C 
ATOM     31  C24 UNL A   1      23.763  33.697  44.694  1.00  0.00    +0.000 C 
ATOM     32  C25 UNL A   1      24.706  33.562  45.725  1.00  0.00    +0.000 C 
BRANCH   29   27
ATOM     27  C21 UNL A   1      21.628  30.636  45.179  1.00  0.00    +0.000 C 
ATOM     28  O2  UNL A   1      21.889  29.440  45.076  1.00  0.00    +0.000 O 
BRANCH   27   26
ATOM     26  N3  UNL A   1      20.327  31.066  45.109  1.00  0.00    +0.000 N 
ATOM    115  H24 UNL A   1      19.946  31.394  45.955  1.00  0.00    +0.000 H 
BRANCH   26   25
ATOM     25  C20 UNL A   1      19.426  31.108  43.967  1.00  0.00    +0.000 C 
ATOM    114  H23 UNL A   1      19.876  30.537  43.181  1.00  0.00    +0.000 H 
ATOM    113  H22 UNL A   1      19.282  32.129  43.683  1.00  0.00    +0.000 H 
BRANCH   25   24
ATOM    112  H21 UNL A   1      17.571  31.162  44.931  1.00  0.00    +0.000 H 
ATOM    111  H20 UNL A   1      18.229  29.514  44.680  1.00  0.00    +0.000 H 
ATOM     24  C19 UNL A   1      18.065  30.487  44.263  1.00  0.00    +0.000 C 
BRANCH   24   23
ATOM    109  H18 UNL A   1      17.716  30.497  42.172  1.00  0.00    +0.000 H 
ATOM    110  H19 UNL A   1      16.727  29.346  43.125  1.00  0.00    +0.000 H 
ATOM     23  C18 UNL A   1      17.138  30.332  43.056  1.00  0.00    +0.000 C 
BRANCH   23   22
ATOM    107  H16 UNL A   1      16.078  31.958  42.200  1.00  0.00    +0.000 H 
ATOM    108  H17 UNL A   1      15.073  30.664  42.927  1.00  0.00    +0.000 H 
ATOM     22  C17 UNL A   1      15.939  31.286  43.020  1.00  0.00    +0.000 C 
BRANCH   22   21
ATOM    105  H14 UNL A   1      14.720  31.958  44.626  1.00  0.00    +0.000 H 
ATOM    106  H15 UNL A   1      16.464  31.806  44.989  1.00  0.00    +0.000 H 
ATOM     21  C16 UNL A   1      15.721  32.123  44.287  1.00  0.00    +0.000 C 
BRANCH   21   20
ATOM     20  C15 UNL A   1      15.917  33.628  44.104  1.00  0.00    +0.000 C 
ATOM    103  H12 UNL A   1      15.508  33.921  43.159  1.00  0.00    +0.000 H 
ATOM    104  H13 UNL A   1      15.417  34.133  44.905  1.00  0.00    +0.000 H 
BRANCH   20   19
ATOM     19  N2  UNL A   1      17.319  33.985  44.144  1.00  0.00    +0.000 N 
ATOM    102  H11 UNL A   1      17.927  33.569  43.491  1.00  0.00    +0.000 H 
BRANCH   19    2
ATOM      1  O1  UNL A   1      17.257  35.896  45.416  1.00  0.00    +0.000 O 
ATOM      2  C1  UNL A   1      17.841  34.880  45.050  1.00  0.00    +0.000 C 
BRANCH    2    3
ATOM      3  C2  UNL A   1      19.226  34.523  45.565  1.00  0.00    +0.000 C 
ATOM     92  H1  UNL A   1      19.576  33.660  45.037  1.00  0.00    +0.000 H 
ATOM     93  H2  UNL A   1      19.143  34.337  46.615  1.00  0.00    +0.000 H 
BRANCH    3    4
ATOM     97  H6  UNL A   1      21.781  38.166  46.946  1.00  0.00    +0.000 H 
ATOM      4  C3  UNL A   1      20.226  35.645  45.377  1.00  0.00    +0.000 C 
ATOM      5  C4  UNL A   1      20.854  35.781  44.124  1.00  0.00    +0.000 C 
ATOM      6  C5  UNL A   1      21.811  36.769  43.911  1.00  0.00    +0.000 C 
ATOM      7  C6  UNL A   1      22.149  37.632  44.945  1.00  0.00    +0.000 C 
ATOM      8  C7  UNL A   1      21.526  37.513  46.189  1.00  0.00    +0.000 C 
ATOM      9  C8  UNL A   1      20.557  36.526  46.432  1.00  0.00    +0.000 C 
ATOM     94  H3  UNL A   1      20.602  35.140  43.355  1.00  0.00    +0.000 H 
ATOM     95  H4  UNL A   1      22.265  36.861  42.989  1.00  0.00    +0.000 H 
ATOM     96  H5  UNL A   1      22.864  38.361  44.795  1.00  0.00    +0.000 H 
BRANCH    9   10
ATOM     10  N1  UNL A   1      19.866  36.438  47.669  1.00  0.00    +0.000 N 
ATOM     98  H7  UNL A   1      18.884  36.465  47.615  1.00  0.00    +0.000 H 
BRANCH   10   11
ATOM     99  H8  UNL A   1      20.783  38.155  51.791  1.00  0.00    +0.000 H 
ATOM    100  H9  UNL A   1      21.696  36.062  52.612  1.00  0.00    +0.000 H 
ATOM    101  H10 UNL A   1      21.828  34.144  51.136  1.00  0.00    +0.000 H 
ATOM     11  C9  UNL A   1      20.414  36.318  48.977  1.00  0.00    +0.000 C 
ATOM     12  C10 UNL A   1      20.358  37.420  49.856  1.00  0.00    +0.000 C 
ATOM     13 Cl1  UNL A   1      19.692  38.933  49.337  1.00  0.00    +0.000 Cl
ATOM     14  C11 UNL A   1      20.828  37.333  51.170  1.00  0.00    +0.000 C 
ATOM     15  C12 UNL A   1      21.358  36.135  51.640  1.00  0.00    +0.000 C 
ATOM     16  C13 UNL A   1      21.431  35.032  50.790  1.00  0.00    +0.000 C 
ATOM     17  C14 UNL A   1      20.969  35.121  49.471  1.00  0.00    +0.000 C 
ATOM     18 Cl2  UNL A   1      21.193  33.724  48.470  1.00  0.00    +0.000 Cl
ENDBRANCH   10   11
ENDBRANCH    9   10
ENDBRANCH    3    4
ENDBRANCH    2    3
ENDBRANCH   19    2
ENDBRANCH   20   19
ENDBRANCH   21   20
ENDBRANCH   22   21
ENDBRANCH   23   22
ENDBRANCH   24   23
ENDBRANCH   25   24
ENDBRANCH   26   25
ENDBRANCH   27   26
ENDBRANCH   29   27
ENDBRANCH   33   32
BRANCH   37   38
ATOM     38  C30 UNL A   1      24.689  39.303  49.650  1.00  0.00    +0.000 C 
ATOM     39  C31 UNL A   1      23.725  40.206  49.176  1.00  0.00    +0.000 C 
ATOM     40  F1  UNL A   1      23.728  40.582  47.888  1.00  0.00    +0.000 F 
ATOM     41  C32 UNL A   1      22.776  40.756  50.034  1.00  0.00    +0.000 C 
ATOM     42  F2  UNL A   1      21.897  41.654  49.569  1.00  0.00    +0.000 F 
ATOM     43  C33 UNL A   1      22.751  40.391  51.371  1.00  0.00    +0.000 C 
ATOM     44  F3  UNL A   1      21.835  40.919  52.194  1.00  0.00    +0.000 F 
ATOM     45  C34 UNL A   1      23.679  39.482  51.857  1.00  0.00    +0.000 C 
ATOM     46  F4  UNL A   1      23.648  39.119  53.146  1.00  0.00    +0.000 F 
ATOM     47  C35 UNL A   1      24.647  38.951  51.008  1.00  0.00    +0.000 C 
ATOM     48  F5  UNL A   1      25.542  38.087  51.511  1.00  0.00    +0.000 F 
ENDBRANCH   37   38
BRANCH   54   55
ATOM     65  F10 UNL A   1      30.296  42.253  45.785  1.00  0.00    +0.000 F 
ATOM     55  C41 UNL A   1      31.351  40.763  47.312  1.00  0.00    +0.000 C 
ATOM     56  C42 UNL A   1      32.430  40.534  48.178  1.00  0.00    +0.000 C 
ATOM     57  F6  UNL A   1      32.508  39.386  48.868  1.00  0.00    +0.000 F 
ATOM     58  C43 UNL A   1      33.414  41.501  48.366  1.00  0.00    +0.000 C 
ATOM     59  F7  UNL A   1      34.413  41.277  49.231  1.00  0.00    +0.000 F 
ATOM     60  C44 UNL A   1      33.355  42.699  47.671  1.00  0.00    +0.000 C 
ATOM     61  F8  UNL A   1      34.306  43.626  47.850  1.00  0.00    +0.000 F 
ATOM     62  C45 UNL A   1      32.305  42.941  46.799  1.00  0.00    +0.000 C 
ATOM     63  F9  UNL A   1      32.252  44.094  46.118  1.00  0.00    +0.000 F 
ATOM     64  C46 UNL A   1      31.305  41.988  46.628  1.00  0.00    +0.000 C 
ENDBRANCH   54   55
BRANCH   69   70
ATOM     70  C50 UNL A   1      31.103  35.099  43.269  1.00  0.00    +0.000 C 
ATOM     71  C51 UNL A   1      31.932  34.037  43.655  1.00  0.00    +0.000 C 
ATOM     72  F11 UNL A   1      31.885  33.572  44.912  1.00  0.00    +0.000 F 
ATOM     73  C52 UNL A   1      32.843  33.476  42.762  1.00  0.00    +0.000 C 
ATOM     74  F12 UNL A   1      33.654  32.489  43.168  1.00  0.00    +0.000 F 
ATOM     75  C53 UNL A   1      32.922  33.947  41.461  1.00  0.00    +0.000 C 
ATOM     76  F13 UNL A   1      33.795  33.405  40.601  1.00  0.00    +0.000 F 
ATOM     77  C54 UNL A   1      32.099  34.986  41.053  1.00  0.00    +0.000 C 
ATOM     78  F14 UNL A   1      32.164  35.436  39.792  1.00  0.00    +0.000 F 
ATOM     79  C55 UNL A   1      31.206  35.565  41.952  1.00  0.00    +0.000 C 
ATOM     80  F15 UNL A   1      30.431  36.577  41.534  1.00  0.00    +0.000 F 
ENDBRANCH   69   70
TORSDOF 18
ENDMDL
MODEL 8
REMARK VINA RESULT:     -11.2     36.756     45.691
ROOT
ATOM     33  C26 UNL A   1      12.138  29.082  -1.448  1.00  0.00    +0.000 C 
ATOM     34  C27 UNL A   1      11.378  28.498  -0.291  1.00  0.00    +0.000 C 
ATOM     35  N4  UNL A   1      10.116  28.641   0.029  1.00  0.00    +0.000 N 
ATOM     36  C28 UNL A   1       9.922  27.855   1.156  1.00  0.00    +0.000 C 
ATOM     37  C29 UNL A   1       8.799  27.708   1.900  1.00  0.00    +0.000 C 
ATOM     49  C36 UNL A   1       7.554  28.381   1.635  1.00  0.00    +0.000 C 
ATOM     50  C37 UNL A   1       6.380  28.346   2.369  1.00  0.00    +0.000 C 
ATOM     51  C38 UNL A   1       5.426  29.124   1.704  1.00  0.00    +0.000 C 
ATOM     52  C39 UNL A   1       6.017  29.678   0.581  1.00  0.00    +0.000 C 
ATOM     53  N5  UNL A   1       7.322  29.211   0.548  1.00  0.00    +0.000 N 
ATOM     54  C40 UNL A   1       5.436  30.565  -0.394  1.00  0.00    +0.000 C 
ATOM     66  C47 UNL A   1       6.091  31.076  -1.466  1.00  0.00    +0.000 C 
ATOM     67  N6  UNL A   1       7.410  30.885  -1.855  1.00  0.00    +0.000 N 
ATOM     68  C48 UNL A   1       7.565  31.579  -2.955  1.00  0.00    +0.000 C 
ATOM     69  C49 UNL A   1       8.798  31.761  -3.798  1.00  0.00    +0.000 C 
ATOM     81  C56 UNL A   1       9.946  31.164  -3.424  1.00  0.00    +0.000 C 
ATOM     82  C57 UNL A   1      11.216  31.252  -4.139  1.00  0.00    +0.000 C 
ATOM     83  C58 UNL A   1      12.128  30.496  -3.506  1.00  0.00    +0.000 C 
ATOM     84  C59 UNL A   1      11.515  29.899  -2.319  1.00  0.00    +0.000 C 
ATOM     85  N7  UNL A   1      10.221  30.357  -2.348  1.00  0.00    +0.000 N 
ATOM     86  C60 UNL A   1       6.348  32.268  -3.406  1.00  0.00    +0.000 C 
ATOM     87  C61 UNL A   1       5.491  31.961  -2.442  1.00  0.00    +0.000 C 
ATOM     88  C62 UNL A   1      11.181  27.201   1.439  1.00  0.00    +0.000 C 
ATOM     89  C63 UNL A   1      12.131  27.615   0.612  1.00  0.00    +0.000 C 
ATOM    118  H27 UNL A   1       6.234  27.836   3.253  1.00  0.00    +0.000 H 
ATOM    119  H28 UNL A   1       4.447  29.261   2.001  1.00  0.00    +0.000 H 
ATOM    120  H29 UNL A   1       7.985  29.435  -0.143  1.00  0.00    +0.000 H 
ATOM    121  H30 UNL A   1      11.386  31.806  -4.993  1.00  0.00    +0.000 H 
ATOM    122  H31 UNL A   1      13.105  30.359  -3.807  1.00  0.00    +0.000 H 
ATOM    123  H32 UNL A   1       9.553  30.128  -1.662  1.00  0.00    +0.000 H 
ATOM    124  H33 UNL A   1       6.199  32.842  -4.252  1.00  0.00    +0.000 H 
ATOM    125  H34 UNL A   1       4.520  32.307  -2.395  1.00  0.00    +0.000 H 
ATOM    126  H35 UNL A   1      11.322  26.505   2.188  1.00  0.00    +0.000 H 
ATOM    127  H36 UNL A   1      13.135  27.378   0.604  1.00  0.00    +0.000 H 
ENDROOT
BRANCH   33   32
ATOM    129  H38 UNL A   1      15.403  26.162  -2.868  1.00  0.00    +0.000 H 
ATOM    128  H37 UNL A   1      13.095  26.821  -2.521  1.00  0.00    +0.000 H 
ATOM    116  H25 UNL A   1      16.694  29.885  -1.394  1.00  0.00    +0.000 H 
ATOM    117  H26 UNL A   1      14.397  30.464  -0.857  1.00  0.00    +0.000 H 
ATOM     90  C64 UNL A   1      13.858  27.466  -2.265  1.00  0.00    +0.000 C 
ATOM     91  C65 UNL A   1      15.183  27.102  -2.503  1.00  0.00    +0.000 C 
ATOM     29  C22 UNL A   1      16.213  28.012  -2.245  1.00  0.00    +0.000 C 
ATOM     30  C23 UNL A   1      15.927  29.234  -1.629  1.00  0.00    +0.000 C 
ATOM     31  C24 UNL A   1      14.605  29.572  -1.334  1.00  0.00    +0.000 C 
ATOM     32  C25 UNL A   1      13.556  28.706  -1.680  1.00  0.00    +0.000 C 
BRANCH   29   27
ATOM     27  C21 UNL A   1      17.616  27.704  -2.602  1.00  0.00    +0.000 C 
ATOM     28  O2  UNL A   1      17.937  26.546  -2.855  1.00  0.00    +0.000 O 
BRANCH   27   26
ATOM     26  N3  UNL A   1      18.559  28.701  -2.622  1.00  0.00    +0.000 N 
ATOM    115  H24 UNL A   1      18.225  29.600  -2.400  1.00  0.00    +0.000 H 
BRANCH   26   25
ATOM     25  C20 UNL A   1      19.980  28.626  -2.923  1.00  0.00    +0.000 C 
ATOM    114  H23 UNL A   1      20.291  29.596  -3.254  1.00  0.00    +0.000 H 
ATOM    113  H22 UNL A   1      20.131  27.882  -3.679  1.00  0.00    +0.000 H 
BRANCH   25   24
ATOM    112  H21 UNL A   1      21.438  27.438  -2.007  1.00  0.00    +0.000 H 
ATOM    111  H20 UNL A   1      20.161  28.033  -0.899  1.00  0.00    +0.000 H 
ATOM     24  C19 UNL A   1      20.826  28.263  -1.706  1.00  0.00    +0.000 C 
BRANCH   24   23
ATOM    109  H18 UNL A   1      21.556  29.574  -0.209  1.00  0.00    +0.000 H 
ATOM    110  H19 UNL A   1      22.773  28.956  -1.370  1.00  0.00    +0.000 H 
ATOM     23  C18 UNL A   1      21.788  29.352  -1.229  1.00  0.00    +0.000 C 
BRANCH   23   22
ATOM    107  H16 UNL A   1      22.747  31.023  -2.117  1.00  0.00    +0.000 H 
ATOM    108  H17 UNL A   1      21.277  30.427  -2.952  1.00  0.00    +0.000 H 
ATOM     22  C17 UNL A   1      21.744  30.663  -2.019  1.00  0.00    +0.000 C 
BRANCH   22   21
ATOM    105  H14 UNL A   1      21.471  32.686  -1.428  1.00  0.00    +0.000 H 
ATOM    106  H15 UNL A   1      19.998  31.833  -1.972  1.00  0.00    +0.000 H 
ATOM     21  C16 UNL A   1      20.899  31.783  -1.397  1.00  0.00    +0.000 C 
BRANCH   21   20
ATOM     20  C15 UNL A   1      20.474  31.539   0.050  1.00  0.00    +0.000 C 
ATOM    103  H12 UNL A   1      20.463  30.486   0.238  1.00  0.00    +0.000 H 
ATOM    104  H13 UNL A   1      21.174  32.031   0.694  1.00  0.00    +0.000 H 
BRANCH   20   19
ATOM     19  N2  UNL A   1      19.157  32.079   0.310  1.00  0.00    +0.000 N 
ATOM    102  H11 UNL A   1      18.858  32.858  -0.213  1.00  0.00    +0.000 H 
BRANCH   19    2
ATOM      1  O1  UNL A   1      18.680  30.992   2.276  1.00  0.00    +0.000 O 
ATOM      2  C1  UNL A   1      18.301  31.555   1.252  1.00  0.00    +0.000 C 
BRANCH    2    3
ATOM      3  C2  UNL A   1      16.826  31.709   0.922  1.00  0.00    +0.000 C 
ATOM     92  H1  UNL A   1      16.319  30.804   1.187  1.00  0.00    +0.000 H 
ATOM     93  H2  UNL A   1      16.748  31.914  -0.125  1.00  0.00    +0.000 H 
BRANCH    3    4
ATOM     97  H6  UNL A   1      13.230  34.238   2.465  1.00  0.00    +0.000 H 
ATOM      4  C3  UNL A   1      16.179  32.861   1.663  1.00  0.00    +0.000 C 
ATOM      5  C4  UNL A   1      17.008  33.757   2.364  1.00  0.00    +0.000 C 
ATOM      6  C5  UNL A   1      16.462  34.808   3.095  1.00  0.00    +0.000 C 
ATOM      7  C6  UNL A   1      15.084  34.975   3.134  1.00  0.00    +0.000 C 
ATOM      8  C7  UNL A   1      14.252  34.097   2.435  1.00  0.00    +0.000 C 
ATOM      9  C8  UNL A   1      14.775  33.029   1.689  1.00  0.00    +0.000 C 
ATOM     94  H3  UNL A   1      18.032  33.634   2.335  1.00  0.00    +0.000 H 
ATOM     95  H4  UNL A   1      17.077  35.460   3.605  1.00  0.00    +0.000 H 
ATOM     96  H5  UNL A   1      14.673  35.748   3.681  1.00  0.00    +0.000 H 
BRANCH    9   10
ATOM     10  N1  UNL A   1      13.947  32.172   0.918  1.00  0.00    +0.000 N 
ATOM     98  H7  UNL A   1      14.357  31.326   0.627  1.00  0.00    +0.000 H 
BRANCH   10   11
ATOM     99  H8  UNL A   1       9.463  31.583   1.489  1.00  0.00    +0.000 H 
ATOM    100  H9  UNL A   1       8.896  33.027  -0.377  1.00  0.00    +0.000 H 
ATOM    101  H10 UNL A   1      10.660  34.037  -1.698  1.00  0.00    +0.000 H 
ATOM     11  C9  UNL A   1      12.600  32.381   0.512  1.00  0.00    +0.000 C 
ATOM     12  C10 UNL A   1      11.552  31.800   1.257  1.00  0.00    +0.000 C 
ATOM     13 Cl1  UNL A   1      11.892  30.782   2.617  1.00  0.00    +0.000 Cl
ATOM     14  C11 UNL A   1      10.210  32.026   0.933  1.00  0.00    +0.000 C 
ATOM     15  C12 UNL A   1       9.884  32.848  -0.141  1.00  0.00    +0.000 C 
ATOM     16  C13 UNL A   1      10.900  33.430  -0.898  1.00  0.00    +0.000 C 
ATOM     17  C14 UNL A   1      12.244  33.197  -0.581  1.00  0.00    +0.000 C 
ATOM     18 Cl2  UNL A   1      13.428  33.889  -1.640  1.00  0.00    +0.000 Cl
ENDBRANCH   10   11
ENDBRANCH    9   10
ENDBRANCH    3    4
ENDBRANCH    2    3
ENDBRANCH   19    2
ENDBRANCH   20   19
ENDBRANCH   21   20
ENDBRANCH   22   21
ENDBRANCH   23   22
ENDBRANCH   24   23
ENDBRANCH   25   24
ENDBRANCH   26   25
ENDBRANCH   27   26
ENDBRANCH   29   27
ENDBRANCH   33   32
BRANCH   37   38
ATOM     38  C30 UNL A   1       8.867  26.782   3.080  1.00  0.00    +0.000 C 
ATOM     39  C31 UNL A   1       9.424  27.188   4.302  1.00  0.00    +0.000 C 
ATOM     40  F1  UNL A   1       9.950  28.417   4.428  1.00  0.00    +0.000 F 
ATOM     41  C32 UNL A   1       9.477  26.321   5.389  1.00  0.00    +0.000 C 
ATOM     42  F2  UNL A   1      10.057  26.715   6.531  1.00  0.00    +0.000 F 
ATOM     43  C33 UNL A   1       8.945  25.044   5.288  1.00  0.00    +0.000 C 
ATOM     44  F3  UNL A   1       8.993  24.211   6.336  1.00  0.00    +0.000 F 
ATOM     45  C34 UNL A   1       8.369  24.629   4.097  1.00  0.00    +0.000 C 
ATOM     46  F4  UNL A   1       7.844  23.400   4.001  1.00  0.00    +0.000 F 
ATOM     47  C35 UNL A   1       8.339  25.484   2.998  1.00  0.00    +0.000 C 
ATOM     48  F5  UNL A   1       7.789  25.048   1.855  1.00  0.00    +0.000 F 
ENDBRANCH   37   38
BRANCH   54   55
ATOM     65  F10 UNL A   1       4.678  33.086   0.673  1.00  0.00    +0.000 F 
ATOM     55  C41 UNL A   1       4.007  30.977  -0.202  1.00  0.00    +0.000 C 
ATOM     56  C42 UNL A   1       2.945  30.120  -0.524  1.00  0.00    +0.000 C 
ATOM     57  F6  UNL A   1       3.189  28.917  -1.065  1.00  0.00    +0.000 F 
ATOM     58  C43 UNL A   1       1.624  30.512  -0.324  1.00  0.00    +0.000 C 
ATOM     59  F7  UNL A   1       0.624  29.694  -0.679  1.00  0.00    +0.000 F 
ATOM     60  C44 UNL A   1       1.341  31.752   0.228  1.00  0.00    +0.000 C 
ATOM     61  F8  UNL A   1       0.069  32.125   0.424  1.00  0.00    +0.000 F 
ATOM     62  C45 UNL A   1       2.377  32.610   0.567  1.00  0.00    +0.000 C 
ATOM     63  F9  UNL A   1       2.106  33.805   1.111  1.00  0.00    +0.000 F 
ATOM     64  C46 UNL A   1       3.698  32.232   0.345  1.00  0.00    +0.000 C 
ENDBRANCH   54   55
BRANCH   69   70
ATOM     70  C50 UNL A   1       8.767  32.613  -5.014  1.00  0.00    +0.000 C 
ATOM     71  C51 UNL A   1       8.811  32.039  -6.291  1.00  0.00    +0.000 C 
ATOM     72  F11 UNL A   1       8.903  30.707  -6.424  1.00  0.00    +0.000 F 
ATOM     73  C52 UNL A   1       8.803  32.832  -7.437  1.00  0.00    +0.000 C 
ATOM     74  F12 UNL A   1       8.888  32.259  -8.645  1.00  0.00    +0.000 F 
ATOM     75  C53 UNL A   1       8.722  34.211  -7.327  1.00  0.00    +0.000 C 
ATOM     76  F13 UNL A   1       8.710  34.973  -8.429  1.00  0.00    +0.000 F 
ATOM     77  C54 UNL A   1       8.661  34.800  -6.074  1.00  0.00    +0.000 C 
ATOM     78  F14 UNL A   1       8.570  36.133  -5.964  1.00  0.00    +0.000 F 
ATOM     79  C55 UNL A   1       8.695  34.010  -4.927  1.00  0.00    +0.000 C 
ATOM     80  F15 UNL A   1       8.647  34.608  -3.727  1.00  0.00    +0.000 F 
ENDBRANCH   69   70
TORSDOF 18
ENDMDL
MODEL 9
REMARK VINA RESULT:     -11.2     37.011     45.594
ROOT
ATOM     33  C26 UNL A   1      12.303  29.226  -1.491  1.00  0.00    +0.000 C 
ATOM     34  C27 UNL A   1      11.572  28.565  -0.357  1.00  0.00    +0.000 C 
ATOM     35  N4  UNL A   1      10.303  28.633  -0.036  1.00  0.00    +0.000 N 
ATOM     36  C28 UNL A   1      10.147  27.801   1.063  1.00  0.00    +0.000 C 
ATOM     37  C29 UNL A   1       9.032  27.572   1.798  1.00  0.00    +0.000 C 
ATOM     49  C36 UNL A   1       7.755  28.191   1.553  1.00  0.00    +0.000 C 
ATOM     50  C37 UNL A   1       6.584  28.072   2.281  1.00  0.00    +0.000 C 
ATOM     51  C38 UNL A   1       5.593  28.824   1.641  1.00  0.00    +0.000 C 
ATOM     52  C39 UNL A   1       6.157  29.446   0.540  1.00  0.00    +0.000 C 
ATOM     53  N5  UNL A   1       7.484  29.046   0.495  1.00  0.00    +0.000 N 
ATOM     54  C40 UNL A   1       5.535  30.336  -0.406  1.00  0.00    +0.000 C 
ATOM     66  C47 UNL A   1       6.164  30.917  -1.457  1.00  0.00    +0.000 C 
ATOM     67  N6  UNL A   1       7.491  30.805  -1.848  1.00  0.00    +0.000 N 
ATOM     68  C48 UNL A   1       7.614  31.544  -2.923  1.00  0.00    +0.000 C 
ATOM     69  C49 UNL A   1       8.837  31.816  -3.755  1.00  0.00    +0.000 C 
ATOM     81  C56 UNL A   1      10.013  31.265  -3.399  1.00  0.00    +0.000 C 
ATOM     82  C57 UNL A   1      11.278  31.441  -4.107  1.00  0.00    +0.000 C 
ATOM     83  C58 UNL A   1      12.225  30.709  -3.497  1.00  0.00    +0.000 C 
ATOM     84  C59 UNL A   1      11.641  30.041  -2.334  1.00  0.00    +0.000 C 
ATOM     85  N7  UNL A   1      10.326  30.435  -2.351  1.00  0.00    +0.000 N 
ATOM     86  C60 UNL A   1       6.364  32.187  -3.353  1.00  0.00    +0.000 C 
ATOM     87  C61 UNL A   1       5.522  31.804  -2.404  1.00  0.00    +0.000 C 
ATOM     88  C62 UNL A   1      11.437  27.201   1.327  1.00  0.00    +0.000 C 
ATOM     89  C63 UNL A   1      12.366  27.689   0.518  1.00  0.00    +0.000 C 
ATOM    118  H27 UNL A   1       6.463  27.524   3.147  1.00  0.00    +0.000 H 
ATOM    119  H28 UNL A   1       4.608  28.902   1.939  1.00  0.00    +0.000 H 
ATOM    120  H29 UNL A   1       8.136  29.327  -0.186  1.00  0.00    +0.000 H 
ATOM    121  H30 UNL A   1      11.421  32.032  -4.941  1.00  0.00    +0.000 H 
ATOM    122  H31 UNL A   1      13.209  30.632  -3.800  1.00  0.00    +0.000 H 
ATOM    123  H32 UNL A   1       9.669  30.150  -1.675  1.00  0.00    +0.000 H 
ATOM    124  H33 UNL A   1       6.188  32.782  -4.179  1.00  0.00    +0.000 H 
ATOM    125  H34 UNL A   1       4.535  32.100  -2.347  1.00  0.00    +0.000 H 
ATOM    126  H35 UNL A   1      11.611  26.486   2.051  1.00  0.00    +0.000 H 
ATOM    127  H36 UNL A   1      13.381  27.503   0.504  1.00  0.00    +0.000 H 
ENDROOT
BRANCH   33   32
ATOM    129  H38 UNL A   1      15.711  26.523  -3.001  1.00  0.00    +0.000 H 
ATOM    128  H37 UNL A   1      13.373  27.054  -2.638  1.00  0.00    +0.000 H 
ATOM    116  H25 UNL A   1      16.813  30.252  -1.395  1.00  0.00    +0.000 H 
ATOM    117  H26 UNL A   1      14.490  30.698  -0.845  1.00  0.00    +0.000 H 
ATOM     90  C64 UNL A   1      14.103  27.727  -2.358  1.00  0.00    +0.000 C 
ATOM     91  C65 UNL A   1      15.444  27.438  -2.604  1.00  0.00    +0.000 C 
ATOM     29  C22 UNL A   1      16.427  28.388  -2.312  1.00  0.00    +0.000 C 
ATOM     30  C23 UNL A   1      16.080  29.573  -1.655  1.00  0.00    +0.000 C 
ATOM     31  C24 UNL A   1      14.743  29.835  -1.352  1.00  0.00    +0.000 C 
ATOM     32  C25 UNL A   1      13.738  28.930  -1.731  1.00  0.00    +0.000 C 
BRANCH   29   27
ATOM     27  C21 UNL A   1      17.845  28.164  -2.675  1.00  0.00    +0.000 C 
ATOM     28  O2  UNL A   1      18.496  29.082  -3.166  1.00  0.00    +0.000 O 
BRANCH   27   26
ATOM     26  N3  UNL A   1      18.419  26.931  -2.492  1.00  0.00    +0.000 N 
ATOM    115  H24 UNL A   1      17.871  26.166  -2.779  1.00  0.00    +0.000 H 
BRANCH   26   25
ATOM     25  C20 UNL A   1      19.718  26.589  -1.934  1.00  0.00    +0.000 C 
ATOM    114  H23 UNL A   1      20.429  27.290  -2.320  1.00  0.00    +0.000 H 
ATOM    113  H22 UNL A   1      19.957  25.585  -2.217  1.00  0.00    +0.000 H 
BRANCH   25   24
ATOM    112  H21 UNL A   1      20.456  25.950  -0.084  1.00  0.00    +0.000 H 
ATOM    111  H20 UNL A   1      18.761  26.532  -0.047  1.00  0.00    +0.000 H 
ATOM     24  C19 UNL A   1      19.755  26.690  -0.412  1.00  0.00    +0.000 C 
BRANCH   24   23
ATOM    109  H18 UNL A   1      19.407  28.584   0.474  1.00  0.00    +0.000 H 
ATOM    110  H19 UNL A   1      20.940  27.776   0.930  1.00  0.00    +0.000 H 
ATOM     23  C18 UNL A   1      20.256  28.024   0.145  1.00  0.00    +0.000 C 
BRANCH   23   22
ATOM    107  H16 UNL A   1      22.085  28.736  -0.660  1.00  0.00    +0.000 H 
ATOM    108  H17 UNL A   1      20.722  28.595  -1.816  1.00  0.00    +0.000 H 
ATOM     22  C17 UNL A   1      21.042  28.895  -0.840  1.00  0.00    +0.000 C 
BRANCH   22   21
ATOM    105  H14 UNL A   1      21.635  30.917  -1.117  1.00  0.00    +0.000 H 
ATOM    106  H15 UNL A   1      19.893  30.584  -1.335  1.00  0.00    +0.000 H 
ATOM     21  C16 UNL A   1      20.772  30.402  -0.752  1.00  0.00    +0.000 C 
BRANCH   21   20
ATOM     20  C15 UNL A   1      20.470  30.920   0.653  1.00  0.00    +0.000 C 
ATOM    103  H12 UNL A   1      20.342  30.088   1.313  1.00  0.00    +0.000 H 
ATOM    104  H13 UNL A   1      21.290  31.532   0.970  1.00  0.00    +0.000 H 
BRANCH   20   19
ATOM     19  N2  UNL A   1      19.267  31.726   0.670  1.00  0.00    +0.000 N 
ATOM    102  H11 UNL A   1      19.208  32.493   0.057  1.00  0.00    +0.000 H 
BRANCH   19    2
ATOM      1  O1  UNL A   1      18.316  30.967   2.618  1.00  0.00    +0.000 O 
ATOM      2  C1  UNL A   1      18.201  31.468   1.503  1.00  0.00    +0.000 C 
BRANCH    2    3
ATOM      3  C2  UNL A   1      16.845  31.838   0.926  1.00  0.00    +0.000 C 
ATOM     92  H1  UNL A   1      16.209  30.978   0.968  1.00  0.00    +0.000 H 
ATOM     93  H2  UNL A   1      17.000  32.167  -0.080  1.00  0.00    +0.000 H 
BRANCH    3    4
ATOM     97  H6  UNL A   1      13.209  34.304   2.476  1.00  0.00    +0.000 H 
ATOM      4  C3  UNL A   1      16.179  32.970   1.681  1.00  0.00    +0.000 C 
ATOM      5  C4  UNL A   1      16.992  33.862   2.406  1.00  0.00    +0.000 C 
ATOM      6  C5  UNL A   1      16.428  34.894   3.149  1.00  0.00    +0.000 C 
ATOM      7  C6  UNL A   1      15.048  35.048   3.177  1.00  0.00    +0.000 C 
ATOM      8  C7  UNL A   1      14.232  34.174   2.453  1.00  0.00    +0.000 C 
ATOM      9  C8  UNL A   1      14.774  33.124   1.695  1.00  0.00    +0.000 C 
ATOM     94  H3  UNL A   1      18.018  33.749   2.385  1.00  0.00    +0.000 H 
ATOM     95  H4  UNL A   1      17.032  35.544   3.677  1.00  0.00    +0.000 H 
ATOM     96  H5  UNL A   1      14.624  35.807   3.733  1.00  0.00    +0.000 H 
BRANCH    9   10
ATOM     10  N1  UNL A   1      13.962  32.273   0.901  1.00  0.00    +0.000 N 
ATOM     98  H7  UNL A   1      14.404  31.469   0.542  1.00  0.00    +0.000 H 
BRANCH   10   11
ATOM     99  H8  UNL A   1       9.532  31.511   1.661  1.00  0.00    +0.000 H 
ATOM    100  H9  UNL A   1       8.830  32.947  -0.166  1.00  0.00    +0.000 H 
ATOM    101  H10 UNL A   1      10.496  34.032  -1.553  1.00  0.00    +0.000 H 
ATOM     11  C9  UNL A   1      12.591  32.435   0.555  1.00  0.00    +0.000 C 
ATOM     12  C10 UNL A   1      11.599  31.808   1.340  1.00  0.00    +0.000 C 
ATOM     13 Cl1  UNL A   1      12.036  30.793   2.675  1.00  0.00    +0.000 Cl
ATOM     14  C11 UNL A   1      10.237  31.986   1.076  1.00  0.00    +0.000 C 
ATOM     15  C12 UNL A   1       9.834  32.803   0.025  1.00  0.00    +0.000 C 
ATOM     16  C13 UNL A   1      10.793  33.429  -0.770  1.00  0.00    +0.000 C 
ATOM     17  C14 UNL A   1      12.158  33.245  -0.513  1.00  0.00    +0.000 C 
ATOM     18 Cl2  UNL A   1      13.268  33.988  -1.617  1.00  0.00    +0.000 Cl
ENDBRANCH   10   11
ENDBRANCH    9   10
ENDBRANCH    3    4
ENDBRANCH    2    3
ENDBRANCH   19    2
ENDBRANCH   20   19
ENDBRANCH   21   20
ENDBRANCH   22   21
ENDBRANCH   23   22
ENDBRANCH   24   23
ENDBRANCH   25   24
ENDBRANCH   26   25
ENDBRANCH   27   26
ENDBRANCH   29   27
ENDBRANCH   33   32
BRANCH   37   38
ATOM     38  C30 UNL A   1       9.145  26.610   2.945  1.00  0.00    +0.000 C 
ATOM     39  C31 UNL A   1       8.932  25.234   2.774  1.00  0.00    +0.000 C 
ATOM     40  F1  UNL A   1       8.578  24.750   1.572  1.00  0.00    +0.000 F 
ATOM     41  C32 UNL A   1       9.044  24.352   3.845  1.00  0.00    +0.000 C 
ATOM     42  F2  UNL A   1       8.788  23.049   3.668  1.00  0.00    +0.000 F 
ATOM     43  C33 UNL A   1       9.403  24.822   5.099  1.00  0.00    +0.000 C 
ATOM     44  F3  UNL A   1       9.514  23.972   6.129  1.00  0.00    +0.000 F 
ATOM     45  C34 UNL A   1       9.641  26.176   5.287  1.00  0.00    +0.000 C 
ATOM     46  F4  UNL A   1      10.000  26.630   6.495  1.00  0.00    +0.000 F 
ATOM     47  C35 UNL A   1       9.503  27.064   4.224  1.00  0.00    +0.000 C 
ATOM     48  F5  UNL A   1       9.724  28.369   4.441  1.00  0.00    +0.000 F 
ENDBRANCH   37   38
BRANCH   54   55
ATOM     65  F10 UNL A   1       3.420  28.601  -1.173  1.00  0.00    +0.000 F 
ATOM     55  C41 UNL A   1       4.086  30.670  -0.203  1.00  0.00    +0.000 C 
ATOM     56  C42 UNL A   1       3.685  31.886   0.367  1.00  0.00    +0.000 C 
ATOM     57  F6  UNL A   1       4.603  32.766   0.795  1.00  0.00    +0.000 F 
ATOM     58  C43 UNL A   1       2.336  32.187   0.533  1.00  0.00    +0.000 C 
ATOM     59  F7  UNL A   1       1.975  33.337   1.120  1.00  0.00    +0.000 F 
ATOM     60  C44 UNL A   1       1.365  31.294   0.107  1.00  0.00    +0.000 C 
ATOM     61  F8  UNL A   1       0.067  31.588   0.263  1.00  0.00    +0.000 F 
ATOM     62  C45 UNL A   1       1.739  30.091  -0.474  1.00  0.00    +0.000 C 
ATOM     63  F9  UNL A   1       0.802  29.231  -0.897  1.00  0.00    +0.000 F 
ATOM     64  C46 UNL A   1       3.087  29.776  -0.618  1.00  0.00    +0.000 C 
ENDBRANCH   54   55
BRANCH   69   70
ATOM     70  C50 UNL A   1       8.765  32.708  -4.941  1.00  0.00    +0.000 C 
ATOM     71  C51 UNL A   1       8.652  34.096  -4.785  1.00  0.00    +0.000 C 
ATOM     72  F11 UNL A   1       8.587  34.630  -3.556  1.00  0.00    +0.000 F 
ATOM     73  C52 UNL A   1       8.563  34.939  -5.891  1.00  0.00    +0.000 C 
ATOM     74  F12 UNL A   1       8.414  36.259  -5.715  1.00  0.00    +0.000 F 
ATOM     75  C53 UNL A   1       8.614  34.412  -7.173  1.00  0.00    +0.000 C 
ATOM     76  F13 UNL A   1       8.533  35.223  -8.236  1.00  0.00    +0.000 F 
ATOM     77  C54 UNL A   1       8.742  33.043  -7.350  1.00  0.00    +0.000 C 
ATOM     78  F14 UNL A   1       8.804  32.531  -8.587  1.00  0.00    +0.000 F 
ATOM     79  C55 UNL A   1       8.805  32.197  -6.245  1.00  0.00    +0.000 C 
ATOM     80  F15 UNL A   1       8.916  30.876  -6.446  1.00  0.00    +0.000 F 
ENDBRANCH   69   70
TORSDOF 18
ENDMDL
MODEL 10
REMARK VINA RESULT:     -11.1     40.646     47.871
ROOT
ATOM     33  C26 UNL A   1      25.681  34.888  46.100  1.00  0.00    +0.000 C 
ATOM     34  C27 UNL A   1      25.413  36.043  47.022  1.00  0.00    +0.000 C 
ATOM     35  N4  UNL A   1      26.159  37.090  47.278  1.00  0.00    +0.000 N 
ATOM     36  C28 UNL A   1      25.425  37.868  48.162  1.00  0.00    +0.000 C 
ATOM     37  C29 UNL A   1      25.783  39.027  48.766  1.00  0.00    +0.000 C 
ATOM     49  C36 UNL A   1      27.056  39.677  48.587  1.00  0.00    +0.000 C 
ATOM     50  C37 UNL A   1      27.536  40.819  49.205  1.00  0.00    +0.000 C 
ATOM     51  C38 UNL A   1      28.806  41.095  48.687  1.00  0.00    +0.000 C 
ATOM     52  C39 UNL A   1      29.134  40.103  47.778  1.00  0.00    +0.000 C 
ATOM     53  N5  UNL A   1      28.050  39.241  47.724  1.00  0.00    +0.000 N 
ATOM     54  C40 UNL A   1      30.344  39.951  47.012  1.00  0.00    +0.000 C 
ATOM     66  C47 UNL A   1      30.594  38.937  46.148  1.00  0.00    +0.000 C 
ATOM     67  N6  UNL A   1      29.791  37.855  45.817  1.00  0.00    +0.000 N 
ATOM     68  C48 UNL A   1      30.465  37.161  44.935  1.00  0.00    +0.000 C 
ATOM     69  C49 UNL A   1      30.093  35.873  44.252  1.00  0.00    +0.000 C 
ATOM     81  C56 UNL A   1      28.917  35.286  44.547  1.00  0.00    +0.000 C 
ATOM     82  C57 UNL A   1      28.425  34.040  43.966  1.00  0.00    +0.000 C 
ATOM     83  C58 UNL A   1      27.202  33.782  44.457  1.00  0.00    +0.000 C 
ATOM     84  C59 UNL A   1      26.840  34.827  45.415  1.00  0.00    +0.000 C 
ATOM     85  N7  UNL A   1      27.920  35.673  45.409  1.00  0.00    +0.000 N 
ATOM     86  C60 UNL A   1      31.768  37.744  44.583  1.00  0.00    +0.000 C 
ATOM     87  C61 UNL A   1      31.814  38.803  45.379  1.00  0.00    +0.000 C 
ATOM     88  C62 UNL A   1      24.157  37.200  48.363  1.00  0.00    +0.000 C 
ATOM     89  C63 UNL A   1      24.126  36.035  47.732  1.00  0.00    +0.000 C 
ATOM    118  H27 UNL A   1      27.044  41.370  49.925  1.00  0.00    +0.000 H 
ATOM    119  H28 UNL A   1      29.397  41.903  48.938  1.00  0.00    +0.000 H 
ATOM    120  H29 UNL A   1      27.994  38.438  47.158  1.00  0.00    +0.000 H 
ATOM    121  H30 UNL A   1      28.935  33.452  43.288  1.00  0.00    +0.000 H 
ATOM    122  H31 UNL A   1      26.613  32.975  44.201  1.00  0.00    +0.000 H 
ATOM    123  H32 UNL A   1      27.976  36.481  45.969  1.00  0.00    +0.000 H 
ATOM    124  H33 UNL A   1      32.465  37.415  43.895  1.00  0.00    +0.000 H 
ATOM    125  H34 UNL A   1      32.615  39.450  45.441  1.00  0.00    +0.000 H 
ATOM    126  H35 UNL A   1      23.380  37.580  48.926  1.00  0.00    +0.000 H 
ATOM    127  H36 UNL A   1      23.389  35.312  47.736  1.00  0.00    +0.000 H 
ENDROOT
BRANCH   33   32
ATOM    129  H38 UNL A   1      22.353  32.902  43.613  1.00  0.00    +0.000 H 
ATOM    128  H37 UNL A   1      24.082  34.563  43.975  1.00  0.00    +0.000 H 
ATOM    116  H25 UNL A   1      23.303  31.104  47.296  1.00  0.00    +0.000 H 
ATOM    117  H26 UNL A   1      24.893  32.882  47.750  1.00  0.00    +0.000 H 
ATOM     90  C64 UNL A   1      23.907  33.839  44.688  1.00  0.00    +0.000 C 
ATOM     91  C65 UNL A   1      22.940  32.861  44.462  1.00  0.00    +0.000 C 
ATOM     29  C22 UNL A   1      22.766  31.826  45.384  1.00  0.00    +0.000 C 
ATOM     30  C23 UNL A   1      23.468  31.842  46.594  1.00  0.00    +0.000 C 
ATOM     31  C24 UNL A   1      24.392  32.857  46.848  1.00  0.00    +0.000 C 
ATOM     32  C25 UNL A   1      24.645  33.845  45.883  1.00  0.00    +0.000 C 
BRANCH   29   27
ATOM     27  C21 UNL A   1      21.837  30.705  45.115  1.00  0.00    +0.000 C 
ATOM     28  O2  UNL A   1      22.148  29.566  45.453  1.00  0.00    +0.000 O 
BRANCH   27   26
ATOM     26  N3  UNL A   1      20.649  30.931  44.467  1.00  0.00    +0.000 N 
ATOM    115  H24 UNL A   1      20.731  31.218  43.529  1.00  0.00    +0.000 H 
BRANCH   26   25
ATOM     25  C20 UNL A   1      19.287  30.810  44.961  1.00  0.00    +0.000 C 
ATOM    114  H23 UNL A   1      18.783  31.730  44.745  1.00  0.00    +0.000 H 
ATOM    113  H22 UNL A   1      19.321  30.615  46.013  1.00  0.00    +0.000 H 
BRANCH   25   24
ATOM    112  H21 UNL A   1      18.412  28.911  45.009  1.00  0.00    +0.000 H 
ATOM    111  H20 UNL A   1      19.048  29.394  43.406  1.00  0.00    +0.000 H 
ATOM     24  C19 UNL A   1      18.507  29.689  44.281  1.00  0.00    +0.000 C 
BRANCH   24   23
ATOM    109  H18 UNL A   1      17.108  30.349  42.831  1.00  0.00    +0.000 H 
ATOM    110  H19 UNL A   1      16.494  29.169  44.031  1.00  0.00    +0.000 H 
ATOM     23  C18 UNL A   1      17.081  30.046  43.856  1.00  0.00    +0.000 C 
BRANCH   23   22
ATOM    107  H16 UNL A   1      15.735  30.716  45.353  1.00  0.00    +0.000 H 
ATOM    108  H17 UNL A   1      17.213  31.705  45.128  1.00  0.00    +0.000 H 
ATOM     22  C17 UNL A   1      16.415  31.166  44.661  1.00  0.00    +0.000 C 
BRANCH   22   21
ATOM    105  H14 UNL A   1      15.837  32.020  42.802  1.00  0.00    +0.000 H 
ATOM    106  H15 UNL A   1      14.605  32.076  44.096  1.00  0.00    +0.000 H 
ATOM     21  C16 UNL A   1      15.636  32.200  43.837  1.00  0.00    +0.000 C 
BRANCH   21   20
ATOM     20  C15 UNL A   1      15.983  33.657  44.140  1.00  0.00    +0.000 C 
ATOM    103  H12 UNL A   1      15.660  34.270  43.326  1.00  0.00    +0.000 H 
ATOM    104  H13 UNL A   1      15.488  33.940  45.046  1.00  0.00    +0.000 H 
BRANCH   20   19
ATOM     19  N2  UNL A   1      17.408  33.830  44.327  1.00  0.00    +0.000 N 
ATOM    102  H11 UNL A   1      18.020  33.214  43.863  1.00  0.00    +0.000 H 
BRANCH   19    2
ATOM      1  O1  UNL A   1      17.372  35.870  45.383  1.00  0.00    +0.000 O 
ATOM      2  C1  UNL A   1      17.948  34.818  45.120  1.00  0.00    +0.000 C 
BRANCH    2    3
ATOM      3  C2  UNL A   1      19.342  34.516  45.644  1.00  0.00    +0.000 C 
ATOM     92  H1  UNL A   1      19.714  33.644  45.147  1.00  0.00    +0.000 H 
ATOM     93  H2  UNL A   1      19.265  34.366  46.701  1.00  0.00    +0.000 H 
BRANCH    3    4
ATOM     97  H6  UNL A   1      21.790  38.281  46.884  1.00  0.00    +0.000 H 
ATOM      4  C3  UNL A   1      20.312  35.656  45.414  1.00  0.00    +0.000 C 
ATOM      5  C4  UNL A   1      20.944  35.756  44.160  1.00  0.00    +0.000 C 
ATOM      6  C5  UNL A   1      21.875  36.760  43.910  1.00  0.00    +0.000 C 
ATOM      7  C6  UNL A   1      22.185  37.674  44.909  1.00  0.00    +0.000 C 
ATOM      8  C7  UNL A   1      21.557  37.590  46.154  1.00  0.00    +0.000 C 
ATOM      9  C8  UNL A   1      20.614  36.588  46.434  1.00  0.00    +0.000 C 
ATOM     94  H3  UNL A   1      20.714  35.077  43.417  1.00  0.00    +0.000 H 
ATOM     95  H4  UNL A   1      22.332  36.826  42.988  1.00  0.00    +0.000 H 
ATOM     96  H5  UNL A   1      22.880  38.416  44.732  1.00  0.00    +0.000 H 
BRANCH    9   10
ATOM     10  N1  UNL A   1      19.918  36.533  47.670  1.00  0.00    +0.000 N 
ATOM     98  H7  UNL A   1      18.940  36.439  47.608  1.00  0.00    +0.000 H 
BRANCH   10   11
ATOM     99  H8  UNL A   1      21.888  34.575  51.285  1.00  0.00    +0.000 H 
ATOM    100  H9  UNL A   1      22.106  36.677  52.478  1.00  0.00    +0.000 H 
ATOM    101  H10 UNL A   1      21.258  38.719  51.484  1.00  0.00    +0.000 H 
ATOM     11  C9  UNL A   1      20.455  36.598  48.985  1.00  0.00    +0.000 C 
ATOM     12  C10 UNL A   1      20.949  35.424  49.593  1.00  0.00    +0.000 C 
ATOM     13 Cl1  UNL A   1      20.848  33.897  48.780  1.00  0.00    +0.000 Cl
ATOM     14  C11 UNL A   1      21.540  35.448  50.860  1.00  0.00    +0.000 C 
ATOM     15  C12 UNL A   1      21.660  36.652  51.548  1.00  0.00    +0.000 C 
ATOM     16  C13 UNL A   1      21.174  37.827  50.974  1.00  0.00    +0.000 C 
ATOM     17  C14 UNL A   1      20.573  37.802  49.708  1.00  0.00    +0.000 C 
ATOM     18 Cl2  UNL A   1      19.917  39.297  49.127  1.00  0.00    +0.000 Cl
ENDBRANCH   10   11
ENDBRANCH    9   10
ENDBRANCH    3    4
ENDBRANCH    2    3
ENDBRANCH   19    2
ENDBRANCH   20   19
ENDBRANCH   21   20
ENDBRANCH   22   21
ENDBRANCH   23   22
ENDBRANCH   24   23
ENDBRANCH   25   24
ENDBRANCH   26   25
ENDBRANCH   27   26
ENDBRANCH   29   27
ENDBRANCH   33   32
BRANCH   37   38
ATOM     38  C30 UNL A   1      24.783  39.667  49.684  1.00  0.00    +0.000 C 
ATOM     39  C31 UNL A   1      24.789  39.420  51.065  1.00  0.00    +0.000 C 
ATOM     40  F1  UNL A   1      25.677  38.562  51.593  1.00  0.00    +0.000 F 
ATOM     41  C32 UNL A   1      23.858  40.023  51.905  1.00  0.00    +0.000 C 
ATOM     42  F2  UNL A   1      23.852  39.734  53.214  1.00  0.00    +0.000 F 
ATOM     43  C33 UNL A   1      22.925  40.910  51.389  1.00  0.00    +0.000 C 
ATOM     44  F3  UNL A   1      22.032  41.493  52.199  1.00  0.00    +0.000 F 
ATOM     45  C34 UNL A   1      22.915  41.187  50.030  1.00  0.00    +0.000 C 
ATOM     46  F4  UNL A   1      22.023  42.053  49.531  1.00  0.00    +0.000 F 
ATOM     47  C35 UNL A   1      23.827  40.564  49.182  1.00  0.00    +0.000 C 
ATOM     48  F5  UNL A   1      23.782  40.841  47.870  1.00  0.00    +0.000 F 
ENDBRANCH   37   38
BRANCH   54   55
ATOM     65  F10 UNL A   1      32.635  39.516  48.636  1.00  0.00    +0.000 F 
ATOM     55  C41 UNL A   1      31.423  40.977  47.199  1.00  0.00    +0.000 C 
ATOM     56  C42 UNL A   1      31.353  42.238  46.590  1.00  0.00    +0.000 C 
ATOM     57  F6  UNL A   1      30.329  42.537  45.777  1.00  0.00    +0.000 F 
ATOM     58  C43 UNL A   1      32.355  43.183  46.787  1.00  0.00    +0.000 C 
ATOM     59  F7  UNL A   1      32.289  44.366  46.161  1.00  0.00    +0.000 F 
ATOM     60  C44 UNL A   1      33.428  42.899  47.618  1.00  0.00    +0.000 C 
ATOM     61  F8  UNL A   1      34.389  43.813  47.810  1.00  0.00    +0.000 F 
ATOM     62  C45 UNL A   1      33.510  41.663  48.242  1.00  0.00    +0.000 C 
ATOM     63  F9  UNL A   1      34.542  41.390  49.054  1.00  0.00    +0.000 F 
ATOM     64  C46 UNL A   1      32.524  40.706  48.027  1.00  0.00    +0.000 C 
ENDBRANCH   54   55
BRANCH   69   70
ATOM     70  C50 UNL A   1      31.019  35.233  43.283  1.00  0.00    +0.000 C 
ATOM     71  C51 UNL A   1      31.792  34.126  43.658  1.00  0.00    +0.000 C 
ATOM     72  F11 UNL A   1      31.715  33.647  44.909  1.00  0.00    +0.000 F 
ATOM     73  C52 UNL A   1      32.679  33.531  42.763  1.00  0.00    +0.000 C 
ATOM     74  F12 UNL A   1      33.437  32.500  43.159  1.00  0.00    +0.000 F 
ATOM     75  C53 UNL A   1      32.787  34.015  41.468  1.00  0.00    +0.000 C 
ATOM     76  F13 UNL A   1      33.637  33.440  40.605  1.00  0.00    +0.000 F 
ATOM     77  C54 UNL A   1      32.020  35.098  41.070  1.00  0.00    +0.000 C 
ATOM     78  F14 UNL A   1      32.114  35.561  39.816  1.00  0.00    +0.000 F 
ATOM     79  C55 UNL A   1      31.152  35.710  41.972  1.00  0.00    +0.000 C 
ATOM     80  F15 UNL A   1      30.431  36.765  41.564  1.00  0.00    +0.000 F 
ENDBRANCH   69   70
TORSDOF 18
ENDMDL
