MODEL 1
REMARK VINA RESULT:      -9.5      0.000      0.000
ROOT
ATOM    145  H37 UNL A   1      18.045  53.515  -0.202  1.00  0.00    +0.000 H 
ATOM    146  H38 UNL A   1      17.610  51.064  -0.977  1.00  0.00    +0.000 H 
ATOM    147  H39 UNL A   1      15.434  51.741   2.482  1.00  0.00    +0.000 H 
ATOM    148  H40 UNL A   1      11.696  49.549   7.152  1.00  0.00    +0.000 H 
ATOM    149  H41 UNL A   1      12.042  51.965   7.852  1.00  0.00    +0.000 H 
ATOM    150  H42 UNL A   1      14.315  51.291   4.437  1.00  0.00    +0.000 H 
ATOM    151  H43 UNL A   1      13.218  46.587   2.976  1.00  0.00    +0.000 H 
ATOM    152  H44 UNL A   1      14.771  46.979   0.978  1.00  0.00    +0.000 H 
ATOM    153  H45 UNL A   1      16.229  56.498   3.863  1.00  0.00    +0.000 H 
ATOM    154  H46 UNL A   1      15.017  56.013   6.067  1.00  0.00    +0.000 H 
ATOM     36  C30 UNL A   1      13.793  53.440   6.152  1.00  0.00    +0.000 C 
ATOM     37  C31 UNL A   1      14.706  53.989   5.090  1.00  0.00    +0.000 C 
ATOM     38  N4  UNL A   1      15.135  53.421   3.991  1.00  0.00    +0.000 N 
ATOM     39  C32 UNL A   1      15.882  54.389   3.334  1.00  0.00    +0.000 C 
ATOM     40  C33 UNL A   1      16.571  54.279   2.174  1.00  0.00    +0.000 C 
ATOM     52  C40 UNL A   1      16.681  53.066   1.407  1.00  0.00    +0.000 C 
ATOM     53  C41 UNL A   1      17.428  52.833   0.267  1.00  0.00    +0.000 C 
ATOM     54  C42 UNL A   1      17.206  51.515  -0.140  1.00  0.00    +0.000 C 
ATOM     55  C43 UNL A   1      16.349  50.915   0.768  1.00  0.00    +0.000 C 
ATOM     56  N5  UNL A   1      16.031  51.879   1.711  1.00  0.00    +0.000 N 
ATOM     57  C44 UNL A   1      15.853  49.563   0.772  1.00  0.00    +0.000 C 
ATOM     69  C51 UNL A   1      15.033  49.038   1.713  1.00  0.00    +0.000 C 
ATOM     70  N6  UNL A   1      14.511  49.646   2.846  1.00  0.00    +0.000 N 
ATOM     71  C52 UNL A   1      13.779  48.735   3.440  1.00  0.00    +0.000 C 
ATOM     72  C53 UNL A   1      12.990  48.843   4.713  1.00  0.00    +0.000 C 
ATOM     84  C60 UNL A   1      13.019  49.990   5.419  1.00  0.00    +0.000 C 
ATOM     85  C61 UNL A   1      12.277  50.239   6.653  1.00  0.00    +0.000 C 
ATOM     86  C62 UNL A   1      12.473  51.512   7.030  1.00  0.00    +0.000 C 
ATOM     87  C63 UNL A   1      13.392  52.155   6.092  1.00  0.00    +0.000 C 
ATOM     88  N7  UNL A   1      13.686  51.167   5.184  1.00  0.00    +0.000 N 
ATOM     89  C64 UNL A   1      13.736  47.446   2.732  1.00  0.00    +0.000 C 
ATOM     90  C65 UNL A   1      14.534  47.678   1.699  1.00  0.00    +0.000 C 
ATOM     91  C66 UNL A   1      15.819  55.591   4.136  1.00  0.00    +0.000 C 
ATOM     92  C67 UNL A   1      15.166  55.375   5.269  1.00  0.00    +0.000 C 
ENDROOT
BRANCH   36   35
ATOM     33  C27 UNL A   1      13.194  55.313   9.418  1.00  0.00    +0.000 C 
ATOM     34  C28 UNL A   1      13.824  54.530   8.441  1.00  0.00    +0.000 C 
ATOM     35  C29 UNL A   1      13.224  54.347   7.185  1.00  0.00    +0.000 C 
ATOM    143  H35 UNL A   1      13.625  55.424  10.348  1.00  0.00    +0.000 H 
ATOM    144  H36 UNL A   1      14.732  54.085   8.647  1.00  0.00    +0.000 H 
ATOM    155  H47 UNL A   1      11.594  54.917   5.967  1.00  0.00    +0.000 H 
ATOM    156  H48 UNL A   1      10.608  56.411   7.597  1.00  0.00    +0.000 H 
ATOM     93  C68 UNL A   1      12.035  55.030   6.894  1.00  0.00    +0.000 C 
ATOM     94  C69 UNL A   1      11.444  55.858   7.842  1.00  0.00    +0.000 C 
ATOM     32  C26 UNL A   1      11.982  55.941   9.126  1.00  0.00    +0.000 C 
BRANCH   32   30
ATOM     30  C25 UNL A   1      11.281  56.717  10.175  1.00  0.00    +0.000 C 
ATOM     31  O2  UNL A   1      11.040  57.897  10.001  1.00  0.00    +0.000 O 
BRANCH   30   29
ATOM     29  N3  UNL A   1      10.897  56.086  11.342  1.00  0.00    +0.000 N 
ATOM    142  H34 UNL A   1      11.525  56.169  12.095  1.00  0.00    +0.000 H 
BRANCH   29   28
ATOM    141  H33 UNL A   1       8.850  55.962  11.492  1.00  0.00    +0.000 H 
ATOM     28  C24 UNL A   1       9.693  55.313  11.613  1.00  0.00    +0.000 C 
ATOM    140  H32 UNL A   1       9.746  54.929  12.609  1.00  0.00    +0.000 H 
BRANCH   28   27
ATOM    138  H30 UNL A   1       8.611  53.650  10.865  1.00  0.00    +0.000 H 
ATOM     27  C23 UNL A   1       9.532  54.145  10.640  1.00  0.00    +0.000 C 
ATOM    139  H31 UNL A   1       9.558  54.566   9.658  1.00  0.00    +0.000 H 
BRANCH   27   26
ATOM    137  H29 UNL A   1      10.838  52.926  11.733  1.00  0.00    +0.000 H 
ATOM     26  C22 UNL A   1      10.657  53.105  10.693  1.00  0.00    +0.000 C 
ATOM    136  H28 UNL A   1      11.498  53.504  10.167  1.00  0.00    +0.000 H 
BRANCH   26   25
ATOM     25  C21 UNL A   1      10.330  51.733  10.087  1.00  0.00    +0.000 C 
ATOM    134  H26 UNL A   1      10.331  51.834   9.022  1.00  0.00    +0.000 H 
ATOM    135  H27 UNL A   1      11.076  51.061  10.456  1.00  0.00    +0.000 H 
BRANCH   25   24
ATOM    132  H24 UNL A   1       9.169  50.303  11.146  1.00  0.00    +0.000 H 
ATOM    133  H25 UNL A   1       8.439  51.924  10.985  1.00  0.00    +0.000 H 
ATOM     24  C20 UNL A   1       8.981  51.138  10.504  1.00  0.00    +0.000 C 
BRANCH   24   23
ATOM    130  H22 UNL A   1       7.346  50.012   9.718  1.00  0.00    +0.000 H 
ATOM    131  H23 UNL A   1       7.686  51.519   8.863  1.00  0.00    +0.000 H 
ATOM     23  C19 UNL A   1       8.108  50.658   9.336  1.00  0.00    +0.000 C 
BRANCH   23   22
ATOM    129  H21 UNL A   1       9.630  50.453   7.971  1.00  0.00    +0.000 H 
ATOM     22  N2  UNL A   1       8.879  49.935   8.342  1.00  0.00    +0.000 N 
BRANCH   22   20
ATOM     20  C18 UNL A   1       8.768  48.683   7.818  1.00  0.00    +0.000 C 
ATOM     21  O1  UNL A   1       8.236  48.610   6.702  1.00  0.00    +0.000 O 
BRANCH   20   18
ATOM     18  C16 UNL A   1       9.244  47.394   8.516  1.00  0.00    +0.000 C 
ATOM    125  H17 UNL A   1       9.890  46.917   7.810  1.00  0.00    +0.000 H 
BRANCH   18   17
ATOM     14  C12 UNL A   1      11.650  48.504  12.002  1.00  0.00    +0.000 C 
ATOM     15  C13 UNL A   1      10.429  47.818  12.114  1.00  0.00    +0.000 C 
ATOM     16  C14 UNL A   1       9.723  47.351  11.009  1.00  0.00    +0.000 C 
ATOM     17  C15 UNL A   1      10.127  47.663   9.723  1.00  0.00    +0.000 C 
ATOM    123  H15 UNL A   1      10.039  47.652  13.056  1.00  0.00    +0.000 H 
ATOM    124  H16 UNL A   1       8.887  46.762  11.151  1.00  0.00    +0.000 H 
ATOM    157  H49 UNL A   1      11.733  48.466   8.627  1.00  0.00    +0.000 H 
ATOM     95  C70 UNL A   1      11.382  48.271   9.578  1.00  0.00    +0.000 C 
ATOM     96  C71 UNL A   1      12.186  48.631  10.690  1.00  0.00    +0.000 C 
BRANCH   14    6
ATOM    118  H10 UNL A   1      13.400  48.941  12.927  1.00  0.00    +0.000 H 
ATOM      6  C5  UNL A   1      12.389  49.045  13.262  1.00  0.00    +0.000 C 
BRANCH    6    5
ATOM      2  C2  UNL A   1      11.098  46.094  16.089  1.00  0.00    +0.000 C 
ATOM      3  C3  UNL A   1      12.507  45.910  15.532  1.00  0.00    +0.000 C 
ATOM      4  C4  UNL A   1      12.805  46.867  14.374  1.00  0.00    +0.000 C 
ATOM    164  H56 UNL A   1      11.719  47.764  17.257  1.00  0.00    +0.000 H 
ATOM    165  H57 UNL A   1       9.993  47.689  16.961  1.00  0.00    +0.000 H 
ATOM    162  H54 UNL A   1      10.264  48.362  14.710  1.00  0.00    +0.000 H 
ATOM    163  H55 UNL A   1      11.226  49.462  15.740  1.00  0.00    +0.000 H 
ATOM      5  N1  UNL A   1      12.315  48.239  14.524  1.00  0.00    +0.000 N 
ATOM    107  C79 UNL A   1      11.122  48.477  15.337  1.00  0.00    +0.000 C 
ATOM    108  C80 UNL A   1      10.963  47.544  16.532  1.00  0.00    +0.000 C 
ATOM    112  H4  UNL A   1      10.376  45.866  15.333  1.00  0.00    +0.000 H 
ATOM    113  H5  UNL A   1      12.610  44.904  15.183  1.00  0.00    +0.000 H 
ATOM    114  H6  UNL A   1      13.200  46.123  16.320  1.00  0.00    +0.000 H 
ATOM    115  H7  UNL A   1      12.362  46.457  13.490  1.00  0.00    +0.000 H 
ATOM    116  H8  UNL A   1      13.871  46.948  14.336  1.00  0.00    +0.000 H 
ATOM    117  H9  UNL A   1      13.016  48.626  15.156  1.00  0.00    +0.000 H 
BRANCH    2    1
ATOM      1  C1  UNL A   1      10.833  45.149  17.250  1.00  0.00    +0.000 C 
ATOM    109  H1  UNL A   1      11.685  44.519  17.398  1.00  0.00    +0.000 H 
ATOM    110  H2  UNL A   1       9.978  44.545  17.029  1.00  0.00    +0.000 H 
ATOM    111  H3  UNL A   1      10.650  45.717  18.138  1.00  0.00    +0.000 H 
ENDBRANCH    2    1
ENDBRANCH    6    5
BRANCH    6    7
ATOM      7  C6  UNL A   1      12.084  50.523  13.581  1.00  0.00    +0.000 C 
ATOM      8  C7  UNL A   1      10.774  50.977  13.836  1.00  0.00    +0.000 C 
ATOM      9  C8  UNL A   1      10.530  52.319  14.133  1.00  0.00    +0.000 C 
ATOM     10  C9  UNL A   1      11.590  53.217  14.161  1.00  0.00    +0.000 C 
ATOM     11  F1  UNL A   1      11.352  54.507  14.436  1.00  0.00    +0.000 F 
ATOM     12  C10 UNL A   1      12.890  52.798  13.911  1.00  0.00    +0.000 C 
ATOM     13  C11 UNL A   1      13.140  51.453  13.636  1.00  0.00    +0.000 C 
ATOM    119  H11 UNL A   1       9.987  50.311  13.802  1.00  0.00    +0.000 H 
ATOM    120  H12 UNL A   1       9.570  52.641  14.330  1.00  0.00    +0.000 H 
ATOM    121  H13 UNL A   1      13.666  53.478  13.929  1.00  0.00    +0.000 H 
ATOM    122  H14 UNL A   1      14.108  51.137  13.471  1.00  0.00    +0.000 H 
ENDBRANCH    6    7
ENDBRANCH   14    6
BRANCH   96   97
ATOM     97  C72 UNL A   1      13.570  49.065  10.415  1.00  0.00    +0.000 C 
ATOM     98  C73 UNL A   1      13.898  50.421  10.261  1.00  0.00    +0.000 C 
ATOM     99  C74 UNL A   1      15.214  50.815   9.996  1.00  0.00    +0.000 C 
ATOM    161  H53 UNL A   1      14.368  47.111  10.340  1.00  0.00    +0.000 H 
ATOM    100  C75 UNL A   1      16.236  49.862   9.877  1.00  0.00    +0.000 C 
ATOM    101  C76 UNL A   1      17.651  50.294   9.589  1.00  0.00    +0.000 C 
ATOM    102  F17 UNL A   1      17.817  50.704   8.301  1.00  0.00    +0.000 F 
ATOM    103  F18 UNL A   1      18.055  51.336  10.368  1.00  0.00    +0.000 F 
ATOM    105  C77 UNL A   1      15.909  48.505  10.003  1.00  0.00    +0.000 C 
ATOM    106  C78 UNL A   1      14.593  48.114  10.261  1.00  0.00    +0.000 C 
ATOM    104  F19 UNL A   1      18.570  49.307   9.787  1.00  0.00    +0.000 F 
ATOM    158  H50 UNL A   1      13.159  51.136  10.344  1.00  0.00    +0.000 H 
ATOM    159  H51 UNL A   1      15.435  51.817   9.888  1.00  0.00    +0.000 H 
ATOM    160  H52 UNL A   1      16.647  47.789   9.904  1.00  0.00    +0.000 H 
ENDBRANCH   96   97
ENDBRANCH   18   17
BRANCH   18   19
ATOM     19  C17 UNL A   1       8.158  46.342   8.728  1.00  0.00    +0.000 C 
ATOM    126  H18 UNL A   1       7.249  46.822   9.027  1.00  0.00    +0.000 H 
ATOM    127  H19 UNL A   1       8.467  45.657   9.490  1.00  0.00    +0.000 H 
ATOM    128  H20 UNL A   1       7.995  45.809   7.814  1.00  0.00    +0.000 H 
ENDBRANCH   18   19
ENDBRANCH   20   18
ENDBRANCH   22   20
ENDBRANCH   23   22
ENDBRANCH   24   23
ENDBRANCH   25   24
ENDBRANCH   26   25
ENDBRANCH   27   26
ENDBRANCH   28   27
ENDBRANCH   29   28
ENDBRANCH   30   29
ENDBRANCH   32   30
ENDBRANCH   36   35
BRANCH   40   41
ATOM     41  C34 UNL A   1      17.278  55.498   1.661  1.00  0.00    +0.000 C 
ATOM     42  C35 UNL A   1      18.636  55.704   1.947  1.00  0.00    +0.000 C 
ATOM     43  F2  UNL A   1      19.329  54.789   2.642  1.00  0.00    +0.000 F 
ATOM     44  C36 UNL A   1      19.288  56.864   1.533  1.00  0.00    +0.000 C 
ATOM     45  F3  UNL A   1      20.579  57.052   1.840  1.00  0.00    +0.000 F 
ATOM     46  C37 UNL A   1      18.601  57.825   0.807  1.00  0.00    +0.000 C 
ATOM     47  F4  UNL A   1      19.232  58.933   0.397  1.00  0.00    +0.000 F 
ATOM     48  C38 UNL A   1      17.261  57.636   0.503  1.00  0.00    +0.000 C 
ATOM     49  F5  UNL A   1      16.602  58.553  -0.218  1.00  0.00    +0.000 F 
ATOM     50  C39 UNL A   1      16.601  56.491   0.939  1.00  0.00    +0.000 C 
ATOM     51  F6  UNL A   1      15.304  56.336   0.634  1.00  0.00    +0.000 F 
ENDBRANCH   40   41
BRANCH   57   58
ATOM     65  C49 UNL A   1      17.898  47.132  -1.323  1.00  0.00    +0.000 C 
ATOM     66  F10 UNL A   1      19.106  46.552  -1.299  1.00  0.00    +0.000 F 
ATOM     67  C50 UNL A   1      17.547  48.048  -0.337  1.00  0.00    +0.000 C 
ATOM     68  F11 UNL A   1      18.430  48.332   0.633  1.00  0.00    +0.000 F 
ATOM     58  C45 UNL A   1      16.293  48.673  -0.350  1.00  0.00    +0.000 C 
ATOM     59  C46 UNL A   1      15.407  48.356  -1.391  1.00  0.00    +0.000 C 
ATOM     60  F7  UNL A   1      14.192  48.925  -1.442  1.00  0.00    +0.000 F 
ATOM     61  C47 UNL A   1      15.753  47.424  -2.364  1.00  0.00    +0.000 C 
ATOM     62  F8  UNL A   1      14.877  47.105  -3.328  1.00  0.00    +0.000 F 
ATOM     63  C48 UNL A   1      16.997  46.811  -2.329  1.00  0.00    +0.000 C 
ATOM     64  F9  UNL A   1      17.327  45.910  -3.264  1.00  0.00    +0.000 F 
ENDBRANCH   57   58
BRANCH   72   73
ATOM     73  C54 UNL A   1      12.204  47.693   5.227  1.00  0.00    +0.000 C 
ATOM     74  C55 UNL A   1      12.664  46.906   6.292  1.00  0.00    +0.000 C 
ATOM     75  F12 UNL A   1      13.821  47.210   6.900  1.00  0.00    +0.000 F 
ATOM     76  C56 UNL A   1      11.952  45.786   6.717  1.00  0.00    +0.000 C 
ATOM     77  F13 UNL A   1      12.431  45.029   7.714  1.00  0.00    +0.000 F 
ATOM     78  C57 UNL A   1      10.758  45.446   6.101  1.00  0.00    +0.000 C 
ATOM     79  F14 UNL A   1      10.073  44.369   6.510  1.00  0.00    +0.000 F 
ATOM     80  C58 UNL A   1      10.273  46.222   5.058  1.00  0.00    +0.000 C 
ATOM     81  F15 UNL A   1       9.110  45.907   4.472  1.00  0.00    +0.000 F 
ATOM     82  C59 UNL A   1      10.994  47.330   4.620  1.00  0.00    +0.000 C 
ATOM     83  F16 UNL A   1      10.507  48.065   3.609  1.00  0.00    +0.000 F 
ENDBRANCH   72   73
TORSDOF 22
ENDMDL
MODEL 2
REMARK VINA RESULT:      -9.5      0.926      6.593
ROOT
ATOM    145  H37 UNL A   1      13.443  46.652   3.133  1.00  0.00    +0.000 H 
ATOM    146  H38 UNL A   1      15.091  46.788   1.117  1.00  0.00    +0.000 H 
ATOM    147  H39 UNL A   1      14.799  50.554   2.814  1.00  0.00    +0.000 H 
ATOM    148  H40 UNL A   1      16.194  56.770   2.695  1.00  0.00    +0.000 H 
ATOM    149  H41 UNL A   1      14.665  56.617   4.718  1.00  0.00    +0.000 H 
ATOM    150  H42 UNL A   1      14.859  52.845   2.980  1.00  0.00    +0.000 H 
ATOM    151  H43 UNL A   1      18.214  53.241  -0.770  1.00  0.00    +0.000 H 
ATOM    152  H44 UNL A   1      17.857  50.740  -1.185  1.00  0.00    +0.000 H 
ATOM    153  H45 UNL A   1      11.700  50.207   6.744  1.00  0.00    +0.000 H 
ATOM    154  H46 UNL A   1      11.722  52.762   6.929  1.00  0.00    +0.000 H 
ATOM     36  C30 UNL A   1      13.599  54.015   5.189  1.00  0.00    +0.000 C 
ATOM     37  C31 UNL A   1      13.214  52.561   5.232  1.00  0.00    +0.000 C 
ATOM     38  N4  UNL A   1      13.644  51.567   4.496  1.00  0.00    +0.000 N 
ATOM     39  C32 UNL A   1      13.028  50.430   5.003  1.00  0.00    +0.000 C 
ATOM     40  C33 UNL A   1      13.114  49.155   4.555  1.00  0.00    +0.000 C 
ATOM     52  C40 UNL A   1      13.868  48.750   3.399  1.00  0.00    +0.000 C 
ATOM     53  C41 UNL A   1      13.945  47.497   2.817  1.00  0.00    +0.000 C 
ATOM     54  C42 UNL A   1      14.817  47.574   1.728  1.00  0.00    +0.000 C 
ATOM     55  C43 UNL A   1      15.255  48.882   1.609  1.00  0.00    +0.000 C 
ATOM     56  N5  UNL A   1      14.668  49.593   2.643  1.00  0.00    +0.000 N 
ATOM     57  C44 UNL A   1      16.148  49.441   0.626  1.00  0.00    +0.000 C 
ATOM     69  C51 UNL A   1      16.512  50.743   0.558  1.00  0.00    +0.000 C 
ATOM     70  N6  UNL A   1      16.122  51.798   1.372  1.00  0.00    +0.000 N 
ATOM     71  C52 UNL A   1      16.737  52.858   0.910  1.00  0.00    +0.000 C 
ATOM     72  C53 UNL A   1      16.673  54.276   1.402  1.00  0.00    +0.000 C 
ATOM     84  C60 UNL A   1      15.866  54.585   2.435  1.00  0.00    +0.000 C 
ATOM     85  C61 UNL A   1      15.732  55.912   3.033  1.00  0.00    +0.000 C 
ATOM     86  C62 UNL A   1      14.912  55.833   4.092  1.00  0.00    +0.000 C 
ATOM     87  C63 UNL A   1      14.424  54.460   4.221  1.00  0.00    +0.000 C 
ATOM     88  N7  UNL A   1      15.022  53.796   3.177  1.00  0.00    +0.000 N 
ATOM     89  C64 UNL A   1      17.609  52.589  -0.244  1.00  0.00    +0.000 C 
ATOM     90  C65 UNL A   1      17.418  51.291  -0.431  1.00  0.00    +0.000 C 
ATOM     91  C66 UNL A   1      12.223  50.849   6.129  1.00  0.00    +0.000 C 
ATOM     92  C67 UNL A   1      12.246  52.167   6.267  1.00  0.00    +0.000 C 
ENDROOT
BRANCH   36   35
ATOM     33  C27 UNL A   1      13.441  55.861   8.519  1.00  0.00    +0.000 C 
ATOM     34  C28 UNL A   1      13.927  55.069   7.471  1.00  0.00    +0.000 C 
ATOM     35  C29 UNL A   1      13.185  54.927   6.287  1.00  0.00    +0.000 C 
ATOM    143  H35 UNL A   1      13.977  55.944   9.396  1.00  0.00    +0.000 H 
ATOM    144  H36 UNL A   1      14.834  54.588   7.569  1.00  0.00    +0.000 H 
ATOM    155  H47 UNL A   1      11.453  55.576   5.265  1.00  0.00    +0.000 H 
ATOM    156  H48 UNL A   1      10.714  57.083   7.010  1.00  0.00    +0.000 H 
ATOM     93  C68 UNL A   1      11.998  55.659   6.138  1.00  0.00    +0.000 C 
ATOM     94  C69 UNL A   1      11.549  56.496   7.155  1.00  0.00    +0.000 C 
ATOM     32  C26 UNL A   1      12.229  56.539   8.371  1.00  0.00    +0.000 C 
BRANCH   32   30
ATOM     30  C25 UNL A   1      11.681  57.326   9.499  1.00  0.00    +0.000 C 
ATOM     31  O2  UNL A   1      11.829  58.534   9.529  1.00  0.00    +0.000 O 
BRANCH   30   29
ATOM     29  N3  UNL A   1      10.994  56.678  10.507  1.00  0.00    +0.000 N 
ATOM    142  H34 UNL A   1      10.255  57.188  10.912  1.00  0.00    +0.000 H 
BRANCH   29   28
ATOM    141  H33 UNL A   1      11.143  55.411  12.119  1.00  0.00    +0.000 H 
ATOM     28  C24 UNL A   1      11.209  55.346  11.054  1.00  0.00    +0.000 C 
ATOM    140  H32 UNL A   1      12.172  54.998  10.746  1.00  0.00    +0.000 H 
BRANCH   28   27
ATOM    138  H30 UNL A   1       9.871  53.738  11.404  1.00  0.00    +0.000 H 
ATOM     27  C23 UNL A   1      10.149  54.353  10.574  1.00  0.00    +0.000 C 
ATOM    139  H31 UNL A   1       9.340  54.939  10.193  1.00  0.00    +0.000 H 
BRANCH   27   26
ATOM    137  H29 UNL A   1      11.654  53.576   9.344  1.00  0.00    +0.000 H 
ATOM     26  C22 UNL A   1      10.596  53.437   9.430  1.00  0.00    +0.000 C 
ATOM    136  H28 UNL A   1      10.047  53.714   8.554  1.00  0.00    +0.000 H 
BRANCH   26   25
ATOM     25  C21 UNL A   1      10.391  51.933   9.658  1.00  0.00    +0.000 C 
ATOM    134  H26 UNL A   1      10.198  51.478   8.708  1.00  0.00    +0.000 H 
ATOM    135  H27 UNL A   1      11.285  51.581  10.129  1.00  0.00    +0.000 H 
BRANCH   25   24
ATOM    132  H24 UNL A   1       9.527  50.689  11.148  1.00  0.00    +0.000 H 
ATOM    133  H25 UNL A   1       9.080  52.416  11.228  1.00  0.00    +0.000 H 
ATOM     24  C20 UNL A   1       9.242  51.564  10.602  1.00  0.00    +0.000 C 
BRANCH   24   23
ATOM    130  H22 UNL A   1       7.182  51.004  10.636  1.00  0.00    +0.000 H 
ATOM    131  H23 UNL A   1       7.613  52.163   9.376  1.00  0.00    +0.000 H 
ATOM     23  C19 UNL A   1       7.908  51.278   9.900  1.00  0.00    +0.000 C 
BRANCH   23   22
ATOM    129  H21 UNL A   1       8.474  50.469   8.098  1.00  0.00    +0.000 H 
ATOM     22  N2  UNL A   1       8.021  50.204   8.931  1.00  0.00    +0.000 N 
BRANCH   22   20
ATOM     20  C18 UNL A   1       7.624  48.901   8.946  1.00  0.00    +0.000 C 
ATOM     21  O1  UNL A   1       6.400  48.710   8.960  1.00  0.00    +0.000 O 
BRANCH   20   18
ATOM     18  C16 UNL A   1       8.579  47.692   8.954  1.00  0.00    +0.000 C 
ATOM    125  H17 UNL A   1       9.085  47.731   8.012  1.00  0.00    +0.000 H 
BRANCH   18   17
ATOM     14  C12 UNL A   1      11.652  48.385  11.995  1.00  0.00    +0.000 C 
ATOM     15  C13 UNL A   1      10.435  47.743  12.282  1.00  0.00    +0.000 C 
ATOM     16  C14 UNL A   1       9.510  47.406  11.298  1.00  0.00    +0.000 C 
ATOM     17  C15 UNL A   1       9.685  47.815   9.987  1.00  0.00    +0.000 C 
ATOM    123  H15 UNL A   1      10.218  47.510  13.265  1.00  0.00    +0.000 H 
ATOM    124  H16 UNL A   1       8.683  46.843  11.549  1.00  0.00    +0.000 H 
ATOM    157  H49 UNL A   1      11.103  48.645   8.674  1.00  0.00    +0.000 H 
ATOM     95  C70 UNL A   1      10.924  48.381   9.656  1.00  0.00    +0.000 C 
ATOM     96  C71 UNL A   1      11.941  48.606  10.620  1.00  0.00    +0.000 C 
BRANCH   14    6
ATOM    118  H10 UNL A   1      13.529  48.310  12.758  1.00  0.00    +0.000 H 
ATOM      6  C5  UNL A   1      12.642  48.779  13.131  1.00  0.00    +0.000 C 
BRANCH    6    5
ATOM      2  C2  UNL A   1      10.950  46.406  16.272  1.00  0.00    +0.000 C 
ATOM      3  C3  UNL A   1      12.364  46.028  15.842  1.00  0.00    +0.000 C 
ATOM      4  C4  UNL A   1      12.806  46.771  14.576  1.00  0.00    +0.000 C 
ATOM    164  H56 UNL A   1      11.652  48.180  17.218  1.00  0.00    +0.000 H 
ATOM    165  H57 UNL A   1       9.944  48.197  16.825  1.00  0.00    +0.000 H 
ATOM    162  H54 UNL A   1      10.392  48.495  14.521  1.00  0.00    +0.000 H 
ATOM    163  H55 UNL A   1      11.391  49.661  15.438  1.00  0.00    +0.000 H 
ATOM      5  N1  UNL A   1      12.431  48.184  14.490  1.00  0.00    +0.000 N 
ATOM    107  C79 UNL A   1      11.223  48.636  15.180  1.00  0.00    +0.000 C 
ATOM    108  C80 UNL A   1      10.919  47.912  16.486  1.00  0.00    +0.000 C 
ATOM    112  H4  UNL A   1      10.251  46.122  15.513  1.00  0.00    +0.000 H 
ATOM    113  H5  UNL A   1      12.397  44.976  15.652  1.00  0.00    +0.000 H 
ATOM    114  H6  UNL A   1      13.031  46.304  16.633  1.00  0.00    +0.000 H 
ATOM    115  H7  UNL A   1      12.376  46.267  13.736  1.00  0.00    +0.000 H 
ATOM    116  H8  UNL A   1      13.876  46.760  14.597  1.00  0.00    +0.000 H 
ATOM    117  H9  UNL A   1      13.129  48.606  15.102  1.00  0.00    +0.000 H 
BRANCH    2    1
ATOM      1  C1  UNL A   1      10.542  45.672  17.539  1.00  0.00    +0.000 C 
ATOM    109  H1  UNL A   1      11.211  44.855  17.709  1.00  0.00    +0.000 H 
ATOM    110  H2  UNL A   1       9.545  45.300  17.431  1.00  0.00    +0.000 H 
ATOM    111  H3  UNL A   1      10.583  46.345  18.370  1.00  0.00    +0.000 H 
ENDBRANCH    2    1
ENDBRANCH    6    5
BRANCH    6    7
ATOM      7  C6  UNL A   1      12.864  50.300  13.267  1.00  0.00    +0.000 C 
ATOM      8  C7  UNL A   1      11.792  51.215  13.258  1.00  0.00    +0.000 C 
ATOM      9  C8  UNL A   1      12.024  52.585  13.395  1.00  0.00    +0.000 C 
ATOM     10  C9  UNL A   1      13.326  53.049  13.526  1.00  0.00    +0.000 C 
ATOM     11  F1  UNL A   1      13.547  54.365  13.648  1.00  0.00    +0.000 F 
ATOM     12  C10 UNL A   1      14.401  52.171  13.536  1.00  0.00    +0.000 C 
ATOM     13  C11 UNL A   1      14.172  50.799  13.421  1.00  0.00    +0.000 C 
ATOM    119  H11 UNL A   1      10.827  50.869  13.148  1.00  0.00    +0.000 H 
ATOM    120  H12 UNL A   1      11.232  53.247  13.400  1.00  0.00    +0.000 H 
ATOM    121  H13 UNL A   1      15.365  52.531  13.628  1.00  0.00    +0.000 H 
ATOM    122  H14 UNL A   1      14.968  50.144  13.450  1.00  0.00    +0.000 H 
ENDBRANCH    6    7
ENDBRANCH   14    6
BRANCH   96   97
ATOM     97  C72 UNL A   1      13.272  49.005  10.122  1.00  0.00    +0.000 C 
ATOM     98  C73 UNL A   1      13.468  50.211   9.433  1.00  0.00    +0.000 C 
ATOM     99  C74 UNL A   1      14.735  50.572   8.963  1.00  0.00    +0.000 C 
ATOM    161  H53 UNL A   1      14.250  47.250  10.775  1.00  0.00    +0.000 H 
ATOM    100  C75 UNL A   1      15.840  49.734   9.172  1.00  0.00    +0.000 C 
ATOM    101  C76 UNL A   1      17.203  50.129   8.662  1.00  0.00    +0.000 C 
ATOM    102  F17 UNL A   1      17.306  50.008   7.309  1.00  0.00    +0.000 F 
ATOM    103  F18 UNL A   1      17.521  51.422   8.948  1.00  0.00    +0.000 F 
ATOM    105  C77 UNL A   1      15.646  48.516   9.837  1.00  0.00    +0.000 C 
ATOM    106  C78 UNL A   1      14.378  48.155  10.297  1.00  0.00    +0.000 C 
ATOM    104  F19 UNL A   1      18.215  49.377   9.180  1.00  0.00    +0.000 F 
ATOM    158  H50 UNL A   1      12.666  50.839   9.268  1.00  0.00    +0.000 H 
ATOM    159  H51 UNL A   1      14.859  51.464   8.460  1.00  0.00    +0.000 H 
ATOM    160  H52 UNL A   1      16.446  47.880   9.986  1.00  0.00    +0.000 H 
ENDBRANCH   96   97
ENDBRANCH   18   17
BRANCH   18   19
ATOM     19  C17 UNL A   1       7.889  46.331   8.898  1.00  0.00    +0.000 C 
ATOM    126  H18 UNL A   1       7.016  46.398   8.282  1.00  0.00    +0.000 H 
ATOM    127  H19 UNL A   1       7.606  46.033   9.886  1.00  0.00    +0.000 H 
ATOM    128  H20 UNL A   1       8.561  45.607   8.486  1.00  0.00    +0.000 H 
ENDBRANCH   18   19
ENDBRANCH   20   18
ENDBRANCH   22   20
ENDBRANCH   23   22
ENDBRANCH   24   23
ENDBRANCH   25   24
ENDBRANCH   26   25
ENDBRANCH   27   26
ENDBRANCH   28   27
ENDBRANCH   29   28
ENDBRANCH   30   29
ENDBRANCH   32   30
ENDBRANCH   36   35
BRANCH   40   41
ATOM     41  C34 UNL A   1      12.362  48.097   5.307  1.00  0.00    +0.000 C 
ATOM     42  C35 UNL A   1      12.922  47.505   6.449  1.00  0.00    +0.000 C 
ATOM     43  F2  UNL A   1      14.115  47.913   6.909  1.00  0.00    +0.000 F 
ATOM     44  C36 UNL A   1      12.264  46.475   7.118  1.00  0.00    +0.000 C 
ATOM     45  F3  UNL A   1      12.829  45.907   8.192  1.00  0.00    +0.000 F 
ATOM     46  C37 UNL A   1      11.026  46.037   6.672  1.00  0.00    +0.000 C 
ATOM     47  F4  UNL A   1      10.387  45.057   7.325  1.00  0.00    +0.000 F 
ATOM     48  C38 UNL A   1      10.449  46.616   5.552  1.00  0.00    +0.000 C 
ATOM     49  F5  UNL A   1       9.244  46.210   5.133  1.00  0.00    +0.000 F 
ATOM     50  C39 UNL A   1      11.118  47.626   4.866  1.00  0.00    +0.000 C 
ATOM     51  F6  UNL A   1      10.538  48.166   3.783  1.00  0.00    +0.000 F 
ENDBRANCH   40   41
BRANCH   57   58
ATOM     65  C49 UNL A   1      18.441  46.992  -1.167  1.00  0.00    +0.000 C 
ATOM     66  F10 UNL A   1      19.674  46.483  -1.031  1.00  0.00    +0.000 F 
ATOM     67  C50 UNL A   1      17.983  47.952  -0.271  1.00  0.00    +0.000 C 
ATOM     68  F11 UNL A   1      18.789  48.350   0.726  1.00  0.00    +0.000 F 
ATOM     58  C45 UNL A   1      16.701  48.503  -0.402  1.00  0.00    +0.000 C 
ATOM     59  C46 UNL A   1      15.899  48.066  -1.467  1.00  0.00    +0.000 C 
ATOM     60  F7  UNL A   1      14.662  48.561  -1.629  1.00  0.00    +0.000 F 
ATOM     61  C47 UNL A   1      16.352  47.091  -2.349  1.00  0.00    +0.000 C 
ATOM     62  F8  UNL A   1      15.556  46.659  -3.337  1.00  0.00    +0.000 F 
ATOM     63  C48 UNL A   1      17.622  46.552  -2.198  1.00  0.00    +0.000 C 
ATOM     64  F9  UNL A   1      18.056  45.609  -3.045  1.00  0.00    +0.000 F 
ENDBRANCH   57   58
BRANCH   72   73
ATOM     73  C54 UNL A   1      17.460  55.351   0.748  1.00  0.00    +0.000 C 
ATOM     74  C55 UNL A   1      18.723  55.731   1.223  1.00  0.00    +0.000 C 
ATOM     75  F12 UNL A   1      19.267  55.089   2.268  1.00  0.00    +0.000 F 
ATOM     76  C56 UNL A   1      19.419  56.790   0.645  1.00  0.00    +0.000 C 
ATOM     77  F13 UNL A   1      20.609  57.157   1.140  1.00  0.00    +0.000 F 
ATOM     78  C57 UNL A   1      18.875  57.475  -0.431  1.00  0.00    +0.000 C 
ATOM     79  F14 UNL A   1      19.545  58.494  -0.988  1.00  0.00    +0.000 F 
ATOM     80  C58 UNL A   1      17.636  57.104  -0.931  1.00  0.00    +0.000 C 
ATOM     81  F15 UNL A   1      17.115  57.751  -1.982  1.00  0.00    +0.000 F 
ATOM     82  C59 UNL A   1      16.930  56.057  -0.341  1.00  0.00    +0.000 C 
ATOM     83  F16 UNL A   1      15.733  55.717  -0.840  1.00  0.00    +0.000 F 
ENDBRANCH   72   73
TORSDOF 22
ENDMDL
MODEL 3
REMARK VINA RESULT:      -9.2      1.018      6.784
ROOT
ATOM    145  H37 UNL A   1      13.446  46.498   3.183  1.00  0.00    +0.000 H 
ATOM    146  H38 UNL A   1      15.024  46.598   1.110  1.00  0.00    +0.000 H 
ATOM    147  H39 UNL A   1      14.787  50.395   2.749  1.00  0.00    +0.000 H 
ATOM    148  H40 UNL A   1      16.174  56.607   2.473  1.00  0.00    +0.000 H 
ATOM    149  H41 UNL A   1      14.716  56.490   4.549  1.00  0.00    +0.000 H 
ATOM    150  H42 UNL A   1      14.852  52.688   2.873  1.00  0.00    +0.000 H 
ATOM    151  H43 UNL A   1      18.076  53.018  -0.996  1.00  0.00    +0.000 H 
ATOM    152  H44 UNL A   1      17.708  50.509  -1.354  1.00  0.00    +0.000 H 
ATOM    153  H45 UNL A   1      11.825  50.117   6.788  1.00  0.00    +0.000 H 
ATOM    154  H46 UNL A   1      11.851  52.674   6.927  1.00  0.00    +0.000 H 
ATOM     36  C30 UNL A   1      13.667  53.896   5.102  1.00  0.00    +0.000 C 
ATOM     37  C31 UNL A   1      13.285  52.444   5.184  1.00  0.00    +0.000 C 
ATOM     38  N4  UNL A   1      13.690  51.437   4.452  1.00  0.00    +0.000 N 
ATOM     39  C32 UNL A   1      13.093  50.309   4.999  1.00  0.00    +0.000 C 
ATOM     40  C33 UNL A   1      13.164  49.026   4.571  1.00  0.00    +0.000 C 
ATOM     52  C40 UNL A   1      13.878  48.600   3.397  1.00  0.00    +0.000 C 
ATOM     53  C41 UNL A   1      13.936  47.338   2.836  1.00  0.00    +0.000 C 
ATOM     54  C42 UNL A   1      14.771  47.395   1.717  1.00  0.00    +0.000 C 
ATOM     55  C43 UNL A   1      15.203  48.701   1.559  1.00  0.00    +0.000 C 
ATOM     56  N5  UNL A   1      14.652  49.431   2.599  1.00  0.00    +0.000 N 
ATOM     57  C44 UNL A   1      16.061  49.243   0.536  1.00  0.00    +0.000 C 
ATOM     69  C51 UNL A   1      16.423  50.544   0.433  1.00  0.00    +0.000 C 
ATOM     70  N6  UNL A   1      16.060  51.612   1.241  1.00  0.00    +0.000 N 
ATOM     71  C52 UNL A   1      16.658  52.664   0.739  1.00  0.00    +0.000 C 
ATOM     72  C53 UNL A   1      16.610  54.090   1.209  1.00  0.00    +0.000 C 
ATOM     84  C60 UNL A   1      15.838  54.417   2.263  1.00  0.00    +0.000 C 
ATOM     85  C61 UNL A   1      15.725  55.755   2.841  1.00  0.00    +0.000 C 
ATOM     86  C62 UNL A   1      14.941  55.695   3.929  1.00  0.00    +0.000 C 
ATOM     87  C63 UNL A   1      14.459  54.325   4.099  1.00  0.00    +0.000 C 
ATOM     88  N7  UNL A   1      15.021  53.642   3.047  1.00  0.00    +0.000 N 
ATOM     89  C64 UNL A   1      17.491  52.375  -0.438  1.00  0.00    +0.000 C 
ATOM     90  C65 UNL A   1      17.294  51.073  -0.596  1.00  0.00    +0.000 C 
ATOM     91  C66 UNL A   1      12.326  50.748   6.144  1.00  0.00    +0.000 C 
ATOM     92  C67 UNL A   1      12.353  52.069   6.259  1.00  0.00    +0.000 C 
ENDROOT
BRANCH   36   35
ATOM     33  C27 UNL A   1      13.610  55.787   8.410  1.00  0.00    +0.000 C 
ATOM     34  C28 UNL A   1      14.062  54.976   7.362  1.00  0.00    +0.000 C 
ATOM     35  C29 UNL A   1      13.290  54.828   6.198  1.00  0.00    +0.000 C 
ATOM    143  H35 UNL A   1      14.167  55.874   9.274  1.00  0.00    +0.000 H 
ATOM    144  H36 UNL A   1      14.964  54.483   7.446  1.00  0.00    +0.000 H 
ATOM    155  H47 UNL A   1      11.544  55.487   5.207  1.00  0.00    +0.000 H 
ATOM    156  H48 UNL A   1      10.865  57.026   6.948  1.00  0.00    +0.000 H 
ATOM     93  C68 UNL A   1      12.110  55.574   6.066  1.00  0.00    +0.000 C 
ATOM     94  C69 UNL A   1      11.696  56.429   7.082  1.00  0.00    +0.000 C 
ATOM     32  C26 UNL A   1      12.404  56.479   8.282  1.00  0.00    +0.000 C 
BRANCH   32   30
ATOM     30  C25 UNL A   1      11.892  57.288   9.412  1.00  0.00    +0.000 C 
ATOM     31  O2  UNL A   1      12.046  58.496   9.416  1.00  0.00    +0.000 O 
BRANCH   30   29
ATOM     29  N3  UNL A   1      11.232  56.660  10.450  1.00  0.00    +0.000 N 
ATOM    142  H34 UNL A   1      10.606  57.225  10.957  1.00  0.00    +0.000 H 
BRANCH   29   28
ATOM    141  H33 UNL A   1      11.274  55.272  11.966  1.00  0.00    +0.000 H 
ATOM     28  C24 UNL A   1      11.332  55.278  10.898  1.00  0.00    +0.000 C 
ATOM    140  H32 UNL A   1      12.261  54.871  10.559  1.00  0.00    +0.000 H 
BRANCH   28   27
ATOM    138  H30 UNL A   1       9.783  53.857  11.172  1.00  0.00    +0.000 H 
ATOM     27  C23 UNL A   1      10.190  54.418  10.357  1.00  0.00    +0.000 C 
ATOM    139  H31 UNL A   1       9.488  55.093   9.916  1.00  0.00    +0.000 H 
BRANCH   27   26
ATOM    137  H29 UNL A   1      11.652  53.540   9.142  1.00  0.00    +0.000 H 
ATOM     26  C22 UNL A   1      10.593  53.432   9.254  1.00  0.00    +0.000 C 
ATOM    136  H28 UNL A   1      10.035  53.678   8.375  1.00  0.00    +0.000 H 
BRANCH   26   25
ATOM     25  C21 UNL A   1      10.356  51.948   9.563  1.00  0.00    +0.000 C 
ATOM    134  H26 UNL A   1      10.036  51.469   8.661  1.00  0.00    +0.000 H 
ATOM    135  H27 UNL A   1      11.283  51.573   9.943  1.00  0.00    +0.000 H 
BRANCH   25   24
ATOM    132  H24 UNL A   1       9.665  50.855  11.249  1.00  0.00    +0.000 H 
ATOM    133  H25 UNL A   1       9.186  52.573  11.194  1.00  0.00    +0.000 H 
ATOM     24  C20 UNL A   1       9.310  51.663  10.645  1.00  0.00    +0.000 C 
BRANCH   24   23
ATOM    130  H22 UNL A   1       7.320  50.940  10.920  1.00  0.00    +0.000 H 
ATOM    131  H23 UNL A   1       7.497  52.156   9.652  1.00  0.00    +0.000 H 
ATOM     23  C19 UNL A   1       7.922  51.286  10.107  1.00  0.00    +0.000 C 
BRANCH   23   22
ATOM    129  H21 UNL A   1       8.420  50.535   8.261  1.00  0.00    +0.000 H 
ATOM     22  N2  UNL A   1       7.993  50.244   9.100  1.00  0.00    +0.000 N 
BRANCH   22   20
ATOM     20  C18 UNL A   1       7.586  48.945   9.085  1.00  0.00    +0.000 C 
ATOM     21  O1  UNL A   1       6.361  48.764   9.082  1.00  0.00    +0.000 O 
BRANCH   20   18
ATOM     18  C16 UNL A   1       8.532  47.729   9.077  1.00  0.00    +0.000 C 
ATOM    125  H17 UNL A   1       9.026  47.765   8.129  1.00  0.00    +0.000 H 
BRANCH   18   17
ATOM     14  C12 UNL A   1      11.644  48.388  12.085  1.00  0.00    +0.000 C 
ATOM     15  C13 UNL A   1      10.439  47.726  12.377  1.00  0.00    +0.000 C 
ATOM     16  C14 UNL A   1       9.503  47.401  11.400  1.00  0.00    +0.000 C 
ATOM     17  C15 UNL A   1       9.653  47.841  10.096  1.00  0.00    +0.000 C 
ATOM    123  H15 UNL A   1      10.240  47.470  13.357  1.00  0.00    +0.000 H 
ATOM    124  H16 UNL A   1       8.685  46.824  11.651  1.00  0.00    +0.000 H 
ATOM    157  H49 UNL A   1      11.041  48.715   8.779  1.00  0.00    +0.000 H 
ATOM     95  C70 UNL A   1      10.880  48.427   9.758  1.00  0.00    +0.000 C 
ATOM     96  C71 UNL A   1      11.910  48.641  10.711  1.00  0.00    +0.000 C 
BRANCH   14    6
ATOM    118  H10 UNL A   1      13.517  48.259  12.851  1.00  0.00    +0.000 H 
ATOM      6  C5  UNL A   1      12.649  48.767  13.214  1.00  0.00    +0.000 C 
BRANCH    6    5
ATOM      2  C2  UNL A   1      10.919  46.458  16.382  1.00  0.00    +0.000 C 
ATOM      3  C3  UNL A   1      12.347  46.087  15.992  1.00  0.00    +0.000 C 
ATOM      4  C4  UNL A   1      12.806  46.801  14.716  1.00  0.00    +0.000 C 
ATOM    164  H56 UNL A   1      11.580  48.266  17.295  1.00  0.00    +0.000 H 
ATOM    165  H57 UNL A   1       9.880  48.250  16.866  1.00  0.00    +0.000 H 
ATOM    162  H54 UNL A   1      10.373  48.492  14.564  1.00  0.00    +0.000 H 
ATOM    163  H55 UNL A   1      11.338  49.694  15.470  1.00  0.00    +0.000 H 
ATOM      5  N1  UNL A   1      12.416  48.206  14.584  1.00  0.00    +0.000 N 
ATOM    107  C79 UNL A   1      11.188  48.661  15.236  1.00  0.00    +0.000 C 
ATOM    108  C80 UNL A   1      10.865  47.969  16.555  1.00  0.00    +0.000 C 
ATOM    112  H4  UNL A   1      10.240  46.145  15.617  1.00  0.00    +0.000 H 
ATOM    113  H5  UNL A   1      12.397  45.031  15.832  1.00  0.00    +0.000 H 
ATOM    114  H6  UNL A   1      12.994  46.392  16.789  1.00  0.00    +0.000 H 
ATOM    115  H7  UNL A   1      12.400  46.269  13.882  1.00  0.00    +0.000 H 
ATOM    116  H8  UNL A   1      13.875  46.805  14.760  1.00  0.00    +0.000 H 
ATOM    117  H9  UNL A   1      13.095  48.654  15.199  1.00  0.00    +0.000 H 
BRANCH    2    1
ATOM      1  C1  UNL A   1      10.493  45.753  17.661  1.00  0.00    +0.000 C 
ATOM    109  H1  UNL A   1      11.357  45.543  18.256  1.00  0.00    +0.000 H 
ATOM    110  H2  UNL A   1       9.998  44.838  17.415  1.00  0.00    +0.000 H 
ATOM    111  H3  UNL A   1       9.827  46.384  18.211  1.00  0.00    +0.000 H 
ENDBRANCH    2    1
ENDBRANCH    6    5
BRANCH    6    7
ATOM      7  C6  UNL A   1      12.925  50.282  13.321  1.00  0.00    +0.000 C 
ATOM      8  C7  UNL A   1      14.230  50.795  13.454  1.00  0.00    +0.000 C 
ATOM      9  C8  UNL A   1      14.449  52.172  13.537  1.00  0.00    +0.000 C 
ATOM     10  C9  UNL A   1      13.366  53.040  13.504  1.00  0.00    +0.000 C 
ATOM     11  F1  UNL A   1      13.577  54.360  13.595  1.00  0.00    +0.000 F 
ATOM     12  C10 UNL A   1      12.069  52.562  13.377  1.00  0.00    +0.000 C 
ATOM     13  C11 UNL A   1      11.848  51.188  13.272  1.00  0.00    +0.000 C 
ATOM    119  H11 UNL A   1      15.033  50.148  13.490  1.00  0.00    +0.000 H 
ATOM    120  H12 UNL A   1      15.409  52.540  13.621  1.00  0.00    +0.000 H 
ATOM    121  H13 UNL A   1      11.273  53.219  13.361  1.00  0.00    +0.000 H 
ATOM    122  H14 UNL A   1      10.887  50.833  13.156  1.00  0.00    +0.000 H 
ENDBRANCH    6    7
ENDBRANCH   14    6
BRANCH   96   97
ATOM     97  C72 UNL A   1      13.228  49.066  10.202  1.00  0.00    +0.000 C 
ATOM     98  C73 UNL A   1      14.331  48.199  10.201  1.00  0.00    +0.000 C 
ATOM     99  C74 UNL A   1      15.575  48.619   9.719  1.00  0.00    +0.000 C 
ATOM    161  H53 UNL A   1      12.629  51.043   9.757  1.00  0.00    +0.000 H 
ATOM    100  C75 UNL A   1      15.748  49.921   9.226  1.00  0.00    +0.000 C 
ATOM    101  C76 UNL A   1      17.092  50.367   8.710  1.00  0.00    +0.000 C 
ATOM    102  F17 UNL A   1      17.990  50.576   9.712  1.00  0.00    +0.000 F 
ATOM    103  F18 UNL A   1      17.668  49.457   7.875  1.00  0.00    +0.000 F 
ATOM    105  C77 UNL A   1      14.658  50.800   9.248  1.00  0.00    +0.000 C 
ATOM    106  C78 UNL A   1      13.419  50.379   9.737  1.00  0.00    +0.000 C 
ATOM    104  F19 UNL A   1      17.043  51.533   8.006  1.00  0.00    +0.000 F 
ATOM    158  H50 UNL A   1      14.223  47.238  10.562  1.00  0.00    +0.000 H 
ATOM    159  H51 UNL A   1      16.373  47.965   9.726  1.00  0.00    +0.000 H 
ATOM    160  H52 UNL A   1      14.771  51.766   8.902  1.00  0.00    +0.000 H 
ENDBRANCH   96   97
ENDBRANCH   18   17
BRANCH   18   19
ATOM     19  C17 UNL A   1       7.830  46.373   9.028  1.00  0.00    +0.000 C 
ATOM    126  H18 UNL A   1       7.657  46.025  10.025  1.00  0.00    +0.000 H 
ATOM    127  H19 UNL A   1       8.447  45.670   8.508  1.00  0.00    +0.000 H 
ATOM    128  H20 UNL A   1       6.896  46.474   8.518  1.00  0.00    +0.000 H 
ENDBRANCH   18   19
ENDBRANCH   20   18
ENDBRANCH   22   20
ENDBRANCH   23   22
ENDBRANCH   24   23
ENDBRANCH   25   24
ENDBRANCH   26   25
ENDBRANCH   27   26
ENDBRANCH   28   27
ENDBRANCH   29   28
ENDBRANCH   30   29
ENDBRANCH   32   30
ENDBRANCH   36   35
BRANCH   40   41
ATOM     41  C34 UNL A   1      12.439  47.982   5.367  1.00  0.00    +0.000 C 
ATOM     42  C35 UNL A   1      11.137  47.597   5.015  1.00  0.00    +0.000 C 
ATOM     43  F2  UNL A   1      10.545  48.123   3.931  1.00  0.00    +0.000 F 
ATOM     44  C36 UNL A   1      10.428  46.677   5.784  1.00  0.00    +0.000 C 
ATOM     45  F3  UNL A   1       9.176  46.343   5.442  1.00  0.00    +0.000 F 
ATOM     46  C37 UNL A   1      11.016  46.110   6.904  1.00  0.00    +0.000 C 
ATOM     47  F4  UNL A   1      10.338  45.215   7.636  1.00  0.00    +0.000 F 
ATOM     48  C38 UNL A   1      12.306  46.468   7.266  1.00  0.00    +0.000 C 
ATOM     49  F5  UNL A   1      12.883  45.904   8.335  1.00  0.00    +0.000 F 
ATOM     50  C39 UNL A   1      13.006  47.408   6.514  1.00  0.00    +0.000 C 
ATOM     51  F6  UNL A   1      14.251  47.738   6.888  1.00  0.00    +0.000 F 
ENDBRANCH   40   41
BRANCH   57   58
ATOM     65  C49 UNL A   1      16.338  47.121  -2.610  1.00  0.00    +0.000 C 
ATOM     66  F10 UNL A   1      15.578  46.768  -3.655  1.00  0.00    +0.000 F 
ATOM     67  C50 UNL A   1      15.805  47.915  -1.599  1.00  0.00    +0.000 C 
ATOM     68  F11 UNL A   1      14.529  48.320  -1.694  1.00  0.00    +0.000 F 
ATOM     58  C45 UNL A   1      16.580  48.287  -0.493  1.00  0.00    +0.000 C 
ATOM     59  C46 UNL A   1      17.905  47.829  -0.430  1.00  0.00    +0.000 C 
ATOM     60  F7  UNL A   1      18.688  48.165   0.607  1.00  0.00    +0.000 F 
ATOM     61  C47 UNL A   1      18.442  47.053  -1.452  1.00  0.00    +0.000 C 
ATOM     62  F8  UNL A   1      19.721  46.658  -1.392  1.00  0.00    +0.000 F 
ATOM     63  C48 UNL A   1      17.660  46.701  -2.542  1.00  0.00    +0.000 C 
ATOM     64  F9  UNL A   1      18.179  45.958  -3.529  1.00  0.00    +0.000 F 
ENDBRANCH   57   58
BRANCH   72   73
ATOM     73  C54 UNL A   1      17.373  55.154   0.509  1.00  0.00    +0.000 C 
ATOM     74  C55 UNL A   1      18.640  55.562   0.951  1.00  0.00    +0.000 C 
ATOM     75  F12 UNL A   1      19.209  54.958   2.006  1.00  0.00    +0.000 F 
ATOM     76  C56 UNL A   1      19.314  56.611   0.329  1.00  0.00    +0.000 C 
ATOM     77  F13 UNL A   1      20.507  57.006   0.793  1.00  0.00    +0.000 F 
ATOM     78  C57 UNL A   1      18.745  57.256  -0.758  1.00  0.00    +0.000 C 
ATOM     79  F14 UNL A   1      19.393  58.265  -1.356  1.00  0.00    +0.000 F 
ATOM     80  C58 UNL A   1      17.501  56.856  -1.225  1.00  0.00    +0.000 C 
ATOM     81  F15 UNL A   1      16.956  57.466  -2.286  1.00  0.00    +0.000 F 
ATOM     82  C59 UNL A   1      16.818  55.820  -0.592  1.00  0.00    +0.000 C 
ATOM     83  F16 UNL A   1      15.617  55.452  -1.060  1.00  0.00    +0.000 F 
ENDBRANCH   72   73
TORSDOF 22
ENDMDL
MODEL 4
REMARK VINA RESULT:      -9.0      1.417      3.091
ROOT
ATOM    145  H37 UNL A   1      18.347  53.043  -0.790  1.00  0.00    +0.000 H 
ATOM    146  H38 UNL A   1      17.784  50.590  -1.472  1.00  0.00    +0.000 H 
ATOM    147  H39 UNL A   1      15.620  51.523   1.934  1.00  0.00    +0.000 H 
ATOM    148  H40 UNL A   1      11.729  49.727   6.648  1.00  0.00    +0.000 H 
ATOM    149  H41 UNL A   1      12.202  52.147   7.256  1.00  0.00    +0.000 H 
ATOM    150  H42 UNL A   1      14.462  51.213   3.894  1.00  0.00    +0.000 H 
ATOM    151  H43 UNL A   1      13.120  46.521   2.609  1.00  0.00    +0.000 H 
ATOM    152  H44 UNL A   1      14.709  46.748   0.613  1.00  0.00    +0.000 H 
ATOM    153  H45 UNL A   1      16.664  56.281   3.134  1.00  0.00    +0.000 H 
ATOM    154  H46 UNL A   1      15.410  55.951   5.343  1.00  0.00    +0.000 H 
ATOM     36  C30 UNL A   1      14.045  53.455   5.517  1.00  0.00    +0.000 C 
ATOM     37  C31 UNL A   1      14.995  53.910   4.444  1.00  0.00    +0.000 C 
ATOM     38  N4  UNL A   1      15.402  53.276   3.373  1.00  0.00    +0.000 N 
ATOM     39  C32 UNL A   1      16.206  54.175   2.685  1.00  0.00    +0.000 C 
ATOM     40  C33 UNL A   1      16.898  53.980   1.538  1.00  0.00    +0.000 C 
ATOM     52  C40 UNL A   1      16.947  52.734   0.821  1.00  0.00    +0.000 C 
ATOM     53  C41 UNL A   1      17.690  52.415  -0.301  1.00  0.00    +0.000 C 
ATOM     54  C42 UNL A   1      17.398  51.096  -0.658  1.00  0.00    +0.000 C 
ATOM     55  C43 UNL A   1      16.502  50.580   0.264  1.00  0.00    +0.000 C 
ATOM     56  N5  UNL A   1      16.230  51.597   1.165  1.00  0.00    +0.000 N 
ATOM     57  C44 UNL A   1      15.933  49.258   0.316  1.00  0.00    +0.000 C 
ATOM     69  C51 UNL A   1      15.077  48.817   1.268  1.00  0.00    +0.000 C 
ATOM     70  N6  UNL A   1      14.580  49.497   2.372  1.00  0.00    +0.000 N 
ATOM     71  C52 UNL A   1      13.794  48.653   2.993  1.00  0.00    +0.000 C 
ATOM     72  C53 UNL A   1      13.002  48.854   4.253  1.00  0.00    +0.000 C 
ATOM     84  C60 UNL A   1      13.089  50.025   4.913  1.00  0.00    +0.000 C 
ATOM     85  C61 UNL A   1      12.351  50.364   6.128  1.00  0.00    +0.000 C 
ATOM     86  C62 UNL A   1      12.613  51.639   6.457  1.00  0.00    +0.000 C 
ATOM     87  C63 UNL A   1      13.575  52.193   5.504  1.00  0.00    +0.000 C 
ATOM     88  N7  UNL A   1      13.821  51.154   4.639  1.00  0.00    +0.000 N 
ATOM     89  C64 UNL A   1      13.686  47.341   2.336  1.00  0.00    +0.000 C 
ATOM     90  C65 UNL A   1      14.505  47.487   1.304  1.00  0.00    +0.000 C 
ATOM     91  C66 UNL A   1      16.203  55.409   3.439  1.00  0.00    +0.000 C 
ATOM     92  C67 UNL A   1      15.529  55.275   4.573  1.00  0.00    +0.000 C 
ENDROOT
BRANCH   36   35
ATOM     33  C27 UNL A   1      13.519  55.482   8.701  1.00  0.00    +0.000 C 
ATOM     34  C28 UNL A   1      14.113  54.627   7.764  1.00  0.00    +0.000 C 
ATOM     35  C29 UNL A   1      13.518  54.432   6.507  1.00  0.00    +0.000 C 
ATOM    143  H35 UNL A   1      13.944  55.604   9.633  1.00  0.00    +0.000 H 
ATOM    144  H36 UNL A   1      14.990  54.139   7.999  1.00  0.00    +0.000 H 
ATOM    155  H47 UNL A   1      11.939  55.050   5.246  1.00  0.00    +0.000 H 
ATOM    156  H48 UNL A   1      11.024  56.660   6.805  1.00  0.00    +0.000 H 
ATOM     93  C68 UNL A   1      12.375  55.172   6.174  1.00  0.00    +0.000 C 
ATOM     94  C69 UNL A   1      11.823  56.069   7.082  1.00  0.00    +0.000 C 
ATOM     32  C26 UNL A   1      12.349  56.169   8.370  1.00  0.00    +0.000 C 
BRANCH   32   30
ATOM     30  C25 UNL A   1      11.683  57.024   9.379  1.00  0.00    +0.000 C 
ATOM     31  O2  UNL A   1      11.492  58.204   9.148  1.00  0.00    +0.000 O 
BRANCH   30   29
ATOM     29  N3  UNL A   1      11.273  56.467  10.575  1.00  0.00    +0.000 N 
ATOM    142  H34 UNL A   1      11.850  56.656  11.350  1.00  0.00    +0.000 H 
BRANCH   29   28
ATOM    141  H33 UNL A   1       9.252  56.122  10.426  1.00  0.00    +0.000 H 
ATOM     28  C24 UNL A   1      10.107  55.639  10.849  1.00  0.00    +0.000 C 
ATOM    140  H32 UNL A   1      10.004  55.526  11.907  1.00  0.00    +0.000 H 
BRANCH   28   27
ATOM    138  H30 UNL A   1      11.215  54.159   9.808  1.00  0.00    +0.000 H 
ATOM     27  C23 UNL A   1      10.229  54.253  10.214  1.00  0.00    +0.000 C 
ATOM    139  H31 UNL A   1      10.023  53.548  10.991  1.00  0.00    +0.000 H 
BRANCH   27   26
ATOM    137  H29 UNL A   1       8.855  54.924   8.784  1.00  0.00    +0.000 H 
ATOM     26  C22 UNL A   1       9.223  53.968   9.093  1.00  0.00    +0.000 C 
ATOM    136  H28 UNL A   1       8.470  53.318   9.486  1.00  0.00    +0.000 H 
BRANCH   26   25
ATOM     25  C21 UNL A   1       9.797  53.314   7.829  1.00  0.00    +0.000 C 
ATOM    134  H26 UNL A   1      10.705  53.821   7.577  1.00  0.00    +0.000 H 
ATOM    135  H27 UNL A   1       9.934  52.280   8.067  1.00  0.00    +0.000 H 
BRANCH   25   24
ATOM    132  H24 UNL A   1       7.881  53.152   6.925  1.00  0.00    +0.000 H 
ATOM    133  H25 UNL A   1       8.998  54.315   6.162  1.00  0.00    +0.000 H 
ATOM     24  C20 UNL A   1       8.881  53.347   6.601  1.00  0.00    +0.000 C 
BRANCH   24   23
ATOM    130  H22 UNL A   1       8.917  52.707   4.565  1.00  0.00    +0.000 H 
ATOM    131  H23 UNL A   1      10.299  52.182   5.530  1.00  0.00    +0.000 H 
ATOM     23  C19 UNL A   1       9.239  52.328   5.511  1.00  0.00    +0.000 C 
BRANCH   23   22
ATOM    129  H21 UNL A   1       9.107  50.283   5.358  1.00  0.00    +0.000 H 
ATOM     22  N2  UNL A   1       8.608  51.041   5.740  1.00  0.00    +0.000 N 
BRANCH   22   20
ATOM     20  C18 UNL A   1       7.462  50.675   6.377  1.00  0.00    +0.000 C 
ATOM     21  O1  UNL A   1       6.423  50.754   5.707  1.00  0.00    +0.000 O 
BRANCH   20   18
ATOM     18  C16 UNL A   1       7.386  50.189   7.837  1.00  0.00    +0.000 C 
ATOM    125  H17 UNL A   1       6.696  49.372   7.824  1.00  0.00    +0.000 H 
BRANCH   18   17
ATOM     14  C12 UNL A   1      10.961  48.343   9.563  1.00  0.00    +0.000 C 
ATOM     15  C13 UNL A   1      10.121  47.666   8.662  1.00  0.00    +0.000 C 
ATOM     16  C14 UNL A   1       9.057  48.287   8.013  1.00  0.00    +0.000 C 
ATOM     17  C15 UNL A   1       8.688  49.582   8.331  1.00  0.00    +0.000 C 
ATOM    123  H15 UNL A   1      10.300  46.667   8.474  1.00  0.00    +0.000 H 
ATOM    124  H16 UNL A   1       8.538  47.774   7.284  1.00  0.00    +0.000 H 
ATOM    157  H49 UNL A   1       9.333  51.294   9.369  1.00  0.00    +0.000 H 
ATOM     95  C70 UNL A   1       9.555  50.308   9.159  1.00  0.00    +0.000 C 
ATOM     96  C71 UNL A   1      10.726  49.737   9.722  1.00  0.00    +0.000 C 
BRANCH   14    6
ATOM    118  H10 UNL A   1      11.976  46.620   9.897  1.00  0.00    +0.000 H 
ATOM      6  C5  UNL A   1      12.117  47.602  10.298  1.00  0.00    +0.000 C 
BRANCH    6    5
ATOM      2  C2  UNL A   1      11.043  45.940  14.099  1.00  0.00    +0.000 C 
ATOM      3  C3  UNL A   1      12.529  45.905  13.755  1.00  0.00    +0.000 C 
ATOM      4  C4  UNL A   1      12.799  46.309  12.301  1.00  0.00    +0.000 C 
ATOM    164  H56 UNL A   1      11.106  48.048  14.400  1.00  0.00    +0.000 H 
ATOM    165  H57 UNL A   1       9.503  47.408  14.092  1.00  0.00    +0.000 H 
ATOM    162  H54 UNL A   1       9.980  47.087  11.797  1.00  0.00    +0.000 H 
ATOM    163  H55 UNL A   1      10.514  48.732  12.253  1.00  0.00    +0.000 H 
ATOM      5  N1  UNL A   1      12.015  47.432  11.784  1.00  0.00    +0.000 N 
ATOM    107  C79 UNL A   1      10.685  47.680  12.342  1.00  0.00    +0.000 C 
ATOM    108  C80 UNL A   1      10.537  47.349  13.823  1.00  0.00    +0.000 C 
ATOM    112  H4  UNL A   1      10.514  45.229  13.500  1.00  0.00    +0.000 H 
ATOM    113  H5  UNL A   1      12.895  44.913  13.910  1.00  0.00    +0.000 H 
ATOM    114  H6  UNL A   1      13.028  46.609  14.388  1.00  0.00    +0.000 H 
ATOM    115  H7  UNL A   1      12.598  45.458  11.685  1.00  0.00    +0.000 H 
ATOM    116  H8  UNL A   1      13.817  46.638  12.281  1.00  0.00    +0.000 H 
ATOM    117  H9  UNL A   1      12.509  48.220  12.200  1.00  0.00    +0.000 H 
BRANCH    2    1
ATOM      1  C1  UNL A   1      10.801  45.557  15.551  1.00  0.00    +0.000 C 
ATOM    109  H1  UNL A   1      11.502  46.070  16.176  1.00  0.00    +0.000 H 
ATOM    110  H2  UNL A   1      10.927  44.500  15.666  1.00  0.00    +0.000 H 
ATOM    111  H3  UNL A   1       9.806  45.830  15.832  1.00  0.00    +0.000 H 
ENDBRANCH    2    1
ENDBRANCH    6    5
BRANCH    6    7
ATOM      7  C6  UNL A   1      13.524  48.125   9.939  1.00  0.00    +0.000 C 
ATOM      8  C7  UNL A   1      14.440  48.541  10.926  1.00  0.00    +0.000 C 
ATOM      9  C8  UNL A   1      15.710  48.999  10.570  1.00  0.00    +0.000 C 
ATOM     10  C9  UNL A   1      16.065  49.058   9.229  1.00  0.00    +0.000 C 
ATOM     11  F1  UNL A   1      17.281  49.508   8.889  1.00  0.00    +0.000 F 
ATOM     12  C10 UNL A   1      15.182  48.658   8.236  1.00  0.00    +0.000 C 
ATOM     13  C11 UNL A   1      13.919  48.178   8.589  1.00  0.00    +0.000 C 
ATOM    119  H11 UNL A   1      14.170  48.508  11.921  1.00  0.00    +0.000 H 
ATOM    120  H12 UNL A   1      16.380  49.290  11.299  1.00  0.00    +0.000 H 
ATOM    121  H13 UNL A   1      15.458  48.713   7.242  1.00  0.00    +0.000 H 
ATOM    122  H14 UNL A   1      13.270  47.860   7.853  1.00  0.00    +0.000 H 
ENDBRANCH    6    7
ENDBRANCH   14    6
BRANCH   96   97
ATOM     97  C72 UNL A   1      11.668  50.649  10.399  1.00  0.00    +0.000 C 
ATOM     98  C73 UNL A   1      12.684  51.311   9.695  1.00  0.00    +0.000 C 
ATOM     99  C74 UNL A   1      13.572  52.169  10.353  1.00  0.00    +0.000 C 
ATOM    161  H53 UNL A   1      10.869  50.344  12.331  1.00  0.00    +0.000 H 
ATOM    100  C75 UNL A   1      13.466  52.385  11.734  1.00  0.00    +0.000 C 
ATOM    101  C76 UNL A   1      14.428  53.310  12.437  1.00  0.00    +0.000 C 
ATOM    102  F17 UNL A   1      15.669  52.765  12.569  1.00  0.00    +0.000 F 
ATOM    103  F18 UNL A   1      14.605  54.489  11.779  1.00  0.00    +0.000 F 
ATOM    105  C77 UNL A   1      12.470  51.706  12.448  1.00  0.00    +0.000 C 
ATOM    106  C78 UNL A   1      11.589  50.845  11.789  1.00  0.00    +0.000 C 
ATOM    104  F19 UNL A   1      14.034  53.646  13.697  1.00  0.00    +0.000 F 
ATOM    158  H50 UNL A   1      12.779  51.162   8.678  1.00  0.00    +0.000 H 
ATOM    159  H51 UNL A   1      14.312  52.648   9.816  1.00  0.00    +0.000 H 
ATOM    160  H52 UNL A   1      12.386  51.843  13.468  1.00  0.00    +0.000 H 
ENDBRANCH   96   97
ENDBRANCH   18   17
BRANCH   18   19
ATOM     19  C17 UNL A   1       6.717  51.166   8.802  1.00  0.00    +0.000 C 
ATOM    126  H18 UNL A   1       7.372  51.357   9.627  1.00  0.00    +0.000 H 
ATOM    127  H19 UNL A   1       5.803  50.742   9.163  1.00  0.00    +0.000 H 
ATOM    128  H20 UNL A   1       6.508  52.084   8.293  1.00  0.00    +0.000 H 
ENDBRANCH   18   19
ENDBRANCH   20   18
ENDBRANCH   22   20
ENDBRANCH   23   22
ENDBRANCH   24   23
ENDBRANCH   25   24
ENDBRANCH   26   25
ENDBRANCH   27   26
ENDBRANCH   28   27
ENDBRANCH   29   28
ENDBRANCH   30   29
ENDBRANCH   32   30
ENDBRANCH   36   35
BRANCH   40   41
ATOM     41  C34 UNL A   1      17.675  55.137   0.984  1.00  0.00    +0.000 C 
ATOM     42  C35 UNL A   1      17.198  55.846  -0.129  1.00  0.00    +0.000 C 
ATOM     43  F2  UNL A   1      16.017  55.526  -0.680  1.00  0.00    +0.000 F 
ATOM     44  C36 UNL A   1      17.942  56.879  -0.694  1.00  0.00    +0.000 C 
ATOM     45  F3  UNL A   1      17.479  57.526  -1.772  1.00  0.00    +0.000 F 
ATOM     46  C37 UNL A   1      19.163  57.238  -0.142  1.00  0.00    +0.000 C 
ATOM     47  F4  UNL A   1      19.871  58.242  -0.676  1.00  0.00    +0.000 F 
ATOM     48  C38 UNL A   1      19.648  56.559   0.966  1.00  0.00    +0.000 C 
ATOM     49  F5  UNL A   1      20.816  56.919   1.514  1.00  0.00    +0.000 F 
ATOM     50  C39 UNL A   1      18.919  55.508   1.514  1.00  0.00    +0.000 C 
ATOM     51  F6  UNL A   1      19.414  54.866   2.584  1.00  0.00    +0.000 F 
ENDBRANCH   40   41
BRANCH   57   58
ATOM     65  C49 UNL A   1      15.941  47.274  -2.931  1.00  0.00    +0.000 C 
ATOM     66  F10 UNL A   1      15.135  47.058  -3.980  1.00  0.00    +0.000 F 
ATOM     67  C50 UNL A   1      15.509  48.072  -1.876  1.00  0.00    +0.000 C 
ATOM     68  F11 UNL A   1      14.285  48.619  -1.932  1.00  0.00    +0.000 F 
ATOM     58  C45 UNL A   1      16.332  48.302  -0.765  1.00  0.00    +0.000 C 
ATOM     59  C46 UNL A   1      17.599  47.699  -0.745  1.00  0.00    +0.000 C 
ATOM     60  F7  UNL A   1      18.424  47.896   0.295  1.00  0.00    +0.000 F 
ATOM     61  C47 UNL A   1      18.036  46.919  -1.810  1.00  0.00    +0.000 C 
ATOM     62  F8  UNL A   1      19.265  46.383  -1.789  1.00  0.00    +0.000 F 
ATOM     63  C48 UNL A   1      17.209  46.708  -2.903  1.00  0.00    +0.000 C 
ATOM     64  F9  UNL A   1      17.632  45.961  -3.932  1.00  0.00    +0.000 F 
ENDBRANCH   57   58
BRANCH   72   73
ATOM     73  C54 UNL A   1      12.150  47.771   4.804  1.00  0.00    +0.000 C 
ATOM     74  C55 UNL A   1      12.693  46.720   5.557  1.00  0.00    +0.000 C 
ATOM     75  F12 UNL A   1      14.006  46.700   5.831  1.00  0.00    +0.000 F 
ATOM     76  C56 UNL A   1      11.893  45.671   6.006  1.00  0.00    +0.000 C 
ATOM     77  F13 UNL A   1      12.442  44.660   6.694  1.00  0.00    +0.000 F 
ATOM     78  C57 UNL A   1      10.534  45.664   5.730  1.00  0.00    +0.000 C 
ATOM     79  F14 UNL A   1       9.765  44.655   6.162  1.00  0.00    +0.000 F 
ATOM     80  C58 UNL A   1       9.972  46.704   5.003  1.00  0.00    +0.000 C 
ATOM     81  F15 UNL A   1       8.656  46.710   4.749  1.00  0.00    +0.000 F 
ATOM     82  C59 UNL A   1      10.774  47.743   4.537  1.00  0.00    +0.000 C 
ATOM     83  F16 UNL A   1      10.209  48.736   3.835  1.00  0.00    +0.000 F 
ENDBRANCH   72   73
TORSDOF 22
ENDMDL
MODEL 5
REMARK VINA RESULT:      -8.8     57.865     65.562
ROOT
ATOM    145  H37 UNL A   1      49.208   8.991  53.003  1.00  0.00    +0.000 H 
ATOM    146  H38 UNL A   1      51.043  10.783  53.469  1.00  0.00    +0.000 H 
ATOM    147  H39 UNL A   1      48.851  11.993  50.169  1.00  0.00    +0.000 H 
ATOM    148  H40 UNL A   1      47.962  16.045  45.334  1.00  0.00    +0.000 H 
ATOM    149  H41 UNL A   1      46.113  14.350  44.940  1.00  0.00    +0.000 H 
ATOM    150  H42 UNL A   1      48.353  13.057  48.195  1.00  0.00    +0.000 H 
ATOM    151  H43 UNL A   1      51.723  16.711  49.069  1.00  0.00    +0.000 H 
ATOM    152  H44 UNL A   1      52.521  15.325  51.068  1.00  0.00    +0.000 H 
ATOM    153  H45 UNL A   1      45.276   8.562  49.388  1.00  0.00    +0.000 H 
ATOM    154  H46 UNL A   1      44.724   9.709  47.164  1.00  0.00    +0.000 H 
ATOM     36  C30 UNL A   1      46.109  12.170  46.778  1.00  0.00    +0.000 C 
ATOM     37  C31 UNL A   1      46.306  11.168  47.882  1.00  0.00    +0.000 C 
ATOM     38  N4  UNL A   1      47.140  11.199  48.891  1.00  0.00    +0.000 N 
ATOM     39  C32 UNL A   1      46.854  10.074  49.652  1.00  0.00    +0.000 C 
ATOM     40  C33 UNL A   1      47.471   9.635  50.774  1.00  0.00    +0.000 C 
ATOM     52  C40 UNL A   1      48.609  10.276  51.378  1.00  0.00    +0.000 C 
ATOM     53  C41 UNL A   1      49.357   9.859  52.464  1.00  0.00    +0.000 C 
ATOM     54  C42 UNL A   1      50.349  10.813  52.704  1.00  0.00    +0.000 C 
ATOM     55  C43 UNL A   1      50.243  11.806  51.745  1.00  0.00    +0.000 C 
ATOM     56  N5  UNL A   1      49.169  11.467  50.939  1.00  0.00    +0.000 N 
ATOM     57  C44 UNL A   1      51.060  12.981  51.580  1.00  0.00    +0.000 C 
ATOM     69  C51 UNL A   1      50.910  13.900  50.596  1.00  0.00    +0.000 C 
ATOM     70  N6  UNL A   1      49.987  13.920  49.560  1.00  0.00    +0.000 N 
ATOM     71  C52 UNL A   1      50.242  15.005  48.871  1.00  0.00    +0.000 C 
ATOM     72  C53 UNL A   1      49.557  15.520  47.637  1.00  0.00    +0.000 C 
ATOM     84  C60 UNL A   1      48.559  14.805  47.082  1.00  0.00    +0.000 C 
ATOM     85  C61 UNL A   1      47.790  15.205  45.905  1.00  0.00    +0.000 C 
ATOM     86  C62 UNL A   1      46.822  14.300  45.689  1.00  0.00    +0.000 C 
ATOM     87  C63 UNL A   1      46.932  13.232  46.682  1.00  0.00    +0.000 C 
ATOM     88  N7  UNL A   1      48.009  13.603  47.451  1.00  0.00    +0.000 N 
ATOM     89  C64 UNL A   1      51.347  15.811  49.409  1.00  0.00    +0.000 C 
ATOM     90  C65 UNL A   1      51.734  15.082  50.447  1.00  0.00    +0.000 C 
ATOM     91  C66 UNL A   1      45.748   9.398  49.010  1.00  0.00    +0.000 C 
ATOM     92  C67 UNL A   1      45.420   9.993  47.872  1.00  0.00    +0.000 C 
ENDROOT
BRANCH   36   35
ATOM     33  C27 UNL A   1      43.802  11.215  43.899  1.00  0.00    +0.000 C 
ATOM     34  C28 UNL A   1      44.896  11.202  44.774  1.00  0.00    +0.000 C 
ATOM     35  C29 UNL A   1      44.928  12.065  45.881  1.00  0.00    +0.000 C 
ATOM    143  H35 UNL A   1      43.792  10.597  43.072  1.00  0.00    +0.000 H 
ATOM    144  H36 UNL A   1      45.681  10.555  44.603  1.00  0.00    +0.000 H 
ATOM    155  H47 UNL A   1      43.817  13.498  46.966  1.00  0.00    +0.000 H 
ATOM    156  H48 UNL A   1      41.856  13.382  45.551  1.00  0.00    +0.000 H 
ATOM     93  C68 UNL A   1      43.812  12.872  46.145  1.00  0.00    +0.000 C 
ATOM     94  C69 UNL A   1      42.699  12.837  45.311  1.00  0.00    +0.000 C 
ATOM     32  C26 UNL A   1      42.724  12.066  44.149  1.00  0.00    +0.000 C 
BRANCH   32   30
ATOM     30  C25 UNL A   1      41.595  12.130  43.194  1.00  0.00    +0.000 C 
ATOM     31  O2  UNL A   1      40.869  11.164  43.042  1.00  0.00    +0.000 O 
BRANCH   30   29
ATOM     29  N3  UNL A   1      41.369  13.296  42.488  1.00  0.00    +0.000 N 
ATOM    142  H34 UNL A   1      40.426  13.490  42.281  1.00  0.00    +0.000 H 
BRANCH   29   28
ATOM    141  H33 UNL A   1      43.299  13.825  42.018  1.00  0.00    +0.000 H 
ATOM     28  C24 UNL A   1      42.330  14.278  42.008  1.00  0.00    +0.000 C 
ATOM    140  H32 UNL A   1      42.298  15.135  42.647  1.00  0.00    +0.000 H 
BRANCH   28   27
ATOM    138  H30 UNL A   1      42.376  13.952  39.913  1.00  0.00    +0.000 H 
ATOM     27  C23 UNL A   1      42.030  14.719  40.575  1.00  0.00    +0.000 C 
ATOM    139  H31 UNL A   1      40.973  14.876  40.525  1.00  0.00    +0.000 H 
BRANCH   27   26
ATOM    137  H29 UNL A   1      43.203  16.393  41.025  1.00  0.00    +0.000 H 
ATOM     26  C22 UNL A   1      42.684  16.040  40.158  1.00  0.00    +0.000 C 
ATOM    136  H28 UNL A   1      41.911  16.696  39.816  1.00  0.00    +0.000 H 
BRANCH   26   25
ATOM     25  C21 UNL A   1      43.743  15.943  39.051  1.00  0.00    +0.000 C 
ATOM    134  H26 UNL A   1      43.852  14.911  38.787  1.00  0.00    +0.000 H 
ATOM    135  H27 UNL A   1      43.389  16.556  38.248  1.00  0.00    +0.000 H 
BRANCH   25   24
ATOM    132  H24 UNL A   1      45.864  15.855  38.967  1.00  0.00    +0.000 H 
ATOM    133  H25 UNL A   1      45.162  17.494  39.063  1.00  0.00    +0.000 H 
ATOM     24  C20 UNL A   1      45.127  16.485  39.419  1.00  0.00    +0.000 C 
BRANCH   24   23
ATOM    130  H22 UNL A   1      44.544  16.198  41.453  1.00  0.00    +0.000 H 
ATOM    131  H23 UNL A   1      46.259  15.931  41.130  1.00  0.00    +0.000 H 
ATOM     23  C19 UNL A   1      45.408  16.546  40.927  1.00  0.00    +0.000 C 
BRANCH   23   22
ATOM    129  H21 UNL A   1      46.240  18.413  40.719  1.00  0.00    +0.000 H 
ATOM     22  N2  UNL A   1      45.715  17.893  41.370  1.00  0.00    +0.000 N 
BRANCH   22   20
ATOM     20  C18 UNL A   1      45.421  18.581  42.508  1.00  0.00    +0.000 C 
ATOM     21  O1  UNL A   1      44.252  18.979  42.610  1.00  0.00    +0.000 O 
BRANCH   20   18
ATOM     18  C16 UNL A   1      46.427  18.888  43.633  1.00  0.00    +0.000 C 
ATOM    125  H17 UNL A   1      46.822  19.854  43.399  1.00  0.00    +0.000 H 
BRANCH   18   17
ATOM     14  C12 UNL A   1      44.859  19.436  47.684  1.00  0.00    +0.000 C 
ATOM     15  C13 UNL A   1      44.940  20.489  46.755  1.00  0.00    +0.000 C 
ATOM     16  C14 UNL A   1      45.317  20.296  45.430  1.00  0.00    +0.000 C 
ATOM     17  C15 UNL A   1      45.767  19.063  44.990  1.00  0.00    +0.000 C 
ATOM    123  H15 UNL A   1      44.709  21.444  47.070  1.00  0.00    +0.000 H 
ATOM    124  H16 UNL A   1      45.258  21.083  44.765  1.00  0.00    +0.000 H 
ATOM    157  H49 UNL A   1      45.896  17.039  45.545  1.00  0.00    +0.000 H 
ATOM     95  C70 UNL A   1      45.619  17.980  45.866  1.00  0.00    +0.000 C 
ATOM     96  C71 UNL A   1      45.102  18.128  47.180  1.00  0.00    +0.000 C 
BRANCH   14    6
ATOM    118  H10 UNL A   1      43.905  18.811  49.361  1.00  0.00    +0.000 H 
ATOM      6  C5  UNL A   1      44.470  19.700  49.169  1.00  0.00    +0.000 C 
BRANCH    6    5
ATOM      2  C2  UNL A   1      42.255  22.630  51.376  1.00  0.00    +0.000 C 
ATOM      3  C3  UNL A   1      43.309  23.177  50.418  1.00  0.00    +0.000 C 
ATOM      4  C4  UNL A   1      44.200  22.071  49.842  1.00  0.00    +0.000 C 
ATOM    164  H56 UNL A   1      40.993  22.070  49.755  1.00  0.00    +0.000 H 
ATOM    165  H57 UNL A   1      40.655  21.233  51.257  1.00  0.00    +0.000 H 
ATOM    162  H54 UNL A   1      42.589  19.888  51.041  1.00  0.00    +0.000 H 
ATOM    163  H55 UNL A   1      41.724  19.875  49.476  1.00  0.00    +0.000 H 
ATOM      5  N1  UNL A   1      43.527  20.828  49.462  1.00  0.00    +0.000 N 
ATOM    107  C79 UNL A   1      42.306  20.442  50.171  1.00  0.00    +0.000 C 
ATOM    108  C80 UNL A   1      41.426  21.605  50.615  1.00  0.00    +0.000 C 
ATOM    112  H4  UNL A   1      42.730  22.174  52.220  1.00  0.00    +0.000 H 
ATOM    113  H5  UNL A   1      43.924  23.874  50.946  1.00  0.00    +0.000 H 
ATOM    114  H6  UNL A   1      42.799  23.645  49.602  1.00  0.00    +0.000 H 
ATOM    115  H7  UNL A   1      44.939  21.832  50.577  1.00  0.00    +0.000 H 
ATOM    116  H8  UNL A   1      44.597  22.470  48.931  1.00  0.00    +0.000 H 
ATOM    117  H9  UNL A   1      43.112  21.097  48.571  1.00  0.00    +0.000 H 
BRANCH    2    1
ATOM      1  C1  UNL A   1      41.370  23.741  51.920  1.00  0.00    +0.000 C 
ATOM    109  H1  UNL A   1      40.454  23.769  51.368  1.00  0.00    +0.000 H 
ATOM    110  H2  UNL A   1      41.875  24.679  51.821  1.00  0.00    +0.000 H 
ATOM    111  H3  UNL A   1      41.159  23.556  52.952  1.00  0.00    +0.000 H 
ENDBRANCH    2    1
ENDBRANCH    6    5
BRANCH    6    7
ATOM      7  C6  UNL A   1      45.676  19.780  50.127  1.00  0.00    +0.000 C 
ATOM      8  C7  UNL A   1      45.619  19.284  51.445  1.00  0.00    +0.000 C 
ATOM      9  C8  UNL A   1      46.732  19.361  52.284  1.00  0.00    +0.000 C 
ATOM     10  C9  UNL A   1      47.902  19.946  51.817  1.00  0.00    +0.000 C 
ATOM     11  F1  UNL A   1      48.966  20.027  52.628  1.00  0.00    +0.000 F 
ATOM     12  C10 UNL A   1      47.986  20.445  50.525  1.00  0.00    +0.000 C 
ATOM     13  C11 UNL A   1      46.883  20.350  49.676  1.00  0.00    +0.000 C 
ATOM    119  H11 UNL A   1      44.745  18.862  51.793  1.00  0.00    +0.000 H 
ATOM    120  H12 UNL A   1      46.685  18.984  53.243  1.00  0.00    +0.000 H 
ATOM    121  H13 UNL A   1      48.861  20.883  50.194  1.00  0.00    +0.000 H 
ATOM    122  H14 UNL A   1      46.951  20.701  48.708  1.00  0.00    +0.000 H 
ENDBRANCH    6    7
ENDBRANCH   14    6
BRANCH   96   97
ATOM     97  C72 UNL A   1      44.792  16.896  47.931  1.00  0.00    +0.000 C 
ATOM     98  C73 UNL A   1      43.530  16.288  47.858  1.00  0.00    +0.000 C 
ATOM     99  C74 UNL A   1      43.252  15.123  48.580  1.00  0.00    +0.000 C 
ATOM    161  H53 UNL A   1      46.681  16.769  48.869  1.00  0.00    +0.000 H 
ATOM    100  C75 UNL A   1      44.230  14.536  49.396  1.00  0.00    +0.000 C 
ATOM    101  C76 UNL A   1      43.922  13.281  50.173  1.00  0.00    +0.000 C 
ATOM    102  F17 UNL A   1      43.107  13.517  51.238  1.00  0.00    +0.000 F 
ATOM    103  F18 UNL A   1      43.293  12.335  49.422  1.00  0.00    +0.000 F 
ATOM    105  C77 UNL A   1      45.484  15.153  49.494  1.00  0.00    +0.000 C 
ATOM    106  C78 UNL A   1      45.757  16.321  48.777  1.00  0.00    +0.000 C 
ATOM    104  F19 UNL A   1      45.031  12.673  50.681  1.00  0.00    +0.000 F 
ATOM    158  H50 UNL A   1      42.798  16.707  47.264  1.00  0.00    +0.000 H 
ATOM    159  H51 UNL A   1      42.318  14.689  48.511  1.00  0.00    +0.000 H 
ATOM    160  H52 UNL A   1      46.212  14.743  50.101  1.00  0.00    +0.000 H 
ENDBRANCH   96   97
ENDBRANCH   18   17
BRANCH   18   19
ATOM     19  C17 UNL A   1      47.680  18.013  43.628  1.00  0.00    +0.000 C 
ATOM    126  H18 UNL A   1      48.018  17.868  44.633  1.00  0.00    +0.000 H 
ATOM    127  H19 UNL A   1      48.448  18.494  43.059  1.00  0.00    +0.000 H 
ATOM    128  H20 UNL A   1      47.451  17.065  43.188  1.00  0.00    +0.000 H 
ENDBRANCH   18   19
ENDBRANCH   20   18
ENDBRANCH   22   20
ENDBRANCH   23   22
ENDBRANCH   24   23
ENDBRANCH   25   24
ENDBRANCH   26   25
ENDBRANCH   27   26
ENDBRANCH   28   27
ENDBRANCH   29   28
ENDBRANCH   30   29
ENDBRANCH   32   30
ENDBRANCH   36   35
BRANCH   40   41
ATOM     41  C34 UNL A   1      46.942   8.391  51.423  1.00  0.00    +0.000 C 
ATOM     42  C35 UNL A   1      47.512   7.142  51.134  1.00  0.00    +0.000 C 
ATOM     43  F2  UNL A   1      48.568   7.053  50.311  1.00  0.00    +0.000 F 
ATOM     44  C36 UNL A   1      46.988   5.972  51.679  1.00  0.00    +0.000 C 
ATOM     45  F3  UNL A   1      47.533   4.787  51.369  1.00  0.00    +0.000 F 
ATOM     46  C37 UNL A   1      45.902   6.032  52.539  1.00  0.00    +0.000 C 
ATOM     47  F4  UNL A   1      45.408   4.907  53.074  1.00  0.00    +0.000 F 
ATOM     48  C38 UNL A   1      45.330   7.257  52.848  1.00  0.00    +0.000 C 
ATOM     49  F5  UNL A   1      44.296   7.319  53.696  1.00  0.00    +0.000 F 
ATOM     50  C39 UNL A   1      45.835   8.425  52.282  1.00  0.00    +0.000 C 
ATOM     51  F6  UNL A   1      45.260   9.596  52.596  1.00  0.00    +0.000 F 
ENDBRANCH   40   41
BRANCH   57   58
ATOM     65  C49 UNL A   1      52.958  14.019  54.710  1.00  0.00    +0.000 C 
ATOM     66  F10 UNL A   1      52.752  14.743  55.818  1.00  0.00    +0.000 F 
ATOM     67  C50 UNL A   1      51.964  13.932  53.740  1.00  0.00    +0.000 C 
ATOM     68  F11 UNL A   1      50.804  14.577  53.938  1.00  0.00    +0.000 F 
ATOM     58  C45 UNL A   1      52.164  13.187  52.570  1.00  0.00    +0.000 C 
ATOM     59  C46 UNL A   1      53.397  12.540  52.401  1.00  0.00    +0.000 C 
ATOM     60  F7  UNL A   1      53.632  11.811  51.300  1.00  0.00    +0.000 F 
ATOM     61  C47 UNL A   1      54.382  12.611  53.382  1.00  0.00    +0.000 C 
ATOM     62  F8  UNL A   1      55.538  11.954  53.219  1.00  0.00    +0.000 F 
ATOM     63  C48 UNL A   1      54.161  13.348  54.536  1.00  0.00    +0.000 C 
ATOM     64  F9  UNL A   1      55.108  13.412  55.483  1.00  0.00    +0.000 F 
ENDBRANCH   57   58
BRANCH   72   73
ATOM     73  C54 UNL A   1      49.984  16.790  46.997  1.00  0.00    +0.000 C 
ATOM     74  C55 UNL A   1      49.295  17.991  47.215  1.00  0.00    +0.000 C 
ATOM     75  F12 UNL A   1      48.248  18.021  48.053  1.00  0.00    +0.000 F 
ATOM     76  C56 UNL A   1      49.662  19.160  46.552  1.00  0.00    +0.000 C 
ATOM     77  F13 UNL A   1      48.966  20.288  46.750  1.00  0.00    +0.000 F 
ATOM     78  C57 UNL A   1      50.737  19.155  45.675  1.00  0.00    +0.000 C 
ATOM     79  F14 UNL A   1      51.090  20.279  45.037  1.00  0.00    +0.000 F 
ATOM     80  C58 UNL A   1      51.445  17.982  45.459  1.00  0.00    +0.000 C 
ATOM     81  F15 UNL A   1      52.495  17.976  44.627  1.00  0.00    +0.000 F 
ATOM     82  C59 UNL A   1      51.067  16.808  46.107  1.00  0.00    +0.000 C 
ATOM     83  F16 UNL A   1      51.766  15.686  45.881  1.00  0.00    +0.000 F 
ENDBRANCH   72   73
TORSDOF 22
ENDMDL
MODEL 6
REMARK VINA RESULT:      -8.8      1.938      7.926
ROOT
ATOM    145  H37 UNL A   1      13.099  46.358   2.486  1.00  0.00    +0.000 H 
ATOM    146  H38 UNL A   1      14.779  46.694   0.520  1.00  0.00    +0.000 H 
ATOM    147  H39 UNL A   1      14.570  50.228   2.670  1.00  0.00    +0.000 H 
ATOM    148  H40 UNL A   1      16.142  56.365   3.340  1.00  0.00    +0.000 H 
ATOM    149  H41 UNL A   1      14.581  56.009   5.311  1.00  0.00    +0.000 H 
ATOM    150  H42 UNL A   1      14.693  52.477   3.120  1.00  0.00    +0.000 H 
ATOM    151  H43 UNL A   1      18.111  53.235  -0.515  1.00  0.00    +0.000 H 
ATOM    152  H44 UNL A   1      17.690  50.816  -1.242  1.00  0.00    +0.000 H 
ATOM    153  H45 UNL A   1      11.406  49.488   6.492  1.00  0.00    +0.000 H 
ATOM    154  H46 UNL A   1      11.497  51.999   6.994  1.00  0.00    +0.000 H 
ATOM     36  C30 UNL A   1      13.434  53.401   5.443  1.00  0.00    +0.000 C 
ATOM     37  C31 UNL A   1      13.008  51.966   5.301  1.00  0.00    +0.000 C 
ATOM     38  N4  UNL A   1      13.420  51.058   4.452  1.00  0.00    +0.000 N 
ATOM     39  C32 UNL A   1      12.765  49.887   4.806  1.00  0.00    +0.000 C 
ATOM     40  C33 UNL A   1      12.821  48.675   4.205  1.00  0.00    +0.000 C 
ATOM     52  C40 UNL A   1      13.580  48.393   3.015  1.00  0.00    +0.000 C 
ATOM     53  C41 UNL A   1      13.629  47.221   2.283  1.00  0.00    +0.000 C 
ATOM     54  C42 UNL A   1      14.520  47.405   1.222  1.00  0.00    +0.000 C 
ATOM     55  C43 UNL A   1      14.996  48.705   1.271  1.00  0.00    +0.000 C 
ATOM     56  N5  UNL A   1      14.414  49.300   2.379  1.00  0.00    +0.000 N 
ATOM     57  C44 UNL A   1      15.918  49.354   0.375  1.00  0.00    +0.000 C 
ATOM     69  C51 UNL A   1      16.320  50.644   0.474  1.00  0.00    +0.000 C 
ATOM     70  N6  UNL A   1      15.949  51.600   1.408  1.00  0.00    +0.000 N 
ATOM     71  C52 UNL A   1      16.600  52.691   1.088  1.00  0.00    +0.000 C 
ATOM     72  C53 UNL A   1      16.569  54.038   1.752  1.00  0.00    +0.000 C 
ATOM     84  C60 UNL A   1      15.756  54.240   2.807  1.00  0.00    +0.000 C 
ATOM     85  C61 UNL A   1      15.652  55.486   3.563  1.00  0.00    +0.000 C 
ATOM     86  C62 UNL A   1      14.814  55.301   4.596  1.00  0.00    +0.000 C 
ATOM     87  C63 UNL A   1      14.286  53.939   4.547  1.00  0.00    +0.000 C 
ATOM     88  N7  UNL A   1      14.879  53.391   3.436  1.00  0.00    +0.000 N 
ATOM     89  C64 UNL A   1      17.481  52.541  -0.081  1.00  0.00    +0.000 C 
ATOM     90  C65 UNL A   1      17.255  51.282  -0.430  1.00  0.00    +0.000 C 
ATOM     91  C66 UNL A   1      11.956  50.187   5.967  1.00  0.00    +0.000 C 
ATOM     92  C67 UNL A   1      12.014  51.476   6.269  1.00  0.00    +0.000 C 
ENDROOT
BRANCH   36   35
ATOM     33  C27 UNL A   1      13.382  54.963   8.919  1.00  0.00    +0.000 C 
ATOM     34  C28 UNL A   1      13.851  54.304   7.775  1.00  0.00    +0.000 C 
ATOM     35  C29 UNL A   1      13.030  54.182   6.642  1.00  0.00    +0.000 C 
ATOM    143  H35 UNL A   1      13.978  55.029   9.759  1.00  0.00    +0.000 H 
ATOM    144  H36 UNL A   1      14.802  53.906   7.766  1.00  0.00    +0.000 H 
ATOM    155  H47 UNL A   1      11.170  54.739   5.809  1.00  0.00    +0.000 H 
ATOM    156  H48 UNL A   1      10.442  56.029   7.723  1.00  0.00    +0.000 H 
ATOM     93  C68 UNL A   1      11.775  54.806   6.643  1.00  0.00    +0.000 C 
ATOM     94  C69 UNL A   1      11.336  55.515   7.756  1.00  0.00    +0.000 C 
ATOM     32  C26 UNL A   1      12.106  55.530   8.919  1.00  0.00    +0.000 C 
BRANCH   32   30
ATOM     30  C25 UNL A   1      11.583  56.172  10.146  1.00  0.00    +0.000 C 
ATOM     31  O2  UNL A   1      11.466  57.383  10.199  1.00  0.00    +0.000 O 
BRANCH   30   29
ATOM     29  N3  UNL A   1      11.220  55.383  11.221  1.00  0.00    +0.000 N 
ATOM    142  H34 UNL A   1      10.274  55.111  11.246  1.00  0.00    +0.000 H 
BRANCH   29   28
ATOM    141  H33 UNL A   1      11.409  54.774  13.175  1.00  0.00    +0.000 H 
ATOM     28  C24 UNL A   1      12.041  54.899  12.321  1.00  0.00    +0.000 C 
ATOM    140  H32 UNL A   1      12.815  55.611  12.514  1.00  0.00    +0.000 H 
BRANCH   28   27
ATOM    138  H30 UNL A   1      11.939  52.789  12.140  1.00  0.00    +0.000 H 
ATOM     27  C23 UNL A   1      12.681  53.548  12.005  1.00  0.00    +0.000 C 
ATOM    139  H31 UNL A   1      13.040  53.613  10.999  1.00  0.00    +0.000 H 
BRANCH   27   26
ATOM    137  H29 UNL A   1      13.587  52.351  13.465  1.00  0.00    +0.000 H 
ATOM     26  C22 UNL A   1      13.893  53.190  12.873  1.00  0.00    +0.000 C 
ATOM    136  H28 UNL A   1      14.153  54.055  13.446  1.00  0.00    +0.000 H 
BRANCH   26   25
ATOM     25  C21 UNL A   1      15.147  52.731  12.117  1.00  0.00    +0.000 C 
ATOM    134  H26 UNL A   1      14.914  52.710  11.073  1.00  0.00    +0.000 H 
ATOM    135  H27 UNL A   1      15.917  53.428  12.371  1.00  0.00    +0.000 H 
BRANCH   25   24
ATOM    132  H24 UNL A   1      15.673  51.280  13.577  1.00  0.00    +0.000 H 
ATOM    133  H25 UNL A   1      15.040  50.633  12.039  1.00  0.00    +0.000 H 
ATOM     24  C20 UNL A   1      15.680  51.350  12.510  1.00  0.00    +0.000 C 
BRANCH   24   23
ATOM    130  H22 UNL A   1      17.778  51.744  12.479  1.00  0.00    +0.000 H 
ATOM    131  H23 UNL A   1      17.341  50.044  12.285  1.00  0.00    +0.000 H 
ATOM     23  C19 UNL A   1      17.103  51.052  12.020  1.00  0.00    +0.000 C 
BRANCH   23   22
ATOM    129  H21 UNL A   1      17.203  52.105  10.258  1.00  0.00    +0.000 H 
ATOM     22  N2  UNL A   1      17.219  51.174  10.578  1.00  0.00    +0.000 N 
BRANCH   22   20
ATOM     20  C18 UNL A   1      17.346  50.255   9.581  1.00  0.00    +0.000 C 
ATOM     21  O1  UNL A   1      18.429  49.655   9.535  1.00  0.00    +0.000 O 
BRANCH   20   18
ATOM     18  C16 UNL A   1      16.258  49.936   8.538  1.00  0.00    +0.000 C 
ATOM    125  H17 UNL A   1      16.730  49.283   7.834  1.00  0.00    +0.000 H 
BRANCH   18   17
ATOM     14  C12 UNL A   1      12.737  47.730   9.917  1.00  0.00    +0.000 C 
ATOM     15  C13 UNL A   1      13.693  47.165   9.055  1.00  0.00    +0.000 C 
ATOM     16  C14 UNL A   1      14.876  47.814   8.715  1.00  0.00    +0.000 C 
ATOM     17  C15 UNL A   1      15.110  49.121   9.107  1.00  0.00    +0.000 C 
ATOM    123  H15 UNL A   1      13.509  46.230   8.658  1.00  0.00    +0.000 H 
ATOM    124  H16 UNL A   1      15.590  47.313   8.163  1.00  0.00    +0.000 H 
ATOM    157  H49 UNL A   1      14.398  50.632  10.385  1.00  0.00    +0.000 H 
ATOM     95  C70 UNL A   1      14.218  49.678  10.033  1.00  0.00    +0.000 C 
ATOM     96  C71 UNL A   1      13.075  48.980  10.505  1.00  0.00    +0.000 C 
BRANCH   14    6
ATOM    118  H10 UNL A   1      11.551  46.106   9.652  1.00  0.00    +0.000 H 
ATOM      6  C5  UNL A   1      11.407  46.987  10.243  1.00  0.00    +0.000 C 
BRANCH    6    5
ATOM      2  C2  UNL A   1       8.041  47.755   7.703  1.00  0.00    +0.000 C 
ATOM      3  C3  UNL A   1       7.726  47.097   9.044  1.00  0.00    +0.000 C 
ATOM      4  C4  UNL A   1       8.992  46.656   9.788  1.00  0.00    +0.000 C 
ATOM    164  H56 UNL A   1       8.469  49.612   8.653  1.00  0.00    +0.000 H 
ATOM    165  H57 UNL A   1       9.160  49.443   7.051  1.00  0.00    +0.000 H 
ATOM    162  H54 UNL A   1      10.815  47.943   7.831  1.00  0.00    +0.000 H 
ATOM    163  H55 UNL A   1      10.766  49.345   8.940  1.00  0.00    +0.000 H 
ATOM      5  N1  UNL A   1      10.125  47.582   9.742  1.00  0.00    +0.000 N 
ATOM    107  C79 UNL A   1      10.267  48.467   8.586  1.00  0.00    +0.000 C 
ATOM    108  C80 UNL A   1       8.954  48.942   7.975  1.00  0.00    +0.000 C 
ATOM    112  H4  UNL A   1       8.525  47.051   7.058  1.00  0.00    +0.000 H 
ATOM    113  H5  UNL A   1       7.113  46.238   8.870  1.00  0.00    +0.000 H 
ATOM    114  H6  UNL A   1       7.223  47.820   9.653  1.00  0.00    +0.000 H 
ATOM    115  H7  UNL A   1       9.311  45.727   9.364  1.00  0.00    +0.000 H 
ATOM    116  H8  UNL A   1       8.711  46.599  10.819  1.00  0.00    +0.000 H 
ATOM    117  H9  UNL A   1       9.838  48.273  10.435  1.00  0.00    +0.000 H 
BRANCH    2    1
ATOM      1  C1  UNL A   1       6.773  48.201   6.993  1.00  0.00    +0.000 C 
ATOM    109  H1  UNL A   1       7.023  48.588   6.027  1.00  0.00    +0.000 H 
ATOM    110  H2  UNL A   1       6.291  48.963   7.570  1.00  0.00    +0.000 H 
ATOM    111  H3  UNL A   1       6.113  47.366   6.882  1.00  0.00    +0.000 H 
ENDBRANCH    2    1
ENDBRANCH    6    5
BRANCH    6    7
ATOM      7  C6  UNL A   1      11.249  46.610  11.730  1.00  0.00    +0.000 C 
ATOM      8  C7  UNL A   1      12.221  45.855  12.417  1.00  0.00    +0.000 C 
ATOM      9  C8  UNL A   1      12.055  45.540  13.767  1.00  0.00    +0.000 C 
ATOM     10  C9  UNL A   1      10.912  45.961  14.433  1.00  0.00    +0.000 C 
ATOM     11  F1  UNL A   1      10.750  45.649  15.726  1.00  0.00    +0.000 F 
ATOM     12  C10 UNL A   1       9.937  46.703  13.781  1.00  0.00    +0.000 C 
ATOM     13  C11 UNL A   1      10.109  47.040  12.437  1.00  0.00    +0.000 C 
ATOM    119  H11 UNL A   1      13.064  45.532  11.917  1.00  0.00    +0.000 H 
ATOM    120  H12 UNL A   1      12.778  44.998  14.265  1.00  0.00    +0.000 H 
ATOM    121  H13 UNL A   1       9.089  47.005  14.287  1.00  0.00    +0.000 H 
ATOM    122  H14 UNL A   1       9.396  47.609  11.958  1.00  0.00    +0.000 H 
ENDBRANCH    6    7
ENDBRANCH   14    6
BRANCH   96   97
ATOM     97  C72 UNL A   1      12.333  49.577  11.632  1.00  0.00    +0.000 C 
ATOM     98  C73 UNL A   1      11.165  50.328  11.428  1.00  0.00    +0.000 C 
ATOM     99  C74 UNL A   1      10.476  50.891  12.507  1.00  0.00    +0.000 C 
ATOM    161  H53 UNL A   1      13.682  48.915  13.117  1.00  0.00    +0.000 H 
ATOM    100  C75 UNL A   1      10.939  50.719  13.820  1.00  0.00    +0.000 C 
ATOM    101  C76 UNL A   1      10.191  51.330  14.977  1.00  0.00    +0.000 C 
ATOM    102  F17 UNL A   1      10.355  52.681  15.046  1.00  0.00    +0.000 F 
ATOM    103  F18 UNL A   1       8.847  51.119  14.911  1.00  0.00    +0.000 F 
ATOM    105  C77 UNL A   1      12.118  49.993  14.028  1.00  0.00    +0.000 C 
ATOM    106  C78 UNL A   1      12.808  49.437  12.947  1.00  0.00    +0.000 C 
ATOM    104  F19 UNL A   1      10.581  50.846  16.190  1.00  0.00    +0.000 F 
ATOM    158  H50 UNL A   1      10.811  50.467  10.469  1.00  0.00    +0.000 H 
ATOM    159  H51 UNL A   1       9.618  51.438  12.336  1.00  0.00    +0.000 H 
ATOM    160  H52 UNL A   1      12.481  49.868  14.987  1.00  0.00    +0.000 H 
ENDBRANCH   96   97
ENDBRANCH   18   17
BRANCH   18   19
ATOM     19  C17 UNL A   1      15.846  51.117   7.661  1.00  0.00    +0.000 C 
ATOM    126  H18 UNL A   1      15.771  51.999   8.263  1.00  0.00    +0.000 H 
ATOM    127  H19 UNL A   1      14.897  50.912   7.210  1.00  0.00    +0.000 H 
ATOM    128  H20 UNL A   1      16.579  51.267   6.897  1.00  0.00    +0.000 H 
ENDBRANCH   18   19
ENDBRANCH   20   18
ENDBRANCH   22   20
ENDBRANCH   23   22
ENDBRANCH   24   23
ENDBRANCH   25   24
ENDBRANCH   26   25
ENDBRANCH   27   26
ENDBRANCH   28   27
ENDBRANCH   29   28
ENDBRANCH   30   29
ENDBRANCH   32   30
ENDBRANCH   36   35
BRANCH   40   41
ATOM     41  C34 UNL A   1      12.029  47.555   4.811  1.00  0.00    +0.000 C 
ATOM     42  C35 UNL A   1      10.664  47.412   4.521  1.00  0.00    +0.000 C 
ATOM     43  F2  UNL A   1      10.064  48.247   3.659  1.00  0.00    +0.000 F 
ATOM     44  C36 UNL A   1       9.902  46.417   5.129  1.00  0.00    +0.000 C 
ATOM     45  F3  UNL A   1       8.593  46.315   4.856  1.00  0.00    +0.000 F 
ATOM     46  C37 UNL A   1      10.495  45.534   6.018  1.00  0.00    +0.000 C 
ATOM     47  F4  UNL A   1       9.764  44.568   6.592  1.00  0.00    +0.000 F 
ATOM     48  C38 UNL A   1      11.845  45.650   6.312  1.00  0.00    +0.000 C 
ATOM     49  F5  UNL A   1      12.425  44.783   7.153  1.00  0.00    +0.000 F 
ATOM     50  C39 UNL A   1      12.602  46.661   5.726  1.00  0.00    +0.000 C 
ATOM     51  F6  UNL A   1      13.906  46.751   6.030  1.00  0.00    +0.000 F 
ENDBRANCH   40   41
BRANCH   57   58
ATOM     65  C49 UNL A   1      18.147  47.047  -1.671  1.00  0.00    +0.000 C 
ATOM     66  F10 UNL A   1      19.346  46.457  -1.571  1.00  0.00    +0.000 F 
ATOM     67  C50 UNL A   1      17.706  47.901  -0.665  1.00  0.00    +0.000 C 
ATOM     68  F11 UNL A   1      18.495  48.115   0.400  1.00  0.00    +0.000 F 
ATOM     58  C45 UNL A   1      16.460  48.535  -0.756  1.00  0.00    +0.000 C 
ATOM     59  C46 UNL A   1      15.675  48.291  -1.893  1.00  0.00    +0.000 C 
ATOM     60  F7  UNL A   1      14.472  48.871  -2.021  1.00  0.00    +0.000 F 
ATOM     61  C47 UNL A   1      16.109  47.421  -2.887  1.00  0.00    +0.000 C 
ATOM     62  F8  UNL A   1      15.328  47.171  -3.947  1.00  0.00    +0.000 F 
ATOM     63  C48 UNL A   1      17.343  46.797  -2.775  1.00  0.00    +0.000 C 
ATOM     64  F9  UNL A   1      17.759  45.955  -3.731  1.00  0.00    +0.000 F 
ENDBRANCH   57   58
BRANCH   72   73
ATOM     73  C54 UNL A   1      17.395  55.162   1.245  1.00  0.00    +0.000 C 
ATOM     74  C55 UNL A   1      18.661  55.442   1.778  1.00  0.00    +0.000 C 
ATOM     75  F12 UNL A   1      19.172  54.660   2.741  1.00  0.00    +0.000 F 
ATOM     76  C56 UNL A   1      19.396  56.544   1.343  1.00  0.00    +0.000 C 
ATOM     77  F13 UNL A   1      20.588  56.811   1.894  1.00  0.00    +0.000 F 
ATOM     78  C57 UNL A   1      18.888  57.372   0.355  1.00  0.00    +0.000 C 
ATOM     79  F14 UNL A   1      19.594  58.432  -0.064  1.00  0.00    +0.000 F 
ATOM     80  C58 UNL A   1      17.645  57.103  -0.201  1.00  0.00    +0.000 C 
ATOM     81  F15 UNL A   1      17.159  57.891  -1.170  1.00  0.00    +0.000 F 
ATOM     82  C59 UNL A   1      16.902  56.013   0.246  1.00  0.00    +0.000 C 
ATOM     83  F16 UNL A   1      15.703  55.773  -0.304  1.00  0.00    +0.000 F 
ENDBRANCH   72   73
TORSDOF 22
ENDMDL
MODEL 7
REMARK VINA RESULT:      -8.8     59.237     67.044
ROOT
ATOM    145  H37 UNL A   1      48.564   7.655  53.815  1.00  0.00    +0.000 H 
ATOM    146  H38 UNL A   1      50.318   9.397  54.642  1.00  0.00    +0.000 H 
ATOM    147  H39 UNL A   1      48.655  10.798  51.117  1.00  0.00    +0.000 H 
ATOM    148  H40 UNL A   1      48.527  15.098  46.418  1.00  0.00    +0.000 H 
ATOM    149  H41 UNL A   1      46.749  13.449  45.664  1.00  0.00    +0.000 H 
ATOM    150  H42 UNL A   1      48.466  11.967  49.148  1.00  0.00    +0.000 H 
ATOM    151  H43 UNL A   1      51.685  15.528  50.704  1.00  0.00    +0.000 H 
ATOM    152  H44 UNL A   1      52.165  14.033  52.727  1.00  0.00    +0.000 H 
ATOM    153  H45 UNL A   1      45.219   7.458  49.633  1.00  0.00    +0.000 H 
ATOM    154  H46 UNL A   1      45.015   8.721  47.414  1.00  0.00    +0.000 H 
ATOM     36  C30 UNL A   1      46.456  11.180  47.366  1.00  0.00    +0.000 C 
ATOM     37  C31 UNL A   1      46.479  10.122  48.435  1.00  0.00    +0.000 C 
ATOM     38  N4  UNL A   1      47.151  10.092  49.558  1.00  0.00    +0.000 N 
ATOM     39  C32 UNL A   1      46.748   8.934  50.208  1.00  0.00    +0.000 C 
ATOM     40  C33 UNL A   1      47.187   8.432  51.386  1.00  0.00    +0.000 C 
ATOM     52  C40 UNL A   1      48.224   9.027  52.186  1.00  0.00    +0.000 C 
ATOM     53  C41 UNL A   1      48.797   8.546  53.349  1.00  0.00    +0.000 C 
ATOM     54  C42 UNL A   1      49.747   9.474  53.785  1.00  0.00    +0.000 C 
ATOM     55  C43 UNL A   1      49.792  10.515  52.873  1.00  0.00    +0.000 C 
ATOM     56  N5  UNL A   1      48.850  10.231  51.898  1.00  0.00    +0.000 N 
ATOM     57  C44 UNL A   1      50.631  11.686  52.893  1.00  0.00    +0.000 C 
ATOM     69  C51 UNL A   1      50.636  12.655  51.946  1.00  0.00    +0.000 C 
ATOM     70  N6  UNL A   1      49.880  12.738  50.785  1.00  0.00    +0.000 N 
ATOM     71  C52 UNL A   1      50.241  13.853  50.199  1.00  0.00    +0.000 C 
ATOM     72  C53 UNL A   1      49.753  14.438  48.904  1.00  0.00    +0.000 C 
ATOM     84  C60 UNL A   1      48.847  13.765  48.170  1.00  0.00    +0.000 C 
ATOM     85  C61 UNL A   1      48.266  14.233  46.913  1.00  0.00    +0.000 C 
ATOM     86  C62 UNL A   1      47.337  13.352  46.507  1.00  0.00    +0.000 C 
ATOM     87  C63 UNL A   1      47.290  12.235  47.450  1.00  0.00    +0.000 C 
ATOM     88  N7  UNL A   1      48.241  12.553  48.390  1.00  0.00    +0.000 N 
ATOM     89  C64 UNL A   1      51.258  14.617  50.938  1.00  0.00    +0.000 C 
ATOM     90  C65 UNL A   1      51.479  13.832  51.983  1.00  0.00    +0.000 C 
ATOM     91  C66 UNL A   1      45.748   8.305  49.373  1.00  0.00    +0.000 C 
ATOM     92  C67 UNL A   1      45.598   8.961  48.231  1.00  0.00    +0.000 C 
ENDROOT
BRANCH   36   35
ATOM     33  C27 UNL A   1      43.209  11.640  45.424  1.00  0.00    +0.000 C 
ATOM     34  C28 UNL A   1      44.190  11.797  46.412  1.00  0.00    +0.000 C 
ATOM     35  C29 UNL A   1      45.423  11.136  46.297  1.00  0.00    +0.000 C 
ATOM    143  H35 UNL A   1      42.295  12.107  45.524  1.00  0.00    +0.000 H 
ATOM    144  H36 UNL A   1      44.005  12.402  47.227  1.00  0.00    +0.000 H 
ATOM    155  H47 UNL A   1      46.598   9.913  45.037  1.00  0.00    +0.000 H 
ATOM    156  H48 UNL A   1      44.967   9.794  43.253  1.00  0.00    +0.000 H 
ATOM     93  C68 UNL A   1      45.688  10.390  45.140  1.00  0.00    +0.000 C 
ATOM     94  C69 UNL A   1      44.738  10.286  44.130  1.00  0.00    +0.000 C 
ATOM     32  C26 UNL A   1      43.473  10.848  44.305  1.00  0.00    +0.000 C 
BRANCH   32   30
ATOM     30  C25 UNL A   1      42.417  10.627  43.291  1.00  0.00    +0.000 C 
ATOM     31  O2  UNL A   1      41.679   9.662  43.379  1.00  0.00    +0.000 O 
BRANCH   30   29
ATOM     29  N3  UNL A   1      42.274  11.529  42.255  1.00  0.00    +0.000 N 
ATOM    142  H34 UNL A   1      43.053  11.618  41.660  1.00  0.00    +0.000 H 
BRANCH   29   28
ATOM    141  H33 UNL A   1      41.126  13.201  42.588  1.00  0.00    +0.000 H 
ATOM     28  C24 UNL A   1      41.131  12.366  41.920  1.00  0.00    +0.000 C 
ATOM    140  H32 UNL A   1      40.238  11.786  42.018  1.00  0.00    +0.000 H 
BRANCH   28   27
ATOM    138  H30 UNL A   1      41.680  12.157  39.882  1.00  0.00    +0.000 H 
ATOM     27  C23 UNL A   1      41.216  12.904  40.491  1.00  0.00    +0.000 C 
ATOM    139  H31 UNL A   1      40.214  13.130  40.195  1.00  0.00    +0.000 H 
BRANCH   27   26
ATOM    137  H29 UNL A   1      41.593  14.706  39.494  1.00  0.00    +0.000 H 
ATOM     26  C22 UNL A   1      42.015  14.204  40.340  1.00  0.00    +0.000 C 
ATOM    136  H28 UNL A   1      43.046  13.944  40.222  1.00  0.00    +0.000 H 
BRANCH   26   25
ATOM     25  C21 UNL A   1      41.909  15.194  41.507  1.00  0.00    +0.000 C 
ATOM    134  H26 UNL A   1      41.652  16.152  41.106  1.00  0.00    +0.000 H 
ATOM    135  H27 UNL A   1      41.171  14.793  42.170  1.00  0.00    +0.000 H 
BRANCH   25   24
ATOM    132  H24 UNL A   1      42.920  15.254  43.375  1.00  0.00    +0.000 H 
ATOM    133  H25 UNL A   1      43.866  14.608  42.006  1.00  0.00    +0.000 H 
ATOM     24  C20 UNL A   1      43.182  15.359  42.344  1.00  0.00    +0.000 C 
BRANCH   24   23
ATOM    130  H22 UNL A   1      43.814  17.005  41.140  1.00  0.00    +0.000 H 
ATOM    131  H23 UNL A   1      43.423  17.418  42.812  1.00  0.00    +0.000 H 
ATOM     23  C19 UNL A   1      43.893  16.707  42.164  1.00  0.00    +0.000 C 
BRANCH   23   22
ATOM    129  H21 UNL A   1      45.902  16.965  41.820  1.00  0.00    +0.000 H 
ATOM     22  N2  UNL A   1      45.297  16.635  42.524  1.00  0.00    +0.000 N 
BRANCH   22   20
ATOM     20  C18 UNL A   1      45.943  16.203  43.642  1.00  0.00    +0.000 C 
ATOM     21  O1  UNL A   1      46.518  15.110  43.543  1.00  0.00    +0.000 O 
BRANCH   20   18
ATOM     18  C16 UNL A   1      45.991  16.966  44.979  1.00  0.00    +0.000 C 
ATOM    125  H17 UNL A   1      45.476  17.885  44.794  1.00  0.00    +0.000 H 
BRANCH   18   17
ATOM     14  C12 UNL A   1      43.506  15.340  48.196  1.00  0.00    +0.000 C 
ATOM     15  C13 UNL A   1      43.181  15.185  46.837  1.00  0.00    +0.000 C 
ATOM     16  C14 UNL A   1      44.029  15.586  45.810  1.00  0.00    +0.000 C 
ATOM     17  C15 UNL A   1      45.189  16.292  46.078  1.00  0.00    +0.000 C 
ATOM    123  H15 UNL A   1      42.275  14.754  46.592  1.00  0.00    +0.000 H 
ATOM    124  H16 UNL A   1      43.789  15.354  44.833  1.00  0.00    +0.000 H 
ATOM    157  H49 UNL A   1      46.470  16.861  47.647  1.00  0.00    +0.000 H 
ATOM     95  C70 UNL A   1      45.580  16.388  47.421  1.00  0.00    +0.000 C 
ATOM     96  C71 UNL A   1      44.799  15.860  48.482  1.00  0.00    +0.000 C 
BRANCH   14    6
ATOM    118  H10 UNL A   1      41.736  14.495  48.709  1.00  0.00    +0.000 H 
ATOM      6  C5  UNL A   1      42.512  14.912  49.317  1.00  0.00    +0.000 C 
BRANCH    6    5
ATOM      2  C2  UNL A   1      39.673  17.916  50.449  1.00  0.00    +0.000 C 
ATOM      3  C3  UNL A   1      39.715  16.673  51.334  1.00  0.00    +0.000 C 
ATOM      4  C4  UNL A   1      40.587  15.563  50.738  1.00  0.00    +0.000 C 
ATOM    164  H56 UNL A   1      41.545  18.589  51.211  1.00  0.00    +0.000 H 
ATOM    165  H57 UNL A   1      41.099  19.288  49.667  1.00  0.00    +0.000 H 
ATOM    162  H54 UNL A   1      41.576  17.273  48.522  1.00  0.00    +0.000 H 
ATOM    163  H55 UNL A   1      42.945  17.630  49.615  1.00  0.00    +0.000 H 
ATOM      5  N1  UNL A   1      41.843  15.989  50.116  1.00  0.00    +0.000 N 
ATOM    107  C79 UNL A   1      41.922  17.329  49.533  1.00  0.00    +0.000 C 
ATOM    108  C80 UNL A   1      41.106  18.394  50.255  1.00  0.00    +0.000 C 
ATOM    112  H4  UNL A   1      39.229  17.676  49.505  1.00  0.00    +0.000 H 
ATOM    113  H5  UNL A   1      38.719  16.302  51.453  1.00  0.00    +0.000 H 
ATOM    114  H6  UNL A   1      40.142  16.956  52.274  1.00  0.00    +0.000 H 
ATOM    115  H7  UNL A   1      40.008  15.059  49.993  1.00  0.00    +0.000 H 
ATOM    116  H8  UNL A   1      40.873  14.949  51.566  1.00  0.00    +0.000 H 
ATOM    117  H9  UNL A   1      42.424  16.141  50.940  1.00  0.00    +0.000 H 
BRANCH    2    1
ATOM      1  C1  UNL A   1      38.819  19.010  51.070  1.00  0.00    +0.000 C 
ATOM    109  H1  UNL A   1      37.821  18.941  50.690  1.00  0.00    +0.000 H 
ATOM    110  H2  UNL A   1      39.230  19.967  50.822  1.00  0.00    +0.000 H 
ATOM    111  H3  UNL A   1      38.805  18.891  52.133  1.00  0.00    +0.000 H 
ENDBRANCH    2    1
ENDBRANCH    6    5
BRANCH    6    7
ATOM      7  C6  UNL A   1      43.072  13.839  50.273  1.00  0.00    +0.000 C 
ATOM      8  C7  UNL A   1      43.555  12.600  49.805  1.00  0.00    +0.000 C 
ATOM      9  C8  UNL A   1      44.067  11.653  50.694  1.00  0.00    +0.000 C 
ATOM     10  C9  UNL A   1      44.085  11.932  52.055  1.00  0.00    +0.000 C 
ATOM     11  F1  UNL A   1      44.568  11.018  52.908  1.00  0.00    +0.000 F 
ATOM     12  C10 UNL A   1      43.615  13.143  52.544  1.00  0.00    +0.000 C 
ATOM     13  C11 UNL A   1      43.122  14.100  51.656  1.00  0.00    +0.000 C 
ATOM    119  H11 UNL A   1      43.528  12.390  48.796  1.00  0.00    +0.000 H 
ATOM    120  H12 UNL A   1      44.429  10.754  50.342  1.00  0.00    +0.000 H 
ATOM    121  H13 UNL A   1      43.629  13.334  53.558  1.00  0.00    +0.000 H 
ATOM    122  H14 UNL A   1      42.792  15.009  52.016  1.00  0.00    +0.000 H 
ENDBRANCH    6    7
ENDBRANCH   14    6
BRANCH   96   97
ATOM     97  C72 UNL A   1      45.410  15.830  49.825  1.00  0.00    +0.000 C 
ATOM     98  C73 UNL A   1      45.191  16.856  50.755  1.00  0.00    +0.000 C 
ATOM     99  C74 UNL A   1      45.781  16.814  52.023  1.00  0.00    +0.000 C 
ATOM    161  H53 UNL A   1      46.466  14.027  49.510  1.00  0.00    +0.000 H 
ATOM    100  C75 UNL A   1      46.608  15.743  52.391  1.00  0.00    +0.000 C 
ATOM    101  C76 UNL A   1      47.243  15.706  53.758  1.00  0.00    +0.000 C 
ATOM    102  F17 UNL A   1      48.264  16.599  53.882  1.00  0.00    +0.000 F 
ATOM    103  F18 UNL A   1      46.365  16.000  54.758  1.00  0.00    +0.000 F 
ATOM    105  C77 UNL A   1      46.852  14.728  51.457  1.00  0.00    +0.000 C 
ATOM    106  C78 UNL A   1      46.267  14.777  50.190  1.00  0.00    +0.000 C 
ATOM    104  F19 UNL A   1      47.772  14.491  54.078  1.00  0.00    +0.000 F 
ATOM    158  H50 UNL A   1      44.587  17.653  50.501  1.00  0.00    +0.000 H 
ATOM    159  H51 UNL A   1      45.606  17.578  52.694  1.00  0.00    +0.000 H 
ATOM    160  H52 UNL A   1      47.470  13.939  51.707  1.00  0.00    +0.000 H 
ENDBRANCH   96   97
ENDBRANCH   18   17
BRANCH   18   19
ATOM     19  C17 UNL A   1      47.381  17.449  45.391  1.00  0.00    +0.000 C 
ATOM    126  H18 UNL A   1      47.438  18.511  45.274  1.00  0.00    +0.000 H 
ATOM    127  H19 UNL A   1      48.119  16.981  44.773  1.00  0.00    +0.000 H 
ATOM    128  H20 UNL A   1      47.558  17.192  46.414  1.00  0.00    +0.000 H 
ENDBRANCH   18   19
ENDBRANCH   20   18
ENDBRANCH   22   20
ENDBRANCH   23   22
ENDBRANCH   24   23
ENDBRANCH   25   24
ENDBRANCH   26   25
ENDBRANCH   27   26
ENDBRANCH   28   27
ENDBRANCH   29   28
ENDBRANCH   30   29
ENDBRANCH   32   30
ENDBRANCH   36   35
BRANCH   40   41
ATOM     41  C34 UNL A   1      46.559   7.164  51.884  1.00  0.00    +0.000 C 
ATOM     42  C35 UNL A   1      47.176   5.926  51.648  1.00  0.00    +0.000 C 
ATOM     43  F2  UNL A   1      48.359   5.868  51.018  1.00  0.00    +0.000 F 
ATOM     44  C36 UNL A   1      46.571   4.736  52.047  1.00  0.00    +0.000 C 
ATOM     45  F3  UNL A   1      47.166   3.564  51.789  1.00  0.00    +0.000 F 
ATOM     46  C37 UNL A   1      45.352   4.764  52.708  1.00  0.00    +0.000 C 
ATOM     47  F4  UNL A   1      44.778   3.620  53.104  1.00  0.00    +0.000 F 
ATOM     48  C38 UNL A   1      44.730   5.977  52.962  1.00  0.00    +0.000 C 
ATOM     49  F5  UNL A   1      43.564   6.008  53.620  1.00  0.00    +0.000 F 
ATOM     50  C39 UNL A   1      45.320   7.166  52.539  1.00  0.00    +0.000 C 
ATOM     51  F6  UNL A   1      44.694   8.325  52.795  1.00  0.00    +0.000 F 
ENDBRANCH   40   41
BRANCH   57   58
ATOM     65  C49 UNL A   1      52.017  12.454  56.352  1.00  0.00    +0.000 C 
ATOM     66  F10 UNL A   1      51.620  13.046  57.486  1.00  0.00    +0.000 F 
ATOM     67  C50 UNL A   1      51.173  12.433  55.246  1.00  0.00    +0.000 C 
ATOM     68  F11 UNL A   1      49.963  13.006  55.340  1.00  0.00    +0.000 F 
ATOM     58  C45 UNL A   1      51.574  11.828  54.047  1.00  0.00    +0.000 C 
ATOM     59  C46 UNL A   1      52.853  11.254  53.992  1.00  0.00    +0.000 C 
ATOM     60  F7  UNL A   1      53.278  10.658  52.867  1.00  0.00    +0.000 F 
ATOM     61  C47 UNL A   1      53.687  11.258  55.106  1.00  0.00    +0.000 C 
ATOM     62  F8  UNL A   1      54.890  10.669  55.044  1.00  0.00    +0.000 F 
ATOM     63  C48 UNL A   1      53.268  11.856  56.285  1.00  0.00    +0.000 C 
ATOM     64  F9  UNL A   1      54.070  11.855  57.359  1.00  0.00    +0.000 F 
ENDBRANCH   57   58
BRANCH   72   73
ATOM     73  C54 UNL A   1      50.279  15.732  48.402  1.00  0.00    +0.000 C 
ATOM     74  C55 UNL A   1      49.649  16.948  48.702  1.00  0.00    +0.000 C 
ATOM     75  F12 UNL A   1      48.568  16.965  49.497  1.00  0.00    +0.000 F 
ATOM     76  C56 UNL A   1      50.110  18.148  48.165  1.00  0.00    +0.000 C 
ATOM     77  F13 UNL A   1      49.469  19.293  48.439  1.00  0.00    +0.000 F 
ATOM     78  C57 UNL A   1      51.221  18.158  47.335  1.00  0.00    +0.000 C 
ATOM     79  F14 UNL A   1      51.665  19.312  46.818  1.00  0.00    +0.000 F 
ATOM     80  C58 UNL A   1      51.872  16.969  47.040  1.00  0.00    +0.000 C 
ATOM     81  F15 UNL A   1      52.957  16.975  46.253  1.00  0.00    +0.000 F 
ATOM     82  C59 UNL A   1      51.400  15.766  47.561  1.00  0.00    +0.000 C 
ATOM     83  F16 UNL A   1      52.045  14.629  47.261  1.00  0.00    +0.000 F 
ENDBRANCH   72   73
TORSDOF 22
ENDMDL
MODEL 8
REMARK VINA RESULT:      -8.7      2.074      7.813
ROOT
ATOM    145  H37 UNL A   1      13.778  46.830   2.748  1.00  0.00    +0.000 H 
ATOM    146  H38 UNL A   1      15.410  46.968   0.720  1.00  0.00    +0.000 H 
ATOM    147  H39 UNL A   1      15.093  50.744   2.393  1.00  0.00    +0.000 H 
ATOM    148  H40 UNL A   1      16.426  56.971   2.222  1.00  0.00    +0.000 H 
ATOM    149  H41 UNL A   1      14.913  56.817   4.256  1.00  0.00    +0.000 H 
ATOM    150  H42 UNL A   1      15.132  53.036   2.543  1.00  0.00    +0.000 H 
ATOM    151  H43 UNL A   1      18.456  53.439  -1.232  1.00  0.00    +0.000 H 
ATOM    152  H44 UNL A   1      18.122  50.931  -1.628  1.00  0.00    +0.000 H 
ATOM    153  H45 UNL A   1      12.025  50.393   6.347  1.00  0.00    +0.000 H 
ATOM    154  H46 UNL A   1      12.023  52.949   6.514  1.00  0.00    +0.000 H 
ATOM     36  C30 UNL A   1      13.875  54.208   4.753  1.00  0.00    +0.000 C 
ATOM     37  C31 UNL A   1      13.505  52.752   4.809  1.00  0.00    +0.000 C 
ATOM     38  N4  UNL A   1      13.940  51.757   4.076  1.00  0.00    +0.000 N 
ATOM     39  C32 UNL A   1      13.339  50.617   4.595  1.00  0.00    +0.000 C 
ATOM     40  C33 UNL A   1      13.434  49.340   4.155  1.00  0.00    +0.000 C 
ATOM     52  C40 UNL A   1      14.184  48.934   2.997  1.00  0.00    +0.000 C 
ATOM     53  C41 UNL A   1      14.269  47.678   2.423  1.00  0.00    +0.000 C 
ATOM     54  C42 UNL A   1      15.133  47.756   1.328  1.00  0.00    +0.000 C 
ATOM     55  C43 UNL A   1      15.557  49.068   1.196  1.00  0.00    +0.000 C 
ATOM     56  N5  UNL A   1      14.970  49.780   2.229  1.00  0.00    +0.000 N 
ATOM     57  C44 UNL A   1      16.438  49.629   0.203  1.00  0.00    +0.000 C 
ATOM     69  C51 UNL A   1      16.789  50.934   0.124  1.00  0.00    +0.000 C 
ATOM     70  N6  UNL A   1      16.394  51.990   0.934  1.00  0.00    +0.000 N 
ATOM     71  C52 UNL A   1      16.995  53.053   0.460  1.00  0.00    +0.000 C 
ATOM     72  C53 UNL A   1      16.921  54.473   0.943  1.00  0.00    +0.000 C 
ATOM     84  C60 UNL A   1      16.117  54.781   1.980  1.00  0.00    +0.000 C 
ATOM     85  C61 UNL A   1      15.975  56.111   2.569  1.00  0.00    +0.000 C 
ATOM     86  C62 UNL A   1      15.163  56.032   3.635  1.00  0.00    +0.000 C 
ATOM     87  C63 UNL A   1      14.689  54.655   3.776  1.00  0.00    +0.000 C 
ATOM     88  N7  UNL A   1      15.286  53.989   2.733  1.00  0.00    +0.000 N 
ATOM     89  C64 UNL A   1      17.862  52.785  -0.698  1.00  0.00    +0.000 C 
ATOM     90  C65 UNL A   1      17.682  51.483  -0.875  1.00  0.00    +0.000 C 
ATOM     91  C66 UNL A   1      12.537  51.036   5.723  1.00  0.00    +0.000 C 
ATOM     92  C67 UNL A   1      12.548  52.355   5.853  1.00  0.00    +0.000 C 
ENDROOT
BRANCH   36   35
ATOM     33  C27 UNL A   1      13.843  56.255   7.967  1.00  0.00    +0.000 C 
ATOM     34  C28 UNL A   1      14.315  55.473   6.905  1.00  0.00    +0.000 C 
ATOM     35  C29 UNL A   1      13.460  55.124   5.848  1.00  0.00    +0.000 C 
ATOM    143  H35 UNL A   1      14.467  56.489   8.755  1.00  0.00    +0.000 H 
ATOM    144  H36 UNL A   1      15.295  55.151   6.901  1.00  0.00    +0.000 H 
ATOM    155  H47 UNL A   1      11.525  55.408   5.047  1.00  0.00    +0.000 H 
ATOM    156  H48 UNL A   1      10.776  56.907   6.794  1.00  0.00    +0.000 H 
ATOM     93  C68 UNL A   1      12.158  55.644   5.828  1.00  0.00    +0.000 C 
ATOM     94  C69 UNL A   1      11.710  56.473   6.851  1.00  0.00    +0.000 C 
ATOM     32  C26 UNL A   1      12.526  56.718   7.956  1.00  0.00    +0.000 C 
BRANCH   32   30
ATOM     30  C25 UNL A   1      12.004  57.491   9.105  1.00  0.00    +0.000 C 
ATOM     31  O2  UNL A   1      12.232  58.684   9.192  1.00  0.00    +0.000 O 
BRANCH   30   29
ATOM     29  N3  UNL A   1      11.250  56.848  10.068  1.00  0.00    +0.000 N 
ATOM    142  H34 UNL A   1      10.417  57.304  10.328  1.00  0.00    +0.000 H 
BRANCH   29   28
ATOM    141  H33 UNL A   1      11.196  55.693  11.768  1.00  0.00    +0.000 H 
ATOM     28  C24 UNL A   1      11.515  55.591  10.752  1.00  0.00    +0.000 C 
ATOM    140  H32 UNL A   1      12.562  55.381  10.695  1.00  0.00    +0.000 H 
BRANCH   28   27
ATOM    138  H30 UNL A   1      10.278  53.877  10.919  1.00  0.00    +0.000 H 
ATOM     27  C23 UNL A   1      10.743  54.427  10.129  1.00  0.00    +0.000 C 
ATOM    139  H31 UNL A   1      10.044  54.862   9.446  1.00  0.00    +0.000 H 
BRANCH   27   26
ATOM    137  H29 UNL A   1      12.125  54.058   8.599  1.00  0.00    +0.000 H 
ATOM     26  C22 UNL A   1      11.598  53.454   9.309  1.00  0.00    +0.000 C 
ATOM    136  H28 UNL A   1      10.941  52.734   8.866  1.00  0.00    +0.000 H 
BRANCH   26   25
ATOM     25  C21 UNL A   1      12.677  52.690  10.088  1.00  0.00    +0.000 C 
ATOM    134  H26 UNL A   1      12.518  52.867  11.132  1.00  0.00    +0.000 H 
ATOM    135  H27 UNL A   1      12.575  51.663   9.806  1.00  0.00    +0.000 H 
BRANCH   25   24
ATOM    132  H24 UNL A   1      14.157  54.137   9.608  1.00  0.00    +0.000 H 
ATOM    133  H25 UNL A   1      14.719  52.751  10.582  1.00  0.00    +0.000 H 
ATOM     24  C20 UNL A   1      14.122  53.079   9.758  1.00  0.00    +0.000 C 
BRANCH   24   23
ATOM    130  H22 UNL A   1      13.999  51.660   8.166  1.00  0.00    +0.000 H 
ATOM    131  H23 UNL A   1      14.855  53.152   7.764  1.00  0.00    +0.000 H 
ATOM     23  C19 UNL A   1      14.694  52.398   8.507  1.00  0.00    +0.000 C 
BRANCH   23   22
ATOM    129  H21 UNL A   1      16.645  52.360   9.150  1.00  0.00    +0.000 H 
ATOM     22  N2  UNL A   1      15.967  51.754   8.771  1.00  0.00    +0.000 N 
BRANCH   22   20
ATOM     20  C18 UNL A   1      16.410  50.478   8.600  1.00  0.00    +0.000 C 
ATOM     21  O1  UNL A   1      16.989  50.247   7.529  1.00  0.00    +0.000 O 
BRANCH   20   18
ATOM     18  C16 UNL A   1      16.233  49.342   9.625  1.00  0.00    +0.000 C 
ATOM    125  H17 UNL A   1      17.025  49.478  10.332  1.00  0.00    +0.000 H 
BRANCH   18   17
ATOM     14  C12 UNL A   1      12.655  49.405  12.147  1.00  0.00    +0.000 C 
ATOM     15  C13 UNL A   1      13.836  50.083  12.494  1.00  0.00    +0.000 C 
ATOM     16  C14 UNL A   1      14.931  50.173  11.640  1.00  0.00    +0.000 C 
ATOM     17  C15 UNL A   1      14.962  49.474  10.446  1.00  0.00    +0.000 C 
ATOM    123  H15 UNL A   1      13.894  50.534  13.421  1.00  0.00    +0.000 H 
ATOM    124  H16 UNL A   1      15.732  50.770  11.901  1.00  0.00    +0.000 H 
ATOM    157  H49 UNL A   1      13.748  48.378   9.122  1.00  0.00    +0.000 H 
ATOM     95  C70 UNL A   1      13.770  48.860  10.035  1.00  0.00    +0.000 C 
ATOM     96  C71 UNL A   1      12.593  48.876  10.828  1.00  0.00    +0.000 C 
BRANCH   14    6
ATOM    118  H10 UNL A   1      10.681  49.063  12.458  1.00  0.00    +0.000 H 
ATOM      6  C5  UNL A   1      11.465  49.295  13.147  1.00  0.00    +0.000 C 
BRANCH    6    5
ATOM      2  C2  UNL A   1      10.845  53.455  13.967  1.00  0.00    +0.000 C 
ATOM      3  C3  UNL A   1       9.590  52.645  13.655  1.00  0.00    +0.000 C 
ATOM      4  C4  UNL A   1       9.918  51.233  13.159  1.00  0.00    +0.000 C 
ATOM    164  H56 UNL A   1      11.039  52.525  15.873  1.00  0.00    +0.000 H 
ATOM    165  H57 UNL A   1      12.515  53.252  15.270  1.00  0.00    +0.000 H 
ATOM    162  H54 UNL A   1      12.824  51.518  13.691  1.00  0.00    +0.000 H 
ATOM    163  H55 UNL A   1      12.451  50.772  15.272  1.00  0.00    +0.000 H 
ATOM      5  N1  UNL A   1      11.012  50.542  13.845  1.00  0.00    +0.000 N 
ATOM    107  C79 UNL A   1      12.084  51.339  14.443  1.00  0.00    +0.000 C 
ATOM    108  C80 UNL A   1      11.646  52.685  15.007  1.00  0.00    +0.000 C 
ATOM    112  H4  UNL A   1      11.422  53.590  13.076  1.00  0.00    +0.000 H 
ATOM    113  H5  UNL A   1       9.031  53.154  12.900  1.00  0.00    +0.000 H 
ATOM    114  H6  UNL A   1       9.028  52.551  14.562  1.00  0.00    +0.000 H 
ATOM    115  H7  UNL A   1      10.175  51.304  12.123  1.00  0.00    +0.000 H 
ATOM    116  H8  UNL A   1       9.043  50.650  13.358  1.00  0.00    +0.000 H 
ATOM    117  H9  UNL A   1      10.544  50.242  14.699  1.00  0.00    +0.000 H 
BRANCH    2    1
ATOM      1  C1  UNL A   1      10.496  54.845  14.477  1.00  0.00    +0.000 C 
ATOM    109  H1  UNL A   1      11.196  55.134  15.232  1.00  0.00    +0.000 H 
ATOM    110  H2  UNL A   1       9.509  54.835  14.890  1.00  0.00    +0.000 H 
ATOM    111  H3  UNL A   1      10.537  55.543  13.667  1.00  0.00    +0.000 H 
ENDBRANCH    2    1
ENDBRANCH    6    5
BRANCH    6    7
ATOM      7  C6  UNL A   1      11.620  48.159  14.180  1.00  0.00    +0.000 C 
ATOM      8  C7  UNL A   1      12.433  47.034  13.937  1.00  0.00    +0.000 C 
ATOM      9  C8  UNL A   1      12.562  46.028  14.895  1.00  0.00    +0.000 C 
ATOM     10  C9  UNL A   1      11.868  46.132  16.094  1.00  0.00    +0.000 C 
ATOM     11  F1  UNL A   1      11.985  45.159  17.009  1.00  0.00    +0.000 F 
ATOM     12  C10 UNL A   1      11.058  47.227  16.359  1.00  0.00    +0.000 C 
ATOM     13  C11 UNL A   1      10.944  48.246  15.412  1.00  0.00    +0.000 C 
ATOM    119  H11 UNL A   1      12.937  46.953  13.040  1.00  0.00    +0.000 H 
ATOM    120  H12 UNL A   1      13.169  45.214  14.714  1.00  0.00    +0.000 H 
ATOM    121  H13 UNL A   1      10.544  47.288  17.252  1.00  0.00    +0.000 H 
ATOM    122  H14 UNL A   1      10.360  49.071  15.617  1.00  0.00    +0.000 H 
ENDBRANCH    6    7
ENDBRANCH   14    6
BRANCH   96   97
ATOM     97  C72 UNL A   1      11.348  48.387  10.205  1.00  0.00    +0.000 C 
ATOM     98  C73 UNL A   1      10.894  47.074  10.401  1.00  0.00    +0.000 C 
ATOM     99  C74 UNL A   1       9.714  46.625   9.798  1.00  0.00    +0.000 C 
ATOM    161  H53 UNL A   1      10.935  50.185   9.176  1.00  0.00    +0.000 H 
ATOM    100  C75 UNL A   1       8.958  47.479   8.982  1.00  0.00    +0.000 C 
ATOM    101  C76 UNL A   1       7.688  46.988   8.335  1.00  0.00    +0.000 C 
ATOM    102  F17 UNL A   1       7.929  46.135   7.301  1.00  0.00    +0.000 F 
ATOM    103  F18 UNL A   1       6.881  46.311   9.198  1.00  0.00    +0.000 F 
ATOM    105  C77 UNL A   1       9.420  48.783   8.761  1.00  0.00    +0.000 C 
ATOM    106  C78 UNL A   1      10.603  49.226   9.359  1.00  0.00    +0.000 C 
ATOM    104  F19 UNL A   1       6.920  47.989   7.820  1.00  0.00    +0.000 F 
ATOM    158  H50 UNL A   1      11.438  46.431  10.996  1.00  0.00    +0.000 H 
ATOM    159  H51 UNL A   1       9.396  45.656   9.956  1.00  0.00    +0.000 H 
ATOM    160  H52 UNL A   1       8.884  49.421   8.152  1.00  0.00    +0.000 H 
ENDBRANCH   96   97
ENDBRANCH   18   17
BRANCH   18   19
ATOM     19  C17 UNL A   1      16.515  47.942   9.084  1.00  0.00    +0.000 C 
ATOM    126  H18 UNL A   1      16.751  48.003   8.042  1.00  0.00    +0.000 H 
ATOM    127  H19 UNL A   1      15.651  47.326   9.219  1.00  0.00    +0.000 H 
ATOM    128  H20 UNL A   1      17.343  47.516   9.612  1.00  0.00    +0.000 H 
ENDBRANCH   18   19
ENDBRANCH   20   18
ENDBRANCH   22   20
ENDBRANCH   23   22
ENDBRANCH   24   23
ENDBRANCH   25   24
ENDBRANCH   26   25
ENDBRANCH   27   26
ENDBRANCH   28   27
ENDBRANCH   29   28
ENDBRANCH   30   29
ENDBRANCH   32   30
ENDBRANCH   36   35
BRANCH   40   41
ATOM     41  C34 UNL A   1      12.698  48.280   4.920  1.00  0.00    +0.000 C 
ATOM     42  C35 UNL A   1      11.446  47.827   4.479  1.00  0.00    +0.000 C 
ATOM     43  F2  UNL A   1      10.916  48.301   3.341  1.00  0.00    +0.000 F 
ATOM     44  C36 UNL A   1      10.722  46.891   5.215  1.00  0.00    +0.000 C 
ATOM     45  F3  UNL A   1       9.517  46.491   4.787  1.00  0.00    +0.000 F 
ATOM     46  C37 UNL A   1      11.247  46.376   6.391  1.00  0.00    +0.000 C 
ATOM     47  F4  UNL A   1      10.556  45.466   7.091  1.00  0.00    +0.000 F 
ATOM     48  C38 UNL A   1      12.487  46.803   6.840  1.00  0.00    +0.000 C 
ATOM     49  F5  UNL A   1      13.005  46.290   7.963  1.00  0.00    +0.000 F 
ATOM     50  C39 UNL A   1      13.200  47.758   6.120  1.00  0.00    +0.000 C 
ATOM     51  F6  UNL A   1      14.396  48.154   6.580  1.00  0.00    +0.000 F 
ENDBRANCH   40   41
BRANCH   57   58
ATOM     65  C49 UNL A   1      18.589  46.981  -1.482  1.00  0.00    +0.000 C 
ATOM     66  F10 UNL A   1      19.702  46.279  -1.229  1.00  0.00    +0.000 F 
ATOM     67  C50 UNL A   1      18.149  47.937  -0.571  1.00  0.00    +0.000 C 
ATOM     68  F11 UNL A   1      18.850  48.135   0.556  1.00  0.00    +0.000 F 
ATOM     58  C45 UNL A   1      16.993  48.689  -0.822  1.00  0.00    +0.000 C 
ATOM     59  C46 UNL A   1      16.300  48.457  -2.019  1.00  0.00    +0.000 C 
ATOM     60  F7  UNL A   1      15.185  49.149  -2.299  1.00  0.00    +0.000 F 
ATOM     61  C47 UNL A   1      16.731  47.486  -2.918  1.00  0.00    +0.000 C 
ATOM     62  F8  UNL A   1      16.032  47.253  -4.038  1.00  0.00    +0.000 F 
ATOM     63  C48 UNL A   1      17.873  46.747  -2.648  1.00  0.00    +0.000 C 
ATOM     64  F9  UNL A   1      18.285  45.809  -3.511  1.00  0.00    +0.000 F 
ENDBRANCH   57   58
BRANCH   72   73
ATOM     73  C54 UNL A   1      17.692  55.552   0.276  1.00  0.00    +0.000 C 
ATOM     74  C55 UNL A   1      18.946  55.961   0.752  1.00  0.00    +0.000 C 
ATOM     75  F12 UNL A   1      19.495  55.345   1.810  1.00  0.00    +0.000 F 
ATOM     76  C56 UNL A   1      19.627  57.023   0.161  1.00  0.00    +0.000 C 
ATOM     77  F13 UNL A   1      20.807  57.419   0.656  1.00  0.00    +0.000 F 
ATOM     78  C57 UNL A   1      19.077  57.681  -0.929  1.00  0.00    +0.000 C 
ATOM     79  F14 UNL A   1      19.732  58.703  -1.498  1.00  0.00    +0.000 F 
ATOM     80  C58 UNL A   1      17.847  57.281  -1.429  1.00  0.00    +0.000 C 
ATOM     81  F15 UNL A   1      17.321  57.902  -2.493  1.00  0.00    +0.000 F 
ATOM     82  C59 UNL A   1      17.157  56.231  -0.827  1.00  0.00    +0.000 C 
ATOM     83  F16 UNL A   1      15.968  55.862  -1.326  1.00  0.00    +0.000 F 
ENDBRANCH   72   73
TORSDOF 22
ENDMDL
MODEL 9
REMARK VINA RESULT:      -8.7      3.086      8.470
ROOT
ATOM    145  H37 UNL A   1      18.521  50.514  -2.409  1.00  0.00    +0.000 H 
ATOM    146  H38 UNL A   1      19.117  53.043  -2.186  1.00  0.00    +0.000 H 
ATOM    147  H39 UNL A   1      16.231  52.134   0.642  1.00  0.00    +0.000 H 
ATOM    148  H40 UNL A   1      12.181  54.029   5.179  1.00  0.00    +0.000 H 
ATOM    149  H41 UNL A   1      11.670  51.545   5.029  1.00  0.00    +0.000 H 
ATOM    150  H42 UNL A   1      14.495  52.444   2.114  1.00  0.00    +0.000 H 
ATOM    151  H43 UNL A   1      15.667  57.304   2.803  1.00  0.00    +0.000 H 
ATOM    152  H44 UNL A   1      17.355  57.038   0.895  1.00  0.00    +0.000 H 
ATOM    153  H45 UNL A   1      15.202  47.241   0.235  1.00  0.00    +0.000 H 
ATOM    154  H46 UNL A   1      13.238  47.566   1.846  1.00  0.00    +0.000 H 
ATOM     36  C30 UNL A   1      13.136  50.167   3.009  1.00  0.00    +0.000 C 
ATOM     37  C31 UNL A   1      14.050  49.683   1.916  1.00  0.00    +0.000 C 
ATOM     38  N4  UNL A   1      14.983  50.334   1.267  1.00  0.00    +0.000 N 
ATOM     39  C32 UNL A   1      15.577  49.402   0.427  1.00  0.00    +0.000 C 
ATOM     40  C33 UNL A   1      16.564  49.593  -0.480  1.00  0.00    +0.000 C 
ATOM     52  C40 UNL A   1      17.170  50.866  -0.764  1.00  0.00    +0.000 C 
ATOM     53  C41 UNL A   1      18.115  51.174  -1.726  1.00  0.00    +0.000 C 
ATOM     54  C42 UNL A   1      18.424  52.532  -1.616  1.00  0.00    +0.000 C 
ATOM     55  C43 UNL A   1      17.644  53.079  -0.610  1.00  0.00    +0.000 C 
ATOM     56  N5  UNL A   1      16.882  52.045  -0.092  1.00  0.00    +0.000 N 
ATOM     57  C44 UNL A   1      17.603  54.444  -0.151  1.00  0.00    +0.000 C 
ATOM     69  C51 UNL A   1      16.791  54.911   0.827  1.00  0.00    +0.000 C 
ATOM     70  N6  UNL A   1      15.847  54.221   1.574  1.00  0.00    +0.000 N 
ATOM     71  C52 UNL A   1      15.319  55.101   2.390  1.00  0.00    +0.000 C 
ATOM     72  C53 UNL A   1      14.240  54.907   3.416  1.00  0.00    +0.000 C 
ATOM     84  C60 UNL A   1      13.659  53.699   3.550  1.00  0.00    +0.000 C 
ATOM     85  C61 UNL A   1      12.624  53.365   4.527  1.00  0.00    +0.000 C 
ATOM     86  C62 UNL A   1      12.344  52.056   4.435  1.00  0.00    +0.000 C 
ATOM     87  C63 UNL A   1      13.145  51.467   3.363  1.00  0.00    +0.000 C 
ATOM     88  N7  UNL A   1      13.876  52.523   2.875  1.00  0.00    +0.000 N 
ATOM     89  C64 UNL A   1      15.890  56.451   2.266  1.00  0.00    +0.000 C 
ATOM     90  C65 UNL A   1      16.766  56.285   1.284  1.00  0.00    +0.000 C 
ATOM     91  C66 UNL A   1      14.925  48.134   0.671  1.00  0.00    +0.000 C 
ATOM     92  C67 UNL A   1      13.924  48.269   1.530  1.00  0.00    +0.000 C 
ENDROOT
BRANCH   36   35
ATOM     33  C27 UNL A   1      12.105  47.190   5.154  1.00  0.00    +0.000 C 
ATOM     34  C28 UNL A   1      12.912  48.144   4.521  1.00  0.00    +0.000 C 
ATOM     35  C29 UNL A   1      12.329  49.192   3.789  1.00  0.00    +0.000 C 
ATOM    143  H35 UNL A   1      12.536  46.408   5.670  1.00  0.00    +0.000 H 
ATOM    144  H36 UNL A   1      13.939  48.076   4.592  1.00  0.00    +0.000 H 
ATOM    155  H47 UNL A   1      10.494  50.093   3.257  1.00  0.00    +0.000 H 
ATOM    156  H48 UNL A   1       9.113  48.545   4.504  1.00  0.00    +0.000 H 
ATOM     93  C68 UNL A   1      10.933  49.317   3.777  1.00  0.00    +0.000 C 
ATOM     94  C69 UNL A   1      10.134  48.406   4.460  1.00  0.00    +0.000 C 
ATOM     32  C26 UNL A   1      10.714  47.302   5.084  1.00  0.00    +0.000 C 
BRANCH   32   30
ATOM     30  C25 UNL A   1       9.858  46.262   5.697  1.00  0.00    +0.000 C 
ATOM     31  O2  UNL A   1       8.683  46.180   5.389  1.00  0.00    +0.000 O 
BRANCH   30   29
ATOM     29  N3  UNL A   1      10.408  45.383   6.610  1.00  0.00    +0.000 N 
ATOM    142  H34 UNL A   1      10.742  44.536   6.234  1.00  0.00    +0.000 H 
BRANCH   29   28
ATOM    141  H33 UNL A   1      10.083  44.701   8.522  1.00  0.00    +0.000 H 
ATOM     28  C24 UNL A   1      10.561  45.533   8.050  1.00  0.00    +0.000 C 
ATOM    140  H32 UNL A   1      10.115  46.457   8.350  1.00  0.00    +0.000 H 
BRANCH   28   27
ATOM    138  H30 UNL A   1      12.100  45.087   9.440  1.00  0.00    +0.000 H 
ATOM     27  C23 UNL A   1      12.031  45.535   8.470  1.00  0.00    +0.000 C 
ATOM    139  H31 UNL A   1      12.560  44.993   7.715  1.00  0.00    +0.000 H 
BRANCH   27   26
ATOM    137  H29 UNL A   1      11.885  47.602   8.771  1.00  0.00    +0.000 H 
ATOM     26  C22 UNL A   1      12.679  46.922   8.540  1.00  0.00    +0.000 C 
ATOM    136  H28 UNL A   1      13.153  47.110   7.599  1.00  0.00    +0.000 H 
BRANCH   26   25
ATOM     25  C21 UNL A   1      13.728  47.117   9.643  1.00  0.00    +0.000 C 
ATOM    134  H26 UNL A   1      13.244  47.573  10.482  1.00  0.00    +0.000 H 
ATOM    135  H27 UNL A   1      14.123  46.145   9.851  1.00  0.00    +0.000 H 
BRANCH   25   24
ATOM    132  H24 UNL A   1      14.562  48.939   8.936  1.00  0.00    +0.000 H 
ATOM    133  H25 UNL A   1      15.547  48.051  10.130  1.00  0.00    +0.000 H 
ATOM     24  C20 UNL A   1      14.928  47.988   9.259  1.00  0.00    +0.000 C 
BRANCH   24   23
ATOM    130  H22 UNL A   1      16.558  46.787   8.581  1.00  0.00    +0.000 H 
ATOM    131  H23 UNL A   1      15.176  46.846   7.484  1.00  0.00    +0.000 H 
ATOM     23  C19 UNL A   1      15.806  47.407   8.142  1.00  0.00    +0.000 C 
BRANCH   23   22
ATOM    129  H21 UNL A   1      17.122  48.961   7.869  1.00  0.00    +0.000 H 
ATOM     22  N2  UNL A   1      16.453  48.446   7.362  1.00  0.00    +0.000 N 
BRANCH   22   20
ATOM     20  C18 UNL A   1      16.317  48.850   6.069  1.00  0.00    +0.000 C 
ATOM     21  O1  UNL A   1      16.671  48.033   5.208  1.00  0.00    +0.000 O 
BRANCH   20   18
ATOM     18  C16 UNL A   1      15.772  50.223   5.631  1.00  0.00    +0.000 C 
ATOM    125  H17 UNL A   1      15.123  50.016   4.807  1.00  0.00    +0.000 H 
BRANCH   18   17
ATOM     14  C12 UNL A   1      13.277  51.809   8.861  1.00  0.00    +0.000 C 
ATOM     15  C13 UNL A   1      14.578  52.278   8.611  1.00  0.00    +0.000 C 
ATOM     16  C14 UNL A   1      15.327  51.871   7.511  1.00  0.00    +0.000 C 
ATOM     17  C15 UNL A   1      14.874  50.867   6.673  1.00  0.00    +0.000 C 
ATOM    123  H15 UNL A   1      14.996  52.954   9.270  1.00  0.00    +0.000 H 
ATOM    124  H16 UNL A   1      16.234  52.324   7.318  1.00  0.00    +0.000 H 
ATOM    157  H49 UNL A   1      13.166  49.733   6.201  1.00  0.00    +0.000 H 
ATOM     95  C70 UNL A   1      13.549  50.441   6.847  1.00  0.00    +0.000 C 
ATOM     96  C71 UNL A   1      12.716  50.947   7.878  1.00  0.00    +0.000 C 
BRANCH   14    6
ATOM    118  H10 UNL A   1      11.581  51.713   9.968  1.00  0.00    +0.000 H 
ATOM      6  C5  UNL A   1      12.486  52.261  10.125  1.00  0.00    +0.000 C 
BRANCH    6    5
ATOM      2  C2  UNL A   1      10.719  56.015   9.053  1.00  0.00    +0.000 C 
ATOM      3  C3  UNL A   1      10.076  55.290  10.232  1.00  0.00    +0.000 C 
ATOM      4  C4  UNL A   1      10.618  53.867  10.406  1.00  0.00    +0.000 C 
ATOM    164  H56 UNL A   1      12.432  56.508  10.219  1.00  0.00    +0.000 H 
ATOM    165  H57 UNL A   1      12.694  56.567   8.487  1.00  0.00    +0.000 H 
ATOM    162  H54 UNL A   1      12.705  54.207   8.323  1.00  0.00    +0.000 H 
ATOM    163  H55 UNL A   1      13.767  54.675   9.683  1.00  0.00    +0.000 H 
ATOM      5  N1  UNL A   1      12.060  53.695  10.215  1.00  0.00    +0.000 N 
ATOM    107  C79 UNL A   1      12.766  54.606   9.314  1.00  0.00    +0.000 C 
ATOM    108  C80 UNL A   1      12.223  56.030   9.285  1.00  0.00    +0.000 C 
ATOM    112  H4  UNL A   1      10.487  55.505   8.142  1.00  0.00    +0.000 H 
ATOM    113  H5  UNL A   1       9.020  55.239  10.070  1.00  0.00    +0.000 H 
ATOM    114  H6  UNL A   1      10.309  55.840  11.120  1.00  0.00    +0.000 H 
ATOM    115  H7  UNL A   1      10.118  53.240   9.699  1.00  0.00    +0.000 H 
ATOM    116  H8  UNL A   1      10.434  53.614  11.429  1.00  0.00    +0.000 H 
ATOM    117  H9  UNL A   1      12.415  54.047  11.104  1.00  0.00    +0.000 H 
BRANCH    2    1
ATOM      1  C1  UNL A   1      10.181  57.430   8.912  1.00  0.00    +0.000 C 
ATOM    109  H1  UNL A   1      10.203  57.916   9.866  1.00  0.00    +0.000 H 
ATOM    110  H2  UNL A   1       9.174  57.394   8.553  1.00  0.00    +0.000 H 
ATOM    111  H3  UNL A   1      10.788  57.976   8.221  1.00  0.00    +0.000 H 
ENDBRANCH    2    1
ENDBRANCH    6    5
BRANCH    6    7
ATOM      7  C6  UNL A   1      13.140  51.837  11.456  1.00  0.00    +0.000 C 
ATOM      8  C7  UNL A   1      13.091  50.508  11.923  1.00  0.00    +0.000 C 
ATOM      9  C8  UNL A   1      13.703  50.152  13.126  1.00  0.00    +0.000 C 
ATOM     10  C9  UNL A   1      14.353  51.123  13.877  1.00  0.00    +0.000 C 
ATOM     11  F1  UNL A   1      14.930  50.782  15.037  1.00  0.00    +0.000 F 
ATOM     12  C10 UNL A   1      14.415  52.441  13.443  1.00  0.00    +0.000 C 
ATOM     13  C11 UNL A   1      13.823  52.795  12.229  1.00  0.00    +0.000 C 
ATOM    119  H11 UNL A   1      12.597  49.791  11.370  1.00  0.00    +0.000 H 
ATOM    120  H12 UNL A   1      13.673  49.175  13.454  1.00  0.00    +0.000 H 
ATOM    121  H13 UNL A   1      14.896  53.153  14.014  1.00  0.00    +0.000 H 
ATOM    122  H14 UNL A   1      13.887  53.769  11.896  1.00  0.00    +0.000 H 
ENDBRANCH    6    7
ENDBRANCH   14    6
BRANCH   96   97
ATOM     97  C72 UNL A   1      11.285  50.588   7.832  1.00  0.00    +0.000 C 
ATOM     98  C73 UNL A   1      10.334  51.429   7.237  1.00  0.00    +0.000 C 
ATOM     99  C74 UNL A   1       8.981  51.075   7.207  1.00  0.00    +0.000 C 
ATOM    161  H53 UNL A   1      11.514  48.777   8.897  1.00  0.00    +0.000 H 
ATOM    100  C75 UNL A   1       8.545  49.868   7.773  1.00  0.00    +0.000 C 
ATOM    101  C76 UNL A   1       7.084  49.495   7.738  1.00  0.00    +0.000 C 
ATOM    102  F17 UNL A   1       6.339  50.229   8.610  1.00  0.00    +0.000 F 
ATOM    103  F18 UNL A   1       6.519  49.682   6.513  1.00  0.00    +0.000 F 
ATOM    105  C77 UNL A   1       9.486  49.036   8.392  1.00  0.00    +0.000 C 
ATOM    106  C78 UNL A   1      10.835  49.396   8.427  1.00  0.00    +0.000 C 
ATOM    104  F19 UNL A   1       6.851  48.190   8.057  1.00  0.00    +0.000 F 
ATOM    158  H50 UNL A   1      10.636  52.322   6.818  1.00  0.00    +0.000 H 
ATOM    159  H51 UNL A   1       8.297  51.707   6.763  1.00  0.00    +0.000 H 
ATOM    160  H52 UNL A   1       9.180  48.150   8.827  1.00  0.00    +0.000 H 
ENDBRANCH   96   97
ENDBRANCH   18   17
BRANCH   18   19
ATOM     19  C17 UNL A   1      16.809  51.153   5.004  1.00  0.00    +0.000 C 
ATOM    126  H18 UNL A   1      16.319  52.018   4.607  1.00  0.00    +0.000 H 
ATOM    127  H19 UNL A   1      17.319  50.639   4.216  1.00  0.00    +0.000 H 
ATOM    128  H20 UNL A   1      17.515  51.454   5.749  1.00  0.00    +0.000 H 
ENDBRANCH   18   19
ENDBRANCH   20   18
ENDBRANCH   22   20
ENDBRANCH   23   22
ENDBRANCH   24   23
ENDBRANCH   25   24
ENDBRANCH   26   25
ENDBRANCH   27   26
ENDBRANCH   28   27
ENDBRANCH   29   28
ENDBRANCH   30   29
ENDBRANCH   32   30
ENDBRANCH   36   35
BRANCH   40   41
ATOM     41  C34 UNL A   1      17.049  48.399  -1.249  1.00  0.00    +0.000 C 
ATOM     42  C35 UNL A   1      18.169  47.679  -0.809  1.00  0.00    +0.000 C 
ATOM     43  F2  UNL A   1      18.790  48.020   0.331  1.00  0.00    +0.000 F 
ATOM     44  C36 UNL A   1      18.669  46.609  -1.549  1.00  0.00    +0.000 C 
ATOM     45  F3  UNL A   1      19.756  45.951  -1.122  1.00  0.00    +0.000 F 
ATOM     46  C37 UNL A   1      18.045  46.227  -2.726  1.00  0.00    +0.000 C 
ATOM     47  F4  UNL A   1      18.519  45.190  -3.430  1.00  0.00    +0.000 F 
ATOM     48  C38 UNL A   1      16.930  46.919  -3.174  1.00  0.00    +0.000 C 
ATOM     49  F5  UNL A   1      16.312  46.537  -4.300  1.00  0.00    +0.000 F 
ATOM     50  C39 UNL A   1      16.445  48.005  -2.451  1.00  0.00    +0.000 C 
ATOM     51  F6  UNL A   1      15.366  48.658  -2.909  1.00  0.00    +0.000 F 
ENDBRANCH   40   41
BRANCH   57   58
ATOM     65  C49 UNL A   1      20.627  56.628  -0.900  1.00  0.00    +0.000 C 
ATOM     66  F10 UNL A   1      21.764  57.012  -0.303  1.00  0.00    +0.000 F 
ATOM     67  C50 UNL A   1      19.723  55.819  -0.219  1.00  0.00    +0.000 C 
ATOM     68  F11 UNL A   1      20.012  55.430   1.033  1.00  0.00    +0.000 F 
ATOM     58  C45 UNL A   1      18.524  55.415  -0.822  1.00  0.00    +0.000 C 
ATOM     59  C46 UNL A   1      18.259  55.857  -2.127  1.00  0.00    +0.000 C 
ATOM     60  F7  UNL A   1      17.127  55.492  -2.747  1.00  0.00    +0.000 F 
ATOM     61  C47 UNL A   1      19.175  56.649  -2.813  1.00  0.00    +0.000 C 
ATOM     62  F8  UNL A   1      18.920  57.029  -4.073  1.00  0.00    +0.000 F 
ATOM     63  C48 UNL A   1      20.359  57.032  -2.201  1.00  0.00    +0.000 C 
ATOM     64  F9  UNL A   1      21.243  57.790  -2.864  1.00  0.00    +0.000 F 
ENDBRANCH   57   58
BRANCH   72   73
ATOM     73  C54 UNL A   1      13.776  56.034   4.264  1.00  0.00    +0.000 C 
ATOM     74  C55 UNL A   1      14.385  56.329   5.491  1.00  0.00    +0.000 C 
ATOM     75  F12 UNL A   1      15.441  55.612   5.906  1.00  0.00    +0.000 F 
ATOM     76  C56 UNL A   1      13.894  57.343   6.311  1.00  0.00    +0.000 C 
ATOM     77  F13 UNL A   1      14.472  57.582   7.497  1.00  0.00    +0.000 F 
ATOM     78  C57 UNL A   1      12.801  58.095   5.909  1.00  0.00    +0.000 C 
ATOM     79  F14 UNL A   1      12.329  59.070   6.698  1.00  0.00    +0.000 F 
ATOM     80  C58 UNL A   1      12.194  57.833   4.690  1.00  0.00    +0.000 C 
ATOM     81  F15 UNL A   1      11.148  58.569   4.289  1.00  0.00    +0.000 F 
ATOM     82  C59 UNL A   1      12.673  56.807   3.878  1.00  0.00    +0.000 C 
ATOM     83  F16 UNL A   1      12.069  56.571   2.703  1.00  0.00    +0.000 F 
ENDBRANCH   72   73
TORSDOF 22
ENDMDL
MODEL 10
REMARK VINA RESULT:      -8.6     20.470     26.963
ROOT
ATOM    145  H37 UNL A   1       4.031  27.928   4.478  1.00  0.00    +0.000 H 
ATOM    146  H38 UNL A   1       4.220  26.717   6.779  1.00  0.00    +0.000 H 
ATOM    147  H39 UNL A   1       7.685  25.981   4.632  1.00  0.00    +0.000 H 
ATOM    148  H40 UNL A   1      13.272  22.973   4.059  1.00  0.00    +0.000 H 
ATOM    149  H41 UNL A   1      13.130  24.233   1.858  1.00  0.00    +0.000 H 
ATOM    150  H42 UNL A   1       9.598  24.911   3.945  1.00  0.00    +0.000 H 
ATOM    151  H43 UNL A   1      10.206  22.664   8.422  1.00  0.00    +0.000 H 
ATOM    152  H44 UNL A   1       7.892  23.564   9.048  1.00  0.00    +0.000 H 
ATOM    153  H45 UNL A   1       7.306  28.419   0.264  1.00  0.00    +0.000 H 
ATOM    154  H46 UNL A   1       9.417  27.212  -0.541  1.00  0.00    +0.000 H 
ATOM     36  C30 UNL A   1      10.706  25.691   1.495  1.00  0.00    +0.000 C 
ATOM     37  C31 UNL A   1       9.377  26.390   1.574  1.00  0.00    +0.000 C 
ATOM     38  N4  UNL A   1       8.531  26.455   2.571  1.00  0.00    +0.000 N 
ATOM     39  C32 UNL A   1       7.507  27.289   2.143  1.00  0.00    +0.000 C 
ATOM     40  C33 UNL A   1       6.373  27.636   2.797  1.00  0.00    +0.000 C 
ATOM     52  C40 UNL A   1       6.004  27.144   4.097  1.00  0.00    +0.000 C 
ATOM     53  C41 UNL A   1       4.836  27.369   4.803  1.00  0.00    +0.000 C 
ATOM     54  C42 UNL A   1       4.932  26.709   6.030  1.00  0.00    +0.000 C 
ATOM     55  C43 UNL A   1       6.145  26.041   6.074  1.00  0.00    +0.000 C 
ATOM     56  N5  UNL A   1       6.795  26.319   4.883  1.00  0.00    +0.000 N 
ATOM     57  C44 UNL A   1       6.673  25.213   7.129  1.00  0.00    +0.000 C 
ATOM     69  C51 UNL A   1       7.863  24.569   7.089  1.00  0.00    +0.000 C 
ATOM     70  N6  UNL A   1       8.804  24.546   6.069  1.00  0.00    +0.000 N 
ATOM     71  C52 UNL A   1       9.783  23.787   6.497  1.00  0.00    +0.000 C 
ATOM     72  C53 UNL A   1      11.057  23.407   5.799  1.00  0.00    +0.000 C 
ATOM     84  C60 UNL A   1      11.279  23.837   4.541  1.00  0.00    +0.000 C 
ATOM     85  C61 UNL A   1      12.485  23.568   3.760  1.00  0.00    +0.000 C 
ATOM     86  C62 UNL A   1      12.402  24.222   2.591  1.00  0.00    +0.000 C 
ATOM     87  C63 UNL A   1      11.117  24.917   2.519  1.00  0.00    +0.000 C 
ATOM     88  N7  UNL A   1      10.505  24.608   3.710  1.00  0.00    +0.000 N 
ATOM     89  C64 UNL A   1       9.581  23.259   7.855  1.00  0.00    +0.000 C 
ATOM     90  C65 UNL A   1       8.386  23.747   8.160  1.00  0.00    +0.000 C 
ATOM     91  C66 UNL A   1       7.852  27.735   0.811  1.00  0.00    +0.000 C 
ATOM     92  C67 UNL A   1       8.962  27.150   0.384  1.00  0.00    +0.000 C 
ENDROOT
BRANCH   36   35
ATOM     33  C27 UNL A   1      12.731  25.324  -1.713  1.00  0.00    +0.000 C 
ATOM     34  C28 UNL A   1      11.778  25.073  -0.717  1.00  0.00    +0.000 C 
ATOM     35  C29 UNL A   1      11.624  25.963   0.358  1.00  0.00    +0.000 C 
ATOM    143  H35 UNL A   1      12.859  24.656  -2.487  1.00  0.00    +0.000 H 
ATOM    144  H36 UNL A   1      11.186  24.230  -0.775  1.00  0.00    +0.000 H 
ATOM    155  H47 UNL A   1      12.258  27.818   1.148  1.00  0.00    +0.000 H 
ATOM    156  H48 UNL A   1      13.772  28.331  -0.670  1.00  0.00    +0.000 H 
ATOM     93  C68 UNL A   1      12.375  27.147   0.371  1.00  0.00    +0.000 C 
ATOM     94  C69 UNL A   1      13.276  27.427  -0.651  1.00  0.00    +0.000 C 
ATOM     32  C26 UNL A   1      13.508  26.483  -1.651  1.00  0.00    +0.000 C 
BRANCH   32   30
ATOM     30  C25 UNL A   1      14.561  26.722  -2.665  1.00  0.00    +0.000 C 
ATOM     31  O2  UNL A   1      14.907  25.821  -3.407  1.00  0.00    +0.000 O 
BRANCH   30   29
ATOM     29  N3  UNL A   1      15.133  27.974  -2.765  1.00  0.00    +0.000 N 
ATOM    142  H34 UNL A   1      14.618  28.636  -3.282  1.00  0.00    +0.000 H 
BRANCH   29   28
ATOM    141  H33 UNL A   1      17.070  28.613  -3.027  1.00  0.00    +0.000 H 
ATOM     28  C24 UNL A   1      16.393  28.454  -2.214  1.00  0.00    +0.000 C 
ATOM    140  H32 UNL A   1      16.772  27.723  -1.532  1.00  0.00    +0.000 H 
BRANCH   28   27
ATOM    138  H30 UNL A   1      16.183  29.572  -0.424  1.00  0.00    +0.000 H 
ATOM     27  C23 UNL A   1      16.223  29.780  -1.473  1.00  0.00    +0.000 C 
ATOM    139  H31 UNL A   1      17.058  30.389  -1.751  1.00  0.00    +0.000 H 
BRANCH   27   26
ATOM    137  H29 UNL A   1      14.258  29.846  -2.192  1.00  0.00    +0.000 H 
ATOM     26  C22 UNL A   1      14.967  30.573  -1.850  1.00  0.00    +0.000 C 
ATOM    136  H28 UNL A   1      15.243  31.293  -2.591  1.00  0.00    +0.000 H 
BRANCH   26   25
ATOM     25  C21 UNL A   1      14.276  31.319  -0.701  1.00  0.00    +0.000 C 
ATOM    134  H26 UNL A   1      13.746  32.150  -1.118  1.00  0.00    +0.000 H 
ATOM    135  H27 UNL A   1      13.642  30.603  -0.222  1.00  0.00    +0.000 H 
BRANCH   25   24
ATOM    132  H24 UNL A   1      15.489  31.035   1.020  1.00  0.00    +0.000 H 
ATOM    133  H25 UNL A   1      16.043  32.295  -0.116  1.00  0.00    +0.000 H 
ATOM     24  C20 UNL A   1      15.210  31.852   0.389  1.00  0.00    +0.000 C 
BRANCH   24   23
ATOM    130  H22 UNL A   1      15.207  33.070   2.143  1.00  0.00    +0.000 H 
ATOM    131  H23 UNL A   1      14.566  33.854   0.697  1.00  0.00    +0.000 H 
ATOM     23  C19 UNL A   1      14.600  32.951   1.270  1.00  0.00    +0.000 C 
BRANCH   23   22
ATOM    129  H21 UNL A   1      12.566  33.239   1.308  1.00  0.00    +0.000 H 
ATOM     22  N2  UNL A   1      13.246  32.631   1.681  1.00  0.00    +0.000 N 
BRANCH   22   20
ATOM     20  C18 UNL A   1      12.728  31.657   2.479  1.00  0.00    +0.000 C 
ATOM     21  O1  UNL A   1      13.453  31.282   3.411  1.00  0.00    +0.000 O 
BRANCH   20   18
ATOM     18  C16 UNL A   1      11.342  31.012   2.290  1.00  0.00    +0.000 C 
ATOM    125  H17 UNL A   1      10.697  31.533   2.967  1.00  0.00    +0.000 H 
BRANCH   18   17
ATOM     14  C12 UNL A   1       9.336  31.567  -1.562  1.00  0.00    +0.000 C 
ATOM     15  C13 UNL A   1       9.264  32.517  -0.529  1.00  0.00    +0.000 C 
ATOM     16  C14 UNL A   1      10.001  32.407   0.647  1.00  0.00    +0.000 C 
ATOM     17  C15 UNL A   1      10.746  31.273   0.918  1.00  0.00    +0.000 C 
ATOM    123  H15 UNL A   1       8.640  33.330  -0.647  1.00  0.00    +0.000 H 
ATOM    124  H16 UNL A   1       9.991  33.184   1.327  1.00  0.00    +0.000 H 
ATOM    157  H49 UNL A   1      11.500  29.522   0.030  1.00  0.00    +0.000 H 
ATOM     95  C70 UNL A   1      10.904  30.350  -0.126  1.00  0.00    +0.000 C 
ATOM     96  C71 UNL A   1      10.275  30.512  -1.387  1.00  0.00    +0.000 C 
BRANCH   14    6
ATOM    118  H10 UNL A   1       9.239  31.652  -3.586  1.00  0.00    +0.000 H 
ATOM      6  C5  UNL A   1       8.466  31.706  -2.847  1.00  0.00    +0.000 C 
BRANCH    6    5
ATOM      2  C2  UNL A   1       7.083  35.202  -4.904  1.00  0.00    +0.000 C 
ATOM      3  C3  UNL A   1       6.003  34.218  -4.464  1.00  0.00    +0.000 C 
ATOM      4  C4  UNL A   1       6.591  32.903  -3.942  1.00  0.00    +0.000 C 
ATOM    164  H56 UNL A   1       7.414  35.822  -2.893  1.00  0.00    +0.000 H 
ATOM    165  H57 UNL A   1       8.742  36.167  -3.984  1.00  0.00    +0.000 H 
ATOM    162  H54 UNL A   1       9.387  33.892  -4.054  1.00  0.00    +0.000 H 
ATOM    163  H55 UNL A   1       9.132  34.346  -2.343  1.00  0.00    +0.000 H 
ATOM      5  N1  UNL A   1       7.782  33.016  -3.097  1.00  0.00    +0.000 N 
ATOM    107  C79 UNL A   1       8.681  34.154  -3.294  1.00  0.00    +0.000 C 
ATOM    108  C80 UNL A   1       7.995  35.450  -3.711  1.00  0.00    +0.000 C 
ATOM    112  H4  UNL A   1       7.640  34.791  -5.720  1.00  0.00    +0.000 H 
ATOM    113  H5  UNL A   1       5.371  34.004  -5.300  1.00  0.00    +0.000 H 
ATOM    114  H6  UNL A   1       5.453  34.671  -3.665  1.00  0.00    +0.000 H 
ATOM    115  H7  UNL A   1       6.846  32.302  -4.788  1.00  0.00    +0.000 H 
ATOM    116  H8  UNL A   1       5.834  32.482  -3.313  1.00  0.00    +0.000 H 
ATOM    117  H9  UNL A   1       7.364  33.298  -2.211  1.00  0.00    +0.000 H 
BRANCH    2    1
ATOM      1  C1  UNL A   1       6.478  36.506  -5.399  1.00  0.00    +0.000 C 
ATOM    109  H1  UNL A   1       6.679  36.618  -6.444  1.00  0.00    +0.000 H 
ATOM    110  H2  UNL A   1       6.908  37.325  -4.863  1.00  0.00    +0.000 H 
ATOM    111  H3  UNL A   1       5.419  36.491  -5.240  1.00  0.00    +0.000 H 
ENDBRANCH    2    1
ENDBRANCH    6    5
BRANCH    6    7
ATOM      7  C6  UNL A   1       7.458  30.556  -3.047  1.00  0.00    +0.000 C 
ATOM      8  C7  UNL A   1       7.317  29.893  -4.283  1.00  0.00    +0.000 C 
ATOM      9  C8  UNL A   1       6.404  28.847  -4.430  1.00  0.00    +0.000 C 
ATOM     10  C9  UNL A   1       5.617  28.468  -3.349  1.00  0.00    +0.000 C 
ATOM     11  F1  UNL A   1       4.734  27.471  -3.495  1.00  0.00    +0.000 F 
ATOM     12  C10 UNL A   1       5.734  29.105  -2.121  1.00  0.00    +0.000 C 
ATOM     13  C11 UNL A   1       6.661  30.136  -1.965  1.00  0.00    +0.000 C 
ATOM    119  H11 UNL A   1       7.893  30.185  -5.087  1.00  0.00    +0.000 H 
ATOM    120  H12 UNL A   1       6.315  28.359  -5.334  1.00  0.00    +0.000 H 
ATOM    121  H13 UNL A   1       5.138  28.817  -1.329  1.00  0.00    +0.000 H 
ATOM    122  H14 UNL A   1       6.764  30.596  -1.047  1.00  0.00    +0.000 H 
ENDBRANCH    6    7
ENDBRANCH   14    6
BRANCH   96   97
ATOM     97  C72 UNL A   1      10.682  29.597  -2.471  1.00  0.00    +0.000 C 
ATOM     98  C73 UNL A   1      11.628  29.975  -3.436  1.00  0.00    +0.000 C 
ATOM     99  C74 UNL A   1      11.999  29.097  -4.460  1.00  0.00    +0.000 C 
ATOM    161  H53 UNL A   1       9.373  28.039  -1.903  1.00  0.00    +0.000 H 
ATOM    100  C75 UNL A   1      11.431  27.817  -4.545  1.00  0.00    +0.000 C 
ATOM    101  C76 UNL A   1      11.835  26.877  -5.653  1.00  0.00    +0.000 C 
ATOM    102  F17 UNL A   1      11.315  27.240  -6.858  1.00  0.00    +0.000 F 
ATOM    103  F18 UNL A   1      13.184  26.816  -5.831  1.00  0.00    +0.000 F 
ATOM    105  C77 UNL A   1      10.467  27.444  -3.600  1.00  0.00    +0.000 C 
ATOM    106  C78 UNL A   1      10.093  28.326  -2.583  1.00  0.00    +0.000 C 
ATOM    104  F19 UNL A   1      11.432  25.591  -5.446  1.00  0.00    +0.000 F 
ATOM    158  H50 UNL A   1      12.054  30.913  -3.391  1.00  0.00    +0.000 H 
ATOM    159  H51 UNL A   1      12.698  29.393  -5.159  1.00  0.00    +0.000 H 
ATOM    160  H52 UNL A   1      10.028  26.510  -3.657  1.00  0.00    +0.000 H 
ENDBRANCH   96   97
ENDBRANCH   18   17
BRANCH   18   19
ATOM     19  C17 UNL A   1      11.235  29.570   2.782  1.00  0.00    +0.000 C 
ATOM    126  H18 UNL A   1      10.931  28.939   1.973  1.00  0.00    +0.000 H 
ATOM    127  H19 UNL A   1      10.511  29.514   3.569  1.00  0.00    +0.000 H 
ATOM    128  H20 UNL A   1      12.186  29.247   3.149  1.00  0.00    +0.000 H 
ENDBRANCH   18   19
ENDBRANCH   20   18
ENDBRANCH   22   20
ENDBRANCH   23   22
ENDBRANCH   24   23
ENDBRANCH   25   24
ENDBRANCH   26   25
ENDBRANCH   27   26
ENDBRANCH   28   27
ENDBRANCH   29   28
ENDBRANCH   30   29
ENDBRANCH   32   30
ENDBRANCH   36   35
BRANCH   40   41
ATOM     41  C34 UNL A   1       5.434  28.585   2.114  1.00  0.00    +0.000 C 
ATOM     42  C35 UNL A   1       4.292  28.104   1.456  1.00  0.00    +0.000 C 
ATOM     43  F2  UNL A   1       4.003  26.794   1.472  1.00  0.00    +0.000 F 
ATOM     44  C36 UNL A   1       3.448  28.967   0.762  1.00  0.00    +0.000 C 
ATOM     45  F3  UNL A   1       2.376  28.482   0.119  1.00  0.00    +0.000 F 
ATOM     46  C37 UNL A   1       3.716  30.327   0.733  1.00  0.00    +0.000 C 
ATOM     47  F4  UNL A   1       2.895  31.159   0.078  1.00  0.00    +0.000 F 
ATOM     48  C38 UNL A   1       4.833  30.826   1.386  1.00  0.00    +0.000 C 
ATOM     49  F5  UNL A   1       5.081  32.142   1.379  1.00  0.00    +0.000 F 
ATOM     50  C39 UNL A   1       5.694  29.961   2.057  1.00  0.00    +0.000 C 
ATOM     51  F6  UNL A   1       6.769  30.471   2.677  1.00  0.00    +0.000 F 
ENDBRANCH   40   41
BRANCH   57   58
ATOM     65  C49 UNL A   1       5.157  25.776  10.573  1.00  0.00    +0.000 C 
ATOM     66  F10 UNL A   1       5.365  26.546  11.650  1.00  0.00    +0.000 F 
ATOM     67  C50 UNL A   1       6.022  25.854   9.486  1.00  0.00    +0.000 C 
ATOM     68  F11 UNL A   1       7.054  26.710   9.535  1.00  0.00    +0.000 F 
ATOM     58  C45 UNL A   1       5.828  25.051   8.354  1.00  0.00    +0.000 C 
ATOM     59  C46 UNL A   1       4.743  24.162   8.353  1.00  0.00    +0.000 C 
ATOM     60  F7  UNL A   1       4.513  23.377   7.289  1.00  0.00    +0.000 F 
ATOM     61  C47 UNL A   1       3.867  24.101   9.433  1.00  0.00    +0.000 C 
ATOM     62  F8  UNL A   1       2.814  23.272   9.396  1.00  0.00    +0.000 F 
ATOM     63  C48 UNL A   1       4.073  24.909  10.541  1.00  0.00    +0.000 C 
ATOM     64  F9  UNL A   1       3.227  24.855  11.578  1.00  0.00    +0.000 F 
ENDBRANCH   57   58
BRANCH   72   73
ATOM     73  C54 UNL A   1      12.062  22.536   6.457  1.00  0.00    +0.000 C 
ATOM     74  C55 UNL A   1      12.058  21.146   6.280  1.00  0.00    +0.000 C 
ATOM     75  F12 UNL A   1      11.158  20.576   5.465  1.00  0.00    +0.000 F 
ATOM     76  C56 UNL A   1      12.962  20.332   6.962  1.00  0.00    +0.000 C 
ATOM     77  F13 UNL A   1      12.915  19.003   6.802  1.00  0.00    +0.000 F 
ATOM     78  C57 UNL A   1      13.898  20.896   7.815  1.00  0.00    +0.000 C 
ATOM     79  F14 UNL A   1      14.767  20.113   8.471  1.00  0.00    +0.000 F 
ATOM     80  C58 UNL A   1      13.933  22.271   7.991  1.00  0.00    +0.000 C 
ATOM     81  F15 UNL A   1      14.847  22.821   8.802  1.00  0.00    +0.000 F 
ATOM     82  C59 UNL A   1      13.017  23.083   7.325  1.00  0.00    +0.000 C 
ATOM     83  F16 UNL A   1      13.069  24.410   7.512  1.00  0.00    +0.000 F 
ENDBRANCH   72   73
TORSDOF 22
ENDMDL
