MODEL 1
REMARK VINA RESULT:     -11.2      0.000      0.000
ROOT
ATOM    129  H39 UNL A   1      38.470  27.577  30.969  1.00  0.00    +0.000 H 
ATOM     29  C23 UNL A   1      40.020  29.122  29.118  1.00  0.00    +0.000 C 
ATOM     30  C24 UNL A   1      40.305  28.844  30.544  1.00  0.00    +0.000 C 
ATOM     31  N4  UNL A   1      41.262  29.326  31.262  1.00  0.00    +0.000 N 
ATOM     32  C25 UNL A   1      41.120  28.751  32.521  1.00  0.00    +0.000 C 
ATOM     33  C26 UNL A   1      42.178  28.655  33.371  1.00  0.00    +0.000 C 
ATOM     45  C33 UNL A   1      43.257  29.513  32.952  1.00  0.00    +0.000 C 
ATOM     46  C34 UNL A   1      43.433  30.879  32.859  1.00  0.00    +0.000 C 
ATOM     47  C35 UNL A   1      44.206  31.076  31.675  1.00  0.00    +0.000 C 
ATOM     48  C36 UNL A   1      44.513  29.823  31.140  1.00  0.00    +0.000 C 
ATOM     49  N5  UNL A   1      44.235  28.956  32.166  1.00  0.00    +0.000 N 
ATOM     50  C37 UNL A   1      44.912  29.400  29.815  1.00  0.00    +0.000 C 
ATOM     62  C44 UNL A   1      44.862  28.115  29.352  1.00  0.00    +0.000 C 
ATOM     63  N6  UNL A   1      44.837  27.850  27.989  1.00  0.00    +0.000 N 
ATOM     64  C45 UNL A   1      44.225  26.702  27.881  1.00  0.00    +0.000 C 
ATOM     65  C46 UNL A   1      43.265  26.384  26.793  1.00  0.00    +0.000 C 
ATOM     77  C53 UNL A   1      42.208  27.213  26.969  1.00  0.00    +0.000 C 
ATOM     78  C54 UNL A   1      41.185  27.631  26.040  1.00  0.00    +0.000 C 
ATOM     79  C55 UNL A   1      40.385  28.514  26.672  1.00  0.00    +0.000 C 
ATOM     80  C56 UNL A   1      40.723  28.568  28.103  1.00  0.00    +0.000 C 
ATOM     81  N7  UNL A   1      41.881  27.838  28.190  1.00  0.00    +0.000 N 
ATOM     82  C57 UNL A   1      44.145  25.917  29.100  1.00  0.00    +0.000 C 
ATOM     83  C58 UNL A   1      44.486  26.855  29.986  1.00  0.00    +0.000 C 
ATOM     84  C59 UNL A   1      39.824  28.124  32.537  1.00  0.00    +0.000 C 
ATOM     85  C60 UNL A   1      39.321  28.055  31.302  1.00  0.00    +0.000 C 
ATOM    120  H30 UNL A   1      43.082  31.602  33.506  1.00  0.00    +0.000 H 
ATOM    121  H31 UNL A   1      44.489  31.988  31.281  1.00  0.00    +0.000 H 
ATOM    122  H32 UNL A   1      44.663  28.080  32.313  1.00  0.00    +0.000 H 
ATOM    123  H33 UNL A   1      41.083  27.311  25.065  1.00  0.00    +0.000 H 
ATOM    124  H34 UNL A   1      39.644  29.072  26.218  1.00  0.00    +0.000 H 
ATOM    125  H35 UNL A   1      42.421  27.759  29.009  1.00  0.00    +0.000 H 
ATOM    126  H36 UNL A   1      43.896  24.925  29.241  1.00  0.00    +0.000 H 
ATOM    127  H37 UNL A   1      44.483  26.706  31.007  1.00  0.00    +0.000 H 
ATOM    128  H38 UNL A   1      39.349  27.776  33.384  1.00  0.00    +0.000 H 
ENDROOT
BRANCH   29   28
ATOM    130  H40 UNL A   1      37.801  28.099  28.247  1.00  0.00    +0.000 H 
ATOM    131  H41 UNL A   1      36.096  29.380  27.081  1.00  0.00    +0.000 H 
ATOM     28  C22 UNL A   1      38.788  29.852  28.877  1.00  0.00    +0.000 C 
ATOM     86  C61 UNL A   1      37.763  29.129  28.296  1.00  0.00    +0.000 C 
ATOM     87  C62 UNL A   1      36.704  29.817  27.790  1.00  0.00    +0.000 C 
ATOM    118  H28 UNL A   1      37.233  32.796  29.240  1.00  0.00    +0.000 H 
ATOM     25  C19 UNL A   1      36.444  31.106  28.230  1.00  0.00    +0.000 C 
ATOM     26  C20 UNL A   1      37.413  31.828  28.932  1.00  0.00    +0.000 C 
ATOM     27  C21 UNL A   1      38.629  31.206  29.209  1.00  0.00    +0.000 C 
ATOM    119  H29 UNL A   1      39.399  31.733  29.649  1.00  0.00    +0.000 H 
BRANCH   25   23
ATOM     23  C18 UNL A   1      35.106  31.655  27.938  1.00  0.00    +0.000 C 
ATOM     24  O3  UNL A   1      34.904  32.851  27.985  1.00  0.00    +0.000 O 
BRANCH   23   22
ATOM    117  H27 UNL A   1      34.250  29.824  27.852  1.00  0.00    +0.000 H 
ATOM     22  N3  UNL A   1      34.095  30.764  27.603  1.00  0.00    +0.000 N 
BRANCH   22   21
ATOM    115  H25 UNL A   1      32.306  31.804  27.472  1.00  0.00    +0.000 H 
ATOM    116  H26 UNL A   1      33.053  31.363  25.929  1.00  0.00    +0.000 H 
ATOM     21  C17 UNL A   1      32.826  31.046  26.924  1.00  0.00    +0.000 C 
BRANCH   21   20
ATOM    113  H23 UNL A   1      31.041  30.006  27.385  1.00  0.00    +0.000 H 
ATOM    114  H24 UNL A   1      31.730  29.661  25.787  1.00  0.00    +0.000 H 
ATOM     20  C16 UNL A   1      31.934  29.822  26.825  1.00  0.00    +0.000 C 
BRANCH   20   19
ATOM     19  C15 UNL A   1      32.593  28.544  27.364  1.00  0.00    +0.000 C 
ATOM    111  H21 UNL A   1      33.628  28.758  27.536  1.00  0.00    +0.000 H 
ATOM    112  H22 UNL A   1      32.042  28.290  28.245  1.00  0.00    +0.000 H 
BRANCH   19   18
ATOM     18  C14 UNL A   1      32.515  27.303  26.460  1.00  0.00    +0.000 C 
ATOM    109  H19 UNL A   1      32.000  26.534  26.996  1.00  0.00    +0.000 H 
ATOM    110  H20 UNL A   1      32.011  27.614  25.569  1.00  0.00    +0.000 H 
BRANCH   18   17
ATOM     17  C13 UNL A   1      33.867  26.741  26.009  1.00  0.00    +0.000 C 
ATOM    107  H17 UNL A   1      34.067  27.092  25.019  1.00  0.00    +0.000 H 
ATOM    108  H18 UNL A   1      34.600  27.078  26.711  1.00  0.00    +0.000 H 
BRANCH   17   16
ATOM    105  H15 UNL A   1      34.055  24.860  27.002  1.00  0.00    +0.000 H 
ATOM    106  H16 UNL A   1      32.993  24.839  25.606  1.00  0.00    +0.000 H 
ATOM     16  C12 UNL A   1      33.914  25.212  26.002  1.00  0.00    +0.000 C 
BRANCH   16   15
ATOM     15  N2  UNL A   1      35.002  24.745  25.176  1.00  0.00    +0.000 N 
ATOM    104  H14 UNL A   1      35.483  25.455  24.695  1.00  0.00    +0.000 H 
BRANCH   15   13
ATOM     13  C11 UNL A   1      35.474  23.493  24.949  1.00  0.00    +0.000 C 
ATOM     14  O2  UNL A   1      36.318  23.057  25.737  1.00  0.00    +0.000 O 
BRANCH   13   12
ATOM     12  C10 UNL A   1      35.084  22.690  23.722  1.00  0.00    +0.000 C 
ATOM    102  H12 UNL A   1      35.510  23.195  22.879  1.00  0.00    +0.000 H 
ATOM    103  H13 UNL A   1      35.444  21.710  23.954  1.00  0.00    +0.000 H 
BRANCH   12   11
ATOM     11  C9  UNL A   1      33.608  22.442  23.385  1.00  0.00    +0.000 C 
ATOM    100  H10 UNL A   1      33.564  21.470  22.940  1.00  0.00    +0.000 H 
ATOM    101  H11 UNL A   1      33.134  22.606  24.329  1.00  0.00    +0.000 H 
BRANCH   11   10
ATOM     10  C8  UNL A   1      32.812  23.378  22.459  1.00  0.00    +0.000 C 
ATOM     99  H9  UNL A   1      31.971  22.775  22.186  1.00  0.00    +0.000 H 
ATOM     98  H8  UNL A   1      33.486  23.689  21.689  1.00  0.00    +0.000 H 
BRANCH   10    9
ATOM      2  C2  UNL A   1      29.476  28.459  23.109  1.00  0.00    +0.000 C 
ATOM      3  C3  UNL A   1      30.715  29.081  22.902  1.00  0.00    +0.000 C 
ATOM      4  C4  UNL A   1      31.886  28.307  22.817  1.00  0.00    +0.000 C 
ATOM      6  C6  UNL A   1      31.735  26.928  22.898  1.00  0.00    +0.000 C 
ATOM      7  C7  UNL A   1      32.725  25.849  22.678  1.00  0.00    +0.000 C 
ATOM      8  O1  UNL A   1      33.831  26.062  22.199  1.00  0.00    +0.000 O 
ATOM      9  N1  UNL A   1      32.182  24.592  22.973  1.00  0.00    +0.000 N 
ATOM     88  S1  UNL A   1      30.544  24.672  23.467  1.00  0.00    +0.000 S 
ATOM     89  C63 UNL A   1      30.486  26.411  23.176  1.00  0.00    +0.000 C 
ATOM     90  N8  UNL A   1      29.349  27.122  23.266  1.00  0.00    +0.000 N 
ATOM     94  H4  UNL A   1      30.767  30.108  22.810  1.00  0.00    +0.000 H 
BRANCH    2    1
ATOM      1  C1  UNL A   1      28.205  29.254  23.136  1.00  0.00    +0.000 C 
ATOM     91  H1  UNL A   1      28.070  29.742  22.194  1.00  0.00    +0.000 H 
ATOM     92  H2  UNL A   1      28.259  29.988  23.913  1.00  0.00    +0.000 H 
ATOM     93  H3  UNL A   1      27.378  28.600  23.321  1.00  0.00    +0.000 H 
ENDBRANCH    2    1
BRANCH    4    5
ATOM     97  H7  UNL A   1      33.310  29.754  23.392  1.00  0.00    +0.000 H 
ATOM      5  C5  UNL A   1      33.227  28.957  22.683  1.00  0.00    +0.000 C 
ATOM     95  H5  UNL A   1      33.336  29.348  21.693  1.00  0.00    +0.000 H 
ATOM     96  H6  UNL A   1      33.994  28.234  22.867  1.00  0.00    +0.000 H 
ENDBRANCH    4    5
ENDBRANCH   10    9
ENDBRANCH   11   10
ENDBRANCH   12   11
ENDBRANCH   13   12
ENDBRANCH   15   13
ENDBRANCH   16   15
ENDBRANCH   17   16
ENDBRANCH   18   17
ENDBRANCH   19   18
ENDBRANCH   20   19
ENDBRANCH   21   20
ENDBRANCH   22   21
ENDBRANCH   23   22
ENDBRANCH   25   23
ENDBRANCH   29   28
BRANCH   33   34
ATOM     34  C27 UNL A   1      42.373  27.549  34.378  1.00  0.00    +0.000 C 
ATOM     35  C28 UNL A   1      42.951  26.332  33.964  1.00  0.00    +0.000 C 
ATOM     36  F1  UNL A   1      43.524  26.222  32.757  1.00  0.00    +0.000 F 
ATOM     37  C29 UNL A   1      42.883  25.177  34.749  1.00  0.00    +0.000 C 
ATOM     38  F2  UNL A   1      43.348  24.017  34.267  1.00  0.00    +0.000 F 
ATOM     39  C30 UNL A   1      42.288  25.208  35.997  1.00  0.00    +0.000 C 
ATOM     40  F3  UNL A   1      42.178  24.093  36.729  1.00  0.00    +0.000 F 
ATOM     41  C31 UNL A   1      41.760  26.394  36.461  1.00  0.00    +0.000 C 
ATOM     42  F4  UNL A   1      41.161  26.441  37.659  1.00  0.00    +0.000 F 
ATOM     43  C32 UNL A   1      41.777  27.533  35.658  1.00  0.00    +0.000 C 
ATOM     44  F5  UNL A   1      41.095  28.578  36.140  1.00  0.00    +0.000 F 
ENDBRANCH   33   34
BRANCH   50   51
ATOM     51  C38 UNL A   1      45.199  30.490  28.811  1.00  0.00    +0.000 C 
ATOM     52  C39 UNL A   1      44.206  31.200  28.111  1.00  0.00    +0.000 C 
ATOM     53  F6  UNL A   1      42.911  30.903  28.268  1.00  0.00    +0.000 F 
ATOM     54  C40 UNL A   1      44.528  32.270  27.274  1.00  0.00    +0.000 C 
ATOM     55  F7  UNL A   1      43.561  32.922  26.612  1.00  0.00    +0.000 F 
ATOM     56  C41 UNL A   1      45.844  32.683  27.153  1.00  0.00    +0.000 C 
ATOM     57  F8  UNL A   1      46.152  33.737  26.384  1.00  0.00    +0.000 F 
ATOM     58  C42 UNL A   1      46.838  32.017  27.851  1.00  0.00    +0.000 C 
ATOM     59  F9  UNL A   1      48.107  32.440  27.773  1.00  0.00    +0.000 F 
ATOM     60  C43 UNL A   1      46.521  30.926  28.658  1.00  0.00    +0.000 C 
ATOM     61  F10 UNL A   1      47.508  30.321  29.337  1.00  0.00    +0.000 F 
ENDBRANCH   50   51
BRANCH   65   66
ATOM     66  C47 UNL A   1      43.306  25.105  26.046  1.00  0.00    +0.000 C 
ATOM     67  C48 UNL A   1      44.359  24.833  25.157  1.00  0.00    +0.000 C 
ATOM     68  F11 UNL A   1      45.191  25.814  24.779  1.00  0.00    +0.000 F 
ATOM     69  C49 UNL A   1      44.622  23.534  24.711  1.00  0.00    +0.000 C 
ATOM     70  F12 UNL A   1      45.681  23.300  23.922  1.00  0.00    +0.000 F 
ATOM     71  C50 UNL A   1      43.836  22.474  25.134  1.00  0.00    +0.000 C 
ATOM     72  F13 UNL A   1      44.135  21.220  24.768  1.00  0.00    +0.000 F 
ATOM     73  C51 UNL A   1      42.766  22.717  25.975  1.00  0.00    +0.000 C 
ATOM     74  F14 UNL A   1      42.020  21.695  26.421  1.00  0.00    +0.000 F 
ATOM     75  C52 UNL A   1      42.502  24.013  26.424  1.00  0.00    +0.000 C 
ATOM     76  F15 UNL A   1      41.510  24.164  27.312  1.00  0.00    +0.000 F 
ENDBRANCH   65   66
TORSDOF 20
ENDMDL
MODEL 2
REMARK VINA RESULT:     -11.1      3.002      8.433
ROOT
ATOM    129  H39 UNL A   1      41.280  28.825  26.067  1.00  0.00    +0.000 H 
ATOM     29  C23 UNL A   1      40.766  28.068  28.783  1.00  0.00    +0.000 C 
ATOM     30  C24 UNL A   1      41.866  28.908  28.258  1.00  0.00    +0.000 C 
ATOM     31  N4  UNL A   1      42.869  29.388  28.913  1.00  0.00    +0.000 N 
ATOM     32  C25 UNL A   1      43.608  30.123  27.991  1.00  0.00    +0.000 C 
ATOM     33  C26 UNL A   1      44.439  31.122  28.396  1.00  0.00    +0.000 C 
ATOM     45  C33 UNL A   1      44.699  31.035  29.811  1.00  0.00    +0.000 C 
ATOM     46  C34 UNL A   1      45.356  30.134  30.625  1.00  0.00    +0.000 C 
ATOM     47  C35 UNL A   1      44.583  30.082  31.824  1.00  0.00    +0.000 C 
ATOM     48  C36 UNL A   1      43.533  30.995  31.706  1.00  0.00    +0.000 C 
ATOM     49  N5  UNL A   1      43.902  31.780  30.644  1.00  0.00    +0.000 N 
ATOM     50  C37 UNL A   1      42.262  31.111  32.388  1.00  0.00    +0.000 C 
ATOM     62  C44 UNL A   1      41.199  31.849  31.949  1.00  0.00    +0.000 C 
ATOM     63  N6  UNL A   1      39.912  31.579  32.394  1.00  0.00    +0.000 N 
ATOM     64  C45 UNL A   1      39.130  31.990  31.432  1.00  0.00    +0.000 C 
ATOM     65  C46 UNL A   1      37.900  31.270  31.011  1.00  0.00    +0.000 C 
ATOM     77  C53 UNL A   1      38.312  30.082  30.507  1.00  0.00    +0.000 C 
ATOM     78  C54 UNL A   1      37.588  28.849  30.313  1.00  0.00    +0.000 C 
ATOM     79  C55 UNL A   1      38.451  27.930  29.836  1.00  0.00    +0.000 C 
ATOM     80  C56 UNL A   1      39.735  28.566  29.505  1.00  0.00    +0.000 C 
ATOM     81  N7  UNL A   1      39.611  29.832  30.020  1.00  0.00    +0.000 N 
ATOM     82  C57 UNL A   1      39.737  32.901  30.477  1.00  0.00    +0.000 C 
ATOM     83  C58 UNL A   1      41.021  32.728  30.796  1.00  0.00    +0.000 C 
ATOM     84  C59 UNL A   1      43.093  29.779  26.691  1.00  0.00    +0.000 C 
ATOM     85  C60 UNL A   1      41.941  29.115  26.804  1.00  0.00    +0.000 C 
ATOM    120  H30 UNL A   1      46.220  29.611  30.413  1.00  0.00    +0.000 H 
ATOM    121  H31 UNL A   1      44.768  29.474  32.638  1.00  0.00    +0.000 H 
ATOM    122  H32 UNL A   1      43.640  32.719  30.502  1.00  0.00    +0.000 H 
ATOM    123  H33 UNL A   1      36.586  28.697  30.506  1.00  0.00    +0.000 H 
ATOM    124  H34 UNL A   1      38.242  26.925  29.720  1.00  0.00    +0.000 H 
ATOM    125  H35 UNL A   1      40.344  30.489  30.046  1.00  0.00    +0.000 H 
ATOM    126  H36 UNL A   1      39.302  33.505  29.762  1.00  0.00    +0.000 H 
ATOM    127  H37 UNL A   1      41.802  33.166  30.284  1.00  0.00    +0.000 H 
ATOM    128  H38 UNL A   1      43.552  30.013  25.797  1.00  0.00    +0.000 H 
ENDROOT
BRANCH   29   28
ATOM    130  H40 UNL A   1      39.073  27.115  27.064  1.00  0.00    +0.000 H 
ATOM    131  H41 UNL A   1      38.528  24.753  26.881  1.00  0.00    +0.000 H 
ATOM     28  C22 UNL A   1      40.748  26.708  28.277  1.00  0.00    +0.000 C 
ATOM     86  C61 UNL A   1      39.682  26.381  27.460  1.00  0.00    +0.000 C 
ATOM     87  C62 UNL A   1      39.460  25.066  27.195  1.00  0.00    +0.000 C 
ATOM    118  H28 UNL A   1      42.397  23.793  28.198  1.00  0.00    +0.000 H 
ATOM     25  C19 UNL A   1      40.487  24.147  27.346  1.00  0.00    +0.000 C 
ATOM     26  C20 UNL A   1      41.641  24.481  28.062  1.00  0.00    +0.000 C 
ATOM     27  C21 UNL A   1      41.745  25.768  28.586  1.00  0.00    +0.000 C 
ATOM    119  H29 UNL A   1      42.540  26.026  29.191  1.00  0.00    +0.000 H 
BRANCH   25   23
ATOM     23  C18 UNL A   1      40.308  22.831  26.705  1.00  0.00    +0.000 C 
ATOM     24  O3  UNL A   1      41.267  22.196  26.317  1.00  0.00    +0.000 O 
BRANCH   23   22
ATOM    117  H27 UNL A   1      38.372  22.631  27.257  1.00  0.00    +0.000 H 
ATOM     22  N3  UNL A   1      39.015  22.344  26.569  1.00  0.00    +0.000 N 
BRANCH   22   21
ATOM    115  H25 UNL A   1      39.225  21.344  24.764  1.00  0.00    +0.000 H 
ATOM    116  H26 UNL A   1      38.251  20.519  25.991  1.00  0.00    +0.000 H 
ATOM     21  C17 UNL A   1      38.486  21.455  25.529  1.00  0.00    +0.000 C 
BRANCH   21   20
ATOM    113  H23 UNL A   1      37.306  23.049  24.788  1.00  0.00    +0.000 H 
ATOM    114  H24 UNL A   1      37.092  21.494  23.958  1.00  0.00    +0.000 H 
ATOM     20  C16 UNL A   1      37.212  21.988  24.899  1.00  0.00    +0.000 C 
BRANCH   20   19
ATOM     19  C15 UNL A   1      35.955  21.695  25.731  1.00  0.00    +0.000 C 
ATOM    111  H21 UNL A   1      35.232  21.244  25.084  1.00  0.00    +0.000 H 
ATOM    112  H22 UNL A   1      36.285  21.066  26.533  1.00  0.00    +0.000 H 
BRANCH   19   18
ATOM     18  C14 UNL A   1      35.288  22.905  26.408  1.00  0.00    +0.000 C 
ATOM    109  H19 UNL A   1      35.982  23.315  27.111  1.00  0.00    +0.000 H 
ATOM    110  H20 UNL A   1      35.028  23.580  25.620  1.00  0.00    +0.000 H 
BRANCH   18   17
ATOM     17  C13 UNL A   1      33.986  22.596  27.152  1.00  0.00    +0.000 C 
ATOM    107  H17 UNL A   1      33.826  21.538  27.133  1.00  0.00    +0.000 H 
ATOM    108  H18 UNL A   1      34.096  22.967  28.150  1.00  0.00    +0.000 H 
BRANCH   17   16
ATOM    105  H15 UNL A   1      32.170  23.706  27.328  1.00  0.00    +0.000 H 
ATOM    106  H16 UNL A   1      33.095  24.053  25.877  1.00  0.00    +0.000 H 
ATOM     16  C12 UNL A   1      32.763  23.285  26.544  1.00  0.00    +0.000 C 
BRANCH   16   15
ATOM     15  N2  UNL A   1      31.966  22.336  25.804  1.00  0.00    +0.000 N 
ATOM    104  H14 UNL A   1      31.063  22.191  26.168  1.00  0.00    +0.000 H 
BRANCH   15   13
ATOM     13  C11 UNL A   1      32.248  21.609  24.693  1.00  0.00    +0.000 C 
ATOM     14  O2  UNL A   1      32.382  20.391  24.835  1.00  0.00    +0.000 O 
BRANCH   13   12
ATOM     12  C10 UNL A   1      32.507  22.257  23.346  1.00  0.00    +0.000 C 
ATOM    102  H12 UNL A   1      32.380  21.491  22.609  1.00  0.00    +0.000 H 
ATOM    103  H13 UNL A   1      31.819  23.077  23.339  1.00  0.00    +0.000 H 
BRANCH   12   11
ATOM     11  C9  UNL A   1      33.850  22.934  23.048  1.00  0.00    +0.000 C 
ATOM    100  H10 UNL A   1      34.571  22.460  23.681  1.00  0.00    +0.000 H 
ATOM    101  H11 UNL A   1      33.929  22.815  21.987  1.00  0.00    +0.000 H 
BRANCH   11   10
ATOM     10  C8  UNL A   1      34.059  24.449  23.217  1.00  0.00    +0.000 C 
ATOM     99  H9  UNL A   1      34.448  24.739  22.263  1.00  0.00    +0.000 H 
ATOM     98  H8  UNL A   1      34.679  24.575  24.079  1.00  0.00    +0.000 H 
BRANCH   10    9
ATOM      2  C2  UNL A   1      30.251  29.226  23.001  1.00  0.00    +0.000 C 
ATOM      3  C3  UNL A   1      30.727  29.432  24.303  1.00  0.00    +0.000 C 
ATOM      4  C4  UNL A   1      31.579  28.486  24.900  1.00  0.00    +0.000 C 
ATOM      6  C6  UNL A   1      31.947  27.395  24.123  1.00  0.00    +0.000 C 
ATOM      7  C7  UNL A   1      32.944  26.332  24.389  1.00  0.00    +0.000 C 
ATOM      8  O1  UNL A   1      33.736  26.395  25.320  1.00  0.00    +0.000 O 
ATOM      9  N1  UNL A   1      32.923  25.353  23.388  1.00  0.00    +0.000 N 
ATOM     88  S1  UNL A   1      31.785  25.685  22.152  1.00  0.00    +0.000 S 
ATOM     89  C63 UNL A   1      31.370  27.239  22.879  1.00  0.00    +0.000 C 
ATOM     90  N8  UNL A   1      30.551  28.121  22.282  1.00  0.00    +0.000 N 
ATOM     94  H4  UNL A   1      30.452  30.281  24.824  1.00  0.00    +0.000 H 
BRANCH    2    1
ATOM      1  C1  UNL A   1      29.396  30.251  22.317  1.00  0.00    +0.000 C 
ATOM     91  H1  UNL A   1      28.366  29.978  22.414  1.00  0.00    +0.000 H 
ATOM     92  H2  UNL A   1      29.656  30.299  21.281  1.00  0.00    +0.000 H 
ATOM     93  H3  UNL A   1      29.556  31.208  22.770  1.00  0.00    +0.000 H 
ENDBRANCH    2    1
BRANCH    4    5
ATOM     97  H7  UNL A   1      33.095  28.691  26.352  1.00  0.00    +0.000 H 
ATOM      5  C5  UNL A   1      32.027  28.645  26.318  1.00  0.00    +0.000 C 
ATOM     95  H5  UNL A   1      31.687  27.810  26.895  1.00  0.00    +0.000 H 
ATOM     96  H6  UNL A   1      31.618  29.548  26.723  1.00  0.00    +0.000 H 
ENDBRANCH    4    5
ENDBRANCH   10    9
ENDBRANCH   11   10
ENDBRANCH   12   11
ENDBRANCH   13   12
ENDBRANCH   15   13
ENDBRANCH   16   15
ENDBRANCH   17   16
ENDBRANCH   18   17
ENDBRANCH   19   18
ENDBRANCH   20   19
ENDBRANCH   21   20
ENDBRANCH   22   21
ENDBRANCH   23   22
ENDBRANCH   25   23
ENDBRANCH   29   28
BRANCH   33   34
ATOM     34  C27 UNL A   1      44.744  32.364  27.596  1.00  0.00    +0.000 C 
ATOM     35  C28 UNL A   1      45.972  32.460  26.912  1.00  0.00    +0.000 C 
ATOM     36  F1  UNL A   1      46.768  31.389  26.781  1.00  0.00    +0.000 F 
ATOM     37  C29 UNL A   1      46.448  33.677  26.413  1.00  0.00    +0.000 C 
ATOM     38  F2  UNL A   1      47.669  33.740  25.869  1.00  0.00    +0.000 F 
ATOM     39  C30 UNL A   1      45.691  34.828  26.531  1.00  0.00    +0.000 C 
ATOM     40  F3  UNL A   1      46.166  36.003  26.099  1.00  0.00    +0.000 F 
ATOM     41  C31 UNL A   1      44.459  34.765  27.145  1.00  0.00    +0.000 C 
ATOM     42  F4  UNL A   1      43.719  35.873  27.287  1.00  0.00    +0.000 F 
ATOM     43  C32 UNL A   1      44.007  33.564  27.691  1.00  0.00    +0.000 C 
ATOM     44  F5  UNL A   1      42.878  33.654  28.404  1.00  0.00    +0.000 F 
ENDBRANCH   33   34
BRANCH   50   51
ATOM     51  C38 UNL A   1      42.027  30.179  33.552  1.00  0.00    +0.000 C 
ATOM     52  C39 UNL A   1      41.663  28.826  33.420  1.00  0.00    +0.000 C 
ATOM     53  F6  UNL A   1      41.451  28.289  32.212  1.00  0.00    +0.000 F 
ATOM     54  C40 UNL A   1      41.563  27.986  34.529  1.00  0.00    +0.000 C 
ATOM     55  F7  UNL A   1      41.204  26.703  34.373  1.00  0.00    +0.000 F 
ATOM     56  C41 UNL A   1      41.868  28.466  35.792  1.00  0.00    +0.000 C 
ATOM     57  F8  UNL A   1      41.815  27.650  36.854  1.00  0.00    +0.000 F 
ATOM     58  C42 UNL A   1      42.254  29.787  35.946  1.00  0.00    +0.000 C 
ATOM     59  F9  UNL A   1      42.594  30.246  37.159  1.00  0.00    +0.000 F 
ATOM     60  C43 UNL A   1      42.318  30.636  34.844  1.00  0.00    +0.000 C 
ATOM     61  F10 UNL A   1      42.718  31.903  35.030  1.00  0.00    +0.000 F 
ENDBRANCH   50   51
BRANCH   65   66
ATOM     66  C47 UNL A   1      36.616  31.968  30.768  1.00  0.00    +0.000 C 
ATOM     67  C48 UNL A   1      35.751  32.260  31.835  1.00  0.00    +0.000 C 
ATOM     68  F11 UNL A   1      35.946  31.693  33.034  1.00  0.00    +0.000 F 
ATOM     69  C49 UNL A   1      34.726  33.204  31.708  1.00  0.00    +0.000 C 
ATOM     70  F12 UNL A   1      33.966  33.512  32.770  1.00  0.00    +0.000 F 
ATOM     71  C50 UNL A   1      34.532  33.872  30.511  1.00  0.00    +0.000 C 
ATOM     72  F13 UNL A   1      33.600  34.829  30.412  1.00  0.00    +0.000 F 
ATOM     73  C51 UNL A   1      35.341  33.574  29.429  1.00  0.00    +0.000 C 
ATOM     74  F14 UNL A   1      35.187  34.241  28.275  1.00  0.00    +0.000 F 
ATOM     75  C52 UNL A   1      36.366  32.635  29.554  1.00  0.00    +0.000 C 
ATOM     76  F15 UNL A   1      37.173  32.464  28.497  1.00  0.00    +0.000 F 
ENDBRANCH   65   66
TORSDOF 20
ENDMDL
MODEL 3
REMARK VINA RESULT:     -11.0      2.924      8.375
ROOT
ATOM    129  H39 UNL A   1      41.559  28.362  26.119  1.00  0.00    +0.000 H 
ATOM     29  C23 UNL A   1      40.996  27.723  28.855  1.00  0.00    +0.000 C 
ATOM     30  C24 UNL A   1      42.188  28.403  28.299  1.00  0.00    +0.000 C 
ATOM     31  N4  UNL A   1      43.257  28.756  28.930  1.00  0.00    +0.000 N 
ATOM     32  C25 UNL A   1      44.070  29.373  27.985  1.00  0.00    +0.000 C 
ATOM     33  C26 UNL A   1      45.032  30.260  28.359  1.00  0.00    +0.000 C 
ATOM     45  C33 UNL A   1      45.303  30.162  29.772  1.00  0.00    +0.000 C 
ATOM     46  C34 UNL A   1      45.849  29.196  30.592  1.00  0.00    +0.000 C 
ATOM     47  C35 UNL A   1      45.097  29.266  31.803  1.00  0.00    +0.000 C 
ATOM     48  C36 UNL A   1      44.173  30.307  31.684  1.00  0.00    +0.000 C 
ATOM     49  N5  UNL A   1      44.625  31.020  30.602  1.00  0.00    +0.000 N 
ATOM     50  C37 UNL A   1      42.940  30.600  32.382  1.00  0.00    +0.000 C 
ATOM     62  C44 UNL A   1      41.977  31.465  31.945  1.00  0.00    +0.000 C 
ATOM     63  N6  UNL A   1      40.673  31.374  32.414  1.00  0.00    +0.000 N 
ATOM     64  C45 UNL A   1      39.936  31.869  31.456  1.00  0.00    +0.000 C 
ATOM     65  C46 UNL A   1      38.615  31.311  31.067  1.00  0.00    +0.000 C 
ATOM     77  C53 UNL A   1      38.858  30.070  30.578  1.00  0.00    +0.000 C 
ATOM     78  C54 UNL A   1      37.975  28.940  30.418  1.00  0.00    +0.000 C 
ATOM     79  C55 UNL A   1      38.702  27.908  29.945  1.00  0.00    +0.000 C 
ATOM     80  C56 UNL A   1      40.053  28.364  29.583  1.00  0.00    +0.000 C 
ATOM     81  N7  UNL A   1      40.105  29.644  30.077  1.00  0.00    +0.000 N 
ATOM     82  C57 UNL A   1      40.640  32.677  30.476  1.00  0.00    +0.000 C 
ATOM     83  C58 UNL A   1      41.896  32.341  30.779  1.00  0.00    +0.000 C 
ATOM     84  C59 UNL A   1      43.493  29.079  26.698  1.00  0.00    +0.000 C 
ATOM     85  C60 UNL A   1      42.266  28.575  26.840  1.00  0.00    +0.000 C 
ATOM    120  H30 UNL A   1      46.633  28.561  30.377  1.00  0.00    +0.000 H 
ATOM    121  H31 UNL A   1      45.214  28.652  32.625  1.00  0.00    +0.000 H 
ATOM    122  H32 UNL A   1      44.486  31.983  30.447  1.00  0.00    +0.000 H 
ATOM    123  H33 UNL A   1      36.965  28.925  30.627  1.00  0.00    +0.000 H 
ATOM    124  H34 UNL A   1      38.361  26.938  29.850  1.00  0.00    +0.000 H 
ATOM    125  H35 UNL A   1      40.918  30.198  30.080  1.00  0.00    +0.000 H 
ATOM    126  H36 UNL A   1      40.277  33.320  29.756  1.00  0.00    +0.000 H 
ATOM    127  H37 UNL A   1      42.719  32.664  30.248  1.00  0.00    +0.000 H 
ATOM    128  H38 UNL A   1      43.963  29.235  25.794  1.00  0.00    +0.000 H 
ENDROOT
BRANCH   29   28
ATOM    130  H40 UNL A   1      39.102  26.955  27.259  1.00  0.00    +0.000 H 
ATOM    131  H41 UNL A   1      38.280  24.670  27.150  1.00  0.00    +0.000 H 
ATOM     28  C22 UNL A   1      40.792  26.369  28.375  1.00  0.00    +0.000 C 
ATOM     86  C61 UNL A   1      39.646  26.160  27.630  1.00  0.00    +0.000 C 
ATOM     87  C62 UNL A   1      39.259  24.877  27.401  1.00  0.00    +0.000 C 
ATOM    118  H28 UNL A   1      42.087  23.283  28.245  1.00  0.00    +0.000 H 
ATOM     25  C19 UNL A   1      40.182  23.847  27.505  1.00  0.00    +0.000 C 
ATOM     26  C20 UNL A   1      41.408  24.053  28.143  1.00  0.00    +0.000 C 
ATOM     27  C21 UNL A   1      41.691  25.324  28.638  1.00  0.00    +0.000 C 
ATOM    119  H29 UNL A   1      42.547  25.494  29.189  1.00  0.00    +0.000 H 
BRANCH   25   23
ATOM     23  C18 UNL A   1      39.813  22.554  26.898  1.00  0.00    +0.000 C 
ATOM     24  O3  UNL A   1      40.343  21.525  27.264  1.00  0.00    +0.000 O 
BRANCH   23   22
ATOM    117  H27 UNL A   1      38.663  23.421  25.478  1.00  0.00    +0.000 H 
ATOM     22  N3  UNL A   1      38.840  22.553  25.907  1.00  0.00    +0.000 N 
BRANCH   22   21
ATOM    115  H25 UNL A   1      38.654  20.829  24.770  1.00  0.00    +0.000 H 
ATOM    116  H26 UNL A   1      37.715  20.866  26.271  1.00  0.00    +0.000 H 
ATOM     21  C17 UNL A   1      38.044  21.423  25.419  1.00  0.00    +0.000 C 
BRANCH   21   20
ATOM    113  H23 UNL A   1      36.949  21.628  23.620  1.00  0.00    +0.000 H 
ATOM    114  H24 UNL A   1      35.973  21.350  25.076  1.00  0.00    +0.000 H 
ATOM     20  C16 UNL A   1      36.810  21.865  24.654  1.00  0.00    +0.000 C 
BRANCH   20   19
ATOM     19  C15 UNL A   1      36.529  23.370  24.776  1.00  0.00    +0.000 C 
ATOM    111  H21 UNL A   1      37.438  23.850  25.072  1.00  0.00    +0.000 H 
ATOM    112  H22 UNL A   1      36.163  23.669  23.814  1.00  0.00    +0.000 H 
BRANCH   19   18
ATOM     18  C14 UNL A   1      35.434  23.780  25.775  1.00  0.00    +0.000 C 
ATOM    109  H19 UNL A   1      35.155  22.912  26.335  1.00  0.00    +0.000 H 
ATOM    110  H20 UNL A   1      35.856  24.558  26.375  1.00  0.00    +0.000 H 
BRANCH   18   17
ATOM     17  C13 UNL A   1      34.167  24.367  25.147  1.00  0.00    +0.000 C 
ATOM    107  H17 UNL A   1      34.434  25.251  24.607  1.00  0.00    +0.000 H 
ATOM    108  H18 UNL A   1      33.753  23.615  24.507  1.00  0.00    +0.000 H 
BRANCH   17   16
ATOM    105  H15 UNL A   1      32.950  23.903  26.839  1.00  0.00    +0.000 H 
ATOM    106  H16 UNL A   1      33.415  25.590  26.721  1.00  0.00    +0.000 H 
ATOM     16  C12 UNL A   1      33.094  24.729  26.174  1.00  0.00    +0.000 C 
BRANCH   16   15
ATOM     15  N2  UNL A   1      31.845  25.031  25.516  1.00  0.00    +0.000 N 
ATOM    104  H14 UNL A   1      31.420  25.867  25.814  1.00  0.00    +0.000 H 
BRANCH   15   13
ATOM     13  C11 UNL A   1      31.158  24.360  24.558  1.00  0.00    +0.000 C 
ATOM     14  O2  UNL A   1      30.901  23.173  24.774  1.00  0.00    +0.000 O 
BRANCH   13   12
ATOM     12  C10 UNL A   1      30.811  24.988  23.220  1.00  0.00    +0.000 C 
ATOM    102  H12 UNL A   1      31.718  25.015  22.652  1.00  0.00    +0.000 H 
ATOM    103  H13 UNL A   1      30.015  24.367  22.865  1.00  0.00    +0.000 H 
BRANCH   12   11
ATOM     11  C9  UNL A   1      30.206  26.396  23.149  1.00  0.00    +0.000 C 
ATOM    100  H10 UNL A   1      29.317  26.308  22.561  1.00  0.00    +0.000 H 
ATOM    101  H11 UNL A   1      30.125  26.656  24.183  1.00  0.00    +0.000 H 
BRANCH   11   10
ATOM     10  C8  UNL A   1      30.985  27.593  22.577  1.00  0.00    +0.000 C 
ATOM     99  H9  UNL A   1      30.207  28.290  22.349  1.00  0.00    +0.000 H 
ATOM     98  H8  UNL A   1      31.579  27.212  21.773  1.00  0.00    +0.000 H 
BRANCH   10    9
ATOM      2  C2  UNL A   1      34.337  29.736  27.218  1.00  0.00    +0.000 C 
ATOM      3  C3  UNL A   1      33.296  30.671  27.300  1.00  0.00    +0.000 C 
ATOM      4  C4  UNL A   1      32.283  30.685  26.324  1.00  0.00    +0.000 C 
ATOM      6  C6  UNL A   1      32.351  29.711  25.336  1.00  0.00    +0.000 C 
ATOM      7  C7  UNL A   1      31.370  29.354  24.285  1.00  0.00    +0.000 C 
ATOM      8  O1  UNL A   1      30.230  29.798  24.274  1.00  0.00    +0.000 O 
ATOM      9  N1  UNL A   1      31.884  28.380  23.419  1.00  0.00    +0.000 N 
ATOM     88  S1  UNL A   1      33.465  27.876  23.843  1.00  0.00    +0.000 S 
ATOM     89  C63 UNL A   1      33.452  28.879  25.295  1.00  0.00    +0.000 C 
ATOM     90  N8  UNL A   1      34.437  28.843  26.208  1.00  0.00    +0.000 N 
ATOM     94  H4  UNL A   1      33.272  31.350  28.078  1.00  0.00    +0.000 H 
BRANCH    2    1
ATOM      1  C1  UNL A   1      35.391  29.657  28.282  1.00  0.00    +0.000 C 
ATOM     91  H1  UNL A   1      35.275  30.476  28.961  1.00  0.00    +0.000 H 
ATOM     92  H2  UNL A   1      36.359  29.704  27.829  1.00  0.00    +0.000 H 
ATOM     93  H3  UNL A   1      35.291  28.734  28.815  1.00  0.00    +0.000 H 
ENDBRANCH    2    1
BRANCH    4    5
ATOM     97  H7  UNL A   1      30.273  31.282  26.095  1.00  0.00    +0.000 H 
ATOM      5  C5  UNL A   1      31.212  31.729  26.345  1.00  0.00    +0.000 C 
ATOM     95  H5  UNL A   1      31.445  32.492  25.632  1.00  0.00    +0.000 H 
ATOM     96  H6  UNL A   1      31.153  32.161  27.323  1.00  0.00    +0.000 H 
ENDBRANCH    4    5
ENDBRANCH   10    9
ENDBRANCH   11   10
ENDBRANCH   12   11
ENDBRANCH   13   12
ENDBRANCH   15   13
ENDBRANCH   16   15
ENDBRANCH   17   16
ENDBRANCH   18   17
ENDBRANCH   19   18
ENDBRANCH   20   19
ENDBRANCH   21   20
ENDBRANCH   22   21
ENDBRANCH   23   22
ENDBRANCH   25   23
ENDBRANCH   29   28
BRANCH   33   34
ATOM     34  C27 UNL A   1      45.484  31.438  27.532  1.00  0.00    +0.000 C 
ATOM     35  C28 UNL A   1      46.824  31.505  27.102  1.00  0.00    +0.000 C 
ATOM     36  F1  UNL A   1      47.637  30.446  27.225  1.00  0.00    +0.000 F 
ATOM     37  C29 UNL A   1      47.383  32.687  26.605  1.00  0.00    +0.000 C 
ATOM     38  F2  UNL A   1      48.689  32.733  26.312  1.00  0.00    +0.000 F 
ATOM     39  C30 UNL A   1      46.611  33.827  26.469  1.00  0.00    +0.000 C 
ATOM     40  F3  UNL A   1      47.156  34.972  26.041  1.00  0.00    +0.000 F 
ATOM     41  C31 UNL A   1      45.281  33.786  26.828  1.00  0.00    +0.000 C 
ATOM     42  F4  UNL A   1      44.521  34.884  26.723  1.00  0.00    +0.000 F 
ATOM     43  C32 UNL A   1      44.736  32.625  27.375  1.00  0.00    +0.000 C 
ATOM     44  F5  UNL A   1      43.486  32.747  27.837  1.00  0.00    +0.000 F 
ENDBRANCH   33   34
BRANCH   50   51
ATOM     51  C38 UNL A   1      42.605  29.726  33.566  1.00  0.00    +0.000 C 
ATOM     52  C39 UNL A   1      42.048  28.438  33.464  1.00  0.00    +0.000 C 
ATOM     53  F6  UNL A   1      41.731  27.921  32.271  1.00  0.00    +0.000 F 
ATOM     54  C40 UNL A   1      41.857  27.635  34.589  1.00  0.00    +0.000 C 
ATOM     55  F7  UNL A   1      41.316  26.414  34.462  1.00  0.00    +0.000 F 
ATOM     56  C41 UNL A   1      42.260  28.082  35.836  1.00  0.00    +0.000 C 
ATOM     57  F8  UNL A   1      42.119  27.296  36.913  1.00  0.00    +0.000 F 
ATOM     58  C42 UNL A   1      42.835  29.336  35.960  1.00  0.00    +0.000 C 
ATOM     59  F9  UNL A   1      43.268  29.757  37.157  1.00  0.00    +0.000 F 
ATOM     60  C43 UNL A   1      42.991  30.153  34.843  1.00  0.00    +0.000 C 
ATOM     61  F10 UNL A   1      43.573  31.353  35.000  1.00  0.00    +0.000 F 
ENDBRANCH   50   51
BRANCH   65   66
ATOM     66  C47 UNL A   1      37.430  32.168  30.830  1.00  0.00    +0.000 C 
ATOM     67  C48 UNL A   1      37.154  32.662  29.545  1.00  0.00    +0.000 C 
ATOM     68  F11 UNL A   1      38.082  32.586  28.580  1.00  0.00    +0.000 F 
ATOM     69  C49 UNL A   1      35.892  33.165  29.210  1.00  0.00    +0.000 C 
ATOM     70  F12 UNL A   1      35.642  33.560  27.953  1.00  0.00    +0.000 F 
ATOM     71  C50 UNL A   1      34.876  33.195  30.151  1.00  0.00    +0.000 C 
ATOM     72  F13 UNL A   1      33.647  33.605  29.810  1.00  0.00    +0.000 F 
ATOM     73  C51 UNL A   1      35.130  32.754  31.438  1.00  0.00    +0.000 C 
ATOM     74  F14 UNL A   1      34.145  32.744  32.348  1.00  0.00    +0.000 F 
ATOM     75  C52 UNL A   1      36.388  32.250  31.774  1.00  0.00    +0.000 C 
ATOM     76  F15 UNL A   1      36.539  31.751  33.008  1.00  0.00    +0.000 F 
ENDBRANCH   65   66
TORSDOF 20
ENDMDL
MODEL 4
REMARK VINA RESULT:     -10.9      3.028      8.743
ROOT
ATOM    129  H39 UNL A   1      41.072  28.740  26.184  1.00  0.00    +0.000 H 
ATOM     29  C23 UNL A   1      40.632  28.009  28.920  1.00  0.00    +0.000 C 
ATOM     30  C24 UNL A   1      41.733  28.821  28.353  1.00  0.00    +0.000 C 
ATOM     31  N4  UNL A   1      42.769  29.281  28.971  1.00  0.00    +0.000 N 
ATOM     32  C25 UNL A   1      43.493  29.995  28.021  1.00  0.00    +0.000 C 
ATOM     33  C26 UNL A   1      44.359  30.976  28.393  1.00  0.00    +0.000 C 
ATOM     45  C33 UNL A   1      44.665  30.890  29.799  1.00  0.00    +0.000 C 
ATOM     46  C34 UNL A   1      45.328  29.978  30.595  1.00  0.00    +0.000 C 
ATOM     47  C35 UNL A   1      44.595  29.950  31.820  1.00  0.00    +0.000 C 
ATOM     48  C36 UNL A   1      43.562  30.886  31.732  1.00  0.00    +0.000 C 
ATOM     49  N5  UNL A   1      43.914  31.657  30.654  1.00  0.00    +0.000 N 
ATOM     50  C37 UNL A   1      42.318  31.034  32.455  1.00  0.00    +0.000 C 
ATOM     62  C44 UNL A   1      41.258  31.795  32.048  1.00  0.00    +0.000 C 
ATOM     63  N6  UNL A   1      39.981  31.557  32.537  1.00  0.00    +0.000 N 
ATOM     64  C45 UNL A   1      39.177  31.980  31.599  1.00  0.00    +0.000 C 
ATOM     65  C46 UNL A   1      37.917  31.287  31.224  1.00  0.00    +0.000 C 
ATOM     77  C53 UNL A   1      38.285  30.087  30.713  1.00  0.00    +0.000 C 
ATOM     78  C54 UNL A   1      37.526  28.870  30.551  1.00  0.00    +0.000 C 
ATOM     79  C55 UNL A   1      38.352  27.929  30.050  1.00  0.00    +0.000 C 
ATOM     80  C56 UNL A   1      39.638  28.534  29.672  1.00  0.00    +0.000 C 
ATOM     81  N7  UNL A   1      39.561  29.806  30.184  1.00  0.00    +0.000 N 
ATOM     82  C57 UNL A   1      39.771  32.873  30.620  1.00  0.00    +0.000 C 
ATOM     83  C58 UNL A   1      41.061  32.672  30.897  1.00  0.00    +0.000 C 
ATOM     84  C59 UNL A   1      42.927  29.656  26.741  1.00  0.00    +0.000 C 
ATOM     85  C60 UNL A   1      41.764  29.019  26.896  1.00  0.00    +0.000 C 
ATOM    120  H30 UNL A   1      46.172  29.435  30.357  1.00  0.00    +0.000 H 
ATOM    121  H31 UNL A   1      44.793  29.342  32.631  1.00  0.00    +0.000 H 
ATOM    122  H32 UNL A   1      43.668  32.602  30.515  1.00  0.00    +0.000 H 
ATOM    123  H33 UNL A   1      36.528  28.742  30.777  1.00  0.00    +0.000 H 
ATOM    124  H34 UNL A   1      38.116  26.929  29.947  1.00  0.00    +0.000 H 
ATOM    125  H35 UNL A   1      40.309  30.445  30.182  1.00  0.00    +0.000 H 
ATOM    126  H36 UNL A   1      39.327  33.483  29.916  1.00  0.00    +0.000 H 
ATOM    127  H37 UNL A   1      41.835  33.090  30.356  1.00  0.00    +0.000 H 
ATOM    128  H38 UNL A   1      43.360  29.875  25.831  1.00  0.00    +0.000 H 
ENDROOT
BRANCH   29   28
ATOM    130  H40 UNL A   1      38.673  26.987  27.562  1.00  0.00    +0.000 H 
ATOM    131  H41 UNL A   1      38.191  24.605  27.481  1.00  0.00    +0.000 H 
ATOM     28  C22 UNL A   1      40.567  26.647  28.422  1.00  0.00    +0.000 C 
ATOM     86  C61 UNL A   1      39.375  26.278  27.829  1.00  0.00    +0.000 C 
ATOM     87  C62 UNL A   1      39.154  24.954  27.607  1.00  0.00    +0.000 C 
ATOM    118  H28 UNL A   1      42.276  23.795  28.012  1.00  0.00    +0.000 H 
ATOM     25  C19 UNL A   1      40.225  24.075  27.551  1.00  0.00    +0.000 C 
ATOM     26  C20 UNL A   1      41.482  24.455  28.029  1.00  0.00    +0.000 C 
ATOM     27  C21 UNL A   1      41.639  25.747  28.527  1.00  0.00    +0.000 C 
ATOM    119  H29 UNL A   1      42.527  26.036  28.965  1.00  0.00    +0.000 H 
BRANCH   25   23
ATOM     23  C18 UNL A   1      39.972  22.751  26.953  1.00  0.00    +0.000 C 
ATOM     24  O3  UNL A   1      40.632  21.787  27.283  1.00  0.00    +0.000 O 
BRANCH   23   22
ATOM    117  H27 UNL A   1      38.645  23.489  25.618  1.00  0.00    +0.000 H 
ATOM     22  N3  UNL A   1      38.956  22.643  26.013  1.00  0.00    +0.000 N 
BRANCH   22   21
ATOM    115  H25 UNL A   1      38.799  21.077  24.663  1.00  0.00    +0.000 H 
ATOM    116  H26 UNL A   1      38.315  20.710  26.326  1.00  0.00    +0.000 H 
ATOM     21  C17 UNL A   1      38.288  21.429  25.535  1.00  0.00    +0.000 C 
BRANCH   21   20
ATOM    113  H23 UNL A   1      36.534  20.933  24.458  1.00  0.00    +0.000 H 
ATOM    114  H24 UNL A   1      36.267  21.591  26.085  1.00  0.00    +0.000 H 
ATOM     20  C16 UNL A   1      36.831  21.666  25.179  1.00  0.00    +0.000 C 
BRANCH   20   19
ATOM     19  C15 UNL A   1      36.569  23.061  24.593  1.00  0.00    +0.000 C 
ATOM    111  H21 UNL A   1      37.514  23.487  24.329  1.00  0.00    +0.000 H 
ATOM    112  H22 UNL A   1      35.909  22.902  23.765  1.00  0.00    +0.000 H 
BRANCH   19   18
ATOM     18  C14 UNL A   1      35.844  24.060  25.510  1.00  0.00    +0.000 C 
ATOM    109  H19 UNL A   1      35.338  23.504  26.272  1.00  0.00    +0.000 H 
ATOM    110  H20 UNL A   1      36.597  24.718  25.889  1.00  0.00    +0.000 H 
BRANCH   18   17
ATOM     17  C13 UNL A   1      34.812  24.951  24.812  1.00  0.00    +0.000 C 
ATOM    107  H17 UNL A   1      35.297  25.468  24.010  1.00  0.00    +0.000 H 
ATOM    108  H18 UNL A   1      34.027  24.313  24.462  1.00  0.00    +0.000 H 
BRANCH   17   16
ATOM    105  H15 UNL A   1      33.566  25.481  26.464  1.00  0.00    +0.000 H 
ATOM    106  H16 UNL A   1      34.953  26.531  26.234  1.00  0.00    +0.000 H 
ATOM     16  C12 UNL A   1      34.176  25.984  25.743  1.00  0.00    +0.000 C 
BRANCH   16   15
ATOM     15  N2  UNL A   1      33.358  26.906  24.991  1.00  0.00    +0.000 N 
ATOM    104  H14 UNL A   1      33.494  26.870  24.017  1.00  0.00    +0.000 H 
BRANCH   15   13
ATOM     13  C11 UNL A   1      32.436  27.815  25.397  1.00  0.00    +0.000 C 
ATOM     14  O2  UNL A   1      32.355  28.034  26.608  1.00  0.00    +0.000 O 
BRANCH   13   12
ATOM     12  C10 UNL A   1      31.457  28.460  24.434  1.00  0.00    +0.000 C 
ATOM    102  H12 UNL A   1      30.808  29.074  25.024  1.00  0.00    +0.000 H 
ATOM    103  H13 UNL A   1      32.099  28.944  23.729  1.00  0.00    +0.000 H 
BRANCH   12   11
ATOM     11  C9  UNL A   1      30.554  27.600  23.541  1.00  0.00    +0.000 C 
ATOM    100  H10 UNL A   1      29.958  28.283  22.973  1.00  0.00    +0.000 H 
ATOM    101  H11 UNL A   1      31.266  26.982  23.035  1.00  0.00    +0.000 H 
BRANCH   11   10
ATOM     10  C8  UNL A   1      29.582  26.558  24.122  1.00  0.00    +0.000 C 
ATOM     99  H9  UNL A   1      28.988  26.294  23.271  1.00  0.00    +0.000 H 
ATOM     98  H8  UNL A   1      29.099  27.025  24.954  1.00  0.00    +0.000 H 
BRANCH   10    9
ATOM      2  C2  UNL A   1      32.969  21.992  26.368  1.00  0.00    +0.000 C 
ATOM      3  C3  UNL A   1      33.051  21.630  25.016  1.00  0.00    +0.000 C 
ATOM      4  C4  UNL A   1      32.301  22.329  24.053  1.00  0.00    +0.000 C 
ATOM      6  C6  UNL A   1      31.539  23.399  24.506  1.00  0.00    +0.000 C 
ATOM      7  C7  UNL A   1      30.788  24.421  23.742  1.00  0.00    +0.000 C 
ATOM      8  O1  UNL A   1      30.901  24.548  22.530  1.00  0.00    +0.000 O 
ATOM      9  N1  UNL A   1      30.059  25.261  24.595  1.00  0.00    +0.000 N 
ATOM     88  S1  UNL A   1      30.273  24.878  26.250  1.00  0.00    +0.000 S 
ATOM     89  C63 UNL A   1      31.464  23.635  25.864  1.00  0.00    +0.000 C 
ATOM     90  N8  UNL A   1      32.163  22.984  26.809  1.00  0.00    +0.000 N 
ATOM     94  H4  UNL A   1      33.663  20.850  24.727  1.00  0.00    +0.000 H 
BRANCH    2    1
ATOM      1  C1  UNL A   1      33.808  21.307  27.405  1.00  0.00    +0.000 C 
ATOM     91  H1  UNL A   1      33.271  21.271  28.330  1.00  0.00    +0.000 H 
ATOM     92  H2  UNL A   1      34.719  21.850  27.543  1.00  0.00    +0.000 H 
ATOM     93  H3  UNL A   1      34.031  20.311  27.083  1.00  0.00    +0.000 H 
ENDBRANCH    2    1
BRANCH    4    5
ATOM     97  H7  UNL A   1      31.795  22.633  22.028  1.00  0.00    +0.000 H 
ATOM      5  C5  UNL A   1      32.308  21.903  22.619  1.00  0.00    +0.000 C 
ATOM     95  H5  UNL A   1      31.816  20.958  22.526  1.00  0.00    +0.000 H 
ATOM     96  H6  UNL A   1      33.319  21.815  22.278  1.00  0.00    +0.000 H 
ENDBRANCH    4    5
ENDBRANCH   10    9
ENDBRANCH   11   10
ENDBRANCH   12   11
ENDBRANCH   13   12
ENDBRANCH   15   13
ENDBRANCH   16   15
ENDBRANCH   17   16
ENDBRANCH   18   17
ENDBRANCH   19   18
ENDBRANCH   20   19
ENDBRANCH   21   20
ENDBRANCH   22   21
ENDBRANCH   23   22
ENDBRANCH   25   23
ENDBRANCH   29   28
BRANCH   33   34
ATOM     34  C27 UNL A   1      44.665  32.207  27.576  1.00  0.00    +0.000 C 
ATOM     35  C28 UNL A   1      45.892  32.291  26.888  1.00  0.00    +0.000 C 
ATOM     36  F1  UNL A   1      46.685  31.216  26.770  1.00  0.00    +0.000 F 
ATOM     37  C29 UNL A   1      46.370  33.500  26.372  1.00  0.00    +0.000 C 
ATOM     38  F2  UNL A   1      47.590  33.553  25.824  1.00  0.00    +0.000 F 
ATOM     39  C30 UNL A   1      45.616  34.655  26.477  1.00  0.00    +0.000 C 
ATOM     40  F3  UNL A   1      46.092  35.823  26.028  1.00  0.00    +0.000 F 
ATOM     41  C31 UNL A   1      44.385  34.602  27.094  1.00  0.00    +0.000 C 
ATOM     42  F4  UNL A   1      43.648  35.714  27.223  1.00  0.00    +0.000 F 
ATOM     43  C32 UNL A   1      43.932  33.410  27.657  1.00  0.00    +0.000 C 
ATOM     44  F5  UNL A   1      42.804  33.512  28.371  1.00  0.00    +0.000 F 
ENDBRANCH   33   34
BRANCH   50   51
ATOM     51  C38 UNL A   1      42.101  30.113  33.632  1.00  0.00    +0.000 C 
ATOM     52  C39 UNL A   1      41.707  28.767  33.519  1.00  0.00    +0.000 C 
ATOM     53  F6  UNL A   1      41.448  28.227  32.322  1.00  0.00    +0.000 F 
ATOM     54  C40 UNL A   1      41.625  27.935  34.636  1.00  0.00    +0.000 C 
ATOM     55  F7  UNL A   1      41.238  26.659  34.499  1.00  0.00    +0.000 F 
ATOM     56  C41 UNL A   1      41.978  28.417  35.886  1.00  0.00    +0.000 C 
ATOM     57  F8  UNL A   1      41.942  27.609  36.955  1.00  0.00    +0.000 F 
ATOM     58  C42 UNL A   1      42.394  29.731  36.020  1.00  0.00    +0.000 C 
ATOM     59  F9  UNL A   1      42.779  30.190  37.219  1.00  0.00    +0.000 F 
ATOM     60  C43 UNL A   1      42.440  30.572  34.911  1.00  0.00    +0.000 C 
ATOM     61  F10 UNL A   1      42.870  31.833  35.077  1.00  0.00    +0.000 F 
ENDBRANCH   50   51
BRANCH   65   66
ATOM     66  C47 UNL A   1      36.642  32.013  31.020  1.00  0.00    +0.000 C 
ATOM     67  C48 UNL A   1      35.822  32.335  32.114  1.00  0.00    +0.000 C 
ATOM     68  F11 UNL A   1      36.046  31.773  33.311  1.00  0.00    +0.000 F 
ATOM     69  C49 UNL A   1      34.816  33.301  32.015  1.00  0.00    +0.000 C 
ATOM     70  F12 UNL A   1      34.102  33.636  33.100  1.00  0.00    +0.000 F 
ATOM     71  C50 UNL A   1      34.595  33.964  30.819  1.00  0.00    +0.000 C 
ATOM     72  F13 UNL A   1      33.682  34.942  30.744  1.00  0.00    +0.000 F 
ATOM     73  C51 UNL A   1      35.357  33.638  29.712  1.00  0.00    +0.000 C 
ATOM     74  F14 UNL A   1      35.178  34.298  28.558  1.00  0.00    +0.000 F 
ATOM     75  C52 UNL A   1      36.365  32.676  29.809  1.00  0.00    +0.000 C 
ATOM     76  F15 UNL A   1      37.129  32.477  28.727  1.00  0.00    +0.000 F 
ENDBRANCH   65   66
TORSDOF 20
ENDMDL
MODEL 5
REMARK VINA RESULT:     -10.9      1.367      3.300
ROOT
ATOM    129  H39 UNL A   1      38.471  27.442  30.997  1.00  0.00    +0.000 H 
ATOM     29  C23 UNL A   1      40.074  28.839  29.075  1.00  0.00    +0.000 C 
ATOM     30  C24 UNL A   1      40.338  28.639  30.518  1.00  0.00    +0.000 C 
ATOM     31  N4  UNL A   1      41.301  29.140  31.217  1.00  0.00    +0.000 N 
ATOM     32  C25 UNL A   1      41.133  28.643  32.506  1.00  0.00    +0.000 C 
ATOM     33  C26 UNL A   1      42.181  28.572  33.372  1.00  0.00    +0.000 C 
ATOM     45  C33 UNL A   1      43.284  29.379  32.914  1.00  0.00    +0.000 C 
ATOM     46  C34 UNL A   1      43.493  30.733  32.743  1.00  0.00    +0.000 C 
ATOM     47  C35 UNL A   1      44.281  30.842  31.558  1.00  0.00    +0.000 C 
ATOM     48  C36 UNL A   1      44.563  29.553  31.101  1.00  0.00    +0.000 C 
ATOM     49  N5  UNL A   1      44.255  28.754  32.173  1.00  0.00    +0.000 N 
ATOM     50  C37 UNL A   1      44.964  29.043  29.808  1.00  0.00    +0.000 C 
ATOM     62  C44 UNL A   1      44.888  27.735  29.420  1.00  0.00    +0.000 C 
ATOM     63  N6  UNL A   1      44.870  27.391  28.075  1.00  0.00    +0.000 N 
ATOM     64  C45 UNL A   1      44.231  26.253  28.028  1.00  0.00    +0.000 C 
ATOM     65  C46 UNL A   1      43.274  25.894  26.950  1.00  0.00    +0.000 C 
ATOM     77  C53 UNL A   1      42.235  26.756  27.065  1.00  0.00    +0.000 C 
ATOM     78  C54 UNL A   1      41.231  27.143  26.103  1.00  0.00    +0.000 C 
ATOM     79  C55 UNL A   1      40.448  28.080  26.673  1.00  0.00    +0.000 C 
ATOM     80  C56 UNL A   1      40.773  28.210  28.102  1.00  0.00    +0.000 C 
ATOM     81  N7  UNL A   1      41.913  27.459  28.244  1.00  0.00    +0.000 N 
ATOM     82  C57 UNL A   1      44.121  25.543  29.290  1.00  0.00    +0.000 C 
ATOM     83  C58 UNL A   1      44.476  26.523  30.123  1.00  0.00    +0.000 C 
ATOM     84  C59 UNL A   1      39.822  28.048  32.544  1.00  0.00    +0.000 C 
ATOM     85  C60 UNL A   1      39.330  27.919  31.311  1.00  0.00    +0.000 C 
ATOM    120  H30 UNL A   1      43.154  31.500  33.343  1.00  0.00    +0.000 H 
ATOM    121  H31 UNL A   1      44.589  31.722  31.114  1.00  0.00    +0.000 H 
ATOM    122  H32 UNL A   1      44.661  27.879  32.376  1.00  0.00    +0.000 H 
ATOM    123  H33 UNL A   1      41.131  26.768  25.147  1.00  0.00    +0.000 H 
ATOM    124  H34 UNL A   1      39.724  28.627  26.179  1.00  0.00    +0.000 H 
ATOM    125  H35 UNL A   1      42.442  27.416  29.073  1.00  0.00    +0.000 H 
ATOM    126  H36 UNL A   1      43.848  24.567  29.486  1.00  0.00    +0.000 H 
ATOM    127  H37 UNL A   1      44.460  26.435  31.151  1.00  0.00    +0.000 H 
ATOM    128  H38 UNL A   1      39.331  27.762  33.406  1.00  0.00    +0.000 H 
ENDROOT
BRANCH   29   28
ATOM    130  H40 UNL A   1      39.746  31.391  29.405  1.00  0.00    +0.000 H 
ATOM    131  H41 UNL A   1      37.575  32.438  29.718  1.00  0.00    +0.000 H 
ATOM     28  C22 UNL A   1      38.863  29.581  28.779  1.00  0.00    +0.000 C 
ATOM     86  C61 UNL A   1      38.867  30.914  29.147  1.00  0.00    +0.000 C 
ATOM     87  C62 UNL A   1      37.680  31.577  29.158  1.00  0.00    +0.000 C 
ATOM    118  H28 UNL A   1      35.819  29.419  27.389  1.00  0.00    +0.000 H 
ATOM     25  C19 UNL A   1      36.611  31.095  28.417  1.00  0.00    +0.000 C 
ATOM     26  C20 UNL A   1      36.623  29.789  27.920  1.00  0.00    +0.000 C 
ATOM     27  C21 UNL A   1      37.747  29.001  28.157  1.00  0.00    +0.000 C 
ATOM    119  H29 UNL A   1      37.758  28.007  27.880  1.00  0.00    +0.000 H 
BRANCH   25   23
ATOM     23  C18 UNL A   1      35.494  32.026  28.171  1.00  0.00    +0.000 C 
ATOM     24  O3  UNL A   1      35.707  33.183  27.871  1.00  0.00    +0.000 O 
BRANCH   23   22
ATOM    117  H27 UNL A   1      33.830  31.506  29.196  1.00  0.00    +0.000 H 
ATOM     22  N3  UNL A   1      34.200  31.536  28.285  1.00  0.00    +0.000 N 
BRANCH   22   21
ATOM    115  H25 UNL A   1      32.387  31.588  27.279  1.00  0.00    +0.000 H 
ATOM    116  H26 UNL A   1      33.808  31.230  26.285  1.00  0.00    +0.000 H 
ATOM     21  C17 UNL A   1      33.315  31.058  27.218  1.00  0.00    +0.000 C 
BRANCH   21   20
ATOM    113  H23 UNL A   1      33.394  29.218  28.263  1.00  0.00    +0.000 H 
ATOM    114  H24 UNL A   1      31.972  29.442  27.224  1.00  0.00    +0.000 H 
ATOM     20  C16 UNL A   1      33.030  29.570  27.320  1.00  0.00    +0.000 C 
BRANCH   20   19
ATOM     19  C15 UNL A   1      33.692  28.748  26.204  1.00  0.00    +0.000 C 
ATOM    111  H21 UNL A   1      34.683  29.126  26.064  1.00  0.00    +0.000 H 
ATOM    112  H22 UNL A   1      33.650  27.731  26.538  1.00  0.00    +0.000 H 
BRANCH   19   18
ATOM     18  C14 UNL A   1      32.986  28.760  24.838  1.00  0.00    +0.000 C 
ATOM    109  H19 UNL A   1      31.969  28.462  24.987  1.00  0.00    +0.000 H 
ATOM    110  H20 UNL A   1      33.089  29.755  24.459  1.00  0.00    +0.000 H 
BRANCH   18   17
ATOM     17  C13 UNL A   1      33.600  27.837  23.781  1.00  0.00    +0.000 C 
ATOM    107  H17 UNL A   1      33.927  28.435  22.957  1.00  0.00    +0.000 H 
ATOM    108  H18 UNL A   1      34.411  27.317  24.247  1.00  0.00    +0.000 H 
BRANCH   17   16
ATOM    105  H15 UNL A   1      32.079  27.185  22.432  1.00  0.00    +0.000 H 
ATOM    106  H16 UNL A   1      33.177  25.920  22.954  1.00  0.00    +0.000 H 
ATOM     16  C12 UNL A   1      32.623  26.782  23.260  1.00  0.00    +0.000 C 
BRANCH   16   15
ATOM     15  N2  UNL A   1      31.694  26.398  24.296  1.00  0.00    +0.000 N 
ATOM    104  H14 UNL A   1      31.899  26.768  25.185  1.00  0.00    +0.000 H 
BRANCH   15   13
ATOM     13  C11 UNL A   1      30.588  25.613  24.255  1.00  0.00    +0.000 C 
ATOM     14  O2  UNL A   1      29.678  25.880  25.043  1.00  0.00    +0.000 O 
BRANCH   13   12
ATOM     12  C10 UNL A   1      30.500  24.384  23.369  1.00  0.00    +0.000 C 
ATOM    102  H12 UNL A   1      29.558  23.921  23.582  1.00  0.00    +0.000 H 
ATOM    103  H13 UNL A   1      30.650  24.786  22.388  1.00  0.00    +0.000 H 
BRANCH   12   11
ATOM     11  C9  UNL A   1      31.561  23.280  23.452  1.00  0.00    +0.000 C 
ATOM    100  H10 UNL A   1      31.294  22.554  22.713  1.00  0.00    +0.000 H 
ATOM    101  H11 UNL A   1      32.468  23.834  23.336  1.00  0.00    +0.000 H 
BRANCH   11   10
ATOM     10  C8  UNL A   1      31.826  22.497  24.750  1.00  0.00    +0.000 C 
ATOM     99  H9  UNL A   1      31.722  21.480  24.434  1.00  0.00    +0.000 H 
ATOM     98  H8  UNL A   1      31.141  22.876  25.478  1.00  0.00    +0.000 H 
BRANCH   10    9
ATOM      2  C2  UNL A   1      37.731  23.414  26.039  1.00  0.00    +0.000 C 
ATOM      3  C3  UNL A   1      37.844  22.085  25.607  1.00  0.00    +0.000 C 
ATOM      4  C4  UNL A   1      36.690  21.343  25.300  1.00  0.00    +0.000 C 
ATOM      6  C6  UNL A   1      35.472  22.006  25.401  1.00  0.00    +0.000 C 
ATOM      7  C7  UNL A   1      34.117  21.570  24.994  1.00  0.00    +0.000 C 
ATOM      8  O1  UNL A   1      33.926  20.569  24.318  1.00  0.00    +0.000 O 
ATOM      9  N1  UNL A   1      33.145  22.503  25.379  1.00  0.00    +0.000 N 
ATOM     88  S1  UNL A   1      33.808  23.869  26.171  1.00  0.00    +0.000 S 
ATOM     89  C63 UNL A   1      35.454  23.291  25.905  1.00  0.00    +0.000 C 
ATOM     90  N8  UNL A   1      36.537  24.026  26.210  1.00  0.00    +0.000 N 
ATOM     94  H4  UNL A   1      38.777  21.652  25.512  1.00  0.00    +0.000 H 
BRANCH    2    1
ATOM      1  C1  UNL A   1      38.948  24.247  26.308  1.00  0.00    +0.000 C 
ATOM     91  H1  UNL A   1      39.662  23.668  26.855  1.00  0.00    +0.000 H 
ATOM     92  H2  UNL A   1      38.673  25.108  26.880  1.00  0.00    +0.000 H 
ATOM     93  H3  UNL A   1      39.379  24.560  25.379  1.00  0.00    +0.000 H 
ENDBRANCH    2    1
BRANCH    4    5
ATOM     97  H7  UNL A   1      36.266  19.737  23.999  1.00  0.00    +0.000 H 
ATOM      5  C5  UNL A   1      36.784  19.899  24.921  1.00  0.00    +0.000 C 
ATOM     95  H5  UNL A   1      36.342  19.300  25.689  1.00  0.00    +0.000 H 
ATOM     96  H6  UNL A   1      37.813  19.628  24.805  1.00  0.00    +0.000 H 
ENDBRANCH    4    5
ENDBRANCH   10    9
ENDBRANCH   11   10
ENDBRANCH   12   11
ENDBRANCH   13   12
ENDBRANCH   15   13
ENDBRANCH   16   15
ENDBRANCH   17   16
ENDBRANCH   18   17
ENDBRANCH   19   18
ENDBRANCH   20   19
ENDBRANCH   21   20
ENDBRANCH   22   21
ENDBRANCH   23   22
ENDBRANCH   25   23
ENDBRANCH   29   28
BRANCH   33   34
ATOM     34  C27 UNL A   1      42.340  27.524  34.444  1.00  0.00    +0.000 C 
ATOM     35  C28 UNL A   1      42.951  26.295  34.122  1.00  0.00    +0.000 C 
ATOM     36  F1  UNL A   1      43.582  26.130  32.951  1.00  0.00    +0.000 F 
ATOM     37  C29 UNL A   1      42.859  25.181  34.963  1.00  0.00    +0.000 C 
ATOM     38  F2  UNL A   1      43.360  24.005  34.565  1.00  0.00    +0.000 F 
ATOM     39  C30 UNL A   1      42.204  25.269  36.178  1.00  0.00    +0.000 C 
ATOM     40  F3  UNL A   1      42.072  24.192  36.961  1.00  0.00    +0.000 F 
ATOM     41  C31 UNL A   1      41.640  26.470  36.553  1.00  0.00    +0.000 C 
ATOM     42  F4  UNL A   1      40.984  26.571  37.717  1.00  0.00    +0.000 F 
ATOM     43  C32 UNL A   1      41.683  27.566  35.692  1.00  0.00    +0.000 C 
ATOM     44  F5  UNL A   1      40.966  28.625  36.086  1.00  0.00    +0.000 F 
ENDBRANCH   33   34
BRANCH   50   51
ATOM     51  C38 UNL A   1      45.287  30.065  28.744  1.00  0.00    +0.000 C 
ATOM     52  C39 UNL A   1      44.319  30.745  27.982  1.00  0.00    +0.000 C 
ATOM     53  F6  UNL A   1      43.016  30.475  28.132  1.00  0.00    +0.000 F 
ATOM     54  C40 UNL A   1      44.672  31.756  27.088  1.00  0.00    +0.000 C 
ATOM     55  F7  UNL A   1      43.728  32.380  26.368  1.00  0.00    +0.000 F 
ATOM     56  C41 UNL A   1      45.996  32.143  26.968  1.00  0.00    +0.000 C 
ATOM     57  F8  UNL A   1      46.335  33.143  26.142  1.00  0.00    +0.000 F 
ATOM     58  C42 UNL A   1      46.966  31.507  27.726  1.00  0.00    +0.000 C 
ATOM     59  F9  UNL A   1      48.243  31.907  27.647  1.00  0.00    +0.000 F 
ATOM     60  C43 UNL A   1      46.618  30.473  28.591  1.00  0.00    +0.000 C 
ATOM     61  F10 UNL A   1      47.583  29.897  29.325  1.00  0.00    +0.000 F 
ENDBRANCH   50   51
BRANCH   65   66
ATOM     66  C47 UNL A   1      43.292  24.573  26.279  1.00  0.00    +0.000 C 
ATOM     67  C48 UNL A   1      44.188  24.319  25.228  1.00  0.00    +0.000 C 
ATOM     68  F11 UNL A   1      44.851  25.331  24.650  1.00  0.00    +0.000 F 
ATOM     69  C49 UNL A   1      44.479  23.015  24.814  1.00  0.00    +0.000 C 
ATOM     70  F12 UNL A   1      45.396  22.807  23.858  1.00  0.00    +0.000 F 
ATOM     71  C50 UNL A   1      43.876  21.932  25.432  1.00  0.00    +0.000 C 
ATOM     72  F13 UNL A   1      44.212  20.681  25.087  1.00  0.00    +0.000 F 
ATOM     73  C51 UNL A   1      42.957  22.151  26.441  1.00  0.00    +0.000 C 
ATOM     74  F14 UNL A   1      42.394  21.110  27.071  1.00  0.00    +0.000 F 
ATOM     75  C52 UNL A   1      42.666  23.452  26.858  1.00  0.00    +0.000 C 
ATOM     76  F15 UNL A   1      41.840  23.590  27.904  1.00  0.00    +0.000 F 
ENDBRANCH   65   66
TORSDOF 20
ENDMDL
MODEL 6
REMARK VINA RESULT:     -10.7      3.109      8.677
ROOT
ATOM    129  H39 UNL A   1      41.484  28.703  26.185  1.00  0.00    +0.000 H 
ATOM     29  C23 UNL A   1      41.054  28.080  28.949  1.00  0.00    +0.000 C 
ATOM     30  C24 UNL A   1      42.102  28.941  28.356  1.00  0.00    +0.000 C 
ATOM     31  N4  UNL A   1      43.091  29.506  28.962  1.00  0.00    +0.000 N 
ATOM     32  C25 UNL A   1      43.776  30.223  27.986  1.00  0.00    +0.000 C 
ATOM     33  C26 UNL A   1      44.563  31.283  28.317  1.00  0.00    +0.000 C 
ATOM     45  C33 UNL A   1      44.851  31.290  29.730  1.00  0.00    +0.000 C 
ATOM     46  C34 UNL A   1      45.566  30.471  30.580  1.00  0.00    +0.000 C 
ATOM     47  C35 UNL A   1      44.817  30.450  31.795  1.00  0.00    +0.000 C 
ATOM     48  C36 UNL A   1      43.720  31.302  31.646  1.00  0.00    +0.000 C 
ATOM     49  N5  UNL A   1      44.032  32.042  30.535  1.00  0.00    +0.000 N 
ATOM     50  C37 UNL A   1      42.457  31.395  32.346  1.00  0.00    +0.000 C 
ATOM     62  C44 UNL A   1      41.351  32.054  31.886  1.00  0.00    +0.000 C 
ATOM     63  N6  UNL A   1      40.087  31.747  32.372  1.00  0.00    +0.000 N 
ATOM     64  C45 UNL A   1      39.270  32.063  31.403  1.00  0.00    +0.000 C 
ATOM     65  C46 UNL A   1      38.070  31.261  31.048  1.00  0.00    +0.000 C 
ATOM     77  C53 UNL A   1      38.532  30.067  30.604  1.00  0.00    +0.000 C 
ATOM     78  C54 UNL A   1      37.867  28.790  30.495  1.00  0.00    +0.000 C 
ATOM     79  C55 UNL A   1      38.768  27.889  30.054  1.00  0.00    +0.000 C 
ATOM     80  C56 UNL A   1      40.012  28.567  29.662  1.00  0.00    +0.000 C 
ATOM     81  N7  UNL A   1      39.834  29.854  30.107  1.00  0.00    +0.000 N 
ATOM     82  C57 UNL A   1      39.813  32.946  30.387  1.00  0.00    +0.000 C 
ATOM     83  C58 UNL A   1      41.110  32.855  30.690  1.00  0.00    +0.000 C 
ATOM     84  C59 UNL A   1      43.258  29.779  26.718  1.00  0.00    +0.000 C 
ATOM     85  C60 UNL A   1      42.142  29.068  26.891  1.00  0.00    +0.000 C 
ATOM    120  H30 UNL A   1      46.451  29.980  30.381  1.00  0.00    +0.000 H 
ATOM    121  H31 UNL A   1      45.046  29.900  32.638  1.00  0.00    +0.000 H 
ATOM    122  H32 UNL A   1      43.721  32.957  30.345  1.00  0.00    +0.000 H 
ATOM    123  H33 UNL A   1      36.878  28.601  30.715  1.00  0.00    +0.000 H 
ATOM    124  H34 UNL A   1      38.607  26.870  29.999  1.00  0.00    +0.000 H 
ATOM    125  H35 UNL A   1      40.534  30.545  30.081  1.00  0.00    +0.000 H 
ATOM    126  H36 UNL A   1      39.337  33.485  29.647  1.00  0.00    +0.000 H 
ATOM    127  H37 UNL A   1      41.860  33.301  30.138  1.00  0.00    +0.000 H 
ATOM    128  H38 UNL A   1      43.689  29.983  25.803  1.00  0.00    +0.000 H 
ENDROOT
BRANCH   29   28
ATOM    130  H40 UNL A   1      39.335  26.925  27.387  1.00  0.00    +0.000 H 
ATOM    131  H41 UNL A   1      38.933  24.528  27.367  1.00  0.00    +0.000 H 
ATOM     28  C22 UNL A   1      41.096  26.693  28.522  1.00  0.00    +0.000 C 
ATOM     86  C61 UNL A   1      40.010  26.255  27.787  1.00  0.00    +0.000 C 
ATOM     87  C62 UNL A   1      39.859  24.915  27.608  1.00  0.00    +0.000 C 
ATOM    118  H28 UNL A   1      42.921  23.884  28.509  1.00  0.00    +0.000 H 
ATOM     25  C19 UNL A   1      40.949  24.071  27.751  1.00  0.00    +0.000 C 
ATOM     26  C20 UNL A   1      42.116  24.516  28.379  1.00  0.00    +0.000 C 
ATOM     27  C21 UNL A   1      42.166  25.836  28.824  1.00  0.00    +0.000 C 
ATOM    119  H29 UNL A   1      42.974  26.177  29.366  1.00  0.00    +0.000 H 
BRANCH   25   23
ATOM     23  C18 UNL A   1      40.820  22.711  27.195  1.00  0.00    +0.000 C 
ATOM     24  O3  UNL A   1      41.457  21.789  27.661  1.00  0.00    +0.000 O 
BRANCH   23   22
ATOM    117  H27 UNL A   1      39.942  23.225  25.447  1.00  0.00    +0.000 H 
ATOM     22  N3  UNL A   1      39.944  22.521  26.135  1.00  0.00    +0.000 N 
BRANCH   22   21
ATOM    115  H25 UNL A   1      39.481  20.708  25.241  1.00  0.00    +0.000 H 
ATOM    116  H26 UNL A   1      38.811  20.960  26.860  1.00  0.00    +0.000 H 
ATOM     21  C17 UNL A   1      39.020  21.404  25.910  1.00  0.00    +0.000 C 
BRANCH   21   20
ATOM    113  H23 UNL A   1      37.820  21.938  24.251  1.00  0.00    +0.000 H 
ATOM    114  H24 UNL A   1      36.967  21.117  25.573  1.00  0.00    +0.000 H 
ATOM     20  C16 UNL A   1      37.699  21.851  25.311  1.00  0.00    +0.000 C 
BRANCH   20   19
ATOM     19  C15 UNL A   1      37.210  23.199  25.859  1.00  0.00    +0.000 C 
ATOM    111  H21 UNL A   1      37.535  23.277  26.875  1.00  0.00    +0.000 H 
ATOM    112  H22 UNL A   1      37.623  23.939  25.204  1.00  0.00    +0.000 H 
BRANCH   19   18
ATOM     18  C14 UNL A   1      35.690  23.434  25.834  1.00  0.00    +0.000 C 
ATOM    109  H19 UNL A   1      35.207  22.494  26.002  1.00  0.00    +0.000 H 
ATOM    110  H20 UNL A   1      35.489  24.161  26.592  1.00  0.00    +0.000 H 
BRANCH   18   17
ATOM     17  C13 UNL A   1      35.144  24.019  24.528  1.00  0.00    +0.000 C 
ATOM    107  H17 UNL A   1      35.931  24.557  24.042  1.00  0.00    +0.000 H 
ATOM    108  H18 UNL A   1      34.793  23.200  23.936  1.00  0.00    +0.000 H 
BRANCH   17   16
ATOM    105  H15 UNL A   1      33.951  25.296  25.755  1.00  0.00    +0.000 H 
ATOM    106  H16 UNL A   1      34.071  25.805  24.080  1.00  0.00    +0.000 H 
ATOM     16  C12 UNL A   1      33.963  24.968  24.737  1.00  0.00    +0.000 C 
BRANCH   16   15
ATOM     15  N2  UNL A   1      32.719  24.298  24.440  1.00  0.00    +0.000 N 
ATOM    104  H14 UNL A   1      32.280  23.888  25.220  1.00  0.00    +0.000 H 
BRANCH   15   13
ATOM     13  C11 UNL A   1      32.051  24.137  23.270  1.00  0.00    +0.000 C 
ATOM     14  O2  UNL A   1      31.051  23.414  23.286  1.00  0.00    +0.000 O 
BRANCH   13   12
ATOM     12  C10 UNL A   1      32.559  24.714  21.962  1.00  0.00    +0.000 C 
ATOM    102  H12 UNL A   1      33.612  24.861  22.081  1.00  0.00    +0.000 H 
ATOM    103  H13 UNL A   1      32.231  23.995  21.240  1.00  0.00    +0.000 H 
BRANCH   12   11
ATOM     11  C9  UNL A   1      31.992  26.030  21.414  1.00  0.00    +0.000 C 
ATOM    100  H10 UNL A   1      32.835  26.613  21.107  1.00  0.00    +0.000 H 
ATOM    101  H11 UNL A   1      31.300  25.684  20.675  1.00  0.00    +0.000 H 
BRANCH   11   10
ATOM     10  C8  UNL A   1      31.112  26.960  22.267  1.00  0.00    +0.000 C 
ATOM     99  H9  UNL A   1      30.506  26.270  22.815  1.00  0.00    +0.000 H 
ATOM     98  H8  UNL A   1      30.631  27.631  21.586  1.00  0.00    +0.000 H 
BRANCH   10    9
ATOM      2  C2  UNL A   1      34.595  29.155  26.786  1.00  0.00    +0.000 C 
ATOM      3  C3  UNL A   1      33.511  28.747  27.575  1.00  0.00    +0.000 C 
ATOM      4  C4  UNL A   1      32.339  28.265  26.966  1.00  0.00    +0.000 C 
ATOM      6  C6  UNL A   1      32.344  28.173  25.579  1.00  0.00    +0.000 C 
ATOM      7  C7  UNL A   1      31.354  27.560  24.664  1.00  0.00    +0.000 C 
ATOM      8  O1  UNL A   1      30.432  26.863  25.067  1.00  0.00    +0.000 O 
ATOM      9  N1  UNL A   1      31.691  27.788  23.323  1.00  0.00    +0.000 N 
ATOM     88  S1  UNL A   1      33.146  28.672  23.142  1.00  0.00    +0.000 S 
ATOM     89  C63 UNL A   1      33.429  28.667  24.884  1.00  0.00    +0.000 C 
ATOM     90  N8  UNL A   1      34.561  29.137  25.434  1.00  0.00    +0.000 N 
ATOM     94  H4  UNL A   1      33.574  28.800  28.604  1.00  0.00    +0.000 H 
BRANCH    2    1
ATOM      1  C1  UNL A   1      35.880  29.610  27.411  1.00  0.00    +0.000 C 
ATOM     91  H1  UNL A   1      36.056  30.635  27.159  1.00  0.00    +0.000 H 
ATOM     92  H2  UNL A   1      36.687  29.010  27.046  1.00  0.00    +0.000 H 
ATOM     93  H3  UNL A   1      35.814  29.510  28.475  1.00  0.00    +0.000 H 
ENDBRANCH    2    1
BRANCH    4    5
ATOM     97  H7  UNL A   1      31.451  27.642  28.775  1.00  0.00    +0.000 H 
ATOM      5  C5  UNL A   1      31.140  27.907  27.786  1.00  0.00    +0.000 C 
ATOM     95  H5  UNL A   1      30.636  27.077  27.337  1.00  0.00    +0.000 H 
ATOM     96  H6  UNL A   1      30.476  28.745  27.833  1.00  0.00    +0.000 H 
ENDBRANCH    4    5
ENDBRANCH   10    9
ENDBRANCH   11   10
ENDBRANCH   12   11
ENDBRANCH   13   12
ENDBRANCH   15   13
ENDBRANCH   16   15
ENDBRANCH   17   16
ENDBRANCH   18   17
ENDBRANCH   19   18
ENDBRANCH   20   19
ENDBRANCH   21   20
ENDBRANCH   22   21
ENDBRANCH   23   22
ENDBRANCH   25   23
ENDBRANCH   29   28
BRANCH   33   34
ATOM     34  C27 UNL A   1      44.791  32.490  27.442  1.00  0.00    +0.000 C 
ATOM     35  C28 UNL A   1      46.022  32.632  26.771  1.00  0.00    +0.000 C 
ATOM     36  F1  UNL A   1      46.897  31.617  26.723  1.00  0.00    +0.000 F 
ATOM     37  C29 UNL A   1      46.418  33.847  26.201  1.00  0.00    +0.000 C 
ATOM     38  F2  UNL A   1      47.642  33.965  25.672  1.00  0.00    +0.000 F 
ATOM     39  C30 UNL A   1      45.577  34.944  26.232  1.00  0.00    +0.000 C 
ATOM     40  F3  UNL A   1      45.973  36.121  25.731  1.00  0.00    +0.000 F 
ATOM     41  C31 UNL A   1      44.341  34.829  26.831  1.00  0.00    +0.000 C 
ATOM     42  F4  UNL A   1      43.519  35.886  26.889  1.00  0.00    +0.000 F 
ATOM     43  C32 UNL A   1      43.968  33.636  27.448  1.00  0.00    +0.000 C 
ATOM     44  F5  UNL A   1      42.821  33.687  28.137  1.00  0.00    +0.000 F 
ENDBRANCH   33   34
BRANCH   50   51
ATOM     51  C38 UNL A   1      42.288  30.521  33.565  1.00  0.00    +0.000 C 
ATOM     52  C39 UNL A   1      42.298  31.000  34.888  1.00  0.00    +0.000 C 
ATOM     53  F6  UNL A   1      42.512  32.296  35.145  1.00  0.00    +0.000 F 
ATOM     54  C40 UNL A   1      42.031  30.160  35.970  1.00  0.00    +0.000 C 
ATOM     55  F7  UNL A   1      42.056  30.643  37.220  1.00  0.00    +0.000 F 
ATOM     56  C41 UNL A   1      41.705  28.832  35.752  1.00  0.00    +0.000 C 
ATOM     57  F8  UNL A   1      41.406  28.032  36.785  1.00  0.00    +0.000 F 
ATOM     58  C42 UNL A   1      41.664  28.341  34.457  1.00  0.00    +0.000 C 
ATOM     59  F9  UNL A   1      41.306  27.068  34.237  1.00  0.00    +0.000 F 
ATOM     60  C43 UNL A   1      41.966  29.170  33.380  1.00  0.00    +0.000 C 
ATOM     61  F10 UNL A   1      41.894  28.664  32.138  1.00  0.00    +0.000 F 
ENDBRANCH   50   51
BRANCH   65   66
ATOM     66  C47 UNL A   1      36.749  31.880  30.791  1.00  0.00    +0.000 C 
ATOM     67  C48 UNL A   1      35.850  32.104  31.847  1.00  0.00    +0.000 C 
ATOM     68  F11 UNL A   1      36.061  31.535  33.043  1.00  0.00    +0.000 F 
ATOM     69  C49 UNL A   1      34.770  32.983  31.713  1.00  0.00    +0.000 C 
ATOM     70  F12 UNL A   1      33.975  33.230  32.765  1.00  0.00    +0.000 F 
ATOM     71  C50 UNL A   1      34.554  33.652  30.520  1.00  0.00    +0.000 C 
ATOM     72  F13 UNL A   1      33.565  34.551  30.416  1.00  0.00    +0.000 F 
ATOM     73  C51 UNL A   1      35.397  33.419  29.449  1.00  0.00    +0.000 C 
ATOM     74  F14 UNL A   1      35.220  34.089  28.300  1.00  0.00    +0.000 F 
ATOM     75  C52 UNL A   1      36.477  32.545  29.580  1.00  0.00    +0.000 C 
ATOM     76  F15 UNL A   1      37.310  32.437  28.536  1.00  0.00    +0.000 F 
ENDBRANCH   65   66
TORSDOF 20
ENDMDL
MODEL 7
REMARK VINA RESULT:     -10.7      1.402      1.792
ROOT
ATOM    129  H39 UNL A   1      38.501  27.798  31.047  1.00  0.00    +0.000 H 
ATOM     29  C23 UNL A   1      40.114  29.304  29.217  1.00  0.00    +0.000 C 
ATOM     30  C24 UNL A   1      40.385  28.997  30.640  1.00  0.00    +0.000 C 
ATOM     31  N4  UNL A   1      41.360  29.432  31.366  1.00  0.00    +0.000 N 
ATOM     32  C25 UNL A   1      41.193  28.847  32.617  1.00  0.00    +0.000 C 
ATOM     33  C26 UNL A   1      42.245  28.698  33.467  1.00  0.00    +0.000 C 
ATOM     45  C33 UNL A   1      43.358  29.518  33.059  1.00  0.00    +0.000 C 
ATOM     46  C34 UNL A   1      43.588  30.877  32.984  1.00  0.00    +0.000 C 
ATOM     47  C35 UNL A   1      44.370  31.058  31.804  1.00  0.00    +0.000 C 
ATOM     48  C36 UNL A   1      44.628  29.801  31.253  1.00  0.00    +0.000 C 
ATOM     49  N5  UNL A   1      44.314  28.932  32.267  1.00  0.00    +0.000 N 
ATOM     50  C37 UNL A   1      45.012  29.380  29.923  1.00  0.00    +0.000 C 
ATOM     62  C44 UNL A   1      44.911  28.104  29.444  1.00  0.00    +0.000 C 
ATOM     63  N6  UNL A   1      44.879  27.857  28.078  1.00  0.00    +0.000 N 
ATOM     64  C45 UNL A   1      44.222  26.735  27.954  1.00  0.00    +0.000 C 
ATOM     65  C46 UNL A   1      43.251  26.469  26.861  1.00  0.00    +0.000 C 
ATOM     77  C53 UNL A   1      42.227  27.338  27.046  1.00  0.00    +0.000 C 
ATOM     78  C54 UNL A   1      41.223  27.808  26.122  1.00  0.00    +0.000 C 
ATOM     79  C55 UNL A   1      40.459  28.714  26.765  1.00  0.00    +0.000 C 
ATOM     80  C56 UNL A   1      40.795  28.736  28.196  1.00  0.00    +0.000 C 
ATOM     81  N7  UNL A   1      41.924  27.959  28.275  1.00  0.00    +0.000 N 
ATOM     82  C57 UNL A   1      44.109  25.939  29.163  1.00  0.00    +0.000 C 
ATOM     83  C58 UNL A   1      44.485  26.851  30.062  1.00  0.00    +0.000 C 
ATOM     84  C59 UNL A   1      39.873  28.271  32.623  1.00  0.00    +0.000 C 
ATOM     85  C60 UNL A   1      39.370  28.238  31.387  1.00  0.00    +0.000 C 
ATOM    120  H30 UNL A   1      43.265  31.605  33.640  1.00  0.00    +0.000 H 
ATOM    121  H31 UNL A   1      44.689  31.963  31.421  1.00  0.00    +0.000 H 
ATOM    122  H32 UNL A   1      44.707  28.039  32.404  1.00  0.00    +0.000 H 
ATOM    123  H33 UNL A   1      41.110  27.504  25.143  1.00  0.00    +0.000 H 
ATOM    124  H34 UNL A   1      39.740  29.305  26.317  1.00  0.00    +0.000 H 
ATOM    125  H35 UNL A   1      42.459  27.849  29.094  1.00  0.00    +0.000 H 
ATOM    126  H36 UNL A   1      43.821  24.956  29.291  1.00  0.00    +0.000 H 
ATOM    127  H37 UNL A   1      44.474  26.690  31.081  1.00  0.00    +0.000 H 
ATOM    128  H38 UNL A   1      39.384  27.932  33.466  1.00  0.00    +0.000 H 
ENDROOT
BRANCH   29   28
ATOM    130  H40 UNL A   1      37.917  28.421  28.158  1.00  0.00    +0.000 H 
ATOM    131  H41 UNL A   1      36.301  29.844  27.031  1.00  0.00    +0.000 H 
ATOM     28  C22 UNL A   1      38.912  30.085  28.985  1.00  0.00    +0.000 C 
ATOM     86  C61 UNL A   1      37.900  29.443  28.295  1.00  0.00    +0.000 C 
ATOM     87  C62 UNL A   1      36.883  30.201  27.803  1.00  0.00    +0.000 C 
ATOM    118  H28 UNL A   1      37.408  33.027  29.532  1.00  0.00    +0.000 H 
ATOM     25  C19 UNL A   1      36.631  31.454  28.342  1.00  0.00    +0.000 C 
ATOM     26  C20 UNL A   1      37.581  32.085  29.150  1.00  0.00    +0.000 C 
ATOM     27  C21 UNL A   1      38.768  31.409  29.427  1.00  0.00    +0.000 C 
ATOM    119  H29 UNL A   1      39.528  31.874  29.947  1.00  0.00    +0.000 H 
BRANCH   25   23
ATOM     23  C18 UNL A   1      35.322  32.061  28.038  1.00  0.00    +0.000 C 
ATOM     24  O3  UNL A   1      35.236  33.241  27.765  1.00  0.00    +0.000 O 
BRANCH   23   22
ATOM    117  H27 UNL A   1      33.669  31.269  28.894  1.00  0.00    +0.000 H 
ATOM     22  N3  UNL A   1      34.201  31.242  28.066  1.00  0.00    +0.000 N 
BRANCH   22   21
ATOM    115  H25 UNL A   1      33.990  30.740  26.065  1.00  0.00    +0.000 H 
ATOM    116  H26 UNL A   1      34.141  29.379  27.188  1.00  0.00    +0.000 H 
ATOM     21  C17 UNL A   1      33.709  30.342  27.018  1.00  0.00    +0.000 C 
BRANCH   21   20
ATOM    113  H23 UNL A   1      31.794  30.914  27.715  1.00  0.00    +0.000 H 
ATOM    114  H24 UNL A   1      31.846  30.309  26.048  1.00  0.00    +0.000 H 
ATOM     20  C16 UNL A   1      32.200  30.181  27.049  1.00  0.00    +0.000 C 
BRANCH   20   19
ATOM     19  C15 UNL A   1      31.748  28.791  27.519  1.00  0.00    +0.000 C 
ATOM    111  H21 UNL A   1      32.574  28.331  28.019  1.00  0.00    +0.000 H 
ATOM    112  H22 UNL A   1      30.895  28.966  28.143  1.00  0.00    +0.000 H 
BRANCH   19   18
ATOM     18  C14 UNL A   1      31.264  27.826  26.425  1.00  0.00    +0.000 C 
ATOM    109  H19 UNL A   1      30.196  27.883  26.381  1.00  0.00    +0.000 H 
ATOM    110  H20 UNL A   1      31.745  28.134  25.521  1.00  0.00    +0.000 H 
BRANCH   18   17
ATOM     17  C13 UNL A   1      31.650  26.359  26.635  1.00  0.00    +0.000 C 
ATOM    107  H17 UNL A   1      32.648  26.216  26.276  1.00  0.00    +0.000 H 
ATOM    108  H18 UNL A   1      31.567  26.156  27.683  1.00  0.00    +0.000 H 
BRANCH   17   16
ATOM    105  H15 UNL A   1      29.759  25.404  26.365  1.00  0.00    +0.000 H 
ATOM    106  H16 UNL A   1      30.658  25.667  24.881  1.00  0.00    +0.000 H 
ATOM     16  C12 UNL A   1      30.727  25.380  25.909  1.00  0.00    +0.000 C 
BRANCH   16   15
ATOM     15  N2  UNL A   1      31.254  24.038  25.984  1.00  0.00    +0.000 N 
ATOM    104  H14 UNL A   1      31.740  23.837  26.816  1.00  0.00    +0.000 H 
BRANCH   15   13
ATOM     13  C11 UNL A   1      31.195  23.007  25.104  1.00  0.00    +0.000 C 
ATOM     14  O2  UNL A   1      30.596  23.203  24.044  1.00  0.00    +0.000 O 
BRANCH   13   12
ATOM     12  C10 UNL A   1      31.733  21.627  25.437  1.00  0.00    +0.000 C 
ATOM    102  H12 UNL A   1      31.349  21.374  26.404  1.00  0.00    +0.000 H 
ATOM    103  H13 UNL A   1      31.415  21.039  24.601  1.00  0.00    +0.000 H 
BRANCH   12   11
ATOM     11  C9  UNL A   1      33.244  21.366  25.483  1.00  0.00    +0.000 C 
ATOM    100  H10 UNL A   1      33.615  21.909  26.327  1.00  0.00    +0.000 H 
ATOM    101  H11 UNL A   1      33.284  20.297  25.492  1.00  0.00    +0.000 H 
BRANCH   11   10
ATOM     10  C8  UNL A   1      34.171  21.713  24.306  1.00  0.00    +0.000 C 
ATOM     99  H9  UNL A   1      33.685  21.240  23.479  1.00  0.00    +0.000 H 
ATOM     98  H8  UNL A   1      35.149  21.377  24.581  1.00  0.00    +0.000 H 
BRANCH   10    9
ATOM      2  C2  UNL A   1      33.404  27.683  23.241  1.00  0.00    +0.000 C 
ATOM      3  C3  UNL A   1      32.960  27.218  21.995  1.00  0.00    +0.000 C 
ATOM      4  C4  UNL A   1      33.059  25.852  21.677  1.00  0.00    +0.000 C 
ATOM      6  C6  UNL A   1      33.561  25.012  22.663  1.00  0.00    +0.000 C 
ATOM      7  C7  UNL A   1      33.634  23.534  22.706  1.00  0.00    +0.000 C 
ATOM      8  O1  UNL A   1      33.061  22.826  21.889  1.00  0.00    +0.000 O 
ATOM      9  N1  UNL A   1      34.321  23.090  23.844  1.00  0.00    +0.000 N 
ATOM     88  S1  UNL A   1      34.844  24.374  24.850  1.00  0.00    +0.000 S 
ATOM     89  C63 UNL A   1      34.041  25.570  23.831  1.00  0.00    +0.000 C 
ATOM     90  N8  UNL A   1      33.965  26.870  24.165  1.00  0.00    +0.000 N 
ATOM     94  H4  UNL A   1      32.558  27.880  21.312  1.00  0.00    +0.000 H 
BRANCH    2    1
ATOM      1  C1  UNL A   1      33.248  29.123  23.631  1.00  0.00    +0.000 C 
ATOM     91  H1  UNL A   1      32.952  29.693  22.776  1.00  0.00    +0.000 H 
ATOM     92  H2  UNL A   1      34.179  29.495  24.003  1.00  0.00    +0.000 H 
ATOM     93  H3  UNL A   1      32.500  29.207  24.393  1.00  0.00    +0.000 H 
ENDBRANCH    2    1
BRANCH    4    5
ATOM     97  H7  UNL A   1      32.940  24.319  20.233  1.00  0.00    +0.000 H 
ATOM      5  C5  UNL A   1      32.671  25.351  20.322  1.00  0.00    +0.000 C 
ATOM     95  H5  UNL A   1      33.182  25.918  19.572  1.00  0.00    +0.000 H 
ATOM     96  H6  UNL A   1      31.614  25.457  20.191  1.00  0.00    +0.000 H 
ENDBRANCH    4    5
ENDBRANCH   10    9
ENDBRANCH   11   10
ENDBRANCH   12   11
ENDBRANCH   13   12
ENDBRANCH   15   13
ENDBRANCH   16   15
ENDBRANCH   17   16
ENDBRANCH   18   17
ENDBRANCH   19   18
ENDBRANCH   20   19
ENDBRANCH   21   20
ENDBRANCH   22   21
ENDBRANCH   23   22
ENDBRANCH   25   23
ENDBRANCH   29   28
BRANCH   33   34
ATOM     34  C27 UNL A   1      42.395  27.573  34.460  1.00  0.00    +0.000 C 
ATOM     35  C28 UNL A   1      42.932  26.342  34.032  1.00  0.00    +0.000 C 
ATOM     36  F1  UNL A   1      43.508  26.228  32.827  1.00  0.00    +0.000 F 
ATOM     37  C29 UNL A   1      42.819  25.179  34.801  1.00  0.00    +0.000 C 
ATOM     38  F2  UNL A   1      43.246  24.010  34.306  1.00  0.00    +0.000 F 
ATOM     39  C30 UNL A   1      42.217  25.215  36.046  1.00  0.00    +0.000 C 
ATOM     40  F3  UNL A   1      42.064  24.094  36.762  1.00  0.00    +0.000 F 
ATOM     41  C31 UNL A   1      41.729  26.412  36.524  1.00  0.00    +0.000 C 
ATOM     42  F4  UNL A   1      41.124  26.464  37.718  1.00  0.00    +0.000 F 
ATOM     43  C32 UNL A   1      41.791  27.560  35.735  1.00  0.00    +0.000 C 
ATOM     44  F5  UNL A   1      41.143  28.623  36.228  1.00  0.00    +0.000 F 
ENDBRANCH   33   34
BRANCH   50   51
ATOM     51  C38 UNL A   1      45.343  30.470  28.933  1.00  0.00    +0.000 C 
ATOM     52  C39 UNL A   1      44.381  31.232  28.246  1.00  0.00    +0.000 C 
ATOM     53  F6  UNL A   1      43.074  30.989  28.404  1.00  0.00    +0.000 F 
ATOM     54  C40 UNL A   1      44.746  32.298  27.423  1.00  0.00    +0.000 C 
ATOM     55  F7  UNL A   1      43.807  33.001  26.773  1.00  0.00    +0.000 F 
ATOM     56  C41 UNL A   1      46.079  32.656  27.304  1.00  0.00    +0.000 C 
ATOM     57  F8  UNL A   1      46.430  33.706  26.548  1.00  0.00    +0.000 F 
ATOM     58  C42 UNL A   1      47.044  31.938  27.990  1.00  0.00    +0.000 C 
ATOM     59  F9  UNL A   1      48.330  32.307  27.914  1.00  0.00    +0.000 F 
ATOM     60  C43 UNL A   1      46.683  30.851  28.782  1.00  0.00    +0.000 C 
ATOM     61  F10 UNL A   1      47.644  30.194  29.450  1.00  0.00    +0.000 F 
ENDBRANCH   50   51
BRANCH   65   66
ATOM     66  C47 UNL A   1      43.243  25.200  26.098  1.00  0.00    +0.000 C 
ATOM     67  C48 UNL A   1      44.270  24.911  25.185  1.00  0.00    +0.000 C 
ATOM     68  F11 UNL A   1      45.121  25.874  24.802  1.00  0.00    +0.000 F 
ATOM     69  C49 UNL A   1      44.490  23.610  24.718  1.00  0.00    +0.000 C 
ATOM     70  F12 UNL A   1      45.526  23.358  23.905  1.00  0.00    +0.000 F 
ATOM     71  C50 UNL A   1      43.684  22.567  25.144  1.00  0.00    +0.000 C 
ATOM     72  F13 UNL A   1      43.941  21.310  24.756  1.00  0.00    +0.000 F 
ATOM     73  C51 UNL A   1      42.637  22.828  26.009  1.00  0.00    +0.000 C 
ATOM     74  F14 UNL A   1      41.872  21.821  26.457  1.00  0.00    +0.000 F 
ATOM     75  C52 UNL A   1      42.417  24.124  26.478  1.00  0.00    +0.000 C 
ATOM     76  F15 UNL A   1      41.448  24.291  27.388  1.00  0.00    +0.000 F 
ENDBRANCH   65   66
TORSDOF 20
ENDMDL
MODEL 8
REMARK VINA RESULT:     -10.6      4.163      7.335
ROOT
ATOM    129  H39 UNL A   1      38.487  27.679  31.047  1.00  0.00    +0.000 H 
ATOM     29  C23 UNL A   1      40.071  29.189  29.197  1.00  0.00    +0.000 C 
ATOM     30  C24 UNL A   1      40.344  28.913  30.626  1.00  0.00    +0.000 C 
ATOM     31  N4  UNL A   1      41.306  29.382  31.347  1.00  0.00    +0.000 N 
ATOM     32  C25 UNL A   1      41.148  28.815  32.607  1.00  0.00    +0.000 C 
ATOM     33  C26 UNL A   1      42.201  28.705  33.463  1.00  0.00    +0.000 C 
ATOM     45  C33 UNL A   1      43.296  29.544  33.045  1.00  0.00    +0.000 C 
ATOM     46  C34 UNL A   1      43.495  30.906  32.947  1.00  0.00    +0.000 C 
ATOM     47  C35 UNL A   1      44.277  31.085  31.766  1.00  0.00    +0.000 C 
ATOM     48  C36 UNL A   1      44.566  29.824  31.239  1.00  0.00    +0.000 C 
ATOM     49  N5  UNL A   1      44.268  28.966  32.266  1.00  0.00    +0.000 N 
ATOM     50  C37 UNL A   1      44.964  29.389  29.917  1.00  0.00    +0.000 C 
ATOM     62  C44 UNL A   1      44.894  28.103  29.460  1.00  0.00    +0.000 C 
ATOM     63  N6  UNL A   1      44.872  27.832  28.098  1.00  0.00    +0.000 N 
ATOM     64  C45 UNL A   1      44.242  26.694  27.992  1.00  0.00    +0.000 C 
ATOM     65  C46 UNL A   1      43.281  26.387  26.900  1.00  0.00    +0.000 C 
ATOM     77  C53 UNL A   1      42.237  27.235  27.067  1.00  0.00    +0.000 C 
ATOM     78  C54 UNL A   1      41.226  27.666  26.131  1.00  0.00    +0.000 C 
ATOM     79  C55 UNL A   1      40.439  28.565  26.756  1.00  0.00    +0.000 C 
ATOM     80  C56 UNL A   1      40.770  28.620  28.188  1.00  0.00    +0.000 C 
ATOM     81  N7  UNL A   1      41.916  27.870  28.284  1.00  0.00    +0.000 N 
ATOM     82  C57 UNL A   1      44.142  25.916  29.214  1.00  0.00    +0.000 C 
ATOM     83  C58 UNL A   1      44.494  26.852  30.098  1.00  0.00    +0.000 C 
ATOM     84  C59 UNL A   1      39.842  28.210  32.619  1.00  0.00    +0.000 C 
ATOM     85  C60 UNL A   1      39.344  28.144  31.382  1.00  0.00    +0.000 C 
ATOM    120  H30 UNL A   1      43.153  31.637  33.590  1.00  0.00    +0.000 H 
ATOM    121  H31 UNL A   1      44.577  31.990  31.369  1.00  0.00    +0.000 H 
ATOM    122  H32 UNL A   1      44.681  28.085  32.420  1.00  0.00    +0.000 H 
ATOM    123  H33 UNL A   1      41.124  27.343  25.157  1.00  0.00    +0.000 H 
ATOM    124  H34 UNL A   1      39.709  29.132  26.295  1.00  0.00    +0.000 H 
ATOM    125  H35 UNL A   1      42.449  27.786  29.106  1.00  0.00    +0.000 H 
ATOM    126  H36 UNL A   1      43.877  24.929  29.358  1.00  0.00    +0.000 H 
ATOM    127  H37 UNL A   1      44.484  26.708  31.119  1.00  0.00    +0.000 H 
ATOM    128  H38 UNL A   1      39.357  27.874  33.466  1.00  0.00    +0.000 H 
ENDROOT
BRANCH   29   28
ATOM    130  H40 UNL A   1      37.873  28.220  28.221  1.00  0.00    +0.000 H 
ATOM    131  H41 UNL A   1      36.214  29.559  27.053  1.00  0.00    +0.000 H 
ATOM     28  C22 UNL A   1      38.854  29.938  28.947  1.00  0.00    +0.000 C 
ATOM     86  C61 UNL A   1      37.841  29.247  28.308  1.00  0.00    +0.000 C 
ATOM     87  C62 UNL A   1      36.804  29.963  27.796  1.00  0.00    +0.000 C 
ATOM    118  H28 UNL A   1      37.310  32.880  29.374  1.00  0.00    +0.000 H 
ATOM     25  C19 UNL A   1      36.539  31.237  28.277  1.00  0.00    +0.000 C 
ATOM     26  C20 UNL A   1      37.492  31.923  29.035  1.00  0.00    +0.000 C 
ATOM     27  C21 UNL A   1      38.694  31.281  29.325  1.00  0.00    +0.000 C 
ATOM    119  H29 UNL A   1      39.455  31.783  29.808  1.00  0.00    +0.000 H 
BRANCH   25   23
ATOM     23  C18 UNL A   1      35.215  31.808  27.966  1.00  0.00    +0.000 C 
ATOM     24  O3  UNL A   1      34.321  31.103  27.546  1.00  0.00    +0.000 O 
BRANCH   23   22
ATOM    117  H27 UNL A   1      35.512  33.769  27.568  1.00  0.00    +0.000 H 
ATOM     22  N3  UNL A   1      35.026  33.167  28.177  1.00  0.00    +0.000 N 
BRANCH   22   21
ATOM    115  H25 UNL A   1      33.673  33.065  29.746  1.00  0.00    +0.000 H 
ATOM    116  H26 UNL A   1      34.838  34.397  29.820  1.00  0.00    +0.000 H 
ATOM     21  C17 UNL A   1      34.193  33.819  29.192  1.00  0.00    +0.000 C 
BRANCH   21   20
ATOM    113  H23 UNL A   1      33.481  35.010  27.594  1.00  0.00    +0.000 H 
ATOM    114  H24 UNL A   1      32.226  34.264  28.602  1.00  0.00    +0.000 H 
ATOM     20  C16 UNL A   1      33.171  34.766  28.588  1.00  0.00    +0.000 C 
BRANCH   20   19
ATOM     19  C15 UNL A   1      33.007  36.069  29.383  1.00  0.00    +0.000 C 
ATOM    111  H21 UNL A   1      33.904  36.641  29.262  1.00  0.00    +0.000 H 
ATOM    112  H22 UNL A   1      32.129  36.535  28.986  1.00  0.00    +0.000 H 
BRANCH   19   18
ATOM     18  C14 UNL A   1      32.746  35.920  30.891  1.00  0.00    +0.000 C 
ATOM    109  H19 UNL A   1      31.689  35.980  31.051  1.00  0.00    +0.000 H 
ATOM    110  H20 UNL A   1      33.168  34.980  31.175  1.00  0.00    +0.000 H 
BRANCH   18   17
ATOM     17  C13 UNL A   1      33.419  36.974  31.775  1.00  0.00    +0.000 C 
ATOM    107  H17 UNL A   1      34.084  37.551  31.167  1.00  0.00    +0.000 H 
ATOM    108  H18 UNL A   1      32.642  37.574  32.201  1.00  0.00    +0.000 H 
BRANCH   17   16
ATOM    105  H15 UNL A   1      35.242  36.658  32.840  1.00  0.00    +0.000 H 
ATOM    106  H16 UNL A   1      33.813  36.736  33.855  1.00  0.00    +0.000 H 
ATOM     16  C12 UNL A   1      34.215  36.373  32.933  1.00  0.00    +0.000 C 
BRANCH   16   15
ATOM     15  N2  UNL A   1      34.120  34.932  32.918  1.00  0.00    +0.000 N 
ATOM    104  H14 UNL A   1      33.269  34.584  32.567  1.00  0.00    +0.000 H 
BRANCH   15   13
ATOM     13  C11 UNL A   1      35.002  33.976  33.305  1.00  0.00    +0.000 C 
ATOM     14  O2  UNL A   1      35.169  33.821  34.517  1.00  0.00    +0.000 O 
BRANCH   13   12
ATOM     12  C10 UNL A   1      35.844  33.201  32.309  1.00  0.00    +0.000 C 
ATOM    102  H12 UNL A   1      35.353  33.286  31.362  1.00  0.00    +0.000 H 
ATOM    103  H13 UNL A   1      36.811  33.647  32.415  1.00  0.00    +0.000 H 
BRANCH   12   11
ATOM     11  C9  UNL A   1      36.131  31.709  32.521  1.00  0.00    +0.000 C 
ATOM    100  H10 UNL A   1      35.467  31.384  33.294  1.00  0.00    +0.000 H 
ATOM    101  H11 UNL A   1      36.012  31.317  31.532  1.00  0.00    +0.000 H 
BRANCH   11   10
ATOM     10  C8  UNL A   1      37.528  31.190  32.905  1.00  0.00    +0.000 C 
ATOM     99  H9  UNL A   1      38.072  31.287  31.989  1.00  0.00    +0.000 H 
ATOM     98  H8  UNL A   1      37.386  30.211  33.312  1.00  0.00    +0.000 H 
BRANCH   10    9
ATOM      2  C2  UNL A   1      39.860  35.376  36.701  1.00  0.00    +0.000 C 
ATOM      3  C3  UNL A   1      40.723  35.609  35.621  1.00  0.00    +0.000 C 
ATOM      4  C4  UNL A   1      40.675  34.778  34.488  1.00  0.00    +0.000 C 
ATOM      6  C6  UNL A   1      39.714  33.774  34.486  1.00  0.00    +0.000 C 
ATOM      7  C7  UNL A   1      39.299  32.858  33.399  1.00  0.00    +0.000 C 
ATOM      8  O1  UNL A   1      39.667  33.007  32.241  1.00  0.00    +0.000 O 
ATOM      9  N1  UNL A   1      38.367  31.916  33.855  1.00  0.00    +0.000 N 
ATOM     88  S1  UNL A   1      37.968  32.119  35.508  1.00  0.00    +0.000 S 
ATOM     89  C63 UNL A   1      38.959  33.575  35.624  1.00  0.00    +0.000 C 
ATOM     90  N8  UNL A   1      38.982  34.347  36.723  1.00  0.00    +0.000 N 
ATOM     94  H4  UNL A   1      41.394  36.394  35.658  1.00  0.00    +0.000 H 
BRANCH    2    1
ATOM      1  C1  UNL A   1      39.844  36.288  37.891  1.00  0.00    +0.000 C 
ATOM     91  H1  UNL A   1      39.505  37.258  37.592  1.00  0.00    +0.000 H 
ATOM     92  H2  UNL A   1      40.832  36.364  38.296  1.00  0.00    +0.000 H 
ATOM     93  H3  UNL A   1      39.184  35.892  38.635  1.00  0.00    +0.000 H 
ENDBRANCH    2    1
BRANCH    4    5
ATOM     97  H7  UNL A   1      41.234  34.542  32.468  1.00  0.00    +0.000 H 
ATOM      5  C5  UNL A   1      41.646  34.957  33.364  1.00  0.00    +0.000 C 
ATOM     95  H5  UNL A   1      42.561  34.457  33.601  1.00  0.00    +0.000 H 
ATOM     96  H6  UNL A   1      41.836  36.001  33.220  1.00  0.00    +0.000 H 
ENDBRANCH    4    5
ENDBRANCH   10    9
ENDBRANCH   11   10
ENDBRANCH   12   11
ENDBRANCH   13   12
ENDBRANCH   15   13
ENDBRANCH   16   15
ENDBRANCH   17   16
ENDBRANCH   18   17
ENDBRANCH   19   18
ENDBRANCH   20   19
ENDBRANCH   21   20
ENDBRANCH   22   21
ENDBRANCH   23   22
ENDBRANCH   25   23
ENDBRANCH   29   28
BRANCH   33   34
ATOM     34  C27 UNL A   1      42.372  27.601  34.476  1.00  0.00    +0.000 C 
ATOM     35  C28 UNL A   1      42.937  26.375  34.071  1.00  0.00    +0.000 C 
ATOM     36  F1  UNL A   1      43.520  26.253  32.870  1.00  0.00    +0.000 F 
ATOM     37  C29 UNL A   1      42.848  25.223  34.860  1.00  0.00    +0.000 C 
ATOM     38  F2  UNL A   1      43.302  24.056  34.386  1.00  0.00    +0.000 F 
ATOM     39  C30 UNL A   1      42.242  25.268  36.102  1.00  0.00    +0.000 C 
ATOM     40  F3  UNL A   1      42.111  24.156  36.837  1.00  0.00    +0.000 F 
ATOM     41  C31 UNL A   1      41.725  26.461  36.558  1.00  0.00    +0.000 C 
ATOM     42  F4  UNL A   1      41.116  26.521  37.750  1.00  0.00    +0.000 F 
ATOM     43  C32 UNL A   1      41.764  27.598  35.750  1.00  0.00    +0.000 C 
ATOM     44  F5  UNL A   1      41.091  28.653  36.222  1.00  0.00    +0.000 F 
ENDBRANCH   33   34
BRANCH   50   51
ATOM     51  C38 UNL A   1      45.274  30.469  28.910  1.00  0.00    +0.000 C 
ATOM     52  C39 UNL A   1      44.297  31.184  28.192  1.00  0.00    +0.000 C 
ATOM     53  F6  UNL A   1      42.997  30.900  28.335  1.00  0.00    +0.000 F 
ATOM     54  C40 UNL A   1      44.640  32.245  27.353  1.00  0.00    +0.000 C 
ATOM     55  F7  UNL A   1      43.688  32.902  26.674  1.00  0.00    +0.000 F 
ATOM     56  C41 UNL A   1      45.961  32.645  27.246  1.00  0.00    +0.000 C 
ATOM     57  F8  UNL A   1      46.289  33.691  26.474  1.00  0.00    +0.000 F 
ATOM     58  C42 UNL A   1      46.939  31.974  27.961  1.00  0.00    +0.000 C 
ATOM     59  F9  UNL A   1      48.214  32.385  27.897  1.00  0.00    +0.000 F 
ATOM     60  C43 UNL A   1      46.602  30.892  28.771  1.00  0.00    +0.000 C 
ATOM     61  F10 UNL A   1      47.575  30.282  29.467  1.00  0.00    +0.000 F 
ENDBRANCH   50   51
BRANCH   65   66
ATOM     66  C47 UNL A   1      43.305  25.104  26.159  1.00  0.00    +0.000 C 
ATOM     67  C48 UNL A   1      44.284  24.865  25.181  1.00  0.00    +0.000 C 
ATOM     68  F11 UNL A   1      45.040  25.874  24.724  1.00  0.00    +0.000 F 
ATOM     69  C49 UNL A   1      44.556  23.573  24.720  1.00  0.00    +0.000 C 
ATOM     70  F12 UNL A   1      45.548  23.373  23.840  1.00  0.00    +0.000 F 
ATOM     71  C50 UNL A   1      43.853  22.488  25.217  1.00  0.00    +0.000 C 
ATOM     72  F13 UNL A   1      44.165  21.243  24.832  1.00  0.00    +0.000 F 
ATOM     73  C51 UNL A   1      42.853  22.697  26.150  1.00  0.00    +0.000 C 
ATOM     74  F14 UNL A   1      42.190  21.651  26.665  1.00  0.00    +0.000 F 
ATOM     75  C52 UNL A   1      42.581  23.985  26.613  1.00  0.00    +0.000 C 
ATOM     76  F15 UNL A   1      41.668  24.107  27.586  1.00  0.00    +0.000 F 
ENDBRANCH   65   66
TORSDOF 20
ENDMDL
MODEL 9
REMARK VINA RESULT:     -10.5      1.786      3.940
ROOT
ATOM    129  H39 UNL A   1      38.706  27.178  32.066  1.00  0.00    +0.000 H 
ATOM     29  C23 UNL A   1      40.207  28.334  29.916  1.00  0.00    +0.000 C 
ATOM     30  C24 UNL A   1      40.618  28.152  31.327  1.00  0.00    +0.000 C 
ATOM     31  N4  UNL A   1      41.702  28.569  31.889  1.00  0.00    +0.000 N 
ATOM     32  C25 UNL A   1      41.637  28.133  33.209  1.00  0.00    +0.000 C 
ATOM     33  C26 UNL A   1      42.766  27.978  33.952  1.00  0.00    +0.000 C 
ATOM     45  C33 UNL A   1      43.885  28.648  33.337  1.00  0.00    +0.000 C 
ATOM     46  C34 UNL A   1      44.211  29.965  33.085  1.00  0.00    +0.000 C 
ATOM     47  C35 UNL A   1      44.861  29.952  31.815  1.00  0.00    +0.000 C 
ATOM     48  C36 UNL A   1      44.953  28.626  31.385  1.00  0.00    +0.000 C 
ATOM     49  N5  UNL A   1      44.693  27.898  32.518  1.00  0.00    +0.000 N 
ATOM     50  C37 UNL A   1      45.145  28.036  30.078  1.00  0.00    +0.000 C 
ATOM     62  C44 UNL A   1      44.889  26.732  29.759  1.00  0.00    +0.000 C 
ATOM     63  N6  UNL A   1      44.677  26.350  28.441  1.00  0.00    +0.000 N 
ATOM     64  C45 UNL A   1      43.924  25.286  28.516  1.00  0.00    +0.000 C 
ATOM     65  C46 UNL A   1      42.815  24.998  27.570  1.00  0.00    +0.000 C 
ATOM     77  C53 UNL A   1      41.891  25.970  27.766  1.00  0.00    +0.000 C 
ATOM     78  C54 UNL A   1      40.826  26.432  26.908  1.00  0.00    +0.000 C 
ATOM     79  C55 UNL A   1      40.215  27.465  27.522  1.00  0.00    +0.000 C 
ATOM     80  C56 UNL A   1      40.718  27.604  28.898  1.00  0.00    +0.000 C 
ATOM     81  N7  UNL A   1      41.784  26.740  28.942  1.00  0.00    +0.000 N 
ATOM     82  C57 UNL A   1      43.891  24.632  29.812  1.00  0.00    +0.000 C 
ATOM     83  C58 UNL A   1      44.440  25.594  30.556  1.00  0.00    +0.000 C 
ATOM     84  C59 UNL A   1      40.285  27.684  33.422  1.00  0.00    +0.000 C 
ATOM     85  C60 UNL A   1      39.640  27.570  32.259  1.00  0.00    +0.000 C 
ATOM    120  H30 UNL A   1      44.025  30.783  33.686  1.00  0.00    +0.000 H 
ATOM    121  H31 UNL A   1      45.203  30.779  31.301  1.00  0.00    +0.000 H 
ATOM    122  H32 UNL A   1      45.027  26.992  32.712  1.00  0.00    +0.000 H 
ATOM    123  H33 UNL A   1      40.576  26.040  25.987  1.00  0.00    +0.000 H 
ATOM    124  H34 UNL A   1      39.498  28.070  27.091  1.00  0.00    +0.000 H 
ATOM    125  H35 UNL A   1      42.400  26.667  29.706  1.00  0.00    +0.000 H 
ATOM    126  H36 UNL A   1      43.544  23.698  30.080  1.00  0.00    +0.000 H 
ATOM    127  H37 UNL A   1      44.536  25.540  31.582  1.00  0.00    +0.000 H 
ATOM    128  H38 UNL A   1      39.873  27.479  34.345  1.00  0.00    +0.000 H 
ENDROOT
BRANCH   29   28
ATOM    130  H40 UNL A   1      40.267  30.789  29.082  1.00  0.00    +0.000 H 
ATOM    131  H41 UNL A   1      38.529  32.417  29.566  1.00  0.00    +0.000 H 
ATOM     28  C22 UNL A   1      39.052  29.193  29.727  1.00  0.00    +0.000 C 
ATOM     86  C61 UNL A   1      39.325  30.506  29.392  1.00  0.00    +0.000 C 
ATOM     87  C62 UNL A   1      38.314  31.411  29.484  1.00  0.00    +0.000 C 
ATOM    118  H28 UNL A   1      35.705  29.314  29.692  1.00  0.00    +0.000 H 
ATOM     25  C19 UNL A   1      36.996  30.981  29.467  1.00  0.00    +0.000 C 
ATOM     26  C20 UNL A   1      36.685  29.635  29.679  1.00  0.00    +0.000 C 
ATOM     27  C21 UNL A   1      37.733  28.736  29.870  1.00  0.00    +0.000 C 
ATOM    119  H29 UNL A   1      37.541  27.751  30.113  1.00  0.00    +0.000 H 
BRANCH   25   23
ATOM     23  C18 UNL A   1      35.963  31.999  29.199  1.00  0.00    +0.000 C 
ATOM     24  O3  UNL A   1      35.704  32.850  30.024  1.00  0.00    +0.000 O 
BRANCH   23   22
ATOM    117  H27 UNL A   1      35.836  32.245  27.195  1.00  0.00    +0.000 H 
ATOM     22  N3  UNL A   1      35.309  31.956  27.975  1.00  0.00    +0.000 N 
BRANCH   22   21
ATOM    115  H25 UNL A   1      33.286  31.971  28.429  1.00  0.00    +0.000 H 
ATOM    116  H26 UNL A   1      33.687  31.859  26.708  1.00  0.00    +0.000 H 
ATOM     21  C17 UNL A   1      33.933  31.534  27.697  1.00  0.00    +0.000 C 
BRANCH   21   20
ATOM    113  H23 UNL A   1      34.116  29.672  28.687  1.00  0.00    +0.000 H 
ATOM    114  H24 UNL A   1      32.726  29.818  27.593  1.00  0.00    +0.000 H 
ATOM     20  C16 UNL A   1      33.765  30.026  27.740  1.00  0.00    +0.000 C 
BRANCH   20   19
ATOM     19  C15 UNL A   1      34.537  29.298  26.631  1.00  0.00    +0.000 C 
ATOM    111  H21 UNL A   1      35.037  30.037  26.040  1.00  0.00    +0.000 H 
ATOM    112  H22 UNL A   1      35.193  28.621  27.139  1.00  0.00    +0.000 H 
BRANCH   19   18
ATOM     18  C14 UNL A   1      33.703  28.424  25.680  1.00  0.00    +0.000 C 
ATOM    109  H19 UNL A   1      34.362  27.723  25.210  1.00  0.00    +0.000 H 
ATOM    110  H20 UNL A   1      32.949  27.963  26.283  1.00  0.00    +0.000 H 
BRANCH   18   17
ATOM     17  C13 UNL A   1      32.961  29.186  24.578  1.00  0.00    +0.000 C 
ATOM    107  H17 UNL A   1      33.444  30.130  24.435  1.00  0.00    +0.000 H 
ATOM    108  H18 UNL A   1      32.993  28.581  23.697  1.00  0.00    +0.000 H 
BRANCH   17   16
ATOM    105  H15 UNL A   1      31.257  29.001  25.853  1.00  0.00    +0.000 H 
ATOM    106  H16 UNL A   1      31.315  30.493  24.931  1.00  0.00    +0.000 H 
ATOM     16  C12 UNL A   1      31.488  29.438  24.904  1.00  0.00    +0.000 C 
BRANCH   16   15
ATOM     15  N2  UNL A   1      30.641  28.851  23.893  1.00  0.00    +0.000 N 
ATOM    104  H14 UNL A   1      29.959  29.461  23.529  1.00  0.00    +0.000 H 
BRANCH   15   13
ATOM     13  C11 UNL A   1      30.622  27.604  23.359  1.00  0.00    +0.000 C 
ATOM     14  O2  UNL A   1      30.672  27.515  22.130  1.00  0.00    +0.000 O 
BRANCH   13   12
ATOM     12  C10 UNL A   1      30.430  26.362  24.210  1.00  0.00    +0.000 C 
ATOM    102  H12 UNL A   1      31.103  26.452  25.038  1.00  0.00    +0.000 H 
ATOM    103  H13 UNL A   1      29.380  26.373  24.415  1.00  0.00    +0.000 H 
BRANCH   12   11
ATOM     11  C9  UNL A   1      30.649  24.965  23.618  1.00  0.00    +0.000 C 
ATOM    100  H10 UNL A   1      30.382  24.269  24.386  1.00  0.00    +0.000 H 
ATOM    101  H11 UNL A   1      30.061  25.007  22.725  1.00  0.00    +0.000 H 
BRANCH   11   10
ATOM     10  C8  UNL A   1      32.016  24.509  23.080  1.00  0.00    +0.000 C 
ATOM     99  H9  UNL A   1      32.487  25.435  22.824  1.00  0.00    +0.000 H 
ATOM     98  H8  UNL A   1      31.816  23.808  22.297  1.00  0.00    +0.000 H 
BRANCH   10    9
ATOM      2  C2  UNL A   1      37.066  21.943  25.379  1.00  0.00    +0.000 C 
ATOM      3  C3  UNL A   1      36.320  20.767  25.223  1.00  0.00    +0.000 C 
ATOM      4  C4  UNL A   1      34.974  20.834  24.821  1.00  0.00    +0.000 C 
ATOM      6  C6  UNL A   1      34.463  22.097  24.548  1.00  0.00    +0.000 C 
ATOM      7  C7  UNL A   1      33.164  22.488  23.954  1.00  0.00    +0.000 C 
ATOM      8  O1  UNL A   1      32.406  21.675  23.441  1.00  0.00    +0.000 O 
ATOM      9  N1  UNL A   1      33.001  23.880  23.957  1.00  0.00    +0.000 N 
ATOM     88  S1  UNL A   1      34.349  24.708  24.613  1.00  0.00    +0.000 S 
ATOM     89  C63 UNL A   1      35.250  23.202  24.800  1.00  0.00    +0.000 C 
ATOM     90  N8  UNL A   1      36.536  23.173  25.188  1.00  0.00    +0.000 N 
ATOM     94  H4  UNL A   1      36.760  19.850  25.402  1.00  0.00    +0.000 H 
BRANCH    2    1
ATOM      1  C1  UNL A   1      38.520  21.896  25.741  1.00  0.00    +0.000 C 
ATOM     91  H1  UNL A   1      38.704  22.555  26.564  1.00  0.00    +0.000 H 
ATOM     92  H2  UNL A   1      39.108  22.201  24.901  1.00  0.00    +0.000 H 
ATOM     93  H3  UNL A   1      38.786  20.897  26.019  1.00  0.00    +0.000 H 
ENDBRANCH    2    1
BRANCH    4    5
ATOM     97  H7  UNL A   1      33.405  19.605  25.512  1.00  0.00    +0.000 H 
ATOM      5  C5  UNL A   1      34.137  19.597  24.732  1.00  0.00    +0.000 C 
ATOM     95  H5  UNL A   1      34.763  18.735  24.839  1.00  0.00    +0.000 H 
ATOM     96  H6  UNL A   1      33.646  19.565  23.782  1.00  0.00    +0.000 H 
ENDBRANCH    4    5
ENDBRANCH   10    9
ENDBRANCH   11   10
ENDBRANCH   12   11
ENDBRANCH   13   12
ENDBRANCH   15   13
ENDBRANCH   16   15
ENDBRANCH   17   16
ENDBRANCH   18   17
ENDBRANCH   19   18
ENDBRANCH   20   19
ENDBRANCH   21   20
ENDBRANCH   22   21
ENDBRANCH   23   22
ENDBRANCH   25   23
ENDBRANCH   29   28
BRANCH   33   34
ATOM     34  C27 UNL A   1      42.942  26.952  35.044  1.00  0.00    +0.000 C 
ATOM     35  C28 UNL A   1      43.151  27.384  36.369  1.00  0.00    +0.000 C 
ATOM     36  F1  UNL A   1      42.978  28.670  36.706  1.00  0.00    +0.000 F 
ATOM     37  C29 UNL A   1      43.619  26.519  37.363  1.00  0.00    +0.000 C 
ATOM     38  F2  UNL A   1      43.908  26.998  38.580  1.00  0.00    +0.000 F 
ATOM     39  C30 UNL A   1      43.842  25.182  37.085  1.00  0.00    +0.000 C 
ATOM     40  F3  UNL A   1      44.337  24.364  38.021  1.00  0.00    +0.000 F 
ATOM     41  C31 UNL A   1      43.596  24.710  35.814  1.00  0.00    +0.000 C 
ATOM     42  F4  UNL A   1      43.825  23.423  35.517  1.00  0.00    +0.000 F 
ATOM     43  C32 UNL A   1      43.182  25.582  34.807  1.00  0.00    +0.000 C 
ATOM     44  F5  UNL A   1      43.133  25.050  33.580  1.00  0.00    +0.000 F 
ENDBRANCH   33   34
BRANCH   50   51
ATOM     51  C38 UNL A   1      45.443  28.984  28.941  1.00  0.00    +0.000 C 
ATOM     52  C39 UNL A   1      46.704  29.114  28.332  1.00  0.00    +0.000 C 
ATOM     53  F6  UNL A   1      47.755  28.414  28.776  1.00  0.00    +0.000 F 
ATOM     54  C40 UNL A   1      46.894  29.930  27.215  1.00  0.00    +0.000 C 
ATOM     55  F7  UNL A   1      48.111  30.042  26.662  1.00  0.00    +0.000 F 
ATOM     56  C41 UNL A   1      45.819  30.599  26.655  1.00  0.00    +0.000 C 
ATOM     57  F8  UNL A   1      45.989  31.349  25.558  1.00  0.00    +0.000 F 
ATOM     58  C42 UNL A   1      44.562  30.468  27.221  1.00  0.00    +0.000 C 
ATOM     59  F9  UNL A   1      43.509  31.077  26.657  1.00  0.00    +0.000 F 
ATOM     60  C43 UNL A   1      44.379  29.683  28.357  1.00  0.00    +0.000 C 
ATOM     61  F10 UNL A   1      43.141  29.562  28.863  1.00  0.00    +0.000 F 
ENDBRANCH   50   51
BRANCH   65   66
ATOM     66  C47 UNL A   1      42.618  23.662  26.960  1.00  0.00    +0.000 C 
ATOM     67  C48 UNL A   1      43.505  23.189  25.980  1.00  0.00    +0.000 C 
ATOM     68  F11 UNL A   1      44.378  24.026  25.402  1.00  0.00    +0.000 F 
ATOM     69  C49 UNL A   1      43.565  21.833  25.642  1.00  0.00    +0.000 C 
ATOM     70  F12 UNL A   1      44.476  21.405  24.755  1.00  0.00    +0.000 F 
ATOM     71  C50 UNL A   1      42.736  20.917  26.267  1.00  0.00    +0.000 C 
ATOM     72  F13 UNL A   1      42.846  19.608  25.998  1.00  0.00    +0.000 F 
ATOM     73  C51 UNL A   1      41.821  21.359  27.206  1.00  0.00    +0.000 C 
ATOM     74  F14 UNL A   1      41.038  20.477  27.844  1.00  0.00    +0.000 F 
ATOM     75  C52 UNL A   1      41.761  22.711  27.547  1.00  0.00    +0.000 C 
ATOM     76  F15 UNL A   1      40.920  23.058  28.531  1.00  0.00    +0.000 F 
ENDBRANCH   65   66
TORSDOF 20
ENDMDL
MODEL 10
REMARK VINA RESULT:     -10.4      5.314     11.823
ROOT
ATOM    129  H39 UNL A   1      41.306  28.873  26.012  1.00  0.00    +0.000 H 
ATOM     29  C23 UNL A   1      40.775  28.098  28.720  1.00  0.00    +0.000 C 
ATOM     30  C24 UNL A   1      41.886  28.931  28.205  1.00  0.00    +0.000 C 
ATOM     31  N4  UNL A   1      42.893  29.393  28.867  1.00  0.00    +0.000 N 
ATOM     32  C25 UNL A   1      43.642  30.128  27.954  1.00  0.00    +0.000 C 
ATOM     33  C26 UNL A   1      44.483  31.114  28.370  1.00  0.00    +0.000 C 
ATOM     45  C33 UNL A   1      44.738  31.012  29.785  1.00  0.00    +0.000 C 
ATOM     46  C34 UNL A   1      45.382  30.097  30.594  1.00  0.00    +0.000 C 
ATOM     47  C35 UNL A   1      44.605  30.043  31.790  1.00  0.00    +0.000 C 
ATOM     48  C36 UNL A   1      43.565  30.969  31.676  1.00  0.00    +0.000 C 
ATOM     49  N5  UNL A   1      43.947  31.759  30.622  1.00  0.00    +0.000 N 
ATOM     50  C37 UNL A   1      42.293  31.093  32.356  1.00  0.00    +0.000 C 
ATOM     62  C44 UNL A   1      41.241  31.848  31.919  1.00  0.00    +0.000 C 
ATOM     63  N6  UNL A   1      39.949  31.588  32.358  1.00  0.00    +0.000 N 
ATOM     64  C45 UNL A   1      39.175  32.016  31.397  1.00  0.00    +0.000 C 
ATOM     65  C46 UNL A   1      37.938  31.314  30.967  1.00  0.00    +0.000 C 
ATOM     77  C53 UNL A   1      38.338  30.125  30.453  1.00  0.00    +0.000 C 
ATOM     78  C54 UNL A   1      37.601  28.902  30.247  1.00  0.00    +0.000 C 
ATOM     79  C55 UNL A   1      38.456  27.977  29.764  1.00  0.00    +0.000 C 
ATOM     80  C56 UNL A   1      39.747  28.602  29.442  1.00  0.00    +0.000 C 
ATOM     81  N7  UNL A   1      39.636  29.865  29.968  1.00  0.00    +0.000 N 
ATOM     82  C57 UNL A   1      39.795  32.928  30.452  1.00  0.00    +0.000 C 
ATOM     83  C58 UNL A   1      41.076  32.738  30.774  1.00  0.00    +0.000 C 
ATOM     84  C59 UNL A   1      43.128  29.801  26.649  1.00  0.00    +0.000 C 
ATOM     85  C60 UNL A   1      41.968  29.149  26.753  1.00  0.00    +0.000 C 
ATOM    120  H30 UNL A   1      46.241  29.566  30.379  1.00  0.00    +0.000 H 
ATOM    121  H31 UNL A   1      44.780  29.427  32.599  1.00  0.00    +0.000 H 
ATOM    122  H32 UNL A   1      43.696  32.702  30.488  1.00  0.00    +0.000 H 
ATOM    123  H33 UNL A   1      36.596  28.760  30.435  1.00  0.00    +0.000 H 
ATOM    124  H34 UNL A   1      38.235  26.976  29.639  1.00  0.00    +0.000 H 
ATOM    125  H35 UNL A   1      40.377  30.513  30.002  1.00  0.00    +0.000 H 
ATOM    126  H36 UNL A   1      39.370  33.543  29.741  1.00  0.00    +0.000 H 
ATOM    127  H37 UNL A   1      41.864  33.172  30.268  1.00  0.00    +0.000 H 
ATOM    128  H38 UNL A   1      43.592  30.037  25.759  1.00  0.00    +0.000 H 
ENDROOT
BRANCH   29   28
ATOM    130  H40 UNL A   1      41.786  26.012  29.882  1.00  0.00    +0.000 H 
ATOM    131  H41 UNL A   1      42.468  24.006  28.690  1.00  0.00    +0.000 H 
ATOM     28  C22 UNL A   1      40.744  26.743  28.202  1.00  0.00    +0.000 C 
ATOM     86  C61 UNL A   1      41.452  25.804  28.928  1.00  0.00    +0.000 C 
ATOM     87  C62 UNL A   1      41.695  24.598  28.348  1.00  0.00    +0.000 C 
ATOM    118  H28 UNL A   1      39.504  24.750  25.812  1.00  0.00    +0.000 H 
ATOM     25  C19 UNL A   1      40.903  24.166  27.294  1.00  0.00    +0.000 C 
ATOM     26  C20 UNL A   1      40.076  25.062  26.612  1.00  0.00    +0.000 C 
ATOM     27  C21 UNL A   1      40.042  26.388  27.040  1.00  0.00    +0.000 C 
ATOM    119  H29 UNL A   1      39.511  27.097  26.510  1.00  0.00    +0.000 H 
BRANCH   25   23
ATOM     23  C18 UNL A   1      40.966  22.732  26.955  1.00  0.00    +0.000 C 
ATOM     24  O3  UNL A   1      39.965  22.129  26.629  1.00  0.00    +0.000 O 
BRANCH   23   22
ATOM    117  H27 UNL A   1      42.411  21.641  27.857  1.00  0.00    +0.000 H 
ATOM     22  N3  UNL A   1      42.202  22.102  27.012  1.00  0.00    +0.000 N 
BRANCH   22   21
ATOM    115  H25 UNL A   1      43.468  21.009  25.785  1.00  0.00    +0.000 H 
ATOM    116  H26 UNL A   1      42.852  22.522  25.102  1.00  0.00    +0.000 H 
ATOM     21  C17 UNL A   1      43.236  22.037  25.974  1.00  0.00    +0.000 C 
BRANCH   21   20
ATOM    113  H23 UNL A   1      44.384  23.147  27.364  1.00  0.00    +0.000 H 
ATOM    114  H24 UNL A   1      45.307  22.041  26.326  1.00  0.00    +0.000 H 
ATOM     20  C16 UNL A   1      44.512  22.755  26.376  1.00  0.00    +0.000 C 
BRANCH   20   19
ATOM     19  C15 UNL A   1      44.878  23.912  25.435  1.00  0.00    +0.000 C 
ATOM    111  H21 UNL A   1      45.691  24.449  25.879  1.00  0.00    +0.000 H 
ATOM    112  H22 UNL A   1      45.112  23.452  24.497  1.00  0.00    +0.000 H 
BRANCH   19   18
ATOM     18  C14 UNL A   1      43.760  24.922  25.129  1.00  0.00    +0.000 C 
ATOM    109  H19 UNL A   1      43.660  24.994  24.066  1.00  0.00    +0.000 H 
ATOM    110  H20 UNL A   1      42.883  24.552  25.616  1.00  0.00    +0.000 H 
BRANCH   18   17
ATOM     17  C13 UNL A   1      43.990  26.333  25.678  1.00  0.00    +0.000 C 
ATOM    107  H17 UNL A   1      44.171  26.992  24.855  1.00  0.00    +0.000 H 
ATOM    108  H18 UNL A   1      43.113  26.607  26.226  1.00  0.00    +0.000 H 
BRANCH   17   16
ATOM    105  H15 UNL A   1      45.742  25.517  26.586  1.00  0.00    +0.000 H 
ATOM    106  H16 UNL A   1      45.782  27.258  26.368  1.00  0.00    +0.000 H 
ATOM     16  C12 UNL A   1      45.174  26.421  26.642  1.00  0.00    +0.000 C 
BRANCH   16   15
ATOM     15  N2  UNL A   1      44.709  26.606  27.997  1.00  0.00    +0.000 N 
ATOM    104  H14 UNL A   1      43.760  26.855  28.072  1.00  0.00    +0.000 H 
BRANCH   15   13
ATOM     13  C11 UNL A   1      45.357  26.496  29.184  1.00  0.00    +0.000 C 
ATOM     14  O2  UNL A   1      46.496  26.965  29.251  1.00  0.00    +0.000 O 
BRANCH   13   12
ATOM     12  C10 UNL A   1      44.773  25.730  30.357  1.00  0.00    +0.000 C 
ATOM    102  H12 UNL A   1      43.972  25.137  29.966  1.00  0.00    +0.000 H 
ATOM    103  H13 UNL A   1      45.625  25.220  30.757  1.00  0.00    +0.000 H 
BRANCH   12   11
ATOM     11  C9  UNL A   1      44.215  26.473  31.577  1.00  0.00    +0.000 C 
ATOM    100  H10 UNL A   1      44.780  27.377  31.660  1.00  0.00    +0.000 H 
ATOM    101  H11 UNL A   1      43.172  26.529  31.345  1.00  0.00    +0.000 H 
BRANCH   11   10
ATOM     10  C8  UNL A   1      44.198  25.844  32.981  1.00  0.00    +0.000 C 
ATOM     99  H9  UNL A   1      43.154  25.690  33.155  1.00  0.00    +0.000 H 
ATOM     98  H8  UNL A   1      44.727  26.518  33.621  1.00  0.00    +0.000 H 
BRANCH   10    9
ATOM      2  C2  UNL A   1      46.005  20.584  35.519  1.00  0.00    +0.000 C 
ATOM      3  C3  UNL A   1      47.259  21.210  35.486  1.00  0.00    +0.000 C 
ATOM      4  C4  UNL A   1      47.409  22.456  34.851  1.00  0.00    +0.000 C 
ATOM      6  C6  UNL A   1      46.261  23.031  34.320  1.00  0.00    +0.000 C 
ATOM      7  C7  UNL A   1      46.052  24.382  33.749  1.00  0.00    +0.000 C 
ATOM      8  O1  UNL A   1      46.889  25.270  33.844  1.00  0.00    +0.000 O 
ATOM      9  N1  UNL A   1      44.762  24.517  33.220  1.00  0.00    +0.000 N 
ATOM     88  S1  UNL A   1      43.810  23.106  33.413  1.00  0.00    +0.000 S 
ATOM     89  C63 UNL A   1      45.086  22.308  34.335  1.00  0.00    +0.000 C 
ATOM     90  N8  UNL A   1      44.910  21.115  34.929  1.00  0.00    +0.000 N 
ATOM     94  H4  UNL A   1      48.073  20.756  35.931  1.00  0.00    +0.000 H 
BRANCH    2    1
ATOM      1  C1  UNL A   1      45.805  19.289  36.248  1.00  0.00    +0.000 C 
ATOM     91  H1  UNL A   1      46.193  19.376  37.241  1.00  0.00    +0.000 H 
ATOM     92  H2  UNL A   1      46.318  18.506  35.731  1.00  0.00    +0.000 H 
ATOM     93  H3  UNL A   1      44.759  19.063  36.291  1.00  0.00    +0.000 H 
ENDBRANCH    2    1
BRANCH    4    5
ATOM     97  H7  UNL A   1      48.656  24.157  34.846  1.00  0.00    +0.000 H 
ATOM      5  C5  UNL A   1      48.754  23.098  34.730  1.00  0.00    +0.000 C 
ATOM     95  H5  UNL A   1      49.168  22.881  33.767  1.00  0.00    +0.000 H 
ATOM     96  H6  UNL A   1      49.403  22.715  35.491  1.00  0.00    +0.000 H 
ENDBRANCH    4    5
ENDBRANCH   10    9
ENDBRANCH   11   10
ENDBRANCH   12   11
ENDBRANCH   13   12
ENDBRANCH   15   13
ENDBRANCH   16   15
ENDBRANCH   17   16
ENDBRANCH   18   17
ENDBRANCH   19   18
ENDBRANCH   20   19
ENDBRANCH   21   20
ENDBRANCH   22   21
ENDBRANCH   23   22
ENDBRANCH   25   23
ENDBRANCH   29   28
BRANCH   33   34
ATOM     34  C27 UNL A   1      44.804  32.359  27.582  1.00  0.00    +0.000 C 
ATOM     35  C28 UNL A   1      46.033  32.445  26.898  1.00  0.00    +0.000 C 
ATOM     36  F1  UNL A   1      46.815  31.364  26.756  1.00  0.00    +0.000 F 
ATOM     37  C29 UNL A   1      46.526  33.660  26.410  1.00  0.00    +0.000 C 
ATOM     38  F2  UNL A   1      47.748  33.711  25.865  1.00  0.00    +0.000 F 
ATOM     39  C30 UNL A   1      45.785  34.821  26.540  1.00  0.00    +0.000 C 
ATOM     40  F3  UNL A   1      46.275  35.993  26.119  1.00  0.00    +0.000 F 
ATOM     41  C31 UNL A   1      44.553  34.768  27.154  1.00  0.00    +0.000 C 
ATOM     42  F4  UNL A   1      43.828  35.885  27.307  1.00  0.00    +0.000 F 
ATOM     43  C32 UNL A   1      44.085  33.569  27.689  1.00  0.00    +0.000 C 
ATOM     44  F5  UNL A   1      42.957  33.667  28.404  1.00  0.00    +0.000 F 
ENDBRANCH   33   34
BRANCH   50   51
ATOM     51  C38 UNL A   1      42.044  30.154  33.511  1.00  0.00    +0.000 C 
ATOM     52  C39 UNL A   1      41.665  28.807  33.365  1.00  0.00    +0.000 C 
ATOM     53  F6  UNL A   1      41.451  28.282  32.153  1.00  0.00    +0.000 F 
ATOM     54  C40 UNL A   1      41.552  27.958  34.467  1.00  0.00    +0.000 C 
ATOM     55  F7  UNL A   1      41.179  26.681  34.299  1.00  0.00    +0.000 F 
ATOM     56  C41 UNL A   1      41.859  28.424  35.735  1.00  0.00    +0.000 C 
ATOM     57  F8  UNL A   1      41.794  27.600  36.790  1.00  0.00    +0.000 F 
ATOM     58  C42 UNL A   1      42.260  29.739  35.902  1.00  0.00    +0.000 C 
ATOM     59  F9  UNL A   1      42.602  30.183  37.119  1.00  0.00    +0.000 F 
ATOM     60  C43 UNL A   1      42.337  30.596  34.807  1.00  0.00    +0.000 C 
ATOM     61  F10 UNL A   1      42.751  31.858  35.006  1.00  0.00    +0.000 F 
ENDBRANCH   50   51
BRANCH   65   66
ATOM     66  C47 UNL A   1      36.663  32.028  30.726  1.00  0.00    +0.000 C 
ATOM     67  C48 UNL A   1      35.773  32.274  31.784  1.00  0.00    +0.000 C 
ATOM     68  F11 UNL A   1      35.937  31.650  32.959  1.00  0.00    +0.000 F 
ATOM     69  C49 UNL A   1      34.755  33.227  31.677  1.00  0.00    +0.000 C 
ATOM     70  F12 UNL A   1      33.970  33.488  32.733  1.00  0.00    +0.000 F 
ATOM     71  C50 UNL A   1      34.593  33.952  30.507  1.00  0.00    +0.000 C 
ATOM     72  F13 UNL A   1      33.666  34.917  30.431  1.00  0.00    +0.000 F 
ATOM     73  C51 UNL A   1      35.426  33.701  29.432  1.00  0.00    +0.000 C 
ATOM     74  F14 UNL A   1      35.303  34.421  28.308  1.00  0.00    +0.000 F 
ATOM     75  C52 UNL A   1      36.445  32.753  29.538  1.00  0.00    +0.000 C 
ATOM     76  F15 UNL A   1      37.277  32.627  28.494  1.00  0.00    +0.000 F 
ENDBRANCH   65   66
TORSDOF 20
ENDMDL
