MODEL 1
REMARK VINA RESULT:     -11.1      0.000      0.000
ROOT
ATOM    129  H26 UNL A   1      38.326  28.483  30.010  1.00  0.00    +0.000 H 
ATOM    130  H27 UNL A   1      38.876  26.402  28.663  1.00  0.00    +0.000 H 
ATOM    131  H28 UNL A   1      42.146  28.959  28.446  1.00  0.00    +0.000 H 
ATOM    132  H29 UNL A   1      41.088  32.806  31.510  1.00  0.00    +0.000 H 
ATOM    133  H30 UNL A   1      43.370  33.775  30.872  1.00  0.00    +0.000 H 
ATOM    134  H31 UNL A   1      45.425  25.576  25.440  1.00  0.00    +0.000 H 
ATOM    135  H32 UNL A   1      43.016  24.765  25.753  1.00  0.00    +0.000 H 
ATOM     27  C20 UNL A   1      41.465  26.426  27.469  1.00  0.00    +0.000 C 
ATOM     28  C21 UNL A   1      42.864  26.666  26.981  1.00  0.00    +0.000 C 
ATOM     29  N3  UNL A   1      43.666  27.671  27.227  1.00  0.00    +0.000 N 
ATOM     30  C22 UNL A   1      44.851  27.379  26.567  1.00  0.00    +0.000 C 
ATOM     31  C23 UNL A   1      45.970  28.135  26.469  1.00  0.00    +0.000 C 
ATOM     43  C30 UNL A   1      46.124  29.434  27.068  1.00  0.00    +0.000 C 
ATOM     44  C31 UNL A   1      47.192  30.309  26.969  1.00  0.00    +0.000 C 
ATOM     45  C32 UNL A   1      46.918  31.426  27.766  1.00  0.00    +0.000 C 
ATOM     46  C33 UNL A   1      45.659  31.269  28.323  1.00  0.00    +0.000 C 
ATOM     47  N4  UNL A   1      45.182  30.044  27.884  1.00  0.00    +0.000 N 
ATOM     48  C34 UNL A   1      44.947  32.164  29.200  1.00  0.00    +0.000 C 
ATOM     60  C41 UNL A   1      43.691  31.962  29.665  1.00  0.00    +0.000 C 
ATOM     61  N5  UNL A   1      42.832  30.898  29.424  1.00  0.00    +0.000 N 
ATOM     62  C42 UNL A   1      41.742  31.153  30.105  1.00  0.00    +0.000 C 
ATOM     63  C43 UNL A   1      40.473  30.349  30.200  1.00  0.00    +0.000 C 
ATOM     75  C50 UNL A   1      40.373  29.195  29.513  1.00  0.00    +0.000 C 
ATOM     76  C51 UNL A   1      39.219  28.303  29.524  1.00  0.00    +0.000 C 
ATOM     77  C52 UNL A   1      39.504  27.209  28.800  1.00  0.00    +0.000 C 
ATOM     78  C53 UNL A   1      40.847  27.346  28.234  1.00  0.00    +0.000 C 
ATOM     79  N6  UNL A   1      41.275  28.568  28.688  1.00  0.00    +0.000 N 
ATOM     80  C54 UNL A   1      41.795  32.403  30.876  1.00  0.00    +0.000 C 
ATOM     81  C55 UNL A   1      42.989  32.873  30.544  1.00  0.00    +0.000 C 
ATOM     82  C56 UNL A   1      44.683  26.080  25.950  1.00  0.00    +0.000 C 
ATOM     83  C57 UNL A   1      43.451  25.625  26.123  1.00  0.00    +0.000 C 
ATOM    126  H23 UNL A   1      48.044  30.163  26.405  1.00  0.00    +0.000 H 
ATOM    127  H24 UNL A   1      47.547  32.230  27.915  1.00  0.00    +0.000 H 
ATOM    128  H25 UNL A   1      44.305  29.662  28.116  1.00  0.00    +0.000 H 
ENDROOT
BRANCH   27   26
ATOM    136  H33 UNL A   1      39.320  25.995  25.940  1.00  0.00    +0.000 H 
ATOM    137  H34 UNL A   1      38.200  23.902  25.449  1.00  0.00    +0.000 H 
ATOM     84  C58 UNL A   1      39.678  25.112  26.337  1.00  0.00    +0.000 C 
ATOM     85  C59 UNL A   1      39.058  23.908  26.022  1.00  0.00    +0.000 C 
ATOM     23  C16 UNL A   1      39.602  22.706  26.484  1.00  0.00    +0.000 C 
ATOM     24  C17 UNL A   1      40.675  22.714  27.379  1.00  0.00    +0.000 C 
ATOM     25  C18 UNL A   1      41.257  23.930  27.747  1.00  0.00    +0.000 C 
ATOM     26  C19 UNL A   1      40.791  25.134  27.193  1.00  0.00    +0.000 C 
ATOM    124  H21 UNL A   1      41.035  21.829  27.765  1.00  0.00    +0.000 H 
ATOM    125  H22 UNL A   1      42.031  23.943  28.428  1.00  0.00    +0.000 H 
BRANCH   23   21
ATOM     21  C15 UNL A   1      39.060  21.412  26.021  1.00  0.00    +0.000 C 
ATOM     22  O4  UNL A   1      39.601  20.364  26.357  1.00  0.00    +0.000 O 
BRANCH   21   20
ATOM    123  H20 UNL A   1      38.140  21.461  24.237  1.00  0.00    +0.000 H 
ATOM     20  N2  UNL A   1      37.956  21.397  25.202  1.00  0.00    +0.000 N 
BRANCH   20   19
ATOM    121  H18 UNL A   1      36.119  20.459  25.070  1.00  0.00    +0.000 H 
ATOM    122  H19 UNL A   1      36.499  21.181  26.636  1.00  0.00    +0.000 H 
ATOM     19  C14 UNL A   1      36.552  21.298  25.574  1.00  0.00    +0.000 C 
BRANCH   19   18
ATOM     18  C13 UNL A   1      35.773  22.555  25.198  1.00  0.00    +0.000 C 
ATOM    119  H16 UNL A   1      34.834  22.534  25.713  1.00  0.00    +0.000 H 
ATOM    120  H17 UNL A   1      36.381  23.389  25.478  1.00  0.00    +0.000 H 
BRANCH   18   17
ATOM     17  C12 UNL A   1      35.494  22.696  23.700  1.00  0.00    +0.000 C 
ATOM    117  H14 UNL A   1      36.434  22.785  23.195  1.00  0.00    +0.000 H 
ATOM    118  H15 UNL A   1      34.940  21.826  23.416  1.00  0.00    +0.000 H 
BRANCH   17   16
ATOM    115  H12 UNL A   1      34.046  24.179  24.167  1.00  0.00    +0.000 H 
ATOM    116  H13 UNL A   1      35.307  24.666  22.995  1.00  0.00    +0.000 H 
ATOM     16  C11 UNL A   1      34.629  23.902  23.314  1.00  0.00    +0.000 C 
BRANCH   16   15
ATOM    113  H10 UNL A   1      34.198  23.155  21.362  1.00  0.00    +0.000 H 
ATOM    114  H11 UNL A   1      32.845  23.093  22.512  1.00  0.00    +0.000 H 
ATOM     15  C10 UNL A   1      33.667  23.666  22.137  1.00  0.00    +0.000 C 
BRANCH   15   14
ATOM     14  C9  UNL A   1      33.087  24.959  21.554  1.00  0.00    +0.000 C 
ATOM    111  H8  UNL A   1      33.816  25.425  20.924  1.00  0.00    +0.000 H 
ATOM    112  H9  UNL A   1      32.212  24.728  20.983  1.00  0.00    +0.000 H 
BRANCH   14   13
ATOM     13  N1  UNL A   1      32.731  25.864  22.629  1.00  0.00    +0.000 N 
ATOM    110  H7  UNL A   1      33.502  26.128  23.182  1.00  0.00    +0.000 H 
BRANCH   13   11
ATOM     11  C8  UNL A   1      31.564  26.425  23.039  1.00  0.00    +0.000 C 
ATOM     12  O3  UNL A   1      30.844  26.878  22.146  1.00  0.00    +0.000 O 
BRANCH   11   10
ATOM     10  C7  UNL A   1      31.191  26.615  24.494  1.00  0.00    +0.000 C 
BRANCH   10    9
ATOM      9  C6  UNL A   1      31.199  27.828  25.095  1.00  0.00    +0.000 C 
ATOM    109  H6  UNL A   1      30.342  28.389  24.970  1.00  0.00    +0.000 H 
BRANCH    9    8
ATOM      5  C2  UNL A   1      34.424  29.653  27.260  1.00  0.00    +0.000 C 
ATOM    102  C73 UNL A   1      33.551  27.905  25.842  1.00  0.00    +0.000 C 
ATOM      6  C3  UNL A   1      33.145  30.199  27.379  1.00  0.00    +0.000 C 
ATOM    103  C74 UNL A   1      34.628  28.492  26.515  1.00  0.00    +0.000 C 
ATOM      7  C4  UNL A   1      32.069  29.590  26.719  1.00  0.00    +0.000 C 
ATOM      8  C5  UNL A   1      32.263  28.465  25.906  1.00  0.00    +0.000 C 
ATOM    107  H4  UNL A   1      32.993  31.045  27.948  1.00  0.00    +0.000 H 
ATOM    108  H5  UNL A   1      31.119  29.976  26.834  1.00  0.00    +0.000 H 
ATOM    149  H46 UNL A   1      33.704  27.047  25.290  1.00  0.00    +0.000 H 
ATOM    150  H47 UNL A   1      35.568  28.068  26.459  1.00  0.00    +0.000 H 
BRANCH    5    2
ATOM      2  S1  UNL A   1      35.800  30.420  28.088  1.00  0.00    +0.000 S 
ATOM      3  O1  UNL A   1      36.988  30.137  27.305  1.00  0.00    +0.000 O 
ATOM      4  O2  UNL A   1      35.711  30.027  29.481  1.00  0.00    +0.000 O 
BRANCH    2    1
ATOM      1  C1  UNL A   1      35.500  32.165  27.979  1.00  0.00    +0.000 C 
ATOM    106  H3  UNL A   1      36.076  32.674  28.724  1.00  0.00    +0.000 H 
ATOM    105  H2  UNL A   1      35.781  32.516  27.008  1.00  0.00    +0.000 H 
ATOM    104  H1  UNL A   1      34.460  32.360  28.141  1.00  0.00    +0.000 H 
ENDBRANCH    2    1
ENDBRANCH    5    2
ENDBRANCH    9    8
ENDBRANCH   10    9
BRANCH   10   86
ATOM    101  C72 UNL A   1      31.750  24.225  25.100  1.00  0.00    +0.000 C 
ATOM    138  H35 UNL A   1      29.323  26.171  26.340  1.00  0.00    +0.000 H 
ATOM    139  H36 UNL A   1      28.773  24.121  27.501  1.00  0.00    +0.000 H 
ATOM    140  H37 UNL A   1      30.032  22.105  27.048  1.00  0.00    +0.000 H 
ATOM    148  H45 UNL A   1      32.598  24.272  24.512  1.00  0.00    +0.000 H 
ATOM     86  C60 UNL A   1      30.979  25.378  25.294  1.00  0.00    +0.000 C 
ATOM     87  C61 UNL A   1      29.888  25.324  26.177  1.00  0.00    +0.000 C 
ATOM     88  C62 UNL A   1      29.558  24.141  26.832  1.00  0.00    +0.000 C 
ATOM     89  C63 UNL A   1      30.293  22.987  26.580  1.00  0.00    +0.000 C 
ATOM     90  C64 UNL A   1      31.384  23.004  25.695  1.00  0.00    +0.000 C 
BRANCH   90   91
ATOM     99  C70 UNL A   1      32.533  20.035  23.641  1.00  0.00    +0.000 C 
ATOM    100  C71 UNL A   1      31.961  21.263  23.983  1.00  0.00    +0.000 C 
ATOM    141  H38 UNL A   1      32.809  21.342  27.224  1.00  0.00    +0.000 H 
ATOM    142  H39 UNL A   1      33.786  19.201  26.646  1.00  0.00    +0.000 H 
ATOM    146  H43 UNL A   1      32.465  19.680  22.675  1.00  0.00    +0.000 H 
ATOM    147  H44 UNL A   1      31.470  21.815  23.262  1.00  0.00    +0.000 H 
ATOM     91  C65 UNL A   1      32.046  21.755  25.294  1.00  0.00    +0.000 C 
ATOM     92  C66 UNL A   1      32.729  20.988  26.258  1.00  0.00    +0.000 C 
ATOM     93  C67 UNL A   1      33.298  19.759  25.929  1.00  0.00    +0.000 C 
ATOM     94  C68 UNL A   1      33.198  19.293  24.618  1.00  0.00    +0.000 C 
BRANCH   94   95
ATOM     97  O5  UNL A   1      33.330  17.321  22.942  1.00  0.00    +0.000 O 
ATOM     98  O6  UNL A   1      35.313  17.767  24.442  1.00  0.00    +0.000 O 
ATOM     95  S2  UNL A   1      33.879  17.699  24.228  1.00  0.00    +0.000 S 
BRANCH   95   96
ATOM    145  H42 UNL A   1      33.839  16.622  26.325  1.00  0.00    +0.000 H 
ATOM    144  H41 UNL A   1      32.229  16.997  25.758  1.00  0.00    +0.000 H 
ATOM    143  H40 UNL A   1      33.102  15.643  25.079  1.00  0.00    +0.000 H 
ATOM     96  C69 UNL A   1      33.194  16.635  25.471  1.00  0.00    +0.000 C 
ENDBRANCH   95   96
ENDBRANCH   94   95
ENDBRANCH   90   91
ENDBRANCH   10   86
ENDBRANCH   11   10
ENDBRANCH   13   11
ENDBRANCH   14   13
ENDBRANCH   15   14
ENDBRANCH   16   15
ENDBRANCH   17   16
ENDBRANCH   18   17
ENDBRANCH   19   18
ENDBRANCH   20   19
ENDBRANCH   21   20
ENDBRANCH   23   21
ENDBRANCH   27   26
BRANCH   31   32
ATOM     33  C25 UNL A   1      47.244  27.793  24.303  1.00  0.00    +0.000 C 
ATOM     34  F1  UNL A   1      46.298  28.475  23.641  1.00  0.00    +0.000 F 
ATOM     35  C26 UNL A   1      48.322  27.277  23.590  1.00  0.00    +0.000 C 
ATOM     36  F2  UNL A   1      48.394  27.458  22.264  1.00  0.00    +0.000 F 
ATOM     37  C27 UNL A   1      49.315  26.566  24.246  1.00  0.00    +0.000 C 
ATOM     38  F3  UNL A   1      50.356  26.076  23.559  1.00  0.00    +0.000 F 
ATOM     39  C28 UNL A   1      49.225  26.356  25.614  1.00  0.00    +0.000 C 
ATOM     40  F4  UNL A   1      50.190  25.680  26.251  1.00  0.00    +0.000 F 
ATOM     41  C29 UNL A   1      48.133  26.846  26.326  1.00  0.00    +0.000 C 
ATOM     42  F5  UNL A   1      48.068  26.614  27.646  1.00  0.00    +0.000 F 
ATOM     32  C24 UNL A   1      47.120  27.575  25.684  1.00  0.00    +0.000 C 
ENDBRANCH   31   32
BRANCH   48   49
ATOM     49  C35 UNL A   1      45.641  33.427  29.616  1.00  0.00    +0.000 C 
ATOM     50  C36 UNL A   1      46.466  33.468  30.750  1.00  0.00    +0.000 C 
ATOM     51  F6  UNL A   1      46.594  32.386  31.531  1.00  0.00    +0.000 F 
ATOM     52  C37 UNL A   1      47.137  34.636  31.102  1.00  0.00    +0.000 C 
ATOM     53  F7  UNL A   1      47.890  34.665  32.210  1.00  0.00    +0.000 F 
ATOM     54  C38 UNL A   1      47.022  35.771  30.313  1.00  0.00    +0.000 C 
ATOM     55  F8  UNL A   1      47.680  36.890  30.647  1.00  0.00    +0.000 F 
ATOM     56  C39 UNL A   1      46.220  35.748  29.182  1.00  0.00    +0.000 C 
ATOM     57  F9  UNL A   1      46.118  36.840  28.412  1.00  0.00    +0.000 F 
ATOM     58  C40 UNL A   1      45.525  34.592  28.843  1.00  0.00    +0.000 C 
ATOM     59  F10 UNL A   1      44.753  34.601  27.746  1.00  0.00    +0.000 F 
ENDBRANCH   48   49
BRANCH   63   64
ATOM     65  C45 UNL A   1      39.135  30.318  32.323  1.00  0.00    +0.000 C 
ATOM     66  F11 UNL A   1      39.966  29.386  32.814  1.00  0.00    +0.000 F 
ATOM     67  C46 UNL A   1      38.062  30.743  33.103  1.00  0.00    +0.000 C 
ATOM     68  F12 UNL A   1      37.872  30.218  34.321  1.00  0.00    +0.000 F 
ATOM     69  C47 UNL A   1      37.183  31.699  32.616  1.00  0.00    +0.000 C 
ATOM     70  F13 UNL A   1      36.155  32.113  33.368  1.00  0.00    +0.000 F 
ATOM     71  C48 UNL A   1      37.369  32.221  31.344  1.00  0.00    +0.000 C 
ATOM     72  F14 UNL A   1      36.532  33.156  30.876  1.00  0.00    +0.000 F 
ATOM     73  C49 UNL A   1      38.426  31.777  30.554  1.00  0.00    +0.000 C 
ATOM     74  F15 UNL A   1      38.576  32.292  29.324  1.00  0.00    +0.000 F 
ATOM     64  C44 UNL A   1      39.334  30.820  31.029  1.00  0.00    +0.000 C 
ENDBRANCH   63   64
TORSDOF 23
ENDMDL
MODEL 2
REMARK VINA RESULT:     -11.1      1.844      2.699
ROOT
ATOM    129  H26 UNL A   1      38.209  28.207  29.900  1.00  0.00    +0.000 H 
ATOM    130  H27 UNL A   1      38.971  26.109  28.688  1.00  0.00    +0.000 H 
ATOM    131  H28 UNL A   1      42.052  28.893  28.476  1.00  0.00    +0.000 H 
ATOM    132  H29 UNL A   1      40.574  32.795  31.287  1.00  0.00    +0.000 H 
ATOM    133  H30 UNL A   1      42.806  33.901  30.696  1.00  0.00    +0.000 H 
ATOM    134  H31 UNL A   1      45.706  25.623  25.795  1.00  0.00    +0.000 H 
ATOM    135  H32 UNL A   1      43.351  24.649  26.048  1.00  0.00    +0.000 H 
ATOM     27  C20 UNL A   1      41.605  26.270  27.606  1.00  0.00    +0.000 C 
ATOM     28  C21 UNL A   1      43.004  26.591  27.166  1.00  0.00    +0.000 C 
ATOM     29  N3  UNL A   1      43.718  27.665  27.393  1.00  0.00    +0.000 N 
ATOM     30  C22 UNL A   1      44.950  27.431  26.800  1.00  0.00    +0.000 C 
ATOM     31  C23 UNL A   1      46.014  28.264  26.710  1.00  0.00    +0.000 C 
ATOM     43  C30 UNL A   1      46.045  29.599  27.246  1.00  0.00    +0.000 C 
ATOM     44  C31 UNL A   1      47.049  30.546  27.147  1.00  0.00    +0.000 C 
ATOM     45  C32 UNL A   1      46.657  31.676  27.872  1.00  0.00    +0.000 C 
ATOM     46  C33 UNL A   1      45.388  31.452  28.382  1.00  0.00    +0.000 C 
ATOM     47  N4  UNL A   1      45.024  30.174  27.988  1.00  0.00    +0.000 N 
ATOM     48  C34 UNL A   1      44.573  32.333  29.180  1.00  0.00    +0.000 C 
ATOM     60  C41 UNL A   1      43.315  32.060  29.601  1.00  0.00    +0.000 C 
ATOM     61  N5  UNL A   1      42.548  30.924  29.379  1.00  0.00    +0.000 N 
ATOM     62  C42 UNL A   1      41.412  31.129  29.999  1.00  0.00    +0.000 C 
ATOM     63  C43 UNL A   1      40.203  30.238  30.082  1.00  0.00    +0.000 C 
ATOM     75  C50 UNL A   1      40.219  29.046  29.454  1.00  0.00    +0.000 C 
ATOM     76  C51 UNL A   1      39.134  28.071  29.462  1.00  0.00    +0.000 C 
ATOM     77  C52 UNL A   1      39.532  26.968  28.809  1.00  0.00    +0.000 C 
ATOM     78  C53 UNL A   1      40.886  27.178  28.295  1.00  0.00    +0.000 C 
ATOM     79  N6  UNL A   1      41.202  28.449  28.702  1.00  0.00    +0.000 N 
ATOM     80  C54 UNL A   1      41.337  32.415  30.705  1.00  0.00    +0.000 C 
ATOM     81  C55 UNL A   1      42.508  32.958  30.400  1.00  0.00    +0.000 C 
ATOM     82  C56 UNL A   1      44.906  26.094  26.245  1.00  0.00    +0.000 C 
ATOM     83  C57 UNL A   1      43.704  25.557  26.390  1.00  0.00    +0.000 C 
ATOM    126  H23 UNL A   1      47.934  30.436  26.628  1.00  0.00    +0.000 H 
ATOM    127  H24 UNL A   1      47.218  32.532  28.005  1.00  0.00    +0.000 H 
ATOM    128  H25 UNL A   1      44.167  29.740  28.203  1.00  0.00    +0.000 H 
ENDROOT
BRANCH   27   26
ATOM    136  H33 UNL A   1      39.575  25.603  26.005  1.00  0.00    +0.000 H 
ATOM    137  H34 UNL A   1      38.636  23.410  25.577  1.00  0.00    +0.000 H 
ATOM     84  C58 UNL A   1      39.977  24.771  26.466  1.00  0.00    +0.000 C 
ATOM     85  C59 UNL A   1      39.462  23.509  26.189  1.00  0.00    +0.000 C 
ATOM     23  C16 UNL A   1      40.067  22.376  26.740  1.00  0.00    +0.000 C 
ATOM     24  C17 UNL A   1      41.091  22.510  27.682  1.00  0.00    +0.000 C 
ATOM     25  C18 UNL A   1      41.564  23.783  28.009  1.00  0.00    +0.000 C 
ATOM     26  C19 UNL A   1      41.041  24.919  27.370  1.00  0.00    +0.000 C 
ATOM    124  H21 UNL A   1      41.494  21.675  28.131  1.00  0.00    +0.000 H 
ATOM    125  H22 UNL A   1      42.300  23.889  28.724  1.00  0.00    +0.000 H 
BRANCH   23   21
ATOM     21  C15 UNL A   1      39.644  21.023  26.323  1.00  0.00    +0.000 C 
ATOM     22  O4  UNL A   1      40.138  20.035  26.854  1.00  0.00    +0.000 O 
BRANCH   21   20
ATOM    123  H20 UNL A   1      38.730  21.570  24.621  1.00  0.00    +0.000 H 
ATOM     20  N2  UNL A   1      38.705  20.886  25.329  1.00  0.00    +0.000 N 
BRANCH   20   19
ATOM    121  H18 UNL A   1      37.931  19.235  24.356  1.00  0.00    +0.000 H 
ATOM    122  H19 UNL A   1      37.639  19.304  26.096  1.00  0.00    +0.000 H 
ATOM     19  C14 UNL A   1      37.679  19.863  25.185  1.00  0.00    +0.000 C 
BRANCH   19   18
ATOM     18  C13 UNL A   1      36.300  20.470  24.942  1.00  0.00    +0.000 C 
ATOM    119  H16 UNL A   1      36.247  20.782  23.919  1.00  0.00    +0.000 H 
ATOM    120  H17 UNL A   1      35.584  19.711  25.182  1.00  0.00    +0.000 H 
BRANCH   18   17
ATOM     17  C12 UNL A   1      35.979  21.675  25.829  1.00  0.00    +0.000 C 
ATOM    117  H14 UNL A   1      34.976  21.565  26.187  1.00  0.00    +0.000 H 
ATOM    118  H15 UNL A   1      36.711  21.675  26.609  1.00  0.00    +0.000 H 
BRANCH   17   16
ATOM    115  H12 UNL A   1      35.201  23.593  25.349  1.00  0.00    +0.000 H 
ATOM    116  H13 UNL A   1      36.980  23.494  25.513  1.00  0.00    +0.000 H 
ATOM     16  C11 UNL A   1      36.090  23.037  25.134  1.00  0.00    +0.000 C 
BRANCH   16   15
ATOM    113  H10 UNL A   1      37.092  23.589  23.333  1.00  0.00    +0.000 H 
ATOM    114  H11 UNL A   1      36.402  21.951  23.343  1.00  0.00    +0.000 H 
ATOM     15  C10 UNL A   1      36.257  22.979  23.606  1.00  0.00    +0.000 C 
BRANCH   15   14
ATOM     14  C9  UNL A   1      35.026  23.471  22.837  1.00  0.00    +0.000 C 
ATOM    111  H8  UNL A   1      35.288  23.634  21.812  1.00  0.00    +0.000 H 
ATOM    112  H9  UNL A   1      34.254  22.734  22.898  1.00  0.00    +0.000 H 
BRANCH   14   13
ATOM     13  N1  UNL A   1      34.552  24.712  23.416  1.00  0.00    +0.000 N 
ATOM    110  H7  UNL A   1      35.200  25.123  24.032  1.00  0.00    +0.000 H 
BRANCH   13   11
ATOM     11  C8  UNL A   1      33.406  25.430  23.291  1.00  0.00    +0.000 C 
ATOM     12  O3  UNL A   1      33.222  25.958  22.191  1.00  0.00    +0.000 O 
BRANCH   11   10
ATOM     10  C7  UNL A   1      32.455  25.696  24.438  1.00  0.00    +0.000 C 
BRANCH   10    9
ATOM      9  C6  UNL A   1      32.196  26.944  24.896  1.00  0.00    +0.000 C 
ATOM    109  H6  UNL A   1      32.711  27.219  25.746  1.00  0.00    +0.000 H 
BRANCH    9    8
ATOM      5  C2  UNL A   1      29.360  29.764  23.339  1.00  0.00    +0.000 C 
ATOM    102  C73 UNL A   1      30.315  27.548  23.414  1.00  0.00    +0.000 C 
ATOM      6  C3  UNL A   1      30.335  30.217  24.228  1.00  0.00    +0.000 C 
ATOM    103  C74 UNL A   1      29.361  28.437  22.909  1.00  0.00    +0.000 C 
ATOM      7  C4  UNL A   1      31.301  29.324  24.711  1.00  0.00    +0.000 C 
ATOM      8  C5  UNL A   1      31.277  27.971  24.348  1.00  0.00    +0.000 C 
ATOM    107  H4  UNL A   1      30.346  31.204  24.528  1.00  0.00    +0.000 H 
ATOM    108  H5  UNL A   1      32.040  29.668  25.343  1.00  0.00    +0.000 H 
ATOM    149  H46 UNL A   1      30.314  26.567  23.096  1.00  0.00    +0.000 H 
ATOM    150  H47 UNL A   1      28.661  28.113  22.222  1.00  0.00    +0.000 H 
BRANCH    5    2
ATOM      2  S1  UNL A   1      28.125  30.888  22.723  1.00  0.00    +0.000 S 
ATOM      3  O1  UNL A   1      27.288  31.267  23.846  1.00  0.00    +0.000 O 
ATOM      4  O2  UNL A   1      27.556  30.266  21.543  1.00  0.00    +0.000 O 
BRANCH    2    1
ATOM      1  C1  UNL A   1      29.017  32.336  22.218  1.00  0.00    +0.000 C 
ATOM    106  H3  UNL A   1      28.793  32.554  21.195  1.00  0.00    +0.000 H 
ATOM    105  H2  UNL A   1      28.730  33.164  22.832  1.00  0.00    +0.000 H 
ATOM    104  H1  UNL A   1      30.068  32.162  22.322  1.00  0.00    +0.000 H 
ENDBRANCH    2    1
ENDBRANCH    5    2
ENDBRANCH    9    8
ENDBRANCH   10    9
BRANCH   10   86
ATOM    101  C72 UNL A   1      32.530  23.241  25.037  1.00  0.00    +0.000 C 
ATOM    138  H35 UNL A   1      30.311  25.551  26.013  1.00  0.00    +0.000 H 
ATOM    139  H36 UNL A   1      29.284  23.610  27.028  1.00  0.00    +0.000 H 
ATOM    140  H37 UNL A   1      30.247  21.417  26.679  1.00  0.00    +0.000 H 
ATOM    148  H45 UNL A   1      33.445  23.152  24.565  1.00  0.00    +0.000 H 
ATOM     86  C60 UNL A   1      31.939  24.505  25.165  1.00  0.00    +0.000 C 
ATOM     87  C61 UNL A   1      30.746  24.623  25.897  1.00  0.00    +0.000 C 
ATOM     88  C62 UNL A   1      30.144  23.505  26.467  1.00  0.00    +0.000 C 
ATOM     89  C63 UNL A   1      30.707  22.248  26.276  1.00  0.00    +0.000 C 
ATOM     90  C64 UNL A   1      31.895  22.092  25.541  1.00  0.00    +0.000 C 
BRANCH   90   91
ATOM     99  C70 UNL A   1      32.808  18.994  23.561  1.00  0.00    +0.000 C 
ATOM    100  C71 UNL A   1      32.403  20.296  23.865  1.00  0.00    +0.000 C 
ATOM    141  H38 UNL A   1      32.812  20.202  27.189  1.00  0.00    +0.000 H 
ATOM    142  H39 UNL A   1      33.495  17.934  26.676  1.00  0.00    +0.000 H 
ATOM    146  H43 UNL A   1      32.812  18.664  22.584  1.00  0.00    +0.000 H 
ATOM    147  H44 UNL A   1      32.109  20.929  23.104  1.00  0.00    +0.000 H 
ATOM     91  C65 UNL A   1      32.392  20.755  25.191  1.00  0.00    +0.000 C 
ATOM     92  C66 UNL A   1      32.805  19.875  26.210  1.00  0.00    +0.000 C 
ATOM     93  C67 UNL A   1      33.204  18.573  25.919  1.00  0.00    +0.000 C 
ATOM     94  C68 UNL A   1      33.206  18.142  24.593  1.00  0.00    +0.000 C 
BRANCH   94   95
ATOM     97  O5  UNL A   1      32.588  15.630  24.745  1.00  0.00    +0.000 O 
ATOM     98  O6  UNL A   1      34.079  16.396  22.856  1.00  0.00    +0.000 O 
ATOM     95  S2  UNL A   1      33.664  16.462  24.245  1.00  0.00    +0.000 S 
BRANCH   95   96
ATOM    145  H42 UNL A   1      35.434  15.189  25.142  1.00  0.00    +0.000 H 
ATOM    144  H41 UNL A   1      35.876  16.869  24.949  1.00  0.00    +0.000 H 
ATOM    143  H40 UNL A   1      34.852  16.381  26.279  1.00  0.00    +0.000 H 
ATOM     96  C69 UNL A   1      35.098  16.199  25.254  1.00  0.00    +0.000 C 
ENDBRANCH   95   96
ENDBRANCH   94   95
ENDBRANCH   90   91
ENDBRANCH   10   86
ENDBRANCH   11   10
ENDBRANCH   13   11
ENDBRANCH   14   13
ENDBRANCH   15   14
ENDBRANCH   16   15
ENDBRANCH   17   16
ENDBRANCH   18   17
ENDBRANCH   19   18
ENDBRANCH   20   19
ENDBRANCH   21   20
ENDBRANCH   23   21
ENDBRANCH   27   26
BRANCH   31   32
ATOM     33  C25 UNL A   1      47.350  27.792  24.608  1.00  0.00    +0.000 C 
ATOM     34  F1  UNL A   1      46.332  28.247  23.861  1.00  0.00    +0.000 F 
ATOM     35  C26 UNL A   1      48.495  27.327  23.967  1.00  0.00    +0.000 C 
ATOM     36  F2  UNL A   1      48.561  27.329  22.629  1.00  0.00    +0.000 F 
ATOM     37  C27 UNL A   1      49.562  26.848  24.712  1.00  0.00    +0.000 C 
ATOM     38  F3  UNL A   1      50.667  26.407  24.094  1.00  0.00    +0.000 F 
ATOM     39  C28 UNL A   1      49.483  26.821  26.096  1.00  0.00    +0.000 C 
ATOM     40  F4  UNL A   1      50.519  26.371  26.817  1.00  0.00    +0.000 F 
ATOM     41  C29 UNL A   1      48.327  27.259  26.738  1.00  0.00    +0.000 C 
ATOM     42  F5  UNL A   1      48.275  27.206  28.078  1.00  0.00    +0.000 F 
ATOM     32  C24 UNL A   1      47.237  27.754  26.006  1.00  0.00    +0.000 C 
ENDBRANCH   31   32
BRANCH   48   49
ATOM     49  C35 UNL A   1      45.152  33.664  29.558  1.00  0.00    +0.000 C 
ATOM     50  C36 UNL A   1      44.950  34.803  28.765  1.00  0.00    +0.000 C 
ATOM     51  F6  UNL A   1      44.286  34.707  27.604  1.00  0.00    +0.000 F 
ATOM     52  C37 UNL A   1      45.458  36.040  29.150  1.00  0.00    +0.000 C 
ATOM     53  F7  UNL A   1      45.285  37.108  28.358  1.00  0.00    +0.000 F 
ATOM     54  C38 UNL A   1      46.148  36.169  30.345  1.00  0.00    +0.000 C 
ATOM     55  F8  UNL A   1      46.625  37.365  30.719  1.00  0.00    +0.000 F 
ATOM     56  C39 UNL A   1      46.351  35.058  31.150  1.00  0.00    +0.000 C 
ATOM     57  F9  UNL A   1      47.007  35.183  32.312  1.00  0.00    +0.000 F 
ATOM     58  C40 UNL A   1      45.869  33.814  30.755  1.00  0.00    +0.000 C 
ATOM     59  F10 UNL A   1      46.085  32.756  31.551  1.00  0.00    +0.000 F 
ENDBRANCH   48   49
BRANCH   63   64
ATOM     65  C45 UNL A   1      38.885  30.411  32.212  1.00  0.00    +0.000 C 
ATOM     66  F11 UNL A   1      39.869  29.763  32.854  1.00  0.00    +0.000 F 
ATOM     67  C46 UNL A   1      37.750  30.792  32.925  1.00  0.00    +0.000 C 
ATOM     68  F12 UNL A   1      37.654  30.505  34.229  1.00  0.00    +0.000 F 
ATOM     69  C47 UNL A   1      36.715  31.455  32.283  1.00  0.00    +0.000 C 
ATOM     70  F13 UNL A   1      35.627  31.828  32.969  1.00  0.00    +0.000 F 
ATOM     71  C48 UNL A   1      36.808  31.727  30.926  1.00  0.00    +0.000 C 
ATOM     72  F14 UNL A   1      35.818  32.382  30.305  1.00  0.00    +0.000 F 
ATOM     73  C49 UNL A   1      37.930  31.322  30.207  1.00  0.00    +0.000 C 
ATOM     74  F15 UNL A   1      37.989  31.589  28.894  1.00  0.00    +0.000 F 
ATOM     64  C44 UNL A   1      38.995  30.661  30.837  1.00  0.00    +0.000 C 
ENDBRANCH   63   64
TORSDOF 23
ENDMDL
MODEL 3
REMARK VINA RESULT:     -10.8     37.312     42.875
ROOT
ATOM    129  H26 UNL A   1      16.754  56.901   2.058  1.00  0.00    +0.000 H 
ATOM    130  H27 UNL A   1      15.114  56.745   3.991  1.00  0.00    +0.000 H 
ATOM    131  H28 UNL A   1      15.232  53.035   2.120  1.00  0.00    +0.000 H 
ATOM    132  H29 UNL A   1      18.831  53.374  -1.379  1.00  0.00    +0.000 H 
ATOM    133  H30 UNL A   1      18.314  50.936  -1.963  1.00  0.00    +0.000 H 
ATOM    134  H31 UNL A   1      11.733  50.428   5.612  1.00  0.00    +0.000 H 
ATOM    135  H32 UNL A   1      11.952  52.954   5.972  1.00  0.00    +0.000 H 
ATOM     27  C20 UNL A   1      13.907  54.180   4.303  1.00  0.00    +0.000 C 
ATOM     28  C21 UNL A   1      13.443  52.753   4.274  1.00  0.00    +0.000 C 
ATOM     29  N3  UNL A   1      13.823  51.775   3.492  1.00  0.00    +0.000 N 
ATOM     30  C22 UNL A   1      13.114  50.658   3.913  1.00  0.00    +0.000 C 
ATOM     31  C23 UNL A   1      13.114  49.411   3.384  1.00  0.00    +0.000 C 
ATOM     43  C30 UNL A   1      13.893  49.017   2.240  1.00  0.00    +0.000 C 
ATOM     44  C31 UNL A   1      13.909  47.797   1.587  1.00  0.00    +0.000 C 
ATOM     45  C32 UNL A   1      14.863  47.862   0.565  1.00  0.00    +0.000 C 
ATOM     46  C33 UNL A   1      15.405  49.137   0.550  1.00  0.00    +0.000 C 
ATOM     47  N4  UNL A   1      14.799  49.836   1.582  1.00  0.00    +0.000 N 
ATOM     48  C34 UNL A   1      16.410  49.675  -0.331  1.00  0.00    +0.000 C 
ATOM     60  C41 UNL A   1      16.854  50.955  -0.315  1.00  0.00    +0.000 C 
ATOM     61  N5  UNL A   1      16.472  52.000   0.514  1.00  0.00    +0.000 N 
ATOM     62  C42 UNL A   1      17.194  53.032   0.151  1.00  0.00    +0.000 C 
ATOM     63  C43 UNL A   1      17.187  54.434   0.696  1.00  0.00    +0.000 C 
ATOM     75  C50 UNL A   1      16.342  54.746   1.697  1.00  0.00    +0.000 C 
ATOM     76  C51 UNL A   1      16.236  56.053   2.338  1.00  0.00    +0.000 C 
ATOM     77  C52 UNL A   1      15.359  55.974   3.351  1.00  0.00    +0.000 C 
ATOM     78  C53 UNL A   1      14.804  54.621   3.400  1.00  0.00    +0.000 C 
ATOM     79  N6  UNL A   1      15.425  53.970   2.363  1.00  0.00    +0.000 N 
ATOM     80  C54 UNL A   1      18.138  52.749  -0.940  1.00  0.00    +0.000 C 
ATOM     81  C55 UNL A   1      17.864  51.479  -1.210  1.00  0.00    +0.000 C 
ATOM     82  C56 UNL A   1      12.318  51.066   5.050  1.00  0.00    +0.000 C 
ATOM     83  C57 UNL A   1      12.438  52.367   5.275  1.00  0.00    +0.000 C 
ATOM    126  H23 UNL A   1      13.321  46.981   1.815  1.00  0.00    +0.000 H 
ATOM    127  H24 UNL A   1      15.119  47.090  -0.071  1.00  0.00    +0.000 H 
ATOM    128  H25 UNL A   1      14.983  50.775   1.813  1.00  0.00    +0.000 H 
ENDROOT
BRANCH   27   26
ATOM    136  H33 UNL A   1      11.595  55.505   4.466  1.00  0.00    +0.000 H 
ATOM    137  H34 UNL A   1      10.810  56.982   6.220  1.00  0.00    +0.000 H 
ATOM     84  C58 UNL A   1      12.184  55.679   5.295  1.00  0.00    +0.000 C 
ATOM     85  C59 UNL A   1      11.715  56.495   6.319  1.00  0.00    +0.000 C 
ATOM     23  C16 UNL A   1      12.473  56.653   7.482  1.00  0.00    +0.000 C 
ATOM     24  C17 UNL A   1      13.761  56.118   7.564  1.00  0.00    +0.000 C 
ATOM     25  C18 UNL A   1      14.258  55.351   6.507  1.00  0.00    +0.000 C 
ATOM     26  C19 UNL A   1      13.455  55.089   5.385  1.00  0.00    +0.000 C 
ATOM    124  H21 UNL A   1      14.342  56.287   8.399  1.00  0.00    +0.000 H 
ATOM    125  H22 UNL A   1      15.218  54.977   6.551  1.00  0.00    +0.000 H 
BRANCH   23   21
ATOM     21  C15 UNL A   1      11.918  57.375   8.647  1.00  0.00    +0.000 C 
ATOM     22  O4  UNL A   1      11.807  58.596   8.616  1.00  0.00    +0.000 O 
BRANCH   21   20
ATOM    123  H20 UNL A   1      11.708  57.110  10.626  1.00  0.00    +0.000 H 
ATOM     20  N2  UNL A   1      11.542  56.667   9.762  1.00  0.00    +0.000 N 
BRANCH   20   19
ATOM    121  H18 UNL A   1      10.129  55.377  10.545  1.00  0.00    +0.000 H 
ATOM    122  H19 UNL A   1      10.574  55.094   8.860  1.00  0.00    +0.000 H 
ATOM     19  C14 UNL A   1      10.930  55.348   9.836  1.00  0.00    +0.000 C 
BRANCH   19   18
ATOM     18  C13 UNL A   1      11.931  54.278  10.267  1.00  0.00    +0.000 C 
ATOM    119  H16 UNL A   1      12.869  54.756  10.460  1.00  0.00    +0.000 H 
ATOM    120  H17 UNL A   1      11.520  53.805  11.134  1.00  0.00    +0.000 H 
BRANCH   18   17
ATOM     17  C12 UNL A   1      12.157  53.177   9.229  1.00  0.00    +0.000 C 
ATOM    117  H14 UNL A   1      11.613  52.310   9.541  1.00  0.00    +0.000 H 
ATOM    118  H15 UNL A   1      11.822  53.574   8.294  1.00  0.00    +0.000 H 
BRANCH   17   16
ATOM    115  H12 UNL A   1      14.128  53.586   8.548  1.00  0.00    +0.000 H 
ATOM    116  H13 UNL A   1      14.007  52.543   9.997  1.00  0.00    +0.000 H 
ATOM     16  C11 UNL A   1      13.622  52.772   9.025  1.00  0.00    +0.000 C 
BRANCH   16   15
ATOM    113  H10 UNL A   1      13.676  50.652   8.788  1.00  0.00    +0.000 H 
ATOM    114  H11 UNL A   1      13.150  51.561   7.354  1.00  0.00    +0.000 H 
ATOM     15  C10 UNL A   1      13.839  51.511   8.172  1.00  0.00    +0.000 C 
BRANCH   15   14
ATOM     14  C9  UNL A   1      15.245  51.415   7.570  1.00  0.00    +0.000 C 
ATOM    111  H8  UNL A   1      15.359  52.161   6.812  1.00  0.00    +0.000 H 
ATOM    112  H9  UNL A   1      15.971  51.571   8.340  1.00  0.00    +0.000 H 
BRANCH   14   13
ATOM     13  N1  UNL A   1      15.439  50.102   6.987  1.00  0.00    +0.000 N 
ATOM    110  H7  UNL A   1      15.231  50.072   6.026  1.00  0.00    +0.000 H 
BRANCH   13   11
ATOM     11  C8  UNL A   1      15.847  48.905   7.481  1.00  0.00    +0.000 C 
ATOM     12  O3  UNL A   1      16.472  48.187   6.697  1.00  0.00    +0.000 O 
BRANCH   11   10
ATOM     10  C7  UNL A   1      15.472  48.394   8.856  1.00  0.00    +0.000 C 
BRANCH   10    9
ATOM      9  C6  UNL A   1      14.657  47.328   9.040  1.00  0.00    +0.000 C 
ATOM    109  H6  UNL A   1      15.135  46.428   9.200  1.00  0.00    +0.000 H 
BRANCH    9    8
ATOM      5  C2  UNL A   1      10.371  47.259   8.831  1.00  0.00    +0.000 C 
ATOM    102  C73 UNL A   1      12.482  48.401   8.575  1.00  0.00    +0.000 C 
ATOM      6  C3  UNL A   1      11.034  46.143   9.343  1.00  0.00    +0.000 C 
ATOM    103  C74 UNL A   1      11.087  48.400   8.470  1.00  0.00    +0.000 C 
ATOM      7  C4  UNL A   1      12.430  46.163   9.465  1.00  0.00    +0.000 C 
ATOM      8  C5  UNL A   1      13.176  47.271   9.041  1.00  0.00    +0.000 C 
ATOM    107  H4  UNL A   1      10.500  45.308   9.630  1.00  0.00    +0.000 H 
ATOM    108  H5  UNL A   1      12.916  45.349   9.873  1.00  0.00    +0.000 H 
ATOM    149  H46 UNL A   1      13.011  49.245   8.307  1.00  0.00    +0.000 H 
ATOM    150  H47 UNL A   1      10.592  49.238   8.127  1.00  0.00    +0.000 H 
BRANCH    5    2
ATOM      2  S1  UNL A   1       8.599  47.243   8.666  1.00  0.00    +0.000 S 
ATOM      3  O1  UNL A   1       8.186  45.855   8.578  1.00  0.00    +0.000 O 
ATOM      4  O2  UNL A   1       8.277  48.187   7.614  1.00  0.00    +0.000 O 
BRANCH    2    1
ATOM      1  C1  UNL A   1       7.978  47.882  10.200  1.00  0.00    +0.000 C 
ATOM    106  H3  UNL A   1       7.504  47.095  10.749  1.00  0.00    +0.000 H 
ATOM    105  H2  UNL A   1       8.788  48.281  10.775  1.00  0.00    +0.000 H 
ATOM    104  H1  UNL A   1       7.266  48.656  10.002  1.00  0.00    +0.000 H 
ENDBRANCH    2    1
ENDBRANCH    5    2
ENDBRANCH    9    8
ENDBRANCH   10    9
BRANCH   10   86
ATOM    101  C72 UNL A   1      14.981  49.841  10.870  1.00  0.00    +0.000 C 
ATOM    138  H35 UNL A   1      17.958  49.038   9.564  1.00  0.00    +0.000 H 
ATOM    139  H36 UNL A   1      18.715  50.564  11.282  1.00  0.00    +0.000 H 
ATOM    140  H37 UNL A   1      17.099  51.727  12.658  1.00  0.00    +0.000 H 
ATOM    148  H45 UNL A   1      13.981  49.589  10.810  1.00  0.00    +0.000 H 
ATOM     86  C60 UNL A   1      15.902  49.223  10.014  1.00  0.00    +0.000 C 
ATOM     87  C61 UNL A   1      17.269  49.500  10.177  1.00  0.00    +0.000 C 
ATOM     88  C62 UNL A   1      17.706  50.392  11.152  1.00  0.00    +0.000 C 
ATOM     89  C63 UNL A   1      16.775  51.048  11.951  1.00  0.00    +0.000 C 
ATOM     90  C64 UNL A   1      15.399  50.802  11.809  1.00  0.00    +0.000 C 
BRANCH   90   91
ATOM     99  C70 UNL A   1      12.198  51.931  13.489  1.00  0.00    +0.000 C 
ATOM    100  C71 UNL A   1      13.151  51.114  12.877  1.00  0.00    +0.000 C 
ATOM    141  H38 UNL A   1      15.625  53.353  12.564  1.00  0.00    +0.000 H 
ATOM    142  H39 UNL A   1      13.970  54.784  13.606  1.00  0.00    +0.000 H 
ATOM    146  H43 UNL A   1      11.272  51.551  13.744  1.00  0.00    +0.000 H 
ATOM    147  H44 UNL A   1      12.925  50.125  12.682  1.00  0.00    +0.000 H 
ATOM     91  C65 UNL A   1      14.411  51.620  12.524  1.00  0.00    +0.000 C 
ATOM     92  C66 UNL A   1      14.698  52.969  12.808  1.00  0.00    +0.000 C 
ATOM     93  C67 UNL A   1      13.752  53.794  13.413  1.00  0.00    +0.000 C 
ATOM     94  C68 UNL A   1      12.506  53.266  13.753  1.00  0.00    +0.000 C 
BRANCH   94   95
ATOM     97  O5  UNL A   1      10.914  53.755  15.738  1.00  0.00    +0.000 O 
ATOM     98  O6  UNL A   1      11.807  55.700  14.397  1.00  0.00    +0.000 O 
ATOM     95  S2  UNL A   1      11.292  54.345  14.470  1.00  0.00    +0.000 S 
BRANCH   95   96
ATOM    145  H42 UNL A   1       9.495  53.244  13.414  1.00  0.00    +0.000 H 
ATOM    144  H41 UNL A   1       9.173  54.948  13.632  1.00  0.00    +0.000 H 
ATOM    143  H40 UNL A   1      10.246  54.417  12.358  1.00  0.00    +0.000 H 
ATOM     96  C69 UNL A   1       9.915  54.227  13.358  1.00  0.00    +0.000 C 
ENDBRANCH   95   96
ENDBRANCH   94   95
ENDBRANCH   90   91
ENDBRANCH   10   86
ENDBRANCH   11   10
ENDBRANCH   13   11
ENDBRANCH   14   13
ENDBRANCH   15   14
ENDBRANCH   16   15
ENDBRANCH   17   16
ENDBRANCH   18   17
ENDBRANCH   19   18
ENDBRANCH   20   19
ENDBRANCH   21   20
ENDBRANCH   23   21
ENDBRANCH   27   26
BRANCH   31   32
ATOM     33  C25 UNL A   1      12.777  47.409   4.902  1.00  0.00    +0.000 C 
ATOM     34  F1  UNL A   1      14.100  47.354   5.121  1.00  0.00    +0.000 F 
ATOM     35  C26 UNL A   1      11.957  46.465   5.513  1.00  0.00    +0.000 C 
ATOM     36  F2  UNL A   1      12.495  45.518   6.295  1.00  0.00    +0.000 F 
ATOM     37  C27 UNL A   1      10.587  46.494   5.304  1.00  0.00    +0.000 C 
ATOM     38  F3  UNL A   1       9.798  45.588   5.899  1.00  0.00    +0.000 F 
ATOM     39  C28 UNL A   1      10.034  47.457   4.474  1.00  0.00    +0.000 C 
ATOM     40  F4  UNL A   1       8.709  47.494   4.282  1.00  0.00    +0.000 F 
ATOM     41  C29 UNL A   1      10.856  48.385   3.838  1.00  0.00    +0.000 C 
ATOM     42  F5  UNL A   1      10.293  49.295   3.029  1.00  0.00    +0.000 F 
ATOM     32  C24 UNL A   1      12.244  48.380   4.040  1.00  0.00    +0.000 C 
ENDBRANCH   31   32
BRANCH   48   49
ATOM     49  C35 UNL A   1      16.996  48.755  -1.360  1.00  0.00    +0.000 C 
ATOM     50  C36 UNL A   1      16.439  48.642  -2.643  1.00  0.00    +0.000 C 
ATOM     51  F6  UNL A   1      15.318  49.308  -2.953  1.00  0.00    +0.000 F 
ATOM     52  C37 UNL A   1      17.019  47.816  -3.602  1.00  0.00    +0.000 C 
ATOM     53  F7  UNL A   1      16.450  47.692  -4.809  1.00  0.00    +0.000 F 
ATOM     54  C38 UNL A   1      18.179  47.114  -3.309  1.00  0.00    +0.000 C 
ATOM     55  F8  UNL A   1      18.742  46.330  -4.239  1.00  0.00    +0.000 F 
ATOM     56  C39 UNL A   1      18.752  47.220  -2.051  1.00  0.00    +0.000 C 
ATOM     57  F9  UNL A   1      19.880  46.553  -1.770  1.00  0.00    +0.000 F 
ATOM     58  C40 UNL A   1      18.160  48.023  -1.081  1.00  0.00    +0.000 C 
ATOM     59  F10 UNL A   1      18.734  48.102   0.129  1.00  0.00    +0.000 F 
ENDBRANCH   48   49
BRANCH   63   64
ATOM     65  C45 UNL A   1      19.294  55.797   0.775  1.00  0.00    +0.000 C 
ATOM     66  F11 UNL A   1      19.630  55.180   1.917  1.00  0.00    +0.000 F 
ATOM     67  C46 UNL A   1      20.138  56.780   0.265  1.00  0.00    +0.000 C 
ATOM     68  F12 UNL A   1      21.264  57.097   0.917  1.00  0.00    +0.000 F 
ATOM     69  C47 UNL A   1      19.809  57.439  -0.910  1.00  0.00    +0.000 C 
ATOM     70  F13 UNL A   1      20.624  58.380  -1.405  1.00  0.00    +0.000 F 
ATOM     71  C48 UNL A   1      18.629  57.125  -1.569  1.00  0.00    +0.000 C 
ATOM     72  F14 UNL A   1      18.315  57.748  -2.713  1.00  0.00    +0.000 F 
ATOM     73  C49 UNL A   1      17.771  56.162  -1.045  1.00  0.00    +0.000 C 
ATOM     74  F15 UNL A   1      16.632  55.886  -1.697  1.00  0.00    +0.000 F 
ATOM     64  C44 UNL A   1      18.088  55.474   0.136  1.00  0.00    +0.000 C 
ENDBRANCH   63   64
TORSDOF 23
ENDMDL
MODEL 4
REMARK VINA RESULT:     -10.5      6.167     12.550
ROOT
ATOM    129  H26 UNL A   1      49.359  29.438  29.920  1.00  0.00    +0.000 H 
ATOM    130  H27 UNL A   1      47.873  31.305  30.790  1.00  0.00    +0.000 H 
ATOM    131  H28 UNL A   1      45.425  28.444  29.029  1.00  0.00    +0.000 H 
ATOM    132  H29 UNL A   1      48.454  24.631  27.767  1.00  0.00    +0.000 H 
ATOM    133  H30 UNL A   1      46.370  23.437  26.880  1.00  0.00    +0.000 H 
ATOM    134  H31 UNL A   1      40.559  30.923  30.219  1.00  0.00    +0.000 H 
ATOM    135  H32 UNL A   1      42.648  32.299  30.770  1.00  0.00    +0.000 H 
ATOM     27  C20 UNL A   1      45.087  30.894  30.339  1.00  0.00    +0.000 C 
ATOM     28  C21 UNL A   1      43.696  30.435  30.013  1.00  0.00    +0.000 C 
ATOM     29  N3  UNL A   1      43.301  29.312  29.468  1.00  0.00    +0.000 N 
ATOM     30  C22 UNL A   1      41.915  29.378  29.430  1.00  0.00    +0.000 C 
ATOM     31  C23 UNL A   1      41.043  28.484  28.906  1.00  0.00    +0.000 C 
ATOM     43  C30 UNL A   1      41.429  27.252  28.272  1.00  0.00    +0.000 C 
ATOM     44  C31 UNL A   1      40.626  26.313  27.649  1.00  0.00    +0.000 C 
ATOM     45  C32 UNL A   1      41.437  25.253  27.230  1.00  0.00    +0.000 C 
ATOM     46  C33 UNL A   1      42.752  25.553  27.549  1.00  0.00    +0.000 C 
ATOM     47  N4  UNL A   1      42.733  26.784  28.185  1.00  0.00    +0.000 N 
ATOM     48  C34 UNL A   1      43.937  24.772  27.301  1.00  0.00    +0.000 C 
ATOM     60  C41 UNL A   1      45.200  25.158  27.600  1.00  0.00    +0.000 C 
ATOM     61  N5  UNL A   1      45.635  26.338  28.187  1.00  0.00    +0.000 N 
ATOM     62  C42 UNL A   1      46.939  26.237  28.278  1.00  0.00    +0.000 C 
ATOM     63  C43 UNL A   1      47.932  27.229  28.820  1.00  0.00    +0.000 C 
ATOM     75  C50 UNL A   1      47.490  28.410  29.293  1.00  0.00    +0.000 C 
ATOM     76  C51 UNL A   1      48.329  29.457  29.866  1.00  0.00    +0.000 C 
ATOM     77  C52 UNL A   1      47.544  30.451  30.313  1.00  0.00    +0.000 C 
ATOM     78  C53 UNL A   1      46.148  30.129  30.015  1.00  0.00    +0.000 C 
ATOM     79  N6  UNL A   1      46.215  28.912  29.384  1.00  0.00    +0.000 N 
ATOM     80  C54 UNL A   1      47.478  24.965  27.776  1.00  0.00    +0.000 C 
ATOM     81  C55 UNL A   1      46.380  24.360  27.342  1.00  0.00    +0.000 C 
ATOM     82  C56 UNL A   1      41.534  30.629  30.050  1.00  0.00    +0.000 C 
ATOM     83  C57 UNL A   1      42.600  31.347  30.371  1.00  0.00    +0.000 C 
ATOM    126  H23 UNL A   1      39.605  26.383  27.517  1.00  0.00    +0.000 H 
ATOM    127  H24 UNL A   1      41.112  24.392  26.762  1.00  0.00    +0.000 H 
ATOM    128  H25 UNL A   1      43.526  27.257  28.525  1.00  0.00    +0.000 H 
ENDROOT
BRANCH   27   26
ATOM    136  H33 UNL A   1      45.531  31.154  32.959  1.00  0.00    +0.000 H 
ATOM    137  H34 UNL A   1      45.899  33.175  34.244  1.00  0.00    +0.000 H 
ATOM     84  C58 UNL A   1      45.540  32.071  32.486  1.00  0.00    +0.000 C 
ATOM     85  C59 UNL A   1      45.790  33.226  33.219  1.00  0.00    +0.000 C 
ATOM     23  C16 UNL A   1      45.895  34.456  32.562  1.00  0.00    +0.000 C 
ATOM     24  C17 UNL A   1      45.605  34.555  31.199  1.00  0.00    +0.000 C 
ATOM     25  C18 UNL A   1      45.289  33.403  30.475  1.00  0.00    +0.000 C 
ATOM     26  C19 UNL A   1      45.298  32.147  31.105  1.00  0.00    +0.000 C 
ATOM    124  H21 UNL A   1      45.624  35.473  30.730  1.00  0.00    +0.000 H 
ATOM    125  H22 UNL A   1      45.047  33.474  29.475  1.00  0.00    +0.000 H 
BRANCH   23   21
ATOM     21  C15 UNL A   1      46.328  35.663  33.296  1.00  0.00    +0.000 C 
ATOM     22  O4  UNL A   1      47.519  35.852  33.517  1.00  0.00    +0.000 O 
BRANCH   21   20
ATOM    123  H20 UNL A   1      45.291  37.380  33.203  1.00  0.00    +0.000 H 
ATOM     20  N2  UNL A   1      45.384  36.559  33.738  1.00  0.00    +0.000 N 
BRANCH   20   19
ATOM    121  H18 UNL A   1      44.935  35.771  35.596  1.00  0.00    +0.000 H 
ATOM    122  H19 UNL A   1      44.397  37.429  35.317  1.00  0.00    +0.000 H 
ATOM     19  C14 UNL A   1      44.504  36.453  34.893  1.00  0.00    +0.000 C 
BRANCH   19   18
ATOM     18  C13 UNL A   1      43.115  35.952  34.507  1.00  0.00    +0.000 C 
ATOM    119  H16 UNL A   1      42.389  36.593  34.963  1.00  0.00    +0.000 H 
ATOM    120  H17 UNL A   1      43.068  35.967  33.439  1.00  0.00    +0.000 H 
BRANCH   18   17
ATOM     17  C12 UNL A   1      42.824  34.513  34.941  1.00  0.00    +0.000 C 
ATOM    117  H14 UNL A   1      43.729  34.096  35.333  1.00  0.00    +0.000 H 
ATOM    118  H15 UNL A   1      42.037  34.573  35.664  1.00  0.00    +0.000 H 
BRANCH   17   16
ATOM    115  H12 UNL A   1      43.112  32.929  33.556  1.00  0.00    +0.000 H 
ATOM    116  H13 UNL A   1      41.459  33.089  34.222  1.00  0.00    +0.000 H 
ATOM     16  C11 UNL A   1      42.317  33.592  33.826  1.00  0.00    +0.000 C 
BRANCH   16   15
ATOM    113  H10 UNL A   1      42.256  35.294  32.541  1.00  0.00    +0.000 H 
ATOM    114  H11 UNL A   1      42.169  33.721  31.719  1.00  0.00    +0.000 H 
ATOM     15  C10 UNL A   1      41.841  34.309  32.552  1.00  0.00    +0.000 C 
BRANCH   15   14
ATOM     14  C9  UNL A   1      40.316  34.424  32.448  1.00  0.00    +0.000 C 
ATOM    111  H8  UNL A   1      39.874  34.140  33.380  1.00  0.00    +0.000 H 
ATOM    112  H9  UNL A   1      40.053  35.435  32.218  1.00  0.00    +0.000 H 
BRANCH   14   13
ATOM     13  N1  UNL A   1      39.830  33.551  31.398  1.00  0.00    +0.000 N 
ATOM    110  H7  UNL A   1      40.284  33.695  30.536  1.00  0.00    +0.000 H 
BRANCH   13   11
ATOM     11  C8  UNL A   1      38.884  32.578  31.346  1.00  0.00    +0.000 C 
ATOM     12  O3  UNL A   1      38.436  32.326  30.225  1.00  0.00    +0.000 O 
BRANCH   11   10
ATOM     10  C7  UNL A   1      38.300  31.912  32.573  1.00  0.00    +0.000 C 
BRANCH   10    9
ATOM      9  C6  UNL A   1      36.969  31.885  32.824  1.00  0.00    +0.000 C 
ATOM    109  H6  UNL A   1      36.622  31.026  33.278  1.00  0.00    +0.000 H 
BRANCH    9    8
ATOM      5  C2  UNL A   1      34.146  35.027  32.061  1.00  0.00    +0.000 C 
ATOM    102  C73 UNL A   1      35.778  33.947  33.475  1.00  0.00    +0.000 C 
ATOM      6  C3  UNL A   1      34.255  33.986  31.138  1.00  0.00    +0.000 C 
ATOM    103  C74 UNL A   1      34.886  34.999  33.244  1.00  0.00    +0.000 C 
ATOM      7  C4  UNL A   1      35.136  32.925  31.391  1.00  0.00    +0.000 C 
ATOM      8  C5  UNL A   1      35.941  32.914  32.537  1.00  0.00    +0.000 C 
ATOM    107  H4  UNL A   1      33.691  33.997  30.274  1.00  0.00    +0.000 H 
ATOM    108  H5  UNL A   1      35.191  32.141  30.723  1.00  0.00    +0.000 H 
ATOM    149  H46 UNL A   1      36.325  33.929  34.350  1.00  0.00    +0.000 H 
ATOM    150  H47 UNL A   1      34.776  35.751  33.943  1.00  0.00    +0.000 H 
BRANCH    5    2
ATOM      2  S1  UNL A   1      33.036  36.382  31.748  1.00  0.00    +0.000 S 
ATOM      3  O1  UNL A   1      31.822  36.128  32.501  1.00  0.00    +0.000 O 
ATOM      4  O2  UNL A   1      33.001  36.559  30.309  1.00  0.00    +0.000 O 
BRANCH    2    1
ATOM      1  C1  UNL A   1      33.816  37.803  32.468  1.00  0.00    +0.000 C 
ATOM    106  H3  UNL A   1      34.327  37.516  33.363  1.00  0.00    +0.000 H 
ATOM    105  H2  UNL A   1      34.517  38.216  31.773  1.00  0.00    +0.000 H 
ATOM    104  H1  UNL A   1      33.072  38.537  32.703  1.00  0.00    +0.000 H 
ENDBRANCH    2    1
ENDBRANCH    5    2
ENDBRANCH    9    8
ENDBRANCH   10    9
BRANCH   10   86
ATOM    101  C72 UNL A   1      40.258  30.483  33.292  1.00  0.00    +0.000 C 
ATOM    138  H35 UNL A   1      38.393  32.544  35.159  1.00  0.00    +0.000 H 
ATOM    139  H36 UNL A   1      39.782  31.624  36.913  1.00  0.00    +0.000 H 
ATOM    140  H37 UNL A   1      41.388  29.890  36.392  1.00  0.00    +0.000 H 
ATOM    148  H45 UNL A   1      40.438  30.231  32.307  1.00  0.00    +0.000 H 
ATOM     86  C60 UNL A   1      39.269  31.429  33.593  1.00  0.00    +0.000 C 
ATOM     87  C61 UNL A   1      39.105  31.836  34.927  1.00  0.00    +0.000 C 
ATOM     88  C62 UNL A   1      39.891  31.294  35.941  1.00  0.00    +0.000 C 
ATOM     89  C63 UNL A   1      40.823  30.308  35.636  1.00  0.00    +0.000 C 
ATOM     90  C64 UNL A   1      41.007  29.871  34.314  1.00  0.00    +0.000 C 
BRANCH   90   91
ATOM     99  C70 UNL A   1      42.601  26.438  34.472  1.00  0.00    +0.000 C 
ATOM    100  C71 UNL A   1      41.731  27.503  34.718  1.00  0.00    +0.000 C 
ATOM    141  H38 UNL A   1      42.979  29.705  32.522  1.00  0.00    +0.000 H 
ATOM    142  H39 UNL A   1      44.507  27.872  32.105  1.00  0.00    +0.000 H 
ATOM    146  H43 UNL A   1      42.502  25.553  34.993  1.00  0.00    +0.000 H 
ATOM    147  H44 UNL A   1      40.984  27.399  35.423  1.00  0.00    +0.000 H 
ATOM     91  C65 UNL A   1      41.859  28.711  34.016  1.00  0.00    +0.000 C 
ATOM     92  C66 UNL A   1      42.880  28.826  33.053  1.00  0.00    +0.000 C 
ATOM     93  C67 UNL A   1      43.757  27.772  32.805  1.00  0.00    +0.000 C 
ATOM     94  C68 UNL A   1      43.608  26.582  33.516  1.00  0.00    +0.000 C 
BRANCH   94   95
ATOM     97  O5  UNL A   1      46.077  25.794  33.569  1.00  0.00    +0.000 O 
ATOM     98  O6  UNL A   1      44.252  24.074  33.870  1.00  0.00    +0.000 O 
ATOM     95  S2  UNL A   1      44.770  25.269  33.230  1.00  0.00    +0.000 S 
BRANCH   95   96
ATOM    145  H42 UNL A   1      44.136  24.134  31.263  1.00  0.00    +0.000 H 
ATOM    144  H41 UNL A   1      44.223  25.862  31.015  1.00  0.00    +0.000 H 
ATOM    143  H40 UNL A   1      45.689  24.914  31.088  1.00  0.00    +0.000 H 
ATOM     96  C69 UNL A   1      44.698  25.020  31.475  1.00  0.00    +0.000 C 
ENDBRANCH   95   96
ENDBRANCH   94   95
ENDBRANCH   90   91
ENDBRANCH   10   86
ENDBRANCH   11   10
ENDBRANCH   13   11
ENDBRANCH   14   13
ENDBRANCH   15   14
ENDBRANCH   16   15
ENDBRANCH   17   16
ENDBRANCH   18   17
ENDBRANCH   19   18
ENDBRANCH   20   19
ENDBRANCH   21   20
ENDBRANCH   23   21
ENDBRANCH   27   26
BRANCH   31   32
ATOM     33  C25 UNL A   1      38.870  28.665  30.199  1.00  0.00    +0.000 C 
ATOM     34  F1  UNL A   1      39.483  28.186  31.293  1.00  0.00    +0.000 F 
ATOM     35  C26 UNL A   1      37.516  28.979  30.273  1.00  0.00    +0.000 C 
ATOM     36  F2  UNL A   1      36.847  28.790  31.420  1.00  0.00    +0.000 F 
ATOM     37  C27 UNL A   1      36.854  29.474  29.160  1.00  0.00    +0.000 C 
ATOM     38  F3  UNL A   1      35.552  29.782  29.235  1.00  0.00    +0.000 F 
ATOM     39  C28 UNL A   1      37.541  29.644  27.967  1.00  0.00    +0.000 C 
ATOM     40  F4  UNL A   1      36.906  30.134  26.894  1.00  0.00    +0.000 F 
ATOM     41  C29 UNL A   1      38.888  29.303  27.882  1.00  0.00    +0.000 C 
ATOM     42  F5  UNL A   1      39.521  29.464  26.710  1.00  0.00    +0.000 F 
ATOM     32  C24 UNL A   1      39.580  28.807  28.997  1.00  0.00    +0.000 C 
ENDBRANCH   31   32
BRANCH   48   49
ATOM     49  C35 UNL A   1      43.763  23.434  26.646  1.00  0.00    +0.000 C 
ATOM     50  C36 UNL A   1      44.219  23.192  25.342  1.00  0.00    +0.000 C 
ATOM     51  F6  UNL A   1      44.762  24.185  24.623  1.00  0.00    +0.000 F 
ATOM     52  C37 UNL A   1      44.089  21.934  24.761  1.00  0.00    +0.000 C 
ATOM     53  F7  UNL A   1      44.497  21.734  23.500  1.00  0.00    +0.000 F 
ATOM     54  C38 UNL A   1      43.530  20.888  25.481  1.00  0.00    +0.000 C 
ATOM     55  F8  UNL A   1      43.417  19.674  24.924  1.00  0.00    +0.000 F 
ATOM     56  C39 UNL A   1      43.081  21.102  26.776  1.00  0.00    +0.000 C 
ATOM     57  F9  UNL A   1      42.553  20.090  27.477  1.00  0.00    +0.000 F 
ATOM     58  C40 UNL A   1      43.185  22.366  27.349  1.00  0.00    +0.000 C 
ATOM     59  F10 UNL A   1      42.738  22.544  28.602  1.00  0.00    +0.000 F 
ENDBRANCH   48   49
BRANCH   63   64
ATOM     65  C45 UNL A   1      49.986  26.321  29.942  1.00  0.00    +0.000 C 
ATOM     66  F11 UNL A   1      49.248  26.035  31.025  1.00  0.00    +0.000 F 
ATOM     67  C46 UNL A   1      51.351  26.045  29.964  1.00  0.00    +0.000 C 
ATOM     68  F12 UNL A   1      51.906  25.506  31.057  1.00  0.00    +0.000 F 
ATOM     69  C47 UNL A   1      52.138  26.339  28.861  1.00  0.00    +0.000 C 
ATOM     70  F13 UNL A   1      53.449  26.067  28.878  1.00  0.00    +0.000 F 
ATOM     71  C48 UNL A   1      51.564  26.921  27.740  1.00  0.00    +0.000 C 
ATOM     72  F14 UNL A   1      52.317  27.192  26.666  1.00  0.00    +0.000 F 
ATOM     73  C49 UNL A   1      50.204  27.223  27.728  1.00  0.00    +0.000 C 
ATOM     74  F15 UNL A   1      49.677  27.795  26.635  1.00  0.00    +0.000 F 
ATOM     64  C44 UNL A   1      49.386  26.924  28.827  1.00  0.00    +0.000 C 
ENDBRANCH   63   64
TORSDOF 23
ENDMDL
MODEL 5
REMARK VINA RESULT:     -10.4     37.983     44.874
ROOT
ATOM    129  H26 UNL A   1       6.306   9.348  38.759  1.00  0.00    +0.000 H 
ATOM    130  H27 UNL A   1       4.839  11.416  38.894  1.00  0.00    +0.000 H 
ATOM    131  H28 UNL A   1       2.624   8.400  37.082  1.00  0.00    +0.000 H 
ATOM    132  H29 UNL A   1       5.492   4.272  37.293  1.00  0.00    +0.000 H 
ATOM    133  H30 UNL A   1       3.578   3.039  36.123  1.00  0.00    +0.000 H 
ATOM    134  H31 UNL A   1      -2.126  11.298  36.563  1.00  0.00    +0.000 H 
ATOM    135  H32 UNL A   1      -0.110  12.647  37.383  1.00  0.00    +0.000 H 
ATOM     27  C20 UNL A   1       2.217  11.067  37.829  1.00  0.00    +0.000 C 
ATOM     28  C21 UNL A   1       0.907  10.624  37.243  1.00  0.00    +0.000 C 
ATOM     29  N3  UNL A   1       0.550   9.440  36.815  1.00  0.00    +0.000 N 
ATOM     30  C22 UNL A   1      -0.773   9.567  36.416  1.00  0.00    +0.000 C 
ATOM     31  C23 UNL A   1      -1.575   8.635  35.848  1.00  0.00    +0.000 C 
ATOM     43  C30 UNL A   1      -1.167   7.288  35.551  1.00  0.00    +0.000 C 
ATOM     44  C31 UNL A   1      -1.883   6.290  34.913  1.00  0.00    +0.000 C 
ATOM     45  C32 UNL A   1      -1.099   5.131  34.899  1.00  0.00    +0.000 C 
ATOM     46  C33 UNL A   1       0.123   5.420  35.485  1.00  0.00    +0.000 C 
ATOM     47  N4  UNL A   1       0.069   6.748  35.878  1.00  0.00    +0.000 N 
ATOM     48  C34 UNL A   1       1.253   4.548  35.682  1.00  0.00    +0.000 C 
ATOM     60  C41 UNL A   1       2.439   4.920  36.220  1.00  0.00    +0.000 C 
ATOM     61  N5  UNL A   1       2.830   6.166  36.690  1.00  0.00    +0.000 N 
ATOM     62  C42 UNL A   1       4.058   6.019  37.124  1.00  0.00    +0.000 C 
ATOM     63  C43 UNL A   1       4.981   7.044  37.724  1.00  0.00    +0.000 C 
ATOM     75  C50 UNL A   1       4.553   8.314  37.863  1.00  0.00    +0.000 C 
ATOM     76  C51 UNL A   1       5.325   9.407  38.443  1.00  0.00    +0.000 C 
ATOM     77  C52 UNL A   1       4.554  10.505  38.502  1.00  0.00    +0.000 C 
ATOM     78  C53 UNL A   1       3.246  10.203  37.918  1.00  0.00    +0.000 C 
ATOM     79  N6  UNL A   1       3.347   8.887  37.541  1.00  0.00    +0.000 N 
ATOM     80  C54 UNL A   1       4.578   4.651  36.999  1.00  0.00    +0.000 C 
ATOM     81  C55 UNL A   1       3.565   4.030  36.410  1.00  0.00    +0.000 C 
ATOM     82  C56 UNL A   1      -1.172  10.929  36.699  1.00  0.00    +0.000 C 
ATOM     83  C57 UNL A   1      -0.151  11.641  37.153  1.00  0.00    +0.000 C 
ATOM    126  H23 UNL A   1      -2.831   6.384  34.517  1.00  0.00    +0.000 H 
ATOM    127  H24 UNL A   1      -1.383   4.215  34.517  1.00  0.00    +0.000 H 
ATOM    128  H25 UNL A   1       0.799   7.236  36.322  1.00  0.00    +0.000 H 
ENDROOT
BRANCH   27   26
ATOM    136  H33 UNL A   1       2.641  13.354  36.518  1.00  0.00    +0.000 H 
ATOM    137  H34 UNL A   1       2.856  15.597  37.408  1.00  0.00    +0.000 H 
ATOM     84  C58 UNL A   1       2.556  13.516  37.534  1.00  0.00    +0.000 C 
ATOM     85  C59 UNL A   1       2.640  14.809  38.038  1.00  0.00    +0.000 C 
ATOM     23  C16 UNL A   1       2.430  15.037  39.401  1.00  0.00    +0.000 C 
ATOM     24  C17 UNL A   1       2.283  13.963  40.282  1.00  0.00    +0.000 C 
ATOM     25  C18 UNL A   1       2.264  12.658  39.783  1.00  0.00    +0.000 C 
ATOM     26  C19 UNL A   1       2.356  12.429  38.400  1.00  0.00    +0.000 C 
ATOM    124  H21 UNL A   1       2.189  14.131  41.295  1.00  0.00    +0.000 H 
ATOM    125  H22 UNL A   1       2.184  11.860  40.431  1.00  0.00    +0.000 H 
BRANCH   23   21
ATOM     21  C15 UNL A   1       2.345  16.416  39.926  1.00  0.00    +0.000 C 
ATOM     22  O4  UNL A   1       3.185  17.248  39.602  1.00  0.00    +0.000 O 
BRANCH   21   20
ATOM    123  H20 UNL A   1       1.605  17.156  41.640  1.00  0.00    +0.000 H 
ATOM     20  N2  UNL A   1       1.327  16.748  40.787  1.00  0.00    +0.000 N 
BRANCH   20   19
ATOM    121  H18 UNL A   1      -0.533  17.515  40.315  1.00  0.00    +0.000 H 
ATOM    122  H19 UNL A   1      -0.258  15.834  39.852  1.00  0.00    +0.000 H 
ATOM     19  C14 UNL A   1      -0.107  16.577  40.606  1.00  0.00    +0.000 C 
BRANCH   19   18
ATOM     18  C13 UNL A   1      -0.791  16.099  41.883  1.00  0.00    +0.000 C 
ATOM    119  H16 UNL A   1      -0.772  16.901  42.593  1.00  0.00    +0.000 H 
ATOM    120  H17 UNL A   1      -1.784  15.811  41.611  1.00  0.00    +0.000 H 
BRANCH   18   17
ATOM     17  C12 UNL A   1      -0.136  14.874  42.526  1.00  0.00    +0.000 C 
ATOM    117  H14 UNL A   1      -0.834  14.063  42.479  1.00  0.00    +0.000 H 
ATOM    118  H15 UNL A   1       0.762  14.692  41.974  1.00  0.00    +0.000 H 
BRANCH   17   16
ATOM    115  H12 UNL A   1      -0.599  15.055  44.591  1.00  0.00    +0.000 H 
ATOM    116  H13 UNL A   1       0.954  14.253  44.210  1.00  0.00    +0.000 H 
ATOM     16  C11 UNL A   1       0.285  15.058  43.988  1.00  0.00    +0.000 C 
BRANCH   16   15
ATOM    113  H10 UNL A   1       1.232  16.866  43.365  1.00  0.00    +0.000 H 
ATOM    114  H11 UNL A   1       0.467  16.925  44.968  1.00  0.00    +0.000 H 
ATOM     15  C10 UNL A   1       1.061  16.352  44.287  1.00  0.00    +0.000 C 
BRANCH   15   14
ATOM     14  C9  UNL A   1       2.415  16.110  44.964  1.00  0.00    +0.000 C 
ATOM    111  H8  UNL A   1       2.966  17.027  44.995  1.00  0.00    +0.000 H 
ATOM    112  H9  UNL A   1       2.253  15.753  45.959  1.00  0.00    +0.000 H 
BRANCH   14   13
ATOM     13  N1  UNL A   1       3.166  15.121  44.217  1.00  0.00    +0.000 N 
ATOM    110  H7  UNL A   1       2.801  14.211  44.306  1.00  0.00    +0.000 H 
BRANCH   13   11
ATOM     11  C8  UNL A   1       4.264  15.179  43.420  1.00  0.00    +0.000 C 
ATOM     12  O3  UNL A   1       4.385  16.206  42.748  1.00  0.00    +0.000 O 
BRANCH   11   10
ATOM     10  C7  UNL A   1       5.233  14.029  43.244  1.00  0.00    +0.000 C 
BRANCH   10    9
ATOM      9  C6  UNL A   1       6.406  14.160  42.580  1.00  0.00    +0.000 C 
ATOM    109  H6  UNL A   1       7.182  14.560  43.129  1.00  0.00    +0.000 H 
BRANCH    9    8
ATOM      5  C2  UNL A   1       7.272  13.360  38.453  1.00  0.00    +0.000 C 
ATOM    102  C73 UNL A   1       5.788  14.143  40.190  1.00  0.00    +0.000 C 
ATOM      6  C3  UNL A   1       8.203  12.977  39.419  1.00  0.00    +0.000 C 
ATOM    103  C74 UNL A   1       6.052  13.920  38.834  1.00  0.00    +0.000 C 
ATOM      7  C4  UNL A   1       7.920  13.185  40.776  1.00  0.00    +0.000 C 
ATOM      8  C5  UNL A   1       6.732  13.811  41.177  1.00  0.00    +0.000 C 
ATOM    107  H4  UNL A   1       9.095  12.544  39.136  1.00  0.00    +0.000 H 
ATOM    108  H5  UNL A   1       8.595  12.872  41.489  1.00  0.00    +0.000 H 
ATOM    149  H46 UNL A   1       4.886  14.557  40.470  1.00  0.00    +0.000 H 
ATOM    150  H47 UNL A   1       5.348  14.167  38.120  1.00  0.00    +0.000 H 
BRANCH    5    2
ATOM      2  S1  UNL A   1       7.623  13.107  36.728  1.00  0.00    +0.000 S 
ATOM      3  O1  UNL A   1       7.740  11.676  36.516  1.00  0.00    +0.000 O 
ATOM      4  O2  UNL A   1       8.714  14.003  36.395  1.00  0.00    +0.000 O 
BRANCH    2    1
ATOM      1  C1  UNL A   1       6.171  13.651  35.867  1.00  0.00    +0.000 C 
ATOM    106  H3  UNL A   1       5.582  12.802  35.589  1.00  0.00    +0.000 H 
ATOM    105  H2  UNL A   1       5.597  14.290  36.504  1.00  0.00    +0.000 H 
ATOM    104  H1  UNL A   1       6.457  14.188  34.987  1.00  0.00    +0.000 H 
ENDBRANCH    2    1
ENDBRANCH    5    2
ENDBRANCH    9    8
ENDBRANCH   10    9
BRANCH   10   86
ATOM    101  C72 UNL A   1       4.049  11.832  42.838  1.00  0.00    +0.000 C 
ATOM    138  H35 UNL A   1       5.460  12.942  45.665  1.00  0.00    +0.000 H 
ATOM    139  H36 UNL A   1       4.517  10.882  46.515  1.00  0.00    +0.000 H 
ATOM    140  H37 UNL A   1       3.173   9.485  45.066  1.00  0.00    +0.000 H 
ATOM    148  H45 UNL A   1       3.988  12.049  41.830  1.00  0.00    +0.000 H 
ATOM     86  C60 UNL A   1       4.762  12.689  43.687  1.00  0.00    +0.000 C 
ATOM     87  C61 UNL A   1       4.923  12.327  45.034  1.00  0.00    +0.000 C 
ATOM     88  C62 UNL A   1       4.366  11.152  45.530  1.00  0.00    +0.000 C 
ATOM     89  C63 UNL A   1       3.606  10.344  44.691  1.00  0.00    +0.000 C 
ATOM     90  C64 UNL A   1       3.416  10.680  43.340  1.00  0.00    +0.000 C 
BRANCH   90   91
ATOM     99  C70 UNL A   1       0.225   9.135  42.006  1.00  0.00    +0.000 C 
ATOM    100  C71 UNL A   1       1.096   9.919  42.768  1.00  0.00    +0.000 C 
ATOM    141  H38 UNL A   1       3.970   9.138  41.233  1.00  0.00    +0.000 H 
ATOM    142  H39 UNL A   1       2.472   7.758  39.920  1.00  0.00    +0.000 H 
ATOM    146  H43 UNL A   1      -0.787   9.133  42.208  1.00  0.00    +0.000 H 
ATOM    147  H44 UNL A   1       0.720  10.499  43.535  1.00  0.00    +0.000 H 
ATOM     91  C65 UNL A   1       2.473   9.927  42.503  1.00  0.00    +0.000 C 
ATOM     92  C66 UNL A   1       2.960   9.133  41.446  1.00  0.00    +0.000 C 
ATOM     93  C67 UNL A   1       2.102   8.343  40.684  1.00  0.00    +0.000 C 
ATOM     94  C68 UNL A   1       0.736   8.353  40.969  1.00  0.00    +0.000 C 
BRANCH   94   95
ATOM     97  O5  UNL A   1      -1.348   8.154  39.443  1.00  0.00    +0.000 O 
ATOM     98  O6  UNL A   1       0.497   6.448  39.196  1.00  0.00    +0.000 O 
ATOM     95  S2  UNL A   1      -0.336   7.297  40.026  1.00  0.00    +0.000 S 
BRANCH   95   96
ATOM    145  H42 UNL A   1      -2.164   6.407  41.219  1.00  0.00    +0.000 H 
ATOM    144  H41 UNL A   1      -0.866   5.247  41.061  1.00  0.00    +0.000 H 
ATOM    143  H40 UNL A   1      -0.742   6.546  42.224  1.00  0.00    +0.000 H 
ATOM     96  C69 UNL A   1      -1.103   6.273  41.255  1.00  0.00    +0.000 C 
ENDBRANCH   95   96
ENDBRANCH   94   95
ENDBRANCH   90   91
ENDBRANCH   10   86
ENDBRANCH   11   10
ENDBRANCH   13   11
ENDBRANCH   14   13
ENDBRANCH   15   14
ENDBRANCH   16   15
ENDBRANCH   17   16
ENDBRANCH   18   17
ENDBRANCH   19   18
ENDBRANCH   20   19
ENDBRANCH   21   20
ENDBRANCH   23   21
ENDBRANCH   27   26
BRANCH   31   32
ATOM     33  C25 UNL A   1      -3.291   9.670  34.294  1.00  0.00    +0.000 C 
ATOM     34  F1  UNL A   1      -2.318   9.967  33.419  1.00  0.00    +0.000 F 
ATOM     35  C26 UNL A   1      -4.600  10.031  33.988  1.00  0.00    +0.000 C 
ATOM     36  F2  UNL A   1      -4.866  10.673  32.842  1.00  0.00    +0.000 F 
ATOM     37  C27 UNL A   1      -5.627   9.739  34.873  1.00  0.00    +0.000 C 
ATOM     38  F3  UNL A   1      -6.888  10.081  34.573  1.00  0.00    +0.000 F 
ATOM     39  C28 UNL A   1      -5.347   9.099  36.070  1.00  0.00    +0.000 C 
ATOM     40  F4  UNL A   1      -6.340   8.805  36.920  1.00  0.00    +0.000 F 
ATOM     41  C29 UNL A   1      -4.035   8.763  36.392  1.00  0.00    +0.000 C 
ATOM     42  F5  UNL A   1      -3.794   8.157  37.565  1.00  0.00    +0.000 F 
ATOM     32  C24 UNL A   1      -2.980   9.041  35.510  1.00  0.00    +0.000 C 
ENDBRANCH   31   32
BRANCH   48   49
ATOM     49  C35 UNL A   1       1.115   3.121  35.241  1.00  0.00    +0.000 C 
ATOM     50  C36 UNL A   1       1.498   2.712  33.954  1.00  0.00    +0.000 C 
ATOM     51  F6  UNL A   1       1.933   3.613  33.062  1.00  0.00    +0.000 F 
ATOM     52  C37 UNL A   1       1.404   1.377  33.572  1.00  0.00    +0.000 C 
ATOM     53  F7  UNL A   1       1.739   1.014  32.326  1.00  0.00    +0.000 F 
ATOM     54  C38 UNL A   1       0.956   0.423  34.474  1.00  0.00    +0.000 C 
ATOM     55  F8  UNL A   1       0.879  -0.864  34.107  1.00  0.00    +0.000 F 
ATOM     56  C39 UNL A   1       0.582   0.804  35.754  1.00  0.00    +0.000 C 
ATOM     57  F9  UNL A   1       0.161  -0.118  36.631  1.00  0.00    +0.000 F 
ATOM     58  C40 UNL A   1       0.648   2.142  36.131  1.00  0.00    +0.000 C 
ATOM     59  F10 UNL A   1       0.275   2.481  37.374  1.00  0.00    +0.000 F 
ENDBRANCH   48   49
BRANCH   63   64
ATOM     65  C45 UNL A   1       6.572   5.998  39.360  1.00  0.00    +0.000 C 
ATOM     66  F11 UNL A   1       5.533   5.699  40.154  1.00  0.00    +0.000 F 
ATOM     67  C46 UNL A   1       7.858   5.660  39.775  1.00  0.00    +0.000 C 
ATOM     68  F12 UNL A   1       8.040   5.049  40.953  1.00  0.00    +0.000 F 
ATOM     69  C47 UNL A   1       8.950   5.966  38.977  1.00  0.00    +0.000 C 
ATOM     70  F13 UNL A   1      10.186   5.634  39.373  1.00  0.00    +0.000 F 
ATOM     71  C48 UNL A   1       8.759   6.621  37.769  1.00  0.00    +0.000 C 
ATOM     72  F14 UNL A   1       9.809   6.904  36.988  1.00  0.00    +0.000 F 
ATOM     73  C49 UNL A   1       7.476   6.984  37.367  1.00  0.00    +0.000 C 
ATOM     74  F15 UNL A   1       7.322   7.626  36.199  1.00  0.00    +0.000 F 
ATOM     64  C44 UNL A   1       6.356   6.675  38.151  1.00  0.00    +0.000 C 
ENDBRANCH   63   64
TORSDOF 23
ENDMDL
MODEL 6
REMARK VINA RESULT:     -10.3     22.713     30.358
ROOT
ATOM    129  H26 UNL A   1      28.656  36.805  47.181  1.00  0.00    +0.000 H 
ATOM    130  H27 UNL A   1      28.189  38.527  48.988  1.00  0.00    +0.000 H 
ATOM    131  H28 UNL A   1      24.564  36.808  47.900  1.00  0.00    +0.000 H 
ATOM    132  H29 UNL A   1      25.703  33.130  44.662  1.00  0.00    +0.000 H 
ATOM    133  H30 UNL A   1      23.194  32.639  44.536  1.00  0.00    +0.000 H 
ATOM    134  H31 UNL A   1      21.397  39.568  51.587  1.00  0.00    +0.000 H 
ATOM    135  H32 UNL A   1      23.837  40.334  51.455  1.00  0.00    +0.000 H 
ATOM     27  C20 UNL A   1      25.441  38.748  49.717  1.00  0.00    +0.000 C 
ATOM     28  C21 UNL A   1      23.959  38.653  49.938  1.00  0.00    +0.000 C 
ATOM     29  N3  UNL A   1      23.091  37.838  49.393  1.00  0.00    +0.000 N 
ATOM     30  C22 UNL A   1      21.870  38.143  49.976  1.00  0.00    +0.000 C 
ATOM     31  C23 UNL A   1      20.652  37.616  49.705  1.00  0.00    +0.000 C 
ATOM     43  C30 UNL A   1      20.412  36.597  48.719  1.00  0.00    +0.000 C 
ATOM     44  C31 UNL A   1      19.205  36.047  48.322  1.00  0.00    +0.000 C 
ATOM     45  C32 UNL A   1      19.470  35.050  47.375  1.00  0.00    +0.000 C 
ATOM     46  C33 UNL A   1      20.836  35.013  47.147  1.00  0.00    +0.000 C 
ATOM     47  N4  UNL A   1      21.401  35.968  47.976  1.00  0.00    +0.000 N 
ATOM     48  C34 UNL A   1      21.573  34.161  46.248  1.00  0.00    +0.000 C 
ATOM     60  C41 UNL A   1      22.910  34.219  46.043  1.00  0.00    +0.000 C 
ATOM     61  N5  UNL A   1      23.845  35.067  46.620  1.00  0.00    +0.000 N 
ATOM     62  C42 UNL A   1      25.004  34.726  46.112  1.00  0.00    +0.000 C 
ATOM     63  C43 UNL A   1      26.363  35.319  46.366  1.00  0.00    +0.000 C 
ATOM     75  C50 UNL A   1      26.480  36.350  47.226  1.00  0.00    +0.000 C 
ATOM     76  C51 UNL A   1      27.730  37.011  47.586  1.00  0.00    +0.000 C 
ATOM     77  C52 UNL A   1      27.481  37.932  48.532  1.00  0.00    +0.000 C 
ATOM     78  C53 UNL A   1      26.044  37.957  48.808  1.00  0.00    +0.000 C 
ATOM     79  N6  UNL A   1      25.527  37.004  47.967  1.00  0.00    +0.000 N 
ATOM     80  C54 UNL A   1      24.937  33.603  45.166  1.00  0.00    +0.000 C 
ATOM     81  C55 UNL A   1      23.634  33.355  45.134  1.00  0.00    +0.000 C 
ATOM     82  C56 UNL A   1      22.114  39.183  50.952  1.00  0.00    +0.000 C 
ATOM     83  C57 UNL A   1      23.379  39.577  50.923  1.00  0.00    +0.000 C 
ATOM    126  H23 UNL A   1      18.272  36.323  48.665  1.00  0.00    +0.000 H 
ATOM    127  H24 UNL A   1      18.766  34.445  46.924  1.00  0.00    +0.000 H 
ATOM    128  H25 UNL A   1      22.363  36.172  48.029  1.00  0.00    +0.000 H 
ENDROOT
BRANCH   27   26
ATOM    136  H33 UNL A   1      26.845  38.108  51.895  1.00  0.00    +0.000 H 
ATOM    137  H34 UNL A   1      28.216  39.536  53.294  1.00  0.00    +0.000 H 
ATOM     84  C58 UNL A   1      26.949  39.108  51.665  1.00  0.00    +0.000 C 
ATOM     85  C59 UNL A   1      27.768  39.918  52.446  1.00  0.00    +0.000 C 
ATOM     23  C16 UNL A   1      27.982  41.248  52.077  1.00  0.00    +0.000 C 
ATOM     24  C17 UNL A   1      27.267  41.812  51.017  1.00  0.00    +0.000 C 
ATOM     25  C18 UNL A   1      26.395  41.014  50.272  1.00  0.00    +0.000 C 
ATOM     26  C19 UNL A   1      26.265  39.646  50.564  1.00  0.00    +0.000 C 
ATOM    124  H21 UNL A   1      27.383  42.809  50.785  1.00  0.00    +0.000 H 
ATOM    125  H22 UNL A   1      25.844  41.431  49.506  1.00  0.00    +0.000 H 
BRANCH   23   21
ATOM     21  C15 UNL A   1      28.979  42.073  52.792  1.00  0.00    +0.000 C 
ATOM     22  O4  UNL A   1      28.665  42.659  53.822  1.00  0.00    +0.000 O 
BRANCH   21   20
ATOM    123  H20 UNL A   1      30.915  41.557  52.654  1.00  0.00    +0.000 H 
ATOM     20  N2  UNL A   1      30.251  42.184  52.284  1.00  0.00    +0.000 N 
BRANCH   20   19
ATOM    121  H18 UNL A   1      29.939  43.730  50.948  1.00  0.00    +0.000 H 
ATOM    122  H19 UNL A   1      31.531  43.686  51.710  1.00  0.00    +0.000 H 
ATOM     19  C14 UNL A   1      30.746  43.106  51.273  1.00  0.00    +0.000 C 
BRANCH   19   18
ATOM     18  C13 UNL A   1      31.320  42.373  50.064  1.00  0.00    +0.000 C 
ATOM    119  H16 UNL A   1      31.897  43.069  49.492  1.00  0.00    +0.000 H 
ATOM    120  H17 UNL A   1      31.905  41.562  50.445  1.00  0.00    +0.000 H 
BRANCH   18   17
ATOM     17  C12 UNL A   1      30.262  41.757  49.144  1.00  0.00    +0.000 C 
ATOM    117  H14 UNL A   1      29.314  42.181  49.399  1.00  0.00    +0.000 H 
ATOM    118  H15 UNL A   1      30.571  41.980  48.144  1.00  0.00    +0.000 H 
BRANCH   17   16
ATOM    115  H12 UNL A   1      29.180  39.997  49.635  1.00  0.00    +0.000 H 
ATOM    116  H13 UNL A   1      30.283  39.865  48.232  1.00  0.00    +0.000 H 
ATOM     16  C11 UNL A   1      30.141  40.231  49.228  1.00  0.00    +0.000 C 
BRANCH   16   15
ATOM    113  H10 UNL A   1      31.828  40.288  50.534  1.00  0.00    +0.000 H 
ATOM    114  H11 UNL A   1      30.687  38.958  50.828  1.00  0.00    +0.000 H 
ATOM     15  C10 UNL A   1      31.207  39.538  50.093  1.00  0.00    +0.000 C 
BRANCH   15   14
ATOM     14  C9  UNL A   1      32.099  38.572  49.306  1.00  0.00    +0.000 C 
ATOM    111  H8  UNL A   1      33.097  38.617  49.689  1.00  0.00    +0.000 H 
ATOM    112  H9  UNL A   1      31.719  37.577  49.408  1.00  0.00    +0.000 H 
BRANCH   14   13
ATOM     13  N1  UNL A   1      32.104  38.941  47.905  1.00  0.00    +0.000 N 
ATOM    110  H7  UNL A   1      31.355  38.549  47.400  1.00  0.00    +0.000 H 
BRANCH   13   11
ATOM     11  C8  UNL A   1      32.917  39.712  47.138  1.00  0.00    +0.000 C 
ATOM     12  O3  UNL A   1      34.058  39.885  47.574  1.00  0.00    +0.000 O 
BRANCH   11   10
ATOM     10  C7  UNL A   1      32.456  40.433  45.890  1.00  0.00    +0.000 C 
BRANCH   10    9
ATOM      9  C6  UNL A   1      33.188  41.407  45.298  1.00  0.00    +0.000 C 
ATOM    109  H6  UNL A   1      33.734  41.111  44.475  1.00  0.00    +0.000 H 
BRANCH    9    8
ATOM      5  C2  UNL A   1      33.610  45.594  46.143  1.00  0.00    +0.000 C 
ATOM    102  C73 UNL A   1      34.408  43.548  45.140  1.00  0.00    +0.000 C 
ATOM      6  C3  UNL A   1      32.544  44.899  46.717  1.00  0.00    +0.000 C 
ATOM    103  C74 UNL A   1      34.559  44.919  45.375  1.00  0.00    +0.000 C 
ATOM      7  C4  UNL A   1      32.415  43.522  46.494  1.00  0.00    +0.000 C 
ATOM      8  C5  UNL A   1      33.316  42.837  45.667  1.00  0.00    +0.000 C 
ATOM    107  H4  UNL A   1      31.856  45.397  47.302  1.00  0.00    +0.000 H 
ATOM    108  H5  UNL A   1      31.646  43.004  46.945  1.00  0.00    +0.000 H 
ATOM    149  H46 UNL A   1      35.110  43.050  44.571  1.00  0.00    +0.000 H 
ATOM    150  H47 UNL A   1      35.367  45.428  44.983  1.00  0.00    +0.000 H 
BRANCH    5    2
ATOM      2  S1  UNL A   1      33.781  47.344  46.414  1.00  0.00    +0.000 S 
ATOM      3  O1  UNL A   1      35.195  47.658  46.335  1.00  0.00    +0.000 O 
ATOM      4  O2  UNL A   1      33.013  47.652  47.605  1.00  0.00    +0.000 O 
BRANCH    2    1
ATOM      1  C1  UNL A   1      32.991  48.115  45.025  1.00  0.00    +0.000 C 
ATOM    106  H3  UNL A   1      33.628  48.877  44.629  1.00  0.00    +0.000 H 
ATOM    105  H2  UNL A   1      32.800  47.381  44.270  1.00  0.00    +0.000 H 
ATOM    104  H1  UNL A   1      32.066  48.553  45.339  1.00  0.00    +0.000 H 
ENDBRANCH    2    1
ENDBRANCH    5    2
ENDBRANCH    9    8
ENDBRANCH   10    9
BRANCH   10   86
ATOM    101  C72 UNL A   1      29.986  40.960  45.779  1.00  0.00    +0.000 C 
ATOM    138  H35 UNL A   1      31.616  38.352  44.454  1.00  0.00    +0.000 H 
ATOM    139  H36 UNL A   1      29.360  37.701  43.875  1.00  0.00    +0.000 H 
ATOM    140  H37 UNL A   1      27.490  39.052  44.608  1.00  0.00    +0.000 H 
ATOM    148  H45 UNL A   1      30.159  41.876  46.224  1.00  0.00    +0.000 H 
ATOM     86  C60 UNL A   1      31.071  40.146  45.429  1.00  0.00    +0.000 C 
ATOM     87  C61 UNL A   1      30.824  38.952  44.732  1.00  0.00    +0.000 C 
ATOM     88  C62 UNL A   1      29.525  38.566  44.414  1.00  0.00    +0.000 C 
ATOM     89  C63 UNL A   1      28.454  39.352  44.825  1.00  0.00    +0.000 C 
ATOM     90  C64 UNL A   1      28.664  40.548  45.531  1.00  0.00    +0.000 C 
BRANCH   90   91
ATOM     99  C70 UNL A   1      26.618  43.234  47.248  1.00  0.00    +0.000 C 
ATOM    100  C71 UNL A   1      27.685  42.581  46.627  1.00  0.00    +0.000 C 
ATOM    141  H38 UNL A   1      26.152  39.702  45.859  1.00  0.00    +0.000 H 
ATOM    142  H39 UNL A   1      24.301  40.817  46.954  1.00  0.00    +0.000 H 
ATOM    146  H43 UNL A   1      26.737  44.188  47.622  1.00  0.00    +0.000 H 
ATOM    147  H44 UNL A   1      28.596  43.061  46.541  1.00  0.00    +0.000 H 
ATOM     91  C65 UNL A   1      27.535  41.283  46.117  1.00  0.00    +0.000 C 
ATOM     92  C66 UNL A   1      26.281  40.653  46.238  1.00  0.00    +0.000 C 
ATOM     93  C67 UNL A   1      25.212  41.293  46.862  1.00  0.00    +0.000 C 
ATOM     94  C68 UNL A   1      25.388  42.583  47.361  1.00  0.00    +0.000 C 
BRANCH   94   95
ATOM     97  O5  UNL A   1      23.438  44.287  47.260  1.00  0.00    +0.000 O 
ATOM     98  O6  UNL A   1      23.243  42.318  48.829  1.00  0.00    +0.000 O 
ATOM     95  S2  UNL A   1      24.033  43.362  48.203  1.00  0.00    +0.000 S 
BRANCH   95   96
ATOM    145  H42 UNL A   1      24.159  44.371  50.330  1.00  0.00    +0.000 H 
ATOM    144  H41 UNL A   1      25.720  43.800  49.790  1.00  0.00    +0.000 H 
ATOM    143  H40 UNL A   1      25.051  45.275  49.131  1.00  0.00    +0.000 H 
ATOM     96  C69 UNL A   1      24.819  44.295  49.491  1.00  0.00    +0.000 C 
ENDBRANCH   95   96
ENDBRANCH   94   95
ENDBRANCH   90   91
ENDBRANCH   10   86
ENDBRANCH   11   10
ENDBRANCH   13   11
ENDBRANCH   14   13
ENDBRANCH   15   14
ENDBRANCH   16   15
ENDBRANCH   17   16
ENDBRANCH   18   17
ENDBRANCH   19   18
ENDBRANCH   20   19
ENDBRANCH   21   20
ENDBRANCH   23   21
ENDBRANCH   27   26
BRANCH   31   32
ATOM     33  C25 UNL A   1      19.064  37.516  51.679  1.00  0.00    +0.000 C 
ATOM     34  F1  UNL A   1      19.682  36.409  52.118  1.00  0.00    +0.000 F 
ATOM     35  C26 UNL A   1      17.985  38.013  52.404  1.00  0.00    +0.000 C 
ATOM     36  F2  UNL A   1      17.575  37.379  53.512  1.00  0.00    +0.000 F 
ATOM     37  C27 UNL A   1      17.325  39.154  51.975  1.00  0.00    +0.000 C 
ATOM     38  F3  UNL A   1      16.290  39.636  52.678  1.00  0.00    +0.000 F 
ATOM     39  C28 UNL A   1      17.734  39.794  50.815  1.00  0.00    +0.000 C 
ATOM     40  F4  UNL A   1      17.105  40.904  50.406  1.00  0.00    +0.000 F 
ATOM     41  C29 UNL A   1      18.795  39.282  50.072  1.00  0.00    +0.000 C 
ATOM     42  F5  UNL A   1      19.156  39.915  48.945  1.00  0.00    +0.000 F 
ATOM     32  C24 UNL A   1      19.482  38.133  50.490  1.00  0.00    +0.000 C 
ENDBRANCH   31   32
BRANCH   48   49
ATOM     49  C35 UNL A   1      20.799  33.143  45.464  1.00  0.00    +0.000 C 
ATOM     50  C36 UNL A   1      20.777  31.791  45.841  1.00  0.00    +0.000 C 
ATOM     51  F6  UNL A   1      21.512  31.369  46.880  1.00  0.00    +0.000 F 
ATOM     52  C37 UNL A   1      20.021  30.864  45.129  1.00  0.00    +0.000 C 
ATOM     53  F7  UNL A   1      20.043  29.572  45.483  1.00  0.00    +0.000 F 
ATOM     54  C38 UNL A   1      19.251  31.273  44.051  1.00  0.00    +0.000 C 
ATOM     55  F8  UNL A   1      18.514  30.380  43.375  1.00  0.00    +0.000 F 
ATOM     56  C39 UNL A   1      19.250  32.606  43.668  1.00  0.00    +0.000 C 
ATOM     57  F9  UNL A   1      18.497  33.005  42.633  1.00  0.00    +0.000 F 
ATOM     58  C40 UNL A   1      20.027  33.531  44.359  1.00  0.00    +0.000 C 
ATOM     59  F10 UNL A   1      20.010  34.812  43.962  1.00  0.00    +0.000 F 
ENDBRANCH   48   49
BRANCH   63   64
ATOM     65  C45 UNL A   1      28.353  33.792  46.270  1.00  0.00    +0.000 C 
ATOM     66  F11 UNL A   1      28.032  33.324  47.485  1.00  0.00    +0.000 F 
ATOM     67  C46 UNL A   1      29.491  33.299  45.636  1.00  0.00    +0.000 C 
ATOM     68  F12 UNL A   1      30.247  32.375  46.244  1.00  0.00    +0.000 F 
ATOM     69  C47 UNL A   1      29.851  33.773  44.383  1.00  0.00    +0.000 C 
ATOM     70  F13 UNL A   1      30.941  33.294  43.770  1.00  0.00    +0.000 F 
ATOM     71  C48 UNL A   1      29.079  34.748  43.769  1.00  0.00    +0.000 C 
ATOM     72  F14 UNL A   1      29.413  35.197  42.551  1.00  0.00    +0.000 F 
ATOM     73  C49 UNL A   1      27.956  35.261  44.414  1.00  0.00    +0.000 C 
ATOM     74  F15 UNL A   1      27.235  36.211  43.800  1.00  0.00    +0.000 F 
ATOM     64  C44 UNL A   1      27.567  34.789  45.676  1.00  0.00    +0.000 C 
ENDBRANCH   63   64
TORSDOF 23
ENDMDL
MODEL 7
REMARK VINA RESULT:     -10.2      3.695      8.222
ROOT
ATOM    129  H26 UNL A   1      40.460  30.697  31.191  1.00  0.00    +0.000 H 
ATOM    130  H27 UNL A   1      41.706  29.527  29.312  1.00  0.00    +0.000 H 
ATOM    131  H28 UNL A   1      43.567  33.182  29.993  1.00  0.00    +0.000 H 
ATOM    132  H29 UNL A   1      41.279  35.163  34.011  1.00  0.00    +0.000 H 
ATOM    133  H30 UNL A   1      42.876  37.151  33.780  1.00  0.00    +0.000 H 
ATOM    134  H31 UNL A   1      47.672  32.531  26.257  1.00  0.00    +0.000 H 
ATOM    135  H32 UNL A   1      45.866  30.717  26.219  1.00  0.00    +0.000 H 
ATOM     27  C20 UNL A   1      43.925  30.993  28.285  1.00  0.00    +0.000 C 
ATOM     28  C21 UNL A   1      45.043  31.936  27.946  1.00  0.00    +0.000 C 
ATOM     29  N3  UNL A   1      45.369  33.072  28.510  1.00  0.00    +0.000 N 
ATOM     30  C22 UNL A   1      46.501  33.514  27.842  1.00  0.00    +0.000 C 
ATOM     31  C23 UNL A   1      47.186  34.670  28.017  1.00  0.00    +0.000 C 
ATOM     43  C30 UNL A   1      46.835  35.681  28.978  1.00  0.00    +0.000 C 
ATOM     44  C31 UNL A   1      47.424  36.916  29.185  1.00  0.00    +0.000 C 
ATOM     45  C32 UNL A   1      46.781  37.531  30.265  1.00  0.00    +0.000 C 
ATOM     46  C33 UNL A   1      45.760  36.700  30.700  1.00  0.00    +0.000 C 
ATOM     47  N4  UNL A   1      45.803  35.569  29.899  1.00  0.00    +0.000 N 
ATOM     48  C34 UNL A   1      44.822  36.916  31.772  1.00  0.00    +0.000 C 
ATOM     60  C41 UNL A   1      43.815  36.073  32.105  1.00  0.00    +0.000 C 
ATOM     61  N5  UNL A   1      43.463  34.862  31.526  1.00  0.00    +0.000 N 
ATOM     62  C42 UNL A   1      42.434  34.422  32.208  1.00  0.00    +0.000 C 
ATOM     63  C43 UNL A   1      41.634  33.163  32.010  1.00  0.00    +0.000 C 
ATOM     75  C50 UNL A   1      41.965  32.324  31.010  1.00  0.00    +0.000 C 
ATOM     76  C51 UNL A   1      41.297  31.062  30.710  1.00  0.00    +0.000 C 
ATOM     77  C52 UNL A   1      41.947  30.450  29.707  1.00  0.00    +0.000 C 
ATOM     78  C53 UNL A   1      43.051  31.302  29.262  1.00  0.00    +0.000 C 
ATOM     79  N6  UNL A   1      42.967  32.405  30.073  1.00  0.00    +0.000 N 
ATOM     80  C54 UNL A   1      42.028  35.298  33.315  1.00  0.00    +0.000 C 
ATOM     81  C55 UNL A   1      42.880  36.307  33.186  1.00  0.00    +0.000 C 
ATOM     82  C56 UNL A   1      46.837  32.503  26.862  1.00  0.00    +0.000 C 
ATOM     83  C57 UNL A   1      45.931  31.536  26.844  1.00  0.00    +0.000 C 
ATOM    126  H23 UNL A   1      48.203  37.314  28.638  1.00  0.00    +0.000 H 
ATOM    127  H24 UNL A   1      47.025  38.448  30.670  1.00  0.00    +0.000 H 
ATOM    128  H25 UNL A   1      45.192  34.801  29.973  1.00  0.00    +0.000 H 
ENDROOT
BRANCH   27   26
ATOM    136  H33 UNL A   1      42.158  30.218  26.440  1.00  0.00    +0.000 H 
ATOM    137  H34 UNL A   1      41.983  28.084  25.305  1.00  0.00    +0.000 H 
ATOM     84  C58 UNL A   1      42.835  29.468  26.646  1.00  0.00    +0.000 C 
ATOM     85  C59 UNL A   1      42.758  28.258  25.965  1.00  0.00    +0.000 C 
ATOM     23  C16 UNL A   1      43.733  27.279  26.176  1.00  0.00    +0.000 C 
ATOM     24  C17 UNL A   1      44.698  27.447  27.172  1.00  0.00    +0.000 C 
ATOM     25  C18 UNL A   1      44.736  28.638  27.901  1.00  0.00    +0.000 C 
ATOM     26  C19 UNL A   1      43.833  29.674  27.612  1.00  0.00    +0.000 C 
ATOM    124  H21 UNL A   1      45.379  26.698  27.366  1.00  0.00    +0.000 H 
ATOM    125  H22 UNL A   1      45.430  28.756  28.656  1.00  0.00    +0.000 H 
BRANCH   23   21
ATOM     21  C15 UNL A   1      43.765  26.061  25.340  1.00  0.00    +0.000 C 
ATOM     22  O4  UNL A   1      42.718  25.513  25.013  1.00  0.00    +0.000 O 
BRANCH   21   20
ATOM    123  H20 UNL A   1      45.447  26.048  24.244  1.00  0.00    +0.000 H 
ATOM     20  N2  UNL A   1      44.976  25.545  24.947  1.00  0.00    +0.000 N 
BRANCH   20   19
ATOM    121  H18 UNL A   1      46.539  24.647  25.960  1.00  0.00    +0.000 H 
ATOM    122  H19 UNL A   1      44.980  23.826  26.075  1.00  0.00    +0.000 H 
ATOM     19  C14 UNL A   1      45.655  24.352  25.433  1.00  0.00    +0.000 C 
BRANCH   19   18
ATOM     18  C13 UNL A   1      46.050  23.416  24.295  1.00  0.00    +0.000 C 
ATOM    119  H16 UNL A   1      46.220  24.007  23.419  1.00  0.00    +0.000 H 
ATOM    120  H17 UNL A   1      46.924  22.891  24.618  1.00  0.00    +0.000 H 
BRANCH   18   17
ATOM     17  C12 UNL A   1      44.998  22.356  23.960  1.00  0.00    +0.000 C 
ATOM    117  H14 UNL A   1      44.515  22.643  23.049  1.00  0.00    +0.000 H 
ATOM    118  H15 UNL A   1      45.523  21.426  23.887  1.00  0.00    +0.000 H 
BRANCH   17   16
ATOM    115  H12 UNL A   1      44.189  22.736  25.888  1.00  0.00    +0.000 H 
ATOM    116  H13 UNL A   1      42.994  22.465  24.583  1.00  0.00    +0.000 H 
ATOM     16  C11 UNL A   1      43.917  22.157  25.029  1.00  0.00    +0.000 C 
BRANCH   16   15
ATOM    113  H10 UNL A   1      43.905  20.056  24.656  1.00  0.00    +0.000 H 
ATOM    114  H11 UNL A   1      44.374  20.529  26.303  1.00  0.00    +0.000 H 
ATOM     15  C10 UNL A   1      43.707  20.703  25.484  1.00  0.00    +0.000 C 
BRANCH   15   14
ATOM     14  C9  UNL A   1      42.288  20.420  25.991  1.00  0.00    +0.000 C 
ATOM    111  H8  UNL A   1      41.773  19.806  25.283  1.00  0.00    +0.000 H 
ATOM    112  H9  UNL A   1      42.344  19.916  26.933  1.00  0.00    +0.000 H 
BRANCH   14   13
ATOM     13  N1  UNL A   1      41.571  21.668  26.158  1.00  0.00    +0.000 N 
ATOM    110  H7  UNL A   1      41.673  22.277  25.391  1.00  0.00    +0.000 H 
BRANCH   13   11
ATOM     11  C8  UNL A   1      40.789  22.179  27.144  1.00  0.00    +0.000 C 
ATOM     12  O3  UNL A   1      40.640  21.462  28.136  1.00  0.00    +0.000 O 
BRANCH   11   10
ATOM     10  C7  UNL A   1      40.029  23.483  27.020  1.00  0.00    +0.000 C 
BRANCH   10    9
ATOM      9  C6  UNL A   1      39.099  23.695  26.058  1.00  0.00    +0.000 C 
ATOM    109  H6  UNL A   1      39.321  24.445  25.386  1.00  0.00    +0.000 H 
BRANCH    9    8
ATOM      5  C2  UNL A   1      35.278  21.887  25.315  1.00  0.00    +0.000 C 
ATOM    102  C73 UNL A   1      36.630  23.723  26.106  1.00  0.00    +0.000 C 
ATOM      6  C3  UNL A   1      36.431  21.135  25.085  1.00  0.00    +0.000 C 
ATOM    103  C74 UNL A   1      35.371  23.172  25.850  1.00  0.00    +0.000 C 
ATOM      7  C4  UNL A   1      37.687  21.689  25.367  1.00  0.00    +0.000 C 
ATOM      8  C5  UNL A   1      37.807  23.003  25.837  1.00  0.00    +0.000 C 
ATOM    107  H4  UNL A   1      36.359  20.176  24.710  1.00  0.00    +0.000 H 
ATOM    108  H5  UNL A   1      38.536  21.120  25.227  1.00  0.00    +0.000 H 
ATOM    149  H46 UNL A   1      36.697  24.674  26.502  1.00  0.00    +0.000 H 
ATOM    150  H47 UNL A   1      34.515  23.712  26.055  1.00  0.00    +0.000 H 
BRANCH    5    2
ATOM      2  S1  UNL A   1      33.678  21.196  24.955  1.00  0.00    +0.000 S 
ATOM      3  O1  UNL A   1      33.262  21.718  23.667  1.00  0.00    +0.000 O 
ATOM      4  O2  UNL A   1      32.868  21.399  26.140  1.00  0.00    +0.000 O 
BRANCH    2    1
ATOM      1  C1  UNL A   1      33.952  19.455  24.756  1.00  0.00    +0.000 C 
ATOM    106  H3  UNL A   1      33.022  18.969  24.546  1.00  0.00    +0.000 H 
ATOM    105  H2  UNL A   1      34.631  19.291  23.946  1.00  0.00    +0.000 H 
ATOM    104  H1  UNL A   1      34.367  19.053  25.657  1.00  0.00    +0.000 H 
ENDBRANCH    2    1
ENDBRANCH    5    2
ENDBRANCH    9    8
ENDBRANCH   10    9
BRANCH   10   86
ATOM    101  C72 UNL A   1      39.619  25.653  28.250  1.00  0.00    +0.000 C 
ATOM    138  H35 UNL A   1      42.453  23.880  28.051  1.00  0.00    +0.000 H 
ATOM    139  H36 UNL A   1      43.300  25.780  29.287  1.00  0.00    +0.000 H 
ATOM    140  H37 UNL A   1      41.844  27.655  29.759  1.00  0.00    +0.000 H 
ATOM    148  H45 UNL A   1      38.610  25.585  28.038  1.00  0.00    +0.000 H 
ATOM     86  C60 UNL A   1      40.471  24.597  27.901  1.00  0.00    +0.000 C 
ATOM     87  C61 UNL A   1      41.820  24.659  28.287  1.00  0.00    +0.000 C 
ATOM     88  C62 UNL A   1      42.314  25.759  28.982  1.00  0.00    +0.000 C 
ATOM     89  C63 UNL A   1      41.471  26.830  29.264  1.00  0.00    +0.000 C 
ATOM     90  C64 UNL A   1      40.119  26.804  28.885  1.00  0.00    +0.000 C 
BRANCH   90   91
ATOM     99  C70 UNL A   1      37.736  29.387  30.301  1.00  0.00    +0.000 C 
ATOM    100  C71 UNL A   1      38.592  28.286  30.215  1.00  0.00    +0.000 C 
ATOM    141  H38 UNL A   1      39.594  28.660  27.039  1.00  0.00    +0.000 H 
ATOM    142  H39 UNL A   1      38.095  30.560  27.172  1.00  0.00    +0.000 H 
ATOM    146  H43 UNL A   1      37.235  29.589  31.180  1.00  0.00    +0.000 H 
ATOM    147  H44 UNL A   1      38.723  27.676  31.037  1.00  0.00    +0.000 H 
ATOM     91  C65 UNL A   1      39.277  28.000  29.024  1.00  0.00    +0.000 C 
ATOM     92  C66 UNL A   1      39.089  28.852  27.918  1.00  0.00    +0.000 C 
ATOM     93  C67 UNL A   1      38.232  29.949  27.992  1.00  0.00    +0.000 C 
ATOM     94  C68 UNL A   1      37.563  30.210  29.187  1.00  0.00    +0.000 C 
BRANCH   94   95
ATOM     97  O5  UNL A   1      35.496  31.386  28.159  1.00  0.00    +0.000 O 
ATOM     98  O6  UNL A   1      35.973  31.711  30.617  1.00  0.00    +0.000 O 
ATOM     95  S2  UNL A   1      36.432  31.578  29.248  1.00  0.00    +0.000 S 
BRANCH   95   96
ATOM    145  H42 UNL A   1      37.396  33.197  27.830  1.00  0.00    +0.000 H 
ATOM    144  H41 UNL A   1      37.105  33.830  29.433  1.00  0.00    +0.000 H 
ATOM    143  H40 UNL A   1      38.464  32.769  29.145  1.00  0.00    +0.000 H 
ATOM     96  C69 UNL A   1      37.451  32.982  28.877  1.00  0.00    +0.000 C 
ENDBRANCH   95   96
ENDBRANCH   94   95
ENDBRANCH   90   91
ENDBRANCH   10   86
ENDBRANCH   11   10
ENDBRANCH   13   11
ENDBRANCH   14   13
ENDBRANCH   15   14
ENDBRANCH   16   15
ENDBRANCH   17   16
ENDBRANCH   18   17
ENDBRANCH   19   18
ENDBRANCH   20   19
ENDBRANCH   21   20
ENDBRANCH   23   21
ENDBRANCH   27   26
BRANCH   31   32
ATOM     33  C25 UNL A   1      49.644  34.368  27.474  1.00  0.00    +0.000 C 
ATOM     34  F1  UNL A   1      49.807  33.669  28.607  1.00  0.00    +0.000 F 
ATOM     35  C26 UNL A   1      50.748  34.582  26.654  1.00  0.00    +0.000 C 
ATOM     36  F2  UNL A   1      51.948  34.102  27.009  1.00  0.00    +0.000 F 
ATOM     37  C27 UNL A   1      50.612  35.302  25.477  1.00  0.00    +0.000 C 
ATOM     38  F3  UNL A   1      51.675  35.501  24.684  1.00  0.00    +0.000 F 
ATOM     39  C28 UNL A   1      49.375  35.821  25.124  1.00  0.00    +0.000 C 
ATOM     40  F4  UNL A   1      49.239  36.506  23.980  1.00  0.00    +0.000 F 
ATOM     41  C29 UNL A   1      48.275  35.634  25.957  1.00  0.00    +0.000 C 
ATOM     42  F5  UNL A   1      47.096  36.162  25.595  1.00  0.00    +0.000 F 
ATOM     32  C24 UNL A   1      48.388  34.902  27.149  1.00  0.00    +0.000 C 
ENDBRANCH   31   32
BRANCH   48   49
ATOM     49  C35 UNL A   1      44.958  38.178  32.571  1.00  0.00    +0.000 C 
ATOM     50  C36 UNL A   1      45.791  38.245  33.697  1.00  0.00    +0.000 C 
ATOM     51  F6  UNL A   1      46.435  37.150  34.126  1.00  0.00    +0.000 F 
ATOM     52  C37 UNL A   1      45.940  39.435  34.405  1.00  0.00    +0.000 C 
ATOM     53  F7  UNL A   1      46.712  39.468  35.500  1.00  0.00    +0.000 F 
ATOM     54  C38 UNL A   1      45.286  40.583  33.984  1.00  0.00    +0.000 C 
ATOM     55  F8  UNL A   1      45.441  41.730  34.660  1.00  0.00    +0.000 F 
ATOM     56  C39 UNL A   1      44.465  40.541  32.867  1.00  0.00    +0.000 C 
ATOM     57  F9  UNL A   1      43.842  41.653  32.452  1.00  0.00    +0.000 F 
ATOM     58  C40 UNL A   1      44.292  39.347  32.174  1.00  0.00    +0.000 C 
ATOM     59  F10 UNL A   1      43.487  39.336  31.100  1.00  0.00    +0.000 F 
ENDBRANCH   48   49
BRANCH   63   64
ATOM     65  C45 UNL A   1      40.653  32.032  34.025  1.00  0.00    +0.000 C 
ATOM     66  F11 UNL A   1      41.859  31.516  34.302  1.00  0.00    +0.000 F 
ATOM     67  C46 UNL A   1      39.577  31.717  34.852  1.00  0.00    +0.000 C 
ATOM     68  F12 UNL A   1      39.758  30.906  35.903  1.00  0.00    +0.000 F 
ATOM     69  C47 UNL A   1      38.317  32.231  34.583  1.00  0.00    +0.000 C 
ATOM     70  F13 UNL A   1      37.285  31.934  35.382  1.00  0.00    +0.000 F 
ATOM     71  C48 UNL A   1      38.129  33.050  33.479  1.00  0.00    +0.000 C 
ATOM     72  F14 UNL A   1      36.918  33.562  33.224  1.00  0.00    +0.000 F 
ATOM     73  C49 UNL A   1      39.199  33.343  32.636  1.00  0.00    +0.000 C 
ATOM     74  F15 UNL A   1      38.986  34.129  31.570  1.00  0.00    +0.000 F 
ATOM     64  C44 UNL A   1      40.484  32.844  32.895  1.00  0.00    +0.000 C 
ENDBRANCH   63   64
TORSDOF 23
ENDMDL
MODEL 8
REMARK VINA RESULT:     -10.0     28.045     35.358
ROOT
ATOM    129  H26 UNL A   1      17.070  24.172   0.143  1.00  0.00    +0.000 H 
ATOM    130  H27 UNL A   1      19.216  25.496   0.443  1.00  0.00    +0.000 H 
ATOM    131  H28 UNL A   1      19.859  21.672   1.943  1.00  0.00    +0.000 H 
ATOM    132  H29 UNL A   1      15.696  19.058   0.874  1.00  0.00    +0.000 H 
ATOM    133  H30 UNL A   1      16.825  17.050   1.990  1.00  0.00    +0.000 H 
ATOM    134  H31 UNL A   1      25.239  22.388   3.277  1.00  0.00    +0.000 H 
ATOM    135  H32 UNL A   1      24.013  24.503   2.515  1.00  0.00    +0.000 H 
ATOM     27  C20 UNL A   1      21.343  24.027   1.648  1.00  0.00    +0.000 C 
ATOM     28  C21 UNL A   1      22.296  23.043   2.262  1.00  0.00    +0.000 C 
ATOM     29  N3  UNL A   1      22.118  21.774   2.531  1.00  0.00    +0.000 N 
ATOM     30  C22 UNL A   1      23.324  21.325   3.048  1.00  0.00    +0.000 C 
ATOM     31  C23 UNL A   1      23.629  20.096   3.529  1.00  0.00    +0.000 C 
ATOM     43  C30 UNL A   1      22.705  18.995   3.583  1.00  0.00    +0.000 C 
ATOM     44  C31 UNL A   1      22.897  17.732   4.115  1.00  0.00    +0.000 C 
ATOM     45  C32 UNL A   1      21.738  16.982   3.889  1.00  0.00    +0.000 C 
ATOM     46  C33 UNL A   1      20.806  17.791   3.259  1.00  0.00    +0.000 C 
ATOM     47  N4  UNL A   1      21.412  19.025   3.080  1.00  0.00    +0.000 N 
ATOM     48  C34 UNL A   1      19.467  17.462   2.841  1.00  0.00    +0.000 C 
ATOM     60  C41 UNL A   1      18.595  18.329   2.273  1.00  0.00    +0.000 C 
ATOM     61  N5  UNL A   1      18.771  19.672   1.970  1.00  0.00    +0.000 N 
ATOM     62  C42 UNL A   1      17.649  20.069   1.422  1.00  0.00    +0.000 C 
ATOM     63  C43 UNL A   1      17.272  21.434   0.915  1.00  0.00    +0.000 C 
ATOM     75  C50 UNL A   1      18.164  22.439   1.007  1.00  0.00    +0.000 C 
ATOM     76  C51 UNL A   1      17.949  23.805   0.542  1.00  0.00    +0.000 C 
ATOM     77  C52 UNL A   1      19.079  24.509   0.713  1.00  0.00    +0.000 C 
ATOM     78  C53 UNL A   1      20.084  23.654   1.346  1.00  0.00    +0.000 C 
ATOM     79  N6  UNL A   1      19.443  22.452   1.508  1.00  0.00    +0.000 N 
ATOM     80  C54 UNL A   1      16.637  19.011   1.295  1.00  0.00    +0.000 C 
ATOM     81  C55 UNL A   1      17.251  17.981   1.861  1.00  0.00    +0.000 C 
ATOM     82  C56 UNL A   1      24.244  22.442   3.011  1.00  0.00    +0.000 C 
ATOM     83  C57 UNL A   1      23.639  23.544   2.591  1.00  0.00    +0.000 C 
ATOM    126  H23 UNL A   1      23.748  17.401   4.595  1.00  0.00    +0.000 H 
ATOM    127  H24 UNL A   1      21.600  15.992   4.147  1.00  0.00    +0.000 H 
ATOM    128  H25 UNL A   1      20.988  19.807   2.658  1.00  0.00    +0.000 H 
ENDROOT
BRANCH   27   26
ATOM    136  H33 UNL A   1      22.205  24.878  -0.731  1.00  0.00    +0.000 H 
ATOM    137  H34 UNL A   1      22.955  27.091  -1.372  1.00  0.00    +0.000 H 
ATOM     84  C58 UNL A   1      22.206  25.643  -0.038  1.00  0.00    +0.000 C 
ATOM     85  C59 UNL A   1      22.599  26.922  -0.418  1.00  0.00    +0.000 C 
ATOM     23  C16 UNL A   1      22.508  27.976   0.495  1.00  0.00    +0.000 C 
ATOM     24  C17 UNL A   1      22.166  27.729   1.827  1.00  0.00    +0.000 C 
ATOM     25  C18 UNL A   1      21.834  26.431   2.224  1.00  0.00    +0.000 C 
ATOM     26  C19 UNL A   1      21.808  25.388   1.284  1.00  0.00    +0.000 C 
ATOM    124  H21 UNL A   1      22.159  28.499   2.512  1.00  0.00    +0.000 H 
ATOM    125  H22 UNL A   1      21.608  26.238   3.212  1.00  0.00    +0.000 H 
BRANCH   23   21
ATOM     21  C15 UNL A   1      22.757  29.367   0.061  1.00  0.00    +0.000 C 
ATOM     22  O4  UNL A   1      23.906  29.771  -0.072  1.00  0.00    +0.000 O 
BRANCH   21   20
ATOM    123  H20 UNL A   1      21.519  30.882   0.513  1.00  0.00    +0.000 H 
ATOM     20  N2  UNL A   1      21.691  30.200  -0.177  1.00  0.00    +0.000 N 
BRANCH   20   19
ATOM    121  H18 UNL A   1      20.522  31.220  -1.543  1.00  0.00    +0.000 H 
ATOM    122  H19 UNL A   1      21.278  29.739  -2.137  1.00  0.00    +0.000 H 
ATOM     19  C14 UNL A   1      20.781  30.207  -1.313  1.00  0.00    +0.000 C 
BRANCH   19   18
ATOM     18  C13 UNL A   1      19.503  29.425  -1.026  1.00  0.00    +0.000 C 
ATOM    119  H16 UNL A   1      18.790  29.655  -1.792  1.00  0.00    +0.000 H 
ATOM    120  H17 UNL A   1      19.773  28.390  -1.009  1.00  0.00    +0.000 H 
BRANCH   18   17
ATOM     17  C12 UNL A   1      18.867  29.736   0.331  1.00  0.00    +0.000 C 
ATOM    117  H14 UNL A   1      18.279  28.891   0.623  1.00  0.00    +0.000 H 
ATOM    118  H15 UNL A   1      19.677  29.942   0.999  1.00  0.00    +0.000 H 
BRANCH   17   16
ATOM    115  H12 UNL A   1      18.016  31.441  -0.610  1.00  0.00    +0.000 H 
ATOM    116  H13 UNL A   1      16.985  30.628   0.605  1.00  0.00    +0.000 H 
ATOM     16  C11 UNL A   1      17.965  30.976   0.352  1.00  0.00    +0.000 C 
BRANCH   16   15
ATOM    113  H10 UNL A   1      19.047  31.607   2.080  1.00  0.00    +0.000 H 
ATOM    114  H11 UNL A   1      18.715  32.881   0.887  1.00  0.00    +0.000 H 
ATOM     15  C10 UNL A   1      18.329  32.031   1.410  1.00  0.00    +0.000 C 
BRANCH   15   14
ATOM     14  C9  UNL A   1      17.128  32.514   2.230  1.00  0.00    +0.000 C 
ATOM    111  H8  UNL A   1      16.710  31.690   2.769  1.00  0.00    +0.000 H 
ATOM    112  H9  UNL A   1      17.450  33.267   2.918  1.00  0.00    +0.000 H 
BRANCH   14   13
ATOM     13  N1  UNL A   1      16.124  33.071   1.346  1.00  0.00    +0.000 N 
ATOM    110  H7  UNL A   1      16.510  33.583   0.599  1.00  0.00    +0.000 H 
BRANCH   13   11
ATOM     11  C8  UNL A   1      14.767  33.038   1.324  1.00  0.00    +0.000 C 
ATOM     12  O3  UNL A   1      14.201  33.770   2.140  1.00  0.00    +0.000 O 
BRANCH   11   10
ATOM     10  C7  UNL A   1      13.965  32.088   0.460  1.00  0.00    +0.000 C 
BRANCH   10    9
ATOM      9  C6  UNL A   1      14.412  31.639  -0.737  1.00  0.00    +0.000 C 
ATOM    109  H6  UNL A   1      14.695  32.371  -1.406  1.00  0.00    +0.000 H 
BRANCH    9    8
ATOM      5  C2  UNL A   1      15.032  27.600  -2.050  1.00  0.00    +0.000 C 
ATOM    102  C73 UNL A   1      15.758  29.894  -1.850  1.00  0.00    +0.000 C 
ATOM      6  C3  UNL A   1      13.807  27.935  -1.471  1.00  0.00    +0.000 C 
ATOM    103  C74 UNL A   1      16.001  28.580  -2.265  1.00  0.00    +0.000 C 
ATOM      7  C4  UNL A   1      13.566  29.259  -1.079  1.00  0.00    +0.000 C 
ATOM      8  C5  UNL A   1      14.551  30.245  -1.220  1.00  0.00    +0.000 C 
ATOM    107  H4  UNL A   1      13.084  27.213  -1.332  1.00  0.00    +0.000 H 
ATOM    108  H5  UNL A   1      12.648  29.511  -0.681  1.00  0.00    +0.000 H 
ATOM    149  H46 UNL A   1      16.476  30.617  -2.010  1.00  0.00    +0.000 H 
ATOM    150  H47 UNL A   1      16.891  28.337  -2.728  1.00  0.00    +0.000 H 
BRANCH    5    2
ATOM      2  S1  UNL A   1      15.352  25.921  -2.545  1.00  0.00    +0.000 S 
ATOM      3  O1  UNL A   1      14.974  25.064  -1.437  1.00  0.00    +0.000 O 
ATOM      4  O2  UNL A   1      16.700  25.902  -3.080  1.00  0.00    +0.000 O 
BRANCH    2    1
ATOM      1  C1  UNL A   1      14.220  25.599  -3.872  1.00  0.00    +0.000 C 
ATOM    106  H3  UNL A   1      13.216  25.720  -3.522  1.00  0.00    +0.000 H 
ATOM    105  H2  UNL A   1      14.404  26.283  -4.673  1.00  0.00    +0.000 H 
ATOM    104  H1  UNL A   1      14.356  24.596  -4.221  1.00  0.00    +0.000 H 
ENDBRANCH    2    1
ENDBRANCH    5    2
ENDBRANCH    9    8
ENDBRANCH   10    9
BRANCH   10   86
ATOM    101  C72 UNL A   1      12.269  30.703   1.724  1.00  0.00    +0.000 C 
ATOM    138  H35 UNL A   1      11.736  33.383  -0.212  1.00  0.00    +0.000 H 
ATOM    139  H36 UNL A   1       9.434  32.826   0.278  1.00  0.00    +0.000 H 
ATOM    140  H37 UNL A   1       8.923  30.852   1.582  1.00  0.00    +0.000 H 
ATOM    148  H45 UNL A   1      13.034  30.176   2.177  1.00  0.00    +0.000 H 
ATOM     86  C60 UNL A   1      12.575  31.797   0.904  1.00  0.00    +0.000 C 
ATOM     87  C61 UNL A   1      11.523  32.565   0.379  1.00  0.00    +0.000 C 
ATOM     88  C62 UNL A   1      10.197  32.236   0.644  1.00  0.00    +0.000 C 
ATOM     89  C63 UNL A   1       9.907  31.109   1.406  1.00  0.00    +0.000 C 
ATOM     90  C64 UNL A   1      10.935  30.313   1.939  1.00  0.00    +0.000 C 
BRANCH   90   91
ATOM     99  C70 UNL A   1       9.509  27.727   4.312  1.00  0.00    +0.000 C 
ATOM    100  C71 UNL A   1       9.725  28.942   3.657  1.00  0.00    +0.000 C 
ATOM    141  H38 UNL A   1      11.978  27.915   1.398  1.00  0.00    +0.000 H 
ATOM    142  H39 UNL A   1      11.626  25.808   2.542  1.00  0.00    +0.000 H 
ATOM    146  H43 UNL A   1       8.841  27.670   5.096  1.00  0.00    +0.000 H 
ATOM    147  H44 UNL A   1       9.210  29.783   3.961  1.00  0.00    +0.000 H 
ATOM     91  C65 UNL A   1      10.632  29.031   2.590  1.00  0.00    +0.000 C 
ATOM     92  C66 UNL A   1      11.316  27.867   2.188  1.00  0.00    +0.000 C 
ATOM     93  C67 UNL A   1      11.112  26.652   2.839  1.00  0.00    +0.000 C 
ATOM     94  C68 UNL A   1      10.205  26.590   3.897  1.00  0.00    +0.000 C 
BRANCH   94   95
ATOM     97  O5  UNL A   1       8.860  24.389   4.145  1.00  0.00    +0.000 O 
ATOM     98  O6  UNL A   1      11.296  24.399   4.812  1.00  0.00    +0.000 O 
ATOM     95  S2  UNL A   1       9.999  25.048   4.752  1.00  0.00    +0.000 S 
BRANCH   95   96
ATOM    145  H42 UNL A   1       9.062  26.484   6.370  1.00  0.00    +0.000 H 
ATOM    144  H41 UNL A   1       8.905  24.804   6.826  1.00  0.00    +0.000 H 
ATOM    143  H40 UNL A   1      10.443  25.615   6.997  1.00  0.00    +0.000 H 
ATOM     96  C69 UNL A   1       9.559  25.536   6.400  1.00  0.00    +0.000 C 
ENDBRANCH   95   96
ENDBRANCH   94   95
ENDBRANCH   90   91
ENDBRANCH   10   86
ENDBRANCH   11   10
ENDBRANCH   13   11
ENDBRANCH   14   13
ENDBRANCH   15   14
ENDBRANCH   16   15
ENDBRANCH   17   16
ENDBRANCH   18   17
ENDBRANCH   19   18
ENDBRANCH   20   19
ENDBRANCH   21   20
ENDBRANCH   23   21
ENDBRANCH   27   26
BRANCH   31   32
ATOM     33  C25 UNL A   1      26.088  19.594   3.165  1.00  0.00    +0.000 C 
ATOM     34  F1  UNL A   1      25.865  19.466   1.848  1.00  0.00    +0.000 F 
ATOM     35  C26 UNL A   1      27.379  19.404   3.647  1.00  0.00    +0.000 C 
ATOM     36  F2  UNL A   1      28.370  19.088   2.801  1.00  0.00    +0.000 F 
ATOM     37  C27 UNL A   1      27.641  19.528   5.003  1.00  0.00    +0.000 C 
ATOM     38  F3  UNL A   1      28.887  19.351   5.466  1.00  0.00    +0.000 F 
ATOM     39  C28 UNL A   1      26.610  19.828   5.881  1.00  0.00    +0.000 C 
ATOM     40  F4  UNL A   1      26.864  19.960   7.190  1.00  0.00    +0.000 F 
ATOM     41  C29 UNL A   1      25.312  19.990   5.405  1.00  0.00    +0.000 C 
ATOM     42  F5  UNL A   1      24.334  20.265   6.282  1.00  0.00    +0.000 F 
ATOM     32  C24 UNL A   1      25.024  19.877   4.036  1.00  0.00    +0.000 C 
ENDBRANCH   31   32
BRANCH   48   49
ATOM     49  C35 UNL A   1      18.994  16.057   3.068  1.00  0.00    +0.000 C 
ATOM     50  C36 UNL A   1      18.359  15.683   4.261  1.00  0.00    +0.000 C 
ATOM     51  F6  UNL A   1      18.224  16.567   5.260  1.00  0.00    +0.000 F 
ATOM     52  C37 UNL A   1      17.887  14.386   4.442  1.00  0.00    +0.000 C 
ATOM     53  F7  UNL A   1      17.316  14.039   5.604  1.00  0.00    +0.000 F 
ATOM     54  C38 UNL A   1      18.012  13.450   3.426  1.00  0.00    +0.000 C 
ATOM     55  F8  UNL A   1      17.545  12.205   3.598  1.00  0.00    +0.000 F 
ATOM     56  C39 UNL A   1      18.628  13.802   2.235  1.00  0.00    +0.000 C 
ATOM     57  F9  UNL A   1      18.740  12.902   1.247  1.00  0.00    +0.000 F 
ATOM     58  C40 UNL A   1      19.126  15.089   2.061  1.00  0.00    +0.000 C 
ATOM     59  F10 UNL A   1      19.722  15.399   0.899  1.00  0.00    +0.000 F 
ENDBRANCH   48   49
BRANCH   63   64
ATOM     65  C45 UNL A   1      14.893  22.211   1.111  1.00  0.00    +0.000 C 
ATOM     66  F11 UNL A   1      15.102  22.471   2.411  1.00  0.00    +0.000 F 
ATOM     67  C46 UNL A   1      13.628  22.437   0.573  1.00  0.00    +0.000 C 
ATOM     68  F12 UNL A   1      12.644  22.903   1.354  1.00  0.00    +0.000 F 
ATOM     69  C47 UNL A   1      13.383  22.169  -0.765  1.00  0.00    +0.000 C 
ATOM     70  F13 UNL A   1      12.169  22.393  -1.285  1.00  0.00    +0.000 F 
ATOM     71  C48 UNL A   1      14.399  21.663  -1.563  1.00  0.00    +0.000 C 
ATOM     72  F14 UNL A   1      14.171  21.418  -2.861  1.00  0.00    +0.000 F 
ATOM     73  C49 UNL A   1      15.656  21.411  -1.019  1.00  0.00    +0.000 C 
ATOM     74  F15 UNL A   1      16.616  20.912  -1.812  1.00  0.00    +0.000 F 
ATOM     64  C44 UNL A   1      15.930  21.685   0.328  1.00  0.00    +0.000 C 
ENDBRANCH   63   64
TORSDOF 23
ENDMDL
MODEL 9
REMARK VINA RESULT:     -10.0     37.631     42.435
ROOT
ATOM    129  H26 UNL A   1      11.992  50.241   6.390  1.00  0.00    +0.000 H 
ATOM    130  H27 UNL A   1      12.368  52.711   6.841  1.00  0.00    +0.000 H 
ATOM    131  H28 UNL A   1      14.698  51.647   3.567  1.00  0.00    +0.000 H 
ATOM    132  H29 UNL A   1      13.508  46.870   2.528  1.00  0.00    +0.000 H 
ATOM    133  H30 UNL A   1      15.180  47.009   0.594  1.00  0.00    +0.000 H 
ATOM    134  H31 UNL A   1      16.730  56.747   2.523  1.00  0.00    +0.000 H 
ATOM    135  H32 UNL A   1      15.363  56.538   4.678  1.00  0.00    +0.000 H 
ATOM     27  C20 UNL A   1      14.181  53.972   5.037  1.00  0.00    +0.000 C 
ATOM     28  C21 UNL A   1      15.131  54.400   3.955  1.00  0.00    +0.000 C 
ATOM     29  N3  UNL A   1      15.619  53.706   2.959  1.00  0.00    +0.000 N 
ATOM     30  C22 UNL A   1      16.408  54.588   2.236  1.00  0.00    +0.000 C 
ATOM     31  C23 UNL A   1      17.173  54.335   1.146  1.00  0.00    +0.000 C 
ATOM     43  C30 UNL A   1      17.295  53.044   0.525  1.00  0.00    +0.000 C 
ATOM     44  C31 UNL A   1      18.097  52.671  -0.540  1.00  0.00    +0.000 C 
ATOM     45  C32 UNL A   1      17.839  51.327  -0.831  1.00  0.00    +0.000 C 
ATOM     46  C33 UNL A   1      16.913  50.849   0.082  1.00  0.00    +0.000 C 
ATOM     47  N4  UNL A   1      16.590  51.913   0.909  1.00  0.00    +0.000 N 
ATOM     48  C34 UNL A   1      16.355  49.525   0.185  1.00  0.00    +0.000 C 
ATOM     60  C41 UNL A   1      15.486  49.119   1.142  1.00  0.00    +0.000 C 
ATOM     61  N5  UNL A   1      14.951  49.844   2.198  1.00  0.00    +0.000 N 
ATOM     62  C42 UNL A   1      14.155  49.021   2.835  1.00  0.00    +0.000 C 
ATOM     63  C43 UNL A   1      13.326  49.264   4.066  1.00  0.00    +0.000 C 
ATOM     75  C50 UNL A   1      13.358  50.477   4.651  1.00  0.00    +0.000 C 
ATOM     76  C51 UNL A   1      12.596  50.866   5.833  1.00  0.00    +0.000 C 
ATOM     77  C52 UNL A   1      12.806  52.169   6.080  1.00  0.00    +0.000 C 
ATOM     78  C53 UNL A   1      13.757  52.695   5.100  1.00  0.00    +0.000 C 
ATOM     79  N6  UNL A   1      14.051  51.613   4.309  1.00  0.00    +0.000 N 
ATOM     80  C54 UNL A   1      14.080  47.679   2.239  1.00  0.00    +0.000 C 
ATOM     81  C55 UNL A   1      14.937  47.783   1.232  1.00  0.00    +0.000 C 
ATOM     82  C56 UNL A   1      16.298  55.880   2.878  1.00  0.00    +0.000 C 
ATOM     83  C57 UNL A   1      15.569  55.804   3.982  1.00  0.00    +0.000 C 
ATOM    126  H23 UNL A   1      18.769  53.279  -1.033  1.00  0.00    +0.000 H 
ATOM    127  H24 UNL A   1      18.267  50.783  -1.597  1.00  0.00    +0.000 H 
ATOM    128  H25 UNL A   1      15.954  51.872   1.660  1.00  0.00    +0.000 H 
ENDROOT
BRANCH   27   26
ATOM    136  H33 UNL A   1      15.364  55.005   7.196  1.00  0.00    +0.000 H 
ATOM    137  H34 UNL A   1      14.508  56.650   8.756  1.00  0.00    +0.000 H 
ATOM     84  C58 UNL A   1      14.424  55.408   7.056  1.00  0.00    +0.000 C 
ATOM     85  C59 UNL A   1      13.951  56.381   7.930  1.00  0.00    +0.000 C 
ATOM     23  C16 UNL A   1      12.719  56.993   7.684  1.00  0.00    +0.000 C 
ATOM     24  C17 UNL A   1      11.894  56.534   6.654  1.00  0.00    +0.000 C 
ATOM     25  C18 UNL A   1      12.344  55.511   5.816  1.00  0.00    +0.000 C 
ATOM     26  C19 UNL A   1      13.630  54.972   5.984  1.00  0.00    +0.000 C 
ATOM    124  H21 UNL A   1      10.961  56.947   6.514  1.00  0.00    +0.000 H 
ATOM    125  H22 UNL A   1      11.728  55.149   5.072  1.00  0.00    +0.000 H 
BRANCH   23   21
ATOM     21  C15 UNL A   1      12.279  58.145   8.500  1.00  0.00    +0.000 C 
ATOM     22  O4  UNL A   1      12.959  59.164   8.540  1.00  0.00    +0.000 O 
BRANCH   21   20
ATOM    123  H20 UNL A   1      10.289  58.292   8.732  1.00  0.00    +0.000 H 
ATOM     20  N2  UNL A   1      11.112  58.055   9.220  1.00  0.00    +0.000 N 
BRANCH   20   19
ATOM    121  H18 UNL A   1      11.860  57.768  11.125  1.00  0.00    +0.000 H 
ATOM    122  H19 UNL A   1      10.171  58.275  11.034  1.00  0.00    +0.000 H 
ATOM     19  C14 UNL A   1      10.930  57.654  10.607  1.00  0.00    +0.000 C 
BRANCH   19   18
ATOM     18  C13 UNL A   1      10.474  56.202  10.727  1.00  0.00    +0.000 C 
ATOM    119  H16 UNL A   1       9.952  56.090  11.655  1.00  0.00    +0.000 H 
ATOM    120  H17 UNL A   1       9.856  56.003   9.876  1.00  0.00    +0.000 H 
BRANCH   18   17
ATOM     17  C12 UNL A   1      11.614  55.181  10.692  1.00  0.00    +0.000 C 
ATOM    117  H14 UNL A   1      12.522  55.706  10.475  1.00  0.00    +0.000 H 
ATOM    118  H15 UNL A   1      11.618  54.705  11.650  1.00  0.00    +0.000 H 
BRANCH   17   16
ATOM    115  H12 UNL A   1      10.572  53.504   9.907  1.00  0.00    +0.000 H 
ATOM    116  H13 UNL A   1      11.388  54.546   8.703  1.00  0.00    +0.000 H 
ATOM     16  C11 UNL A   1      11.450  54.064   9.656  1.00  0.00    +0.000 C 
BRANCH   16   15
ATOM    113  H10 UNL A   1      12.366  52.183  10.078  1.00  0.00    +0.000 H 
ATOM    114  H11 UNL A   1      12.815  52.912   8.520  1.00  0.00    +0.000 H 
ATOM     15  C10 UNL A   1      12.629  53.081   9.561  1.00  0.00    +0.000 C 
BRANCH   15   14
ATOM     14  C9  UNL A   1      13.928  53.625  10.166  1.00  0.00    +0.000 C 
ATOM    111  H8  UNL A   1      14.048  54.651   9.887  1.00  0.00    +0.000 H 
ATOM    112  H9  UNL A   1      13.882  53.545  11.232  1.00  0.00    +0.000 H 
BRANCH   14   13
ATOM     13  N1  UNL A   1      15.055  52.858   9.677  1.00  0.00    +0.000 N 
ATOM    110  H7  UNL A   1      15.467  53.247   8.872  1.00  0.00    +0.000 H 
BRANCH   13   11
ATOM     11  C8  UNL A   1      15.667  51.717  10.088  1.00  0.00    +0.000 C 
ATOM     12  O3  UNL A   1      16.788  51.510   9.617  1.00  0.00    +0.000 O 
BRANCH   11   10
ATOM     10  C7  UNL A   1      15.001  50.679  10.966  1.00  0.00    +0.000 C 
BRANCH   10    9
ATOM      9  C6  UNL A   1      14.971  50.778  12.317  1.00  0.00    +0.000 C 
ATOM    109  H6  UNL A   1      15.842  50.509  12.799  1.00  0.00    +0.000 H 
BRANCH    9    8
ATOM      5  C2  UNL A   1      11.875  51.945  15.050  1.00  0.00    +0.000 C 
ATOM    102  C73 UNL A   1      13.348  50.279  14.109  1.00  0.00    +0.000 C 
ATOM      6  C3  UNL A   1      12.338  52.880  14.124  1.00  0.00    +0.000 C 
ATOM    103  C74 UNL A   1      12.357  50.636  15.030  1.00  0.00    +0.000 C 
ATOM      7  C4  UNL A   1      13.314  52.507  13.191  1.00  0.00    +0.000 C 
ATOM      8  C5  UNL A   1      13.865  51.218  13.200  1.00  0.00    +0.000 C 
ATOM    107  H4  UNL A   1      11.964  53.842  14.127  1.00  0.00    +0.000 H 
ATOM    108  H5  UNL A   1      13.632  53.190  12.487  1.00  0.00    +0.000 H 
ATOM    149  H46 UNL A   1      13.704  49.311  14.096  1.00  0.00    +0.000 H 
ATOM    150  H47 UNL A   1      11.986  49.935  15.691  1.00  0.00    +0.000 H 
BRANCH    5    2
ATOM      2  S1  UNL A   1      10.640  52.409  16.244  1.00  0.00    +0.000 S 
ATOM      3  O1  UNL A   1       9.466  51.595  15.991  1.00  0.00    +0.000 O 
ATOM      4  O2  UNL A   1      10.565  53.857  16.215  1.00  0.00    +0.000 O 
BRANCH    2    1
ATOM      1  C1  UNL A   1      11.296  51.915  17.816  1.00  0.00    +0.000 C 
ATOM    106  H3  UNL A   1      10.729  51.091  18.197  1.00  0.00    +0.000 H 
ATOM    105  H2  UNL A   1      12.318  51.621  17.700  1.00  0.00    +0.000 H 
ATOM    104  H1  UNL A   1      11.236  52.734  18.502  1.00  0.00    +0.000 H 
ENDBRANCH    2    1
ENDBRANCH    5    2
ENDBRANCH    9    8
ENDBRANCH   10    9
BRANCH   10   86
ATOM    101  C72 UNL A   1      13.218  49.328   9.789  1.00  0.00    +0.000 C 
ATOM    138  H35 UNL A   1      16.324  48.394  10.621  1.00  0.00    +0.000 H 
ATOM    139  H36 UNL A   1      15.532  46.281   9.748  1.00  0.00    +0.000 H 
ATOM    140  H37 UNL A   1      13.236  46.065   9.015  1.00  0.00    +0.000 H 
ATOM    148  H45 UNL A   1      12.619  50.167   9.728  1.00  0.00    +0.000 H 
ATOM     86  C60 UNL A   1      14.521  49.444  10.290  1.00  0.00    +0.000 C 
ATOM     87  C61 UNL A   1      15.357  48.316  10.270  1.00  0.00    +0.000 C 
ATOM     88  C62 UNL A   1      14.898  47.095   9.786  1.00  0.00    +0.000 C 
ATOM     89  C63 UNL A   1      13.582  46.978   9.352  1.00  0.00    +0.000 C 
ATOM     90  C64 UNL A   1      12.715  48.083   9.367  1.00  0.00    +0.000 C 
BRANCH   90   91
ATOM     99  C70 UNL A   1       9.230  46.615   9.146  1.00  0.00    +0.000 C 
ATOM    100  C71 UNL A   1      10.572  46.786   9.496  1.00  0.00    +0.000 C 
ATOM    141  H38 UNL A   1      11.123  49.732   7.998  1.00  0.00    +0.000 H 
ATOM    142  H39 UNL A   1       8.802  49.434   7.367  1.00  0.00    +0.000 H 
ATOM    146  H43 UNL A   1       8.714  45.777   9.456  1.00  0.00    +0.000 H 
ATOM    147  H44 UNL A   1      11.044  46.069  10.070  1.00  0.00    +0.000 H 
ATOM     91  C65 UNL A   1      11.284  47.920   9.078  1.00  0.00    +0.000 C 
ATOM     92  C66 UNL A   1      10.615  48.888   8.304  1.00  0.00    +0.000 C 
ATOM     93  C67 UNL A   1       9.279  48.723   7.944  1.00  0.00    +0.000 C 
ATOM     94  C68 UNL A   1       8.594  47.586   8.372  1.00  0.00    +0.000 C 
BRANCH   94   95
ATOM     97  O5  UNL A   1       6.091  48.114   8.788  1.00  0.00    +0.000 O 
ATOM     98  O6  UNL A   1       6.846  47.619   6.429  1.00  0.00    +0.000 O 
ATOM     95  S2  UNL A   1       6.909  47.364   7.857  1.00  0.00    +0.000 S 
BRANCH   95   96
ATOM    145  H42 UNL A   1       7.500  45.082   7.869  1.00  0.00    +0.000 H 
ATOM    144  H41 UNL A   1       6.361  45.463   9.139  1.00  0.00    +0.000 H 
ATOM    143  H40 UNL A   1       5.811  45.311   7.486  1.00  0.00    +0.000 H 
ATOM     96  C69 UNL A   1       6.616  45.633   8.113  1.00  0.00    +0.000 C 
ENDBRANCH   95   96
ENDBRANCH   94   95
ENDBRANCH   90   91
ENDBRANCH   10   86
ENDBRANCH   11   10
ENDBRANCH   13   11
ENDBRANCH   14   13
ENDBRANCH   15   14
ENDBRANCH   16   15
ENDBRANCH   17   16
ENDBRANCH   18   17
ENDBRANCH   19   18
ENDBRANCH   20   19
ENDBRANCH   21   20
ENDBRANCH   23   21
ENDBRANCH   27   26
BRANCH   31   32
ATOM     33  C25 UNL A   1      17.441  56.214  -0.535  1.00  0.00    +0.000 C 
ATOM     34  F1  UNL A   1      16.278  55.866  -1.107  1.00  0.00    +0.000 F 
ATOM     35  C26 UNL A   1      18.155  57.284  -1.067  1.00  0.00    +0.000 C 
ATOM     36  F2  UNL A   1      17.682  57.937  -2.138  1.00  0.00    +0.000 F 
ATOM     37  C27 UNL A   1      19.361  57.666  -0.499  1.00  0.00    +0.000 C 
ATOM     38  F3  UNL A   1      20.044  58.701  -1.008  1.00  0.00    +0.000 F 
ATOM     39  C28 UNL A   1      19.862  56.973   0.592  1.00  0.00    +0.000 C 
ATOM     40  F4  UNL A   1      21.020  57.350   1.149  1.00  0.00    +0.000 F 
ATOM     41  C29 UNL A   1      19.163  55.884   1.108  1.00  0.00    +0.000 C 
ATOM     42  F5  UNL A   1      19.682  55.224   2.155  1.00  0.00    +0.000 F 
ATOM     32  C24 UNL A   1      17.938  55.483   0.555  1.00  0.00    +0.000 C 
ENDBRANCH   31   32
BRANCH   48   49
ATOM     49  C35 UNL A   1      16.781  48.510  -0.833  1.00  0.00    +0.000 C 
ATOM     50  C36 UNL A   1      15.993  48.228  -1.959  1.00  0.00    +0.000 C 
ATOM     51  F6  UNL A   1      14.798  48.816  -2.111  1.00  0.00    +0.000 F 
ATOM     52  C37 UNL A   1      16.420  47.314  -2.919  1.00  0.00    +0.000 C 
ATOM     53  F7  UNL A   1      15.635  47.031  -3.968  1.00  0.00    +0.000 F 
ATOM     54  C38 UNL A   1      17.651  46.689  -2.787  1.00  0.00    +0.000 C 
ATOM     55  F8  UNL A   1      18.066  45.820  -3.719  1.00  0.00    +0.000 F 
ATOM     56  C39 UNL A   1      18.451  46.961  -1.687  1.00  0.00    +0.000 C 
ATOM     57  F9  UNL A   1      19.647  46.369  -1.565  1.00  0.00    +0.000 F 
ATOM     58  C40 UNL A   1      18.015  47.853  -0.712  1.00  0.00    +0.000 C 
ATOM     59  F10 UNL A   1      18.807  48.093   0.344  1.00  0.00    +0.000 F 
ENDBRANCH   48   49
BRANCH   63   64
ATOM     65  C45 UNL A   1      11.141  48.046   4.276  1.00  0.00    +0.000 C 
ATOM     66  F11 UNL A   1      10.595  48.910   3.407  1.00  0.00    +0.000 F 
ATOM     67  C46 UNL A   1      10.343  47.045   4.825  1.00  0.00    +0.000 C 
ATOM     68  F12 UNL A   1       9.050  46.961   4.484  1.00  0.00    +0.000 F 
ATOM     69  C47 UNL A   1      10.881  46.144   5.732  1.00  0.00    +0.000 C 
ATOM     70  F13 UNL A   1      10.116  45.177   6.254  1.00  0.00    +0.000 F 
ATOM     71  C48 UNL A   1      12.214  46.251   6.101  1.00  0.00    +0.000 C 
ATOM     72  F14 UNL A   1      12.742  45.374   6.964  1.00  0.00    +0.000 F 
ATOM     73  C49 UNL A   1      13.006  47.269   5.574  1.00  0.00    +0.000 C 
ATOM     74  F15 UNL A   1      14.289  47.355   5.956  1.00  0.00    +0.000 F 
ATOM     64  C44 UNL A   1      12.487  48.184   4.646  1.00  0.00    +0.000 C 
ENDBRANCH   63   64
TORSDOF 23
ENDMDL
MODEL 10
REMARK VINA RESULT:     -10.0     39.184     45.304
ROOT
ATOM    129  H26 UNL A   1       7.829  32.888  -6.116  1.00  0.00    +0.000 H 
ATOM    130  H27 UNL A   1       8.806  30.597  -5.619  1.00  0.00    +0.000 H 
ATOM    131  H28 UNL A   1      10.833  32.164  -8.893  1.00  0.00    +0.000 H 
ATOM    132  H29 UNL A   1       9.103  36.853  -9.465  1.00  0.00    +0.000 H 
ATOM    133  H30 UNL A   1      10.713  37.069 -11.444  1.00  0.00    +0.000 H 
ATOM    134  H31 UNL A   1      14.438  27.939  -9.516  1.00  0.00    +0.000 H 
ATOM    135  H32 UNL A   1      12.592  27.551  -7.784  1.00  0.00    +0.000 H 
ATOM     27  C20 UNL A   1      10.924  29.821  -7.365  1.00  0.00    +0.000 C 
ATOM     28  C21 UNL A   1      12.018  29.663  -8.381  1.00  0.00    +0.000 C 
ATOM     29  N3  UNL A   1      12.439  30.513  -9.283  1.00  0.00    +0.000 N 
ATOM     30  C22 UNL A   1      13.494  29.885  -9.929  1.00  0.00    +0.000 C 
ATOM     31  C23 UNL A   1      14.225  30.331 -10.978  1.00  0.00    +0.000 C 
ATOM     43  C30 UNL A   1      14.021  31.599 -11.627  1.00  0.00    +0.000 C 
ATOM     44  C31 UNL A   1      14.663  32.112 -12.740  1.00  0.00    +0.000 C 
ATOM     45  C32 UNL A   1      14.172  33.402 -12.972  1.00  0.00    +0.000 C 
ATOM     46  C33 UNL A   1      13.190  33.673 -12.033  1.00  0.00    +0.000 C 
ATOM     47  N4  UNL A   1      13.106  32.557 -11.216  1.00  0.00    +0.000 N 
ATOM     48  C34 UNL A   1      12.395  34.865 -11.885  1.00  0.00    +0.000 C 
ATOM     60  C41 UNL A   1      11.413  35.037 -10.967  1.00  0.00    +0.000 C 
ATOM     61  N5  UNL A   1      10.962  34.152  -9.998  1.00  0.00    +0.000 N 
ATOM     62  C42 UNL A   1      10.011  34.780  -9.350  1.00  0.00    +0.000 C 
ATOM     63  C43 UNL A   1       9.159  34.294  -8.209  1.00  0.00    +0.000 C 
ATOM     75  C50 UNL A   1       9.344  33.047  -7.735  1.00  0.00    +0.000 C 
ATOM     76  C51 UNL A   1       8.611  32.447  -6.625  1.00  0.00    +0.000 C 
ATOM     77  C52 UNL A   1       9.118  31.230  -6.372  1.00  0.00    +0.000 C 
ATOM     78  C53 UNL A   1      10.183  30.945  -7.335  1.00  0.00    +0.000 C 
ATOM     79  N6  UNL A   1      10.227  32.068  -8.123  1.00  0.00    +0.000 N 
ATOM     80  C54 UNL A   1       9.766  36.149  -9.824  1.00  0.00    +0.000 C 
ATOM     81  C55 UNL A   1      10.622  36.242 -10.833  1.00  0.00    +0.000 C 
ATOM     82  C56 UNL A   1      13.682  28.602  -9.286  1.00  0.00    +0.000 C 
ATOM     83  C57 UNL A   1      12.754  28.390  -8.363  1.00  0.00    +0.000 C 
ATOM    126  H23 UNL A   1      15.381  31.628 -13.301  1.00  0.00    +0.000 H 
ATOM    127  H24 UNL A   1      14.488  34.043 -13.717  1.00  0.00    +0.000 H 
ATOM    128  H25 UNL A   1      12.487  32.458 -10.456  1.00  0.00    +0.000 H 
ENDROOT
BRANCH   27   26
ATOM    136  H33 UNL A   1      12.030  29.689  -4.938  1.00  0.00    +0.000 H 
ATOM    137  H34 UNL A   1      11.703  28.024  -3.208  1.00  0.00    +0.000 H 
ATOM     84  C58 UNL A   1      11.379  28.904  -5.095  1.00  0.00    +0.000 C 
ATOM     85  C59 UNL A   1      11.163  27.971  -4.086  1.00  0.00    +0.000 C 
ATOM     23  C16 UNL A   1      10.211  26.963  -4.266  1.00  0.00    +0.000 C 
ATOM     24  C17 UNL A   1       9.583  26.797  -5.503  1.00  0.00    +0.000 C 
ATOM     25  C18 UNL A   1       9.849  27.697  -6.538  1.00  0.00    +0.000 C 
ATOM     26  C19 UNL A   1      10.715  28.782  -6.326  1.00  0.00    +0.000 C 
ATOM    124  H21 UNL A   1       8.926  26.016  -5.651  1.00  0.00    +0.000 H 
ATOM    125  H22 UNL A   1       9.409  27.563  -7.461  1.00  0.00    +0.000 H 
BRANCH   23   21
ATOM     21  C15 UNL A   1       9.845  26.070  -3.146  1.00  0.00    +0.000 C 
ATOM     22  O4  UNL A   1      10.184  24.892  -3.166  1.00  0.00    +0.000 O 
BRANCH   21   20
ATOM    123  H20 UNL A   1       8.141  26.626  -2.242  1.00  0.00    +0.000 H 
ATOM     20  N2  UNL A   1       9.114  26.570  -2.096  1.00  0.00    +0.000 N 
BRANCH   20   19
ATOM    121  H18 UNL A   1       9.204  26.374  -0.040  1.00  0.00    +0.000 H 
ATOM    122  H19 UNL A   1      10.655  27.018  -0.813  1.00  0.00    +0.000 H 
ATOM     19  C14 UNL A   1       9.586  27.027  -0.798  1.00  0.00    +0.000 C 
BRANCH   19   18
ATOM     18  C13 UNL A   1       9.131  28.452  -0.494  1.00  0.00    +0.000 C 
ATOM    119  H16 UNL A   1       8.814  28.905  -1.411  1.00  0.00    +0.000 H 
ATOM    120  H17 UNL A   1       8.343  28.376   0.226  1.00  0.00    +0.000 H 
BRANCH   18   17
ATOM     17  C12 UNL A   1      10.213  29.338   0.128  1.00  0.00    +0.000 C 
ATOM    117  H14 UNL A   1      11.076  29.300  -0.503  1.00  0.00    +0.000 H 
ATOM    118  H15 UNL A   1       9.789  30.316   0.208  1.00  0.00    +0.000 H 
BRANCH   17   16
ATOM    115  H12 UNL A   1       9.763  28.894   2.157  1.00  0.00    +0.000 H 
ATOM    116  H13 UNL A   1      11.140  27.995   1.451  1.00  0.00    +0.000 H 
ATOM     16  C11 UNL A   1      10.640  28.937   1.545  1.00  0.00    +0.000 C 
BRANCH   16   15
ATOM    113  H10 UNL A   1      11.521  29.816   3.278  1.00  0.00    +0.000 H 
ATOM    114  H11 UNL A   1      12.623  29.588   1.903  1.00  0.00    +0.000 H 
ATOM     15  C10 UNL A   1      11.644  29.887   2.219  1.00  0.00    +0.000 C 
BRANCH   15   14
ATOM     14  C9  UNL A   1      11.468  31.353   1.808  1.00  0.00    +0.000 C 
ATOM    111  H8  UNL A   1      10.987  31.400   0.853  1.00  0.00    +0.000 H 
ATOM    112  H9  UNL A   1      10.869  31.856   2.538  1.00  0.00    +0.000 H 
BRANCH   14   13
ATOM     13  N1  UNL A   1      12.764  31.997   1.726  1.00  0.00    +0.000 N 
ATOM    110  H7  UNL A   1      13.152  32.198   2.608  1.00  0.00    +0.000 H 
BRANCH   13   11
ATOM     11  C8  UNL A   1      13.559  32.384   0.695  1.00  0.00    +0.000 C 
ATOM     12  O3  UNL A   1      14.017  33.526   0.771  1.00  0.00    +0.000 O 
BRANCH   11   10
ATOM     10  C7  UNL A   1      13.791  31.545  -0.544  1.00  0.00    +0.000 C 
BRANCH   10    9
ATOM      9  C6  UNL A   1      14.734  30.576  -0.602  1.00  0.00    +0.000 C 
ATOM    109  H6  UNL A   1      15.643  30.818  -0.179  1.00  0.00    +0.000 H 
BRANCH    9    8
ATOM      5  C2  UNL A   1      14.250  26.677  -2.329  1.00  0.00    +0.000 C 
ATOM    102  C73 UNL A   1      13.563  28.410  -0.796  1.00  0.00    +0.000 C 
ATOM      6  C3  UNL A   1      15.359  27.439  -2.697  1.00  0.00    +0.000 C 
ATOM    103  C74 UNL A   1      13.363  27.146  -1.360  1.00  0.00    +0.000 C 
ATOM      7  C4  UNL A   1      15.562  28.695  -2.110  1.00  0.00    +0.000 C 
ATOM      8  C5  UNL A   1      14.646  29.217  -1.187  1.00  0.00    +0.000 C 
ATOM    107  H4  UNL A   1      16.025  27.080  -3.398  1.00  0.00    +0.000 H 
ATOM    108  H5  UNL A   1      16.400  29.243  -2.359  1.00  0.00    +0.000 H 
ATOM    149  H46 UNL A   1      12.906  28.756  -0.079  1.00  0.00    +0.000 H 
ATOM    150  H47 UNL A   1      12.564  26.564  -1.061  1.00  0.00    +0.000 H 
BRANCH    5    2
ATOM      2  S1  UNL A   1      13.978  25.083  -3.073  1.00  0.00    +0.000 S 
ATOM      3  O1  UNL A   1      13.348  25.310  -4.361  1.00  0.00    +0.000 O 
ATOM      4  O2  UNL A   1      13.339  24.263  -2.063  1.00  0.00    +0.000 O 
BRANCH    2    1
ATOM      1  C1  UNL A   1      15.596  24.428  -3.385  1.00  0.00    +0.000 C 
ATOM    106  H3  UNL A   1      15.661  23.435  -2.992  1.00  0.00    +0.000 H 
ATOM    105  H2  UNL A   1      15.775  24.406  -4.440  1.00  0.00    +0.000 H 
ATOM    104  H1  UNL A   1      16.329  25.046  -2.911  1.00  0.00    +0.000 H 
ENDBRANCH    2    1
ENDBRANCH    5    2
ENDBRANCH    9    8
ENDBRANCH   10    9
BRANCH   10   86
ATOM    101  C72 UNL A   1      11.660  32.144  -1.766  1.00  0.00    +0.000 C 
ATOM    138  H35 UNL A   1      14.761  31.880  -3.002  1.00  0.00    +0.000 H 
ATOM    139  H36 UNL A   1      13.580  32.299  -5.072  1.00  0.00    +0.000 H 
ATOM    140  H37 UNL A   1      11.168  32.497  -5.064  1.00  0.00    +0.000 H 
ATOM    148  H45 UNL A   1      11.152  32.178  -0.868  1.00  0.00    +0.000 H 
ATOM     86  C60 UNL A   1      13.047  31.948  -1.768  1.00  0.00    +0.000 C 
ATOM     87  C61 UNL A   1      13.737  32.006  -2.990  1.00  0.00    +0.000 C 
ATOM     88  C62 UNL A   1      13.058  32.228  -4.185  1.00  0.00    +0.000 C 
ATOM     89  C63 UNL A   1      11.673  32.355  -4.175  1.00  0.00    +0.000 C 
ATOM     90  C64 UNL A   1      10.950  32.294  -2.972  1.00  0.00    +0.000 C 
BRANCH   90   91
ATOM     99  C70 UNL A   1       7.385  31.013  -3.021  1.00  0.00    +0.000 C 
ATOM    100  C71 UNL A   1       8.779  31.036  -2.937  1.00  0.00    +0.000 C 
ATOM    141  H38 UNL A   1       9.252  34.349  -3.120  1.00  0.00    +0.000 H 
ATOM    142  H39 UNL A   1       6.835  34.318  -3.289  1.00  0.00    +0.000 H 
ATOM    146  H43 UNL A   1       6.876  30.116  -2.992  1.00  0.00    +0.000 H 
ATOM    147  H44 UNL A   1       9.299  30.149  -2.843  1.00  0.00    +0.000 H 
ATOM     91  C65 UNL A   1       9.482  32.250  -2.978  1.00  0.00    +0.000 C 
ATOM     92  C66 UNL A   1       8.750  33.447  -3.099  1.00  0.00    +0.000 C 
ATOM     93  C67 UNL A   1       7.359  33.435  -3.190  1.00  0.00    +0.000 C 
ATOM     94  C68 UNL A   1       6.685  32.214  -3.147  1.00  0.00    +0.000 C 
BRANCH   94   95
ATOM     97  O5  UNL A   1       4.568  33.456  -3.976  1.00  0.00    +0.000 O 
ATOM     98  O6  UNL A   1       4.532  30.932  -3.887  1.00  0.00    +0.000 O 
ATOM     95  S2  UNL A   1       4.918  32.212  -3.322  1.00  0.00    +0.000 S 
BRANCH   95   96
ATOM    145  H42 UNL A   1       4.530  31.331  -1.170  1.00  0.00    +0.000 H 
ATOM    144  H41 UNL A   1       4.832  33.052  -1.121  1.00  0.00    +0.000 H 
ATOM    143  H40 UNL A   1       3.277  32.451  -1.647  1.00  0.00    +0.000 H 
ATOM     96  C69 UNL A   1       4.330  32.267  -1.649  1.00  0.00    +0.000 C 
ENDBRANCH   95   96
ENDBRANCH   94   95
ENDBRANCH   90   91
ENDBRANCH   10   86
ENDBRANCH   11   10
ENDBRANCH   13   11
ENDBRANCH   14   13
ENDBRANCH   15   14
ENDBRANCH   16   15
ENDBRANCH   17   16
ENDBRANCH   18   17
ENDBRANCH   19   18
ENDBRANCH   20   19
ENDBRANCH   21   20
ENDBRANCH   23   21
ENDBRANCH   27   26
BRANCH   31   32
ATOM     33  C25 UNL A   1      15.054  28.385 -12.376  1.00  0.00    +0.000 C 
ATOM     34  F1  UNL A   1      13.793  28.119 -12.750  1.00  0.00    +0.000 F 
ATOM     35  C26 UNL A   1      16.079  27.574 -12.853  1.00  0.00    +0.000 C 
ATOM     36  F2  UNL A   1      15.796  26.542 -13.661  1.00  0.00    +0.000 F 
ATOM     37  C27 UNL A   1      17.392  27.822 -12.483  1.00  0.00    +0.000 C 
ATOM     38  F3  UNL A   1      18.380  27.044 -12.949  1.00  0.00    +0.000 F 
ATOM     39  C28 UNL A   1      17.682  28.873 -11.626  1.00  0.00    +0.000 C 
ATOM     40  F4  UNL A   1      18.951  29.123 -11.278  1.00  0.00    +0.000 F 
ATOM     41  C29 UNL A   1      16.655  29.669 -11.125  1.00  0.00    +0.000 C 
ATOM     42  F5  UNL A   1      16.965  30.668 -10.285  1.00  0.00    +0.000 F 
ATOM     32  C24 UNL A   1      15.319  29.440 -11.490  1.00  0.00    +0.000 C 
ENDBRANCH   31   32
BRANCH   48   49
ATOM     49  C35 UNL A   1      12.660  36.000 -12.830  1.00  0.00    +0.000 C 
ATOM     50  C36 UNL A   1      13.552  37.032 -12.502  1.00  0.00    +0.000 C 
ATOM     51  F6  UNL A   1      14.138  37.060 -11.297  1.00  0.00    +0.000 F 
ATOM     52  C37 UNL A   1      13.821  38.056 -13.406  1.00  0.00    +0.000 C 
ATOM     53  F7  UNL A   1      14.648  39.052 -13.059  1.00  0.00    +0.000 F 
ATOM     54  C38 UNL A   1      13.229  38.053 -14.660  1.00  0.00    +0.000 C 
ATOM     55  F8  UNL A   1      13.499  39.034 -15.533  1.00  0.00    +0.000 F 
ATOM     56  C39 UNL A   1      12.351  37.037 -15.008  1.00  0.00    +0.000 C 
ATOM     57  F9  UNL A   1      11.788  37.025 -16.224  1.00  0.00    +0.000 F 
ATOM     58  C40 UNL A   1      12.059  36.026 -14.097  1.00  0.00    +0.000 C 
ATOM     59  F10 UNL A   1      11.202  35.060 -14.459  1.00  0.00    +0.000 F 
ENDBRANCH   48   49
BRANCH   63   64
ATOM     65  C45 UNL A   1       8.296  35.731  -6.340  1.00  0.00    +0.000 C 
ATOM     66  F11 UNL A   1       9.410  35.463  -5.642  1.00  0.00    +0.000 F 
ATOM     67  C46 UNL A   1       7.318  36.539  -5.766  1.00  0.00    +0.000 C 
ATOM     68  F12 UNL A   1       7.498  37.032  -4.533  1.00  0.00    +0.000 F 
ATOM     69  C47 UNL A   1       6.153  36.824  -6.463  1.00  0.00    +0.000 C 
ATOM     70  F13 UNL A   1       5.215  37.607  -5.914  1.00  0.00    +0.000 F 
ATOM     71  C48 UNL A   1       5.960  36.290  -7.728  1.00  0.00    +0.000 C 
ATOM     72  F14 UNL A   1       4.844  36.576  -8.411  1.00  0.00    +0.000 F 
ATOM     73  C49 UNL A   1       6.925  35.459  -8.292  1.00  0.00    +0.000 C 
ATOM     74  F15 UNL A   1       6.708  34.950  -9.513  1.00  0.00    +0.000 F 
ATOM     64  C44 UNL A   1       8.116  35.167  -7.611  1.00  0.00    +0.000 C 
ENDBRANCH   63   64
TORSDOF 23
ENDMDL
