MODEL 1
REMARK VINA RESULT:      -9.1      0.000      0.000
ROOT
ATOM    142  H34 UNL A   1      18.436  53.177  -0.752  1.00  0.00    +0.000 H 
ATOM    143  H35 UNL A   1      18.001  50.686  -1.382  1.00  0.00    +0.000 H 
ATOM    144  H36 UNL A   1      15.587  51.654   1.840  1.00  0.00    +0.000 H 
ATOM    145  H37 UNL A   1      11.409  49.890   6.319  1.00  0.00    +0.000 H 
ATOM    146  H38 UNL A   1      11.621  52.382   6.755  1.00  0.00    +0.000 H 
ATOM    147  H39 UNL A   1      14.087  51.441   3.543  1.00  0.00    +0.000 H 
ATOM    148  H40 UNL A   1      13.242  46.584   2.555  1.00  0.00    +0.000 H 
ATOM    149  H41 UNL A   1      14.966  46.795   0.674  1.00  0.00    +0.000 H 
ATOM    150  H42 UNL A   1      16.347  56.501   2.898  1.00  0.00    +0.000 H 
ATOM    151  H43 UNL A   1      14.773  56.264   4.904  1.00  0.00    +0.000 H 
ATOM     50  C38 UNL A   1      13.523  53.701   5.097  1.00  0.00    +0.000 C 
ATOM     51  C39 UNL A   1      14.552  54.156   4.096  1.00  0.00    +0.000 C 
ATOM     52  N3  UNL A   1      15.107  53.484   3.116  1.00  0.00    +0.000 N 
ATOM     53  C40 UNL A   1      15.971  54.371   2.486  1.00  0.00    +0.000 C 
ATOM     54  C41 UNL A   1      16.799  54.143   1.438  1.00  0.00    +0.000 C 
ATOM     66  C48 UNL A   1      16.941  52.874   0.774  1.00  0.00    +0.000 C 
ATOM     67  C49 UNL A   1      17.769  52.544  -0.286  1.00  0.00    +0.000 C 
ATOM     68  C50 UNL A   1      17.546  51.203  -0.614  1.00  0.00    +0.000 C 
ATOM     69  C51 UNL A   1      16.608  50.687   0.266  1.00  0.00    +0.000 C 
ATOM     70  N4  UNL A   1      16.243  51.724   1.110  1.00  0.00    +0.000 N 
ATOM     71  C52 UNL A   1      16.079  49.349   0.330  1.00  0.00    +0.000 C 
ATOM     83  C59 UNL A   1      15.197  48.905   1.258  1.00  0.00    +0.000 C 
ATOM     84  N5  UNL A   1      14.609  49.603   2.304  1.00  0.00    +0.000 N 
ATOM     85  C60 UNL A   1      13.809  48.753   2.897  1.00  0.00    +0.000 C 
ATOM     86  C61 UNL A   1      12.919  48.964   4.089  1.00  0.00    +0.000 C 
ATOM     98  C68 UNL A   1      12.836  50.189   4.639  1.00  0.00    +0.000 C 
ATOM     99  C69 UNL A   1      12.001  50.544   5.784  1.00  0.00    +0.000 C 
ATOM    100  C70 UNL A   1      12.127  51.857   6.026  1.00  0.00    +0.000 C 
ATOM    101  C71 UNL A   1      13.100  52.424   5.091  1.00  0.00    +0.000 C 
ATOM    102  N6  UNL A   1      13.452  51.365   4.293  1.00  0.00    +0.000 N 
ATOM    103  C72 UNL A   1      13.795  47.414   2.291  1.00  0.00    +0.000 C 
ATOM    104  C73 UNL A   1      14.681  47.554   1.314  1.00  0.00    +0.000 C 
ATOM    105  C74 UNL A   1      15.852  55.638   3.174  1.00  0.00    +0.000 C 
ATOM    106  C75 UNL A   1      15.024  55.546   4.205  1.00  0.00    +0.000 C 
ENDROOT
BRANCH   50   49
ATOM    107  C76 UNL A   1      11.919  55.467   5.907  1.00  0.00    +0.000 C 
ATOM    108  C77 UNL A   1      11.569  56.449   6.838  1.00  0.00    +0.000 C 
ATOM    140  H32 UNL A   1      13.734  55.635   9.267  1.00  0.00    +0.000 H 
ATOM     46  C34 UNL A   1      12.294  56.559   8.026  1.00  0.00    +0.000 C 
ATOM     47  C35 UNL A   1      13.295  55.634   8.333  1.00  0.00    +0.000 C 
ATOM     48  C36 UNL A   1      13.694  54.713   7.373  1.00  0.00    +0.000 C 
ATOM    141  H33 UNL A   1      14.488  54.084   7.566  1.00  0.00    +0.000 H 
ATOM     49  C37 UNL A   1      13.023  54.632   6.140  1.00  0.00    +0.000 C 
ATOM    152  H44 UNL A   1      11.363  55.355   5.044  1.00  0.00    +0.000 H 
ATOM    153  H45 UNL A   1      10.781  57.087   6.649  1.00  0.00    +0.000 H 
BRANCH   46   44
ATOM     44  C33 UNL A   1      12.056  57.721   8.908  1.00  0.00    +0.000 C 
ATOM     45  O10 UNL A   1      12.562  58.807   8.650  1.00  0.00    +0.000 O 
BRANCH   44   43
ATOM     43  N2  UNL A   1      11.299  57.547  10.044  1.00  0.00    +0.000 N 
ATOM    139  H31 UNL A   1      11.480  58.176  10.779  1.00  0.00    +0.000 H 
BRANCH   43   42
ATOM    137  H29 UNL A   1       9.483  57.014  10.866  1.00  0.00    +0.000 H 
ATOM     42  C32 UNL A   1      10.266  56.554  10.300  1.00  0.00    +0.000 C 
ATOM    138  H30 UNL A   1       9.919  56.200   9.352  1.00  0.00    +0.000 H 
BRANCH   42   41
ATOM     41  C31 UNL A   1      10.783  55.351  11.075  1.00  0.00    +0.000 C 
ATOM    135  H27 UNL A   1      11.813  55.521  11.306  1.00  0.00    +0.000 H 
ATOM    136  H28 UNL A   1      10.164  55.263  11.944  1.00  0.00    +0.000 H 
BRANCH   41   40
ATOM    133  H25 UNL A   1      11.494  53.955   9.647  1.00  0.00    +0.000 H 
ATOM    134  H26 UNL A   1      10.689  53.258  11.087  1.00  0.00    +0.000 H 
ATOM     40  C30 UNL A   1      10.676  54.019  10.334  1.00  0.00    +0.000 C 
BRANCH   40   39
ATOM    131  H23 UNL A   1       8.904  52.929   9.916  1.00  0.00    +0.000 H 
ATOM    132  H24 UNL A   1       8.802  54.703   9.690  1.00  0.00    +0.000 H 
ATOM     39  C29 UNL A   1       9.379  53.814   9.546  1.00  0.00    +0.000 C 
BRANCH   39   38
ATOM    129  H21 UNL A   1       9.510  54.635   7.587  1.00  0.00    +0.000 H 
ATOM    130  H22 UNL A   1      10.485  53.171   7.871  1.00  0.00    +0.000 H 
ATOM     38  C28 UNL A   1       9.547  53.661   8.029  1.00  0.00    +0.000 C 
BRANCH   38   37
ATOM     37  C27 UNL A   1       8.480  52.792   7.365  1.00  0.00    +0.000 C 
ATOM    127  H19 UNL A   1       7.572  53.352   7.289  1.00  0.00    +0.000 H 
ATOM    128  H20 UNL A   1       8.831  52.507   6.395  1.00  0.00    +0.000 H 
BRANCH   37   36
ATOM     36  N1  UNL A   1       8.230  51.590   8.132  1.00  0.00    +0.000 N 
ATOM    126  H18 UNL A   1       7.569  51.602   8.859  1.00  0.00    +0.000 H 
BRANCH   36    2
ATOM      1  O1  UNL A   1       8.657  49.707   6.902  1.00  0.00    +0.000 O 
ATOM      2  C1  UNL A   1       8.906  50.443   7.849  1.00  0.00    +0.000 C 
BRANCH    2    3
ATOM      3  C2  UNL A   1      10.028  50.097   8.747  1.00  0.00    +0.000 C 
ATOM    109  H1  UNL A   1      10.735  50.840   8.870  1.00  0.00    +0.000 H 
BRANCH    3    4
ATOM      4  C3  UNL A   1      10.269  48.958   9.432  1.00  0.00    +0.000 C 
ATOM    110  H2  UNL A   1       9.761  48.098   9.172  1.00  0.00    +0.000 H 
BRANCH    4    5
ATOM      5  C4  UNL A   1      11.293  48.907  10.602  1.00  0.00    +0.000 C 
ATOM      6  C5  UNL A   1      10.744  49.856  11.634  1.00  0.00    +0.000 C 
ATOM      7  C6  UNL A   1      10.166  49.442  12.770  1.00  0.00    +0.000 C 
ATOM      9  C7  UNL A   1      10.130  47.988  13.139  1.00  0.00    +0.000 C 
ATOM     10  O3  UNL A   1       9.577  47.641  14.176  1.00  0.00    +0.000 O 
ATOM     11  C8  UNL A   1      10.838  47.026  12.262  1.00  0.00    +0.000 C 
ATOM     12  C9  UNL A   1      11.365  47.489  11.125  1.00  0.00    +0.000 C 
ATOM     13  C10 UNL A   1      12.243  46.728  10.202  1.00  0.00    +0.000 C 
ATOM     14  O4  UNL A   1      12.290  45.532  10.061  1.00  0.00    +0.000 O 
ATOM     15  C11 UNL A   1      13.111  47.756   9.563  1.00  0.00    +0.000 C 
ATOM     16  C12 UNL A   1      14.141  47.488   8.757  1.00  0.00    +0.000 C 
ATOM     17  C13 UNL A   1      15.157  48.530   8.555  1.00  0.00    +0.000 C 
ATOM     18  C14 UNL A   1      15.699  48.742   7.277  1.00  0.00    +0.000 C 
ATOM     19  C15 UNL A   1      16.749  49.645   7.121  1.00  0.00    +0.000 C 
ATOM     21  C16 UNL A   1      17.288  50.304   8.223  1.00  0.00    +0.000 C 
ATOM     23  C17 UNL A   1      16.770  50.101   9.490  1.00  0.00    +0.000 C 
ATOM     24  C18 UNL A   1      15.674  49.252   9.654  1.00  0.00    +0.000 C 
ATOM     25  O7  UNL A   1      15.257  49.086  10.948  1.00  0.00    +0.000 O 
ATOM     26  C19 UNL A   1      13.866  49.318  11.300  1.00  0.00    +0.000 C 
ATOM     35  C26 UNL A   1      12.794  49.110  10.170  1.00  0.00    +0.000 C 
ATOM    111  H3  UNL A   1      10.816  50.870  11.458  1.00  0.00    +0.000 H 
ATOM    113  H5  UNL A   1      10.922  46.031  12.521  1.00  0.00    +0.000 H 
ATOM    114  H6  UNL A   1      14.222  46.572   8.289  1.00  0.00    +0.000 H 
ATOM    115  H7  UNL A   1      15.323  48.234   6.462  1.00  0.00    +0.000 H 
ATOM    118  H10 UNL A   1      17.191  50.573  10.306  1.00  0.00    +0.000 H 
ATOM    119  H11 UNL A   1      13.572  48.528  11.961  1.00  0.00    +0.000 H 
ATOM    125  H17 UNL A   1      12.856  49.998   9.576  1.00  0.00    +0.000 H 
BRANCH    7    8
ATOM    112  H4  UNL A   1       9.704  50.235  14.568  1.00  0.00    +0.000 H 
ATOM      8  O2  UNL A   1       9.601  50.349  13.643  1.00  0.00    +0.000 O 
ENDBRANCH    7    8
BRANCH   19   20
ATOM    116  H8  UNL A   1      16.758  50.004   5.145  1.00  0.00    +0.000 H 
ATOM     20  O5  UNL A   1      17.306  49.908   5.900  1.00  0.00    +0.000 O 
ENDBRANCH   19   20
BRANCH   21   22
ATOM    117  H9  UNL A   1      18.906  51.340   8.792  1.00  0.00    +0.000 H 
ATOM     22  O6  UNL A   1      18.341  51.157   8.067  1.00  0.00    +0.000 O 
ENDBRANCH   21   22
BRANCH   26   27
ATOM     34  C25 UNL A   1      14.027  51.870  11.346  1.00  0.00    +0.000 C 
ATOM     28  C21 UNL A   1      13.432  50.708  13.372  1.00  0.00    +0.000 C 
ATOM    120  H12 UNL A   1      13.357  49.830  13.909  1.00  0.00    +0.000 H 
ATOM    121  H13 UNL A   1      12.855  51.942  14.989  1.00  0.00    +0.000 H 
ATOM     27  C20 UNL A   1      13.785  50.660  12.011  1.00  0.00    +0.000 C 
ATOM    124  H16 UNL A   1      14.335  51.863  10.361  1.00  0.00    +0.000 H 
ATOM     29  C22 UNL A   1      13.181  51.925  14.010  1.00  0.00    +0.000 C 
ATOM     30  C23 UNL A   1      13.374  53.112  13.315  1.00  0.00    +0.000 C 
ATOM     32  C24 UNL A   1      13.854  53.083  12.010  1.00  0.00    +0.000 C 
BRANCH   30   31
ATOM    122  H14 UNL A   1      12.254  54.701  13.810  1.00  0.00    +0.000 H 
ATOM     31  O8  UNL A   1      13.100  54.309  13.911  1.00  0.00    +0.000 O 
ENDBRANCH   30   31
BRANCH   32   33
ATOM     33  O9  UNL A   1      14.133  54.254  11.363  1.00  0.00    +0.000 O 
ATOM    123  H15 UNL A   1      13.440  54.844  11.143  1.00  0.00    +0.000 H 
ENDBRANCH   32   33
ENDBRANCH   26   27
ENDBRANCH    4    5
ENDBRANCH    3    4
ENDBRANCH    2    3
ENDBRANCH   36    2
ENDBRANCH   37   36
ENDBRANCH   38   37
ENDBRANCH   39   38
ENDBRANCH   40   39
ENDBRANCH   41   40
ENDBRANCH   42   41
ENDBRANCH   43   42
ENDBRANCH   44   43
ENDBRANCH   46   44
ENDBRANCH   50   49
BRANCH   54   55
ATOM     65  F5  UNL A   1      16.001  55.791  -0.736  1.00  0.00    +0.000 F 
ATOM     55  C42 UNL A   1      17.622  55.292   0.934  1.00  0.00    +0.000 C 
ATOM     56  C43 UNL A   1      18.873  55.598   1.489  1.00  0.00    +0.000 C 
ATOM     57  F1  UNL A   1      19.328  54.914   2.548  1.00  0.00    +0.000 F 
ATOM     58  C44 UNL A   1      19.653  56.630   0.970  1.00  0.00    +0.000 C 
ATOM     59  F2  UNL A   1      20.831  56.927   1.536  1.00  0.00    +0.000 F 
ATOM     60  C45 UNL A   1      19.209  57.355  -0.126  1.00  0.00    +0.000 C 
ATOM     61  F3  UNL A   1      19.968  58.338  -0.631  1.00  0.00    +0.000 F 
ATOM     62  C46 UNL A   1      17.980  57.063  -0.696  1.00  0.00    +0.000 C 
ATOM     63  F4  UNL A   1      17.555  57.756  -1.762  1.00  0.00    +0.000 F 
ATOM     64  C47 UNL A   1      17.187  56.048  -0.165  1.00  0.00    +0.000 C 
ENDBRANCH   54   55
BRANCH   71   72
ATOM     72  C53 UNL A   1      16.544  48.367  -0.702  1.00  0.00    +0.000 C 
ATOM     73  C54 UNL A   1      15.749  48.048  -1.813  1.00  0.00    +0.000 C 
ATOM     74  F6  UNL A   1      14.519  48.572  -1.935  1.00  0.00    +0.000 F 
ATOM     75  C55 UNL A   1      16.205  47.166  -2.788  1.00  0.00    +0.000 C 
ATOM     76  F7  UNL A   1      15.416  46.848  -3.823  1.00  0.00    +0.000 F 
ATOM     77  C56 UNL A   1      17.471  46.609  -2.685  1.00  0.00    +0.000 C 
ATOM     78  F8  UNL A   1      17.913  45.768  -3.631  1.00  0.00    +0.000 F 
ATOM     79  C57 UNL A   1      18.278  46.920  -1.601  1.00  0.00    +0.000 C 
ATOM     80  F9  UNL A   1      19.505  46.391  -1.507  1.00  0.00    +0.000 F 
ATOM     81  C58 UNL A   1      17.815  47.782  -0.611  1.00  0.00    +0.000 C 
ATOM     82  F10 UNL A   1      18.615  48.061   0.429  1.00  0.00    +0.000 F 
ENDBRANCH   71   72
BRANCH   86   87
ATOM     97  F15 UNL A   1      10.119  48.650   3.682  1.00  0.00    +0.000 F 
ATOM     87  C62 UNL A   1      12.129  47.847   4.664  1.00  0.00    +0.000 C 
ATOM     88  C63 UNL A   1      12.739  46.875   5.469  1.00  0.00    +0.000 C 
ATOM     89  F11 UNL A   1      14.062  46.922   5.689  1.00  0.00    +0.000 F 
ATOM     90  C64 UNL A   1      11.996  45.840   6.031  1.00  0.00    +0.000 C 
ATOM     91  F12 UNL A   1      12.607  44.907   6.774  1.00  0.00    +0.000 F 
ATOM     92  C65 UNL A   1      10.627  45.769   5.818  1.00  0.00    +0.000 C 
ATOM     93  F13 UNL A   1       9.911  44.780   6.370  1.00  0.00    +0.000 F 
ATOM     94  C66 UNL A   1      10.002  46.723   5.028  1.00  0.00    +0.000 C 
ATOM     95  F14 UNL A   1       8.678  46.666   4.831  1.00  0.00    +0.000 F 
ATOM     96  C67 UNL A   1      10.748  47.742   4.445  1.00  0.00    +0.000 C 
ENDBRANCH   86   87
TORSDOF 23
ENDMDL
MODEL 2
REMARK VINA RESULT:      -9.0     44.421     51.128
ROOT
ATOM    142  H34 UNL A   1       5.365  10.209  24.482  1.00  0.00    +0.000 H 
ATOM    143  H35 UNL A   1       7.292  11.345  25.820  1.00  0.00    +0.000 H 
ATOM    144  H36 UNL A   1       7.691   7.240  26.194  1.00  0.00    +0.000 H 
ATOM    145  H37 UNL A   1      10.642   2.204  28.755  1.00  0.00    +0.000 H 
ATOM    146  H38 UNL A   1       8.943   1.094  27.229  1.00  0.00    +0.000 H 
ATOM    147  H39 UNL A   1       8.485   5.209  26.857  1.00  0.00    +0.000 H 
ATOM    148  H40 UNL A   1      12.171   7.243  29.607  1.00  0.00    +0.000 H 
ATOM    149  H41 UNL A   1      11.256   9.532  28.914  1.00  0.00    +0.000 H 
ATOM    150  H42 UNL A   1       4.056   5.112  23.466  1.00  0.00    +0.000 H 
ATOM    151  H43 UNL A   1       4.835   2.819  24.300  1.00  0.00    +0.000 H 
ATOM     50  C38 UNL A   1       7.198   2.913  25.904  1.00  0.00    +0.000 C 
ATOM     51  C39 UNL A   1       6.430   4.069  25.319  1.00  0.00    +0.000 C 
ATOM     52  N3  UNL A   1       6.661   5.354  25.426  1.00  0.00    +0.000 N 
ATOM     53  C40 UNL A   1       5.671   5.984  24.683  1.00  0.00    +0.000 C 
ATOM     54  C41 UNL A   1       5.458   7.311  24.510  1.00  0.00    +0.000 C 
ATOM     66  C48 UNL A   1       6.257   8.347  25.109  1.00  0.00    +0.000 C 
ATOM     67  C49 UNL A   1       6.106   9.720  25.006  1.00  0.00    +0.000 C 
ATOM     68  C50 UNL A   1       7.132  10.329  25.736  1.00  0.00    +0.000 C 
ATOM     69  C51 UNL A   1       7.898   9.337  26.326  1.00  0.00    +0.000 C 
ATOM     70  N4  UNL A   1       7.352   8.126  25.930  1.00  0.00    +0.000 N 
ATOM     71  C52 UNL A   1       9.047   9.481  27.183  1.00  0.00    +0.000 C 
ATOM     83  C59 UNL A   1       9.715   8.457  27.766  1.00  0.00    +0.000 C 
ATOM     84  N5  UNL A   1       9.476   7.093  27.667  1.00  0.00    +0.000 N 
ATOM     85  C60 UNL A   1      10.407   6.513  28.383  1.00  0.00    +0.000 C 
ATOM     86  C61 UNL A   1      10.636   5.049  28.632  1.00  0.00    +0.000 C 
ATOM     98  C68 UNL A   1       9.849   4.147  28.017  1.00  0.00    +0.000 C 
ATOM     99  C69 UNL A   1       9.967   2.697  28.150  1.00  0.00    +0.000 C 
ATOM    100  C70 UNL A   1       9.056   2.111  27.359  1.00  0.00    +0.000 C 
ATOM    101  C71 UNL A   1       8.250   3.146  26.710  1.00  0.00    +0.000 C 
ATOM    102  N6  UNL A   1       8.805   4.323  27.144  1.00  0.00    +0.000 N 
ATOM    103  C72 UNL A   1      11.349   7.446  29.017  1.00  0.00    +0.000 C 
ATOM    104  C73 UNL A   1      10.864   8.619  28.632  1.00  0.00    +0.000 C 
ATOM    105  C74 UNL A   1       4.849   4.942  24.105  1.00  0.00    +0.000 C 
ATOM    106  C75 UNL A   1       5.247   3.743  24.506  1.00  0.00    +0.000 C 
ENDROOT
BRANCH   50   49
ATOM    107  C76 UNL A   1       5.894   0.855  26.548  1.00  0.00    +0.000 C 
ATOM    108  C77 UNL A   1       5.627  -0.508  26.388  1.00  0.00    +0.000 C 
ATOM    140  H32 UNL A   1       7.216  -0.995  23.474  1.00  0.00    +0.000 H 
ATOM     46  C34 UNL A   1       6.186  -1.196  25.308  1.00  0.00    +0.000 C 
ATOM     47  C35 UNL A   1       6.922  -0.512  24.337  1.00  0.00    +0.000 C 
ATOM     48  C36 UNL A   1       7.252   0.821  24.542  1.00  0.00    +0.000 C 
ATOM    141  H33 UNL A   1       7.865   1.306  23.868  1.00  0.00    +0.000 H 
ATOM     49  C37 UNL A   1       6.759   1.515  25.660  1.00  0.00    +0.000 C 
ATOM    152  H44 UNL A   1       5.454   1.378  27.321  1.00  0.00    +0.000 H 
ATOM    153  H45 UNL A   1       5.022  -1.001  27.062  1.00  0.00    +0.000 H 
BRANCH   46   44
ATOM     44  C33 UNL A   1       6.071  -2.668  25.258  1.00  0.00    +0.000 C 
ATOM     45  O10 UNL A   1       4.973  -3.206  25.347  1.00  0.00    +0.000 O 
BRANCH   44   43
ATOM     43  N2  UNL A   1       7.219  -3.420  25.158  1.00  0.00    +0.000 N 
ATOM    139  H31 UNL A   1       7.337  -3.912  24.314  1.00  0.00    +0.000 H 
BRANCH   43   42
ATOM    137  H29 UNL A   1       7.919  -3.261  27.093  1.00  0.00    +0.000 H 
ATOM     42  C32 UNL A   1       8.282  -3.583  26.139  1.00  0.00    +0.000 C 
ATOM    138  H30 UNL A   1       8.557  -4.618  26.146  1.00  0.00    +0.000 H 
BRANCH   42   41
ATOM     41  C31 UNL A   1       9.529  -2.782  25.797  1.00  0.00    +0.000 C 
ATOM    135  H27 UNL A   1      10.383  -3.394  25.997  1.00  0.00    +0.000 H 
ATOM    136  H28 UNL A   1       9.438  -2.507  24.767  1.00  0.00    +0.000 H 
BRANCH   41   40
ATOM    133  H25 UNL A   1       9.507  -0.666  25.905  1.00  0.00    +0.000 H 
ATOM    134  H26 UNL A   1       8.984  -1.528  27.385  1.00  0.00    +0.000 H 
ATOM     40  C30 UNL A   1       9.686  -1.479  26.578  1.00  0.00    +0.000 C 
BRANCH   40   39
ATOM    131  H23 UNL A   1      10.905  -0.956  28.235  1.00  0.00    +0.000 H 
ATOM    132  H24 UNL A   1      11.575  -2.199  27.133  1.00  0.00    +0.000 H 
ATOM     39  C29 UNL A   1      11.059  -1.266  27.223  1.00  0.00    +0.000 C 
BRANCH   39   38
ATOM    129  H21 UNL A   1      11.344   0.615  26.268  1.00  0.00    +0.000 H 
ATOM    130  H22 UNL A   1      12.719   0.033  27.241  1.00  0.00    +0.000 H 
ATOM     38  C28 UNL A   1      11.953  -0.222  26.540  1.00  0.00    +0.000 C 
BRANCH   38   37
ATOM     37  C27 UNL A   1      12.659  -0.730  25.283  1.00  0.00    +0.000 C 
ATOM    127  H19 UNL A   1      13.664  -0.999  25.533  1.00  0.00    +0.000 H 
ATOM    128  H20 UNL A   1      12.122  -1.578  24.913  1.00  0.00    +0.000 H 
BRANCH   37   36
ATOM     36  N1  UNL A   1      12.684   0.282  24.249  1.00  0.00    +0.000 N 
ATOM    126  H18 UNL A   1      13.277   1.061  24.342  1.00  0.00    +0.000 H 
BRANCH   36    2
ATOM      1  O1  UNL A   1      11.960  -0.763  22.345  1.00  0.00    +0.000 O 
ATOM      2  C1  UNL A   1      11.892   0.159  23.149  1.00  0.00    +0.000 C 
BRANCH    2    3
ATOM      3  C2  UNL A   1      10.873   1.211  22.947  1.00  0.00    +0.000 C 
ATOM    109  H1  UNL A   1       9.912   0.945  23.214  1.00  0.00    +0.000 H 
BRANCH    3    4
ATOM      4  C3  UNL A   1      11.008   2.466  22.466  1.00  0.00    +0.000 C 
ATOM    110  H2  UNL A   1      11.448   3.187  23.058  1.00  0.00    +0.000 H 
BRANCH    4    5
ATOM      5  C4  UNL A   1      10.517   2.853  21.041  1.00  0.00    +0.000 C 
ATOM      6  C5  UNL A   1      11.568   2.308  20.112  1.00  0.00    +0.000 C 
ATOM      7  C6  UNL A   1      11.376   1.221  19.351  1.00  0.00    +0.000 C 
ATOM      9  C7  UNL A   1      10.042   0.537  19.296  1.00  0.00    +0.000 C 
ATOM     10  O3  UNL A   1       9.905  -0.466  18.605  1.00  0.00    +0.000 O 
ATOM     11  C8  UNL A   1       8.910   1.151  20.029  1.00  0.00    +0.000 C 
ATOM     12  C9  UNL A   1       9.168   2.211  20.800  1.00  0.00    +0.000 C 
ATOM     13  C10 UNL A   1       8.155   3.058  21.479  1.00  0.00    +0.000 C 
ATOM     14  O4  UNL A   1       7.044   2.736  21.814  1.00  0.00    +0.000 O 
ATOM     15  C11 UNL A   1       8.781   4.407  21.567  1.00  0.00    +0.000 C 
ATOM     16  C12 UNL A   1       8.157   5.508  21.993  1.00  0.00    +0.000 C 
ATOM     17  C13 UNL A   1       8.721   6.814  21.626  1.00  0.00    +0.000 C 
ATOM     18  C14 UNL A   1       8.747   7.855  22.568  1.00  0.00    +0.000 C 
ATOM     19  C15 UNL A   1       9.169   9.123  22.172  1.00  0.00    +0.000 C 
ATOM     21  C16 UNL A   1       9.524   9.373  20.850  1.00  0.00    +0.000 C 
ATOM     23  C17 UNL A   1       9.497   8.360  19.908  1.00  0.00    +0.000 C 
ATOM     24  C18 UNL A   1       9.143   7.068  20.301  1.00  0.00    +0.000 C 
ATOM     25  O7  UNL A   1       9.109   6.142  19.293  1.00  0.00    +0.000 O 
ATOM     26  C19 UNL A   1       9.857   4.902  19.417  1.00  0.00    +0.000 C 
ATOM     35  C26 UNL A   1      10.128   4.369  20.870  1.00  0.00    +0.000 C 
ATOM    111  H3  UNL A   1      12.478   2.791  20.059  1.00  0.00    +0.000 H 
ATOM    113  H5  UNL A   1       7.954   0.772  19.947  1.00  0.00    +0.000 H 
ATOM    114  H6  UNL A   1       7.301   5.444  22.564  1.00  0.00    +0.000 H 
ATOM    115  H7  UNL A   1       8.458   7.683  23.542  1.00  0.00    +0.000 H 
ATOM    118  H10 UNL A   1       9.736   8.557  18.923  1.00  0.00    +0.000 H 
ATOM    119  H11 UNL A   1       9.224   4.115  19.062  1.00  0.00    +0.000 H 
ATOM    125  H17 UNL A   1      10.940   4.967  21.227  1.00  0.00    +0.000 H 
BRANCH    7    8
ATOM    112  H4  UNL A   1      12.669  -0.181  18.689  1.00  0.00    +0.000 H 
ATOM      8  O2  UNL A   1      12.401   0.711  18.580  1.00  0.00    +0.000 O 
ENDBRANCH    7    8
BRANCH   19   20
ATOM    116  H8  UNL A   1      10.062  10.443  23.394  1.00  0.00    +0.000 H 
ATOM     20  O5  UNL A   1       9.234  10.173  23.046  1.00  0.00    +0.000 O 
ENDBRANCH   19   20
BRANCH   21   22
ATOM    117  H9  UNL A   1       9.470  11.377  20.825  1.00  0.00    +0.000 H 
ATOM     22  O6  UNL A   1       9.898  10.627  20.462  1.00  0.00    +0.000 O 
ENDBRANCH   21   22
BRANCH   26   27
ATOM     34  C25 UNL A   1      11.183   4.402  17.289  1.00  0.00    +0.000 C 
ATOM     28  C21 UNL A   1      12.190   5.787  18.985  1.00  0.00    +0.000 C 
ATOM    120  H12 UNL A   1      12.195   6.158  19.948  1.00  0.00    +0.000 H 
ATOM    121  H13 UNL A   1      14.032   6.678  18.453  1.00  0.00    +0.000 H 
ATOM     27  C20 UNL A   1      11.097   5.019  18.544  1.00  0.00    +0.000 C 
ATOM    124  H16 UNL A   1      10.417   3.793  16.960  1.00  0.00    +0.000 H 
ATOM     29  C22 UNL A   1      13.270   6.055  18.141  1.00  0.00    +0.000 C 
ATOM     30  C23 UNL A   1      13.310   5.478  16.878  1.00  0.00    +0.000 C 
ATOM     32  C24 UNL A   1      12.301   4.607  16.480  1.00  0.00    +0.000 C 
BRANCH   30   31
ATOM    122  H14 UNL A   1      15.052   6.296  16.314  1.00  0.00    +0.000 H 
ATOM     31  O8  UNL A   1      14.339   5.758  16.027  1.00  0.00    +0.000 O 
ENDBRANCH   30   31
BRANCH   32   33
ATOM     33  O9  UNL A   1      12.392   3.967  15.277  1.00  0.00    +0.000 O 
ATOM    123  H15 UNL A   1      11.634   3.565  14.903  1.00  0.00    +0.000 H 
ENDBRANCH   32   33
ENDBRANCH   26   27
ENDBRANCH    4    5
ENDBRANCH    3    4
ENDBRANCH    2    3
ENDBRANCH   36    2
ENDBRANCH   37   36
ENDBRANCH   38   37
ENDBRANCH   39   38
ENDBRANCH   40   39
ENDBRANCH   41   40
ENDBRANCH   42   41
ENDBRANCH   43   42
ENDBRANCH   44   43
ENDBRANCH   46   44
ENDBRANCH   50   49
BRANCH   54   55
ATOM     65  F5  UNL A   1       5.648   7.466  21.678  1.00  0.00    +0.000 F 
ATOM     55  C42 UNL A   1       4.316   7.729  23.632  1.00  0.00    +0.000 C 
ATOM     56  C43 UNL A   1       3.079   8.112  24.170  1.00  0.00    +0.000 C 
ATOM     57  F1  UNL A   1       2.864   8.035  25.492  1.00  0.00    +0.000 F 
ATOM     58  C44 UNL A   1       2.046   8.556  23.347  1.00  0.00    +0.000 C 
ATOM     59  F2  UNL A   1       0.862   8.888  23.879  1.00  0.00    +0.000 F 
ATOM     60  C45 UNL A   1       2.239   8.648  21.976  1.00  0.00    +0.000 C 
ATOM     61  F3  UNL A   1       1.248   9.088  21.187  1.00  0.00    +0.000 F 
ATOM     62  C46 UNL A   1       3.457   8.283  21.423  1.00  0.00    +0.000 C 
ATOM     63  F4  UNL A   1       3.648   8.381  20.101  1.00  0.00    +0.000 F 
ATOM     64  C47 UNL A   1       4.483   7.816  22.242  1.00  0.00    +0.000 C 
ENDBRANCH   54   55
BRANCH   71   72
ATOM     72  C53 UNL A   1       9.539  10.869  27.460  1.00  0.00    +0.000 C 
ATOM     73  C54 UNL A   1      10.640  11.401  26.774  1.00  0.00    +0.000 C 
ATOM     74  F6  UNL A   1      11.319  10.644  25.899  1.00  0.00    +0.000 F 
ATOM     75  C55 UNL A   1      11.065  12.706  27.008  1.00  0.00    +0.000 C 
ATOM     76  F7  UNL A   1      12.141  13.183  26.369  1.00  0.00    +0.000 F 
ATOM     77  C56 UNL A   1      10.382  13.509  27.910  1.00  0.00    +0.000 C 
ATOM     78  F8  UNL A   1      10.786  14.769  28.126  1.00  0.00    +0.000 F 
ATOM     79  C57 UNL A   1       9.283  13.006  28.590  1.00  0.00    +0.000 C 
ATOM     80  F9  UNL A   1       8.615  13.786  29.452  1.00  0.00    +0.000 F 
ATOM     81  C58 UNL A   1       8.871  11.694  28.377  1.00  0.00    +0.000 C 
ATOM     82  F10 UNL A   1       7.807  11.233  29.052  1.00  0.00    +0.000 F 
ENDBRANCH   71   72
BRANCH   86   87
ATOM     97  F15 UNL A   1      13.052   3.858  27.712  1.00  0.00    +0.000 F 
ATOM     87  C62 UNL A   1      11.715   4.584  29.539  1.00  0.00    +0.000 C 
ATOM     88  C63 UNL A   1      11.585   4.700  30.929  1.00  0.00    +0.000 C 
ATOM     89  F11 UNL A   1      10.495   5.280  31.453  1.00  0.00    +0.000 F 
ATOM     90  C64 UNL A   1      12.585   4.242  31.783  1.00  0.00    +0.000 C 
ATOM     91  F12 UNL A   1      12.450   4.390  33.109  1.00  0.00    +0.000 F 
ATOM     92  C65 UNL A   1      13.722   3.640  31.265  1.00  0.00    +0.000 C 
ATOM     93  F13 UNL A   1      14.677   3.187  32.089  1.00  0.00    +0.000 F 
ATOM     94  C66 UNL A   1      13.869   3.510  29.892  1.00  0.00    +0.000 C 
ATOM     95  F14 UNL A   1      14.959   2.916  29.388  1.00  0.00    +0.000 F 
ATOM     96  C67 UNL A   1      12.882   3.992  29.037  1.00  0.00    +0.000 C 
ENDBRANCH   86   87
TORSDOF 23
ENDMDL
MODEL 3
REMARK VINA RESULT:      -8.8      0.633      6.758
ROOT
ATOM    142  H34 UNL A   1      12.977  46.539   2.869  1.00  0.00    +0.000 H 
ATOM    143  H35 UNL A   1      14.698  46.617   0.912  1.00  0.00    +0.000 H 
ATOM    144  H36 UNL A   1      14.534  50.371   2.652  1.00  0.00    +0.000 H 
ATOM    145  H37 UNL A   1      16.283  56.500   2.700  1.00  0.00    +0.000 H 
ATOM    146  H38 UNL A   1      14.826  56.356   4.775  1.00  0.00    +0.000 H 
ATOM    147  H39 UNL A   1      14.933  52.582   3.035  1.00  0.00    +0.000 H 
ATOM    148  H40 UNL A   1      18.167  52.943  -0.799  1.00  0.00    +0.000 H 
ATOM    149  H41 UNL A   1      17.687  50.473  -1.273  1.00  0.00    +0.000 H 
ATOM    150  H42 UNL A   1      11.335  50.113   6.510  1.00  0.00    +0.000 H 
ATOM    151  H43 UNL A   1      11.652  52.626   6.883  1.00  0.00    +0.000 H 
ATOM     50  C38 UNL A   1      13.620  53.809   5.181  1.00  0.00    +0.000 C 
ATOM     51  C39 UNL A   1      13.130  52.385   5.180  1.00  0.00    +0.000 C 
ATOM     52  N3  UNL A   1      13.480  51.391   4.400  1.00  0.00    +0.000 N 
ATOM     53  C40 UNL A   1      12.747  50.291   4.830  1.00  0.00    +0.000 C 
ATOM     54  C41 UNL A   1      12.730  49.036   4.321  1.00  0.00    +0.000 C 
ATOM     66  C48 UNL A   1      13.498  48.609   3.182  1.00  0.00    +0.000 C 
ATOM     67  C49 UNL A   1      13.531  47.361   2.583  1.00  0.00    +0.000 C 
ATOM     68  C50 UNL A   1      14.443  47.407   1.524  1.00  0.00    +0.000 C 
ATOM     69  C51 UNL A   1      14.949  48.694   1.438  1.00  0.00    +0.000 C 
ATOM     70  N4  UNL A   1      14.363  49.420   2.463  1.00  0.00    +0.000 N 
ATOM     71  C52 UNL A   1      15.901  49.223   0.495  1.00  0.00    +0.000 C 
ATOM     83  C59 UNL A   1      16.309  50.514   0.444  1.00  0.00    +0.000 C 
ATOM     84  N5  UNL A   1      15.942  51.576   1.257  1.00  0.00    +0.000 N 
ATOM     85  C60 UNL A   1      16.628  52.607   0.832  1.00  0.00    +0.000 C 
ATOM     86  C61 UNL A   1      16.630  54.020   1.344  1.00  0.00    +0.000 C 
ATOM     98  C68 UNL A   1      15.891  54.328   2.427  1.00  0.00    +0.000 C 
ATOM     99  C69 UNL A   1      15.811  55.649   3.044  1.00  0.00    +0.000 C 
ATOM    100  C70 UNL A   1      15.026  55.577   4.129  1.00  0.00    +0.000 C 
ATOM    101  C71 UNL A   1      14.499  54.218   4.248  1.00  0.00    +0.000 C 
ATOM    102  N6  UNL A   1      15.082  53.541   3.206  1.00  0.00    +0.000 N 
ATOM    103  C72 UNL A   1      17.516  52.315  -0.301  1.00  0.00    +0.000 C 
ATOM    104  C73 UNL A   1      17.261  51.031  -0.517  1.00  0.00    +0.000 C 
ATOM    105  C74 UNL A   1      11.951  50.729   5.956  1.00  0.00    +0.000 C 
ATOM    106  C75 UNL A   1      12.116  52.025   6.183  1.00  0.00    +0.000 C 
ENDROOT
BRANCH   50   49
ATOM    107  C76 UNL A   1      11.887  55.482   5.921  1.00  0.00    +0.000 C 
ATOM    108  C77 UNL A   1      11.489  56.515   6.774  1.00  0.00    +0.000 C 
ATOM    140  H32 UNL A   1      13.863  56.177   9.120  1.00  0.00    +0.000 H 
ATOM     46  C34 UNL A   1      12.265  56.820   7.894  1.00  0.00    +0.000 C 
ATOM     47  C35 UNL A   1      13.374  56.036   8.222  1.00  0.00    +0.000 C 
ATOM     48  C36 UNL A   1      13.812  55.064   7.331  1.00  0.00    +0.000 C 
ATOM    141  H33 UNL A   1      14.677  54.540   7.531  1.00  0.00    +0.000 H 
ATOM     49  C37 UNL A   1      13.085  54.789   6.160  1.00  0.00    +0.000 C 
ATOM    152  H44 UNL A   1      11.297  55.226   5.113  1.00  0.00    +0.000 H 
ATOM    153  H45 UNL A   1      10.628  57.049   6.577  1.00  0.00    +0.000 H 
BRANCH   46   44
ATOM     44  C33 UNL A   1      11.957  58.038   8.672  1.00  0.00    +0.000 C 
ATOM     45  O10 UNL A   1      12.848  58.828   8.962  1.00  0.00    +0.000 O 
BRANCH   44   43
ATOM     43  N2  UNL A   1      10.666  58.239   9.104  1.00  0.00    +0.000 N 
ATOM    139  H31 UNL A   1      10.206  59.023   8.726  1.00  0.00    +0.000 H 
BRANCH   43   42
ATOM    137  H29 UNL A   1       9.151  58.074  10.495  1.00  0.00    +0.000 H 
ATOM     42  C32 UNL A   1       9.893  57.446  10.048  1.00  0.00    +0.000 C 
ATOM    138  H30 UNL A   1       9.454  56.636   9.504  1.00  0.00    +0.000 H 
BRANCH   42   41
ATOM     41  C31 UNL A   1      10.748  56.843  11.152  1.00  0.00    +0.000 C 
ATOM    135  H27 UNL A   1      11.710  57.309  11.120  1.00  0.00    +0.000 H 
ATOM    136  H28 UNL A   1      10.225  57.018  12.070  1.00  0.00    +0.000 H 
BRANCH   41   40
ATOM    133  H25 UNL A   1      11.924  55.153  10.651  1.00  0.00    +0.000 H 
ATOM    134  H26 UNL A   1      10.817  54.949  12.044  1.00  0.00    +0.000 H 
ATOM     40  C30 UNL A   1      10.949  55.332  11.053  1.00  0.00    +0.000 C 
BRANCH   40   39
ATOM    131  H23 UNL A   1       9.273  54.051  10.818  1.00  0.00    +0.000 H 
ATOM    132  H24 UNL A   1       9.441  55.350   9.596  1.00  0.00    +0.000 H 
ATOM     39  C29 UNL A   1       9.932  54.596  10.175  1.00  0.00    +0.000 C 
BRANCH   39   38
ATOM    129  H21 UNL A   1      10.937  54.169   8.348  1.00  0.00    +0.000 H 
ATOM    130  H22 UNL A   1      11.269  53.042   9.687  1.00  0.00    +0.000 H 
ATOM     38  C28 UNL A   1      10.529  53.609   9.164  1.00  0.00    +0.000 C 
BRANCH   38   37
ATOM     37  C27 UNL A   1       9.523  52.605   8.601  1.00  0.00    +0.000 C 
ATOM    127  H19 UNL A   1       8.561  52.801   9.025  1.00  0.00    +0.000 H 
ATOM    128  H20 UNL A   1       9.497  52.713   7.537  1.00  0.00    +0.000 H 
BRANCH   37   36
ATOM     36  N1  UNL A   1       9.908  51.245   8.913  1.00  0.00    +0.000 N 
ATOM    126  H18 UNL A   1      10.666  51.077   9.517  1.00  0.00    +0.000 H 
BRANCH   36    2
ATOM      1  O1  UNL A   1       8.694  50.210   7.270  1.00  0.00    +0.000 O 
ATOM      2  C1  UNL A   1       9.224  50.198   8.375  1.00  0.00    +0.000 C 
BRANCH    2    3
ATOM      3  C2  UNL A   1       9.151  48.967   9.190  1.00  0.00    +0.000 C 
ATOM    109  H1  UNL A   1       8.232  48.783   9.622  1.00  0.00    +0.000 H 
BRANCH    3    4
ATOM      4  C3  UNL A   1      10.104  48.047   9.456  1.00  0.00    +0.000 C 
ATOM    110  H2  UNL A   1      10.196  47.225   8.839  1.00  0.00    +0.000 H 
BRANCH    4    5
ATOM      5  C4  UNL A   1      11.068  48.195  10.667  1.00  0.00    +0.000 C 
ATOM      6  C5  UNL A   1      10.357  49.126  11.613  1.00  0.00    +0.000 C 
ATOM      7  C6  UNL A   1       9.779  48.711  12.748  1.00  0.00    +0.000 C 
ATOM      9  C7  UNL A   1       9.903  47.288  13.208  1.00  0.00    +0.000 C 
ATOM     10  O3  UNL A   1       9.347  46.936  14.242  1.00  0.00    +0.000 O 
ATOM     11  C8  UNL A   1      10.767  46.372  12.426  1.00  0.00    +0.000 C 
ATOM     12  C9  UNL A   1      11.287  46.830  11.284  1.00  0.00    +0.000 C 
ATOM     13  C10 UNL A   1      12.296  46.132  10.448  1.00  0.00    +0.000 C 
ATOM     14  O4  UNL A   1      12.496  44.945  10.388  1.00  0.00    +0.000 O 
ATOM     15  C11 UNL A   1      13.062  47.221   9.781  1.00  0.00    +0.000 C 
ATOM     16  C12 UNL A   1      14.156  47.038   9.038  1.00  0.00    +0.000 C 
ATOM     17  C13 UNL A   1      15.045  48.185   8.810  1.00  0.00    +0.000 C 
ATOM     18  C14 UNL A   1      15.618  48.387   7.545  1.00  0.00    +0.000 C 
ATOM     19  C15 UNL A   1      16.556  49.404   7.375  1.00  0.00    +0.000 C 
ATOM     21  C16 UNL A   1      16.955  50.189   8.453  1.00  0.00    +0.000 C 
ATOM     23  C17 UNL A   1      16.405  49.998   9.708  1.00  0.00    +0.000 C 
ATOM     24  C18 UNL A   1      15.415  49.030   9.881  1.00  0.00    +0.000 C 
ATOM     25  O7  UNL A   1      14.958  48.889  11.165  1.00  0.00    +0.000 O 
ATOM     26  C19 UNL A   1      13.534  48.965  11.444  1.00  0.00    +0.000 C 
ATOM     35  C26 UNL A   1      12.552  48.558  10.286  1.00  0.00    +0.000 C 
ATOM    111  H3  UNL A   1      10.312  50.128  11.376  1.00  0.00    +0.000 H 
ATOM    113  H5  UNL A   1      10.959  45.412  12.752  1.00  0.00    +0.000 H 
ATOM    114  H6  UNL A   1      14.371  46.113   8.633  1.00  0.00    +0.000 H 
ATOM    115  H7  UNL A   1      15.347  47.789   6.750  1.00  0.00    +0.000 H 
ATOM    118  H10 UNL A   1      16.724  50.566  10.509  1.00  0.00    +0.000 H 
ATOM    119  H11 UNL A   1      13.307  48.185  12.141  1.00  0.00    +0.000 H 
ATOM    125  H17 UNL A   1      12.533  49.410   9.640  1.00  0.00    +0.000 H 
BRANCH    7    8
ATOM    112  H4  UNL A   1       8.398  50.126  13.156  1.00  0.00    +0.000 H 
ATOM      8  O2  UNL A   1       9.065  49.589  13.538  1.00  0.00    +0.000 O 
ENDBRANCH    7    8
BRANCH   19   20
ATOM    116  H8  UNL A   1      17.986  49.320   5.968  1.00  0.00    +0.000 H 
ATOM     20  O5  UNL A   1      17.135  49.663   6.164  1.00  0.00    +0.000 O 
ENDBRANCH   19   20
BRANCH   21   22
ATOM    117  H9  UNL A   1      17.694  52.052   8.467  1.00  0.00    +0.000 H 
ATOM     22  O6  UNL A   1      17.902  51.157   8.286  1.00  0.00    +0.000 O 
ENDBRANCH   21   22
BRANCH   26   27
ATOM     34  C25 UNL A   1      12.939  50.475  13.420  1.00  0.00    +0.000 C 
ATOM     28  C21 UNL A   1      13.334  51.483  11.267  1.00  0.00    +0.000 C 
ATOM    120  H12 UNL A   1      13.454  51.390  10.246  1.00  0.00    +0.000 H 
ATOM    121  H13 UNL A   1      13.382  53.596  11.250  1.00  0.00    +0.000 H 
ATOM     27  C20 UNL A   1      13.254  50.326  12.063  1.00  0.00    +0.000 C 
ATOM    124  H16 UNL A   1      12.827  49.641  14.018  1.00  0.00    +0.000 H 
ATOM     29  C22 UNL A   1      13.252  52.756  11.835  1.00  0.00    +0.000 C 
ATOM     30  C23 UNL A   1      12.995  52.882  13.194  1.00  0.00    +0.000 C 
ATOM     32  C24 UNL A   1      12.779  51.747  13.968  1.00  0.00    +0.000 C 
BRANCH   30   31
ATOM    122  H14 UNL A   1      12.132  54.457  14.087  1.00  0.00    +0.000 H 
ATOM     31  O8  UNL A   1      12.947  54.117  13.772  1.00  0.00    +0.000 O 
ENDBRANCH   30   31
BRANCH   32   33
ATOM     33  O9  UNL A   1      12.431  51.878  15.283  1.00  0.00    +0.000 O 
ATOM    123  H15 UNL A   1      12.019  52.664  15.582  1.00  0.00    +0.000 H 
ENDBRANCH   32   33
ENDBRANCH   26   27
ENDBRANCH    4    5
ENDBRANCH    3    4
ENDBRANCH    2    3
ENDBRANCH   36    2
ENDBRANCH   37   36
ENDBRANCH   38   37
ENDBRANCH   39   38
ENDBRANCH   40   39
ENDBRANCH   41   40
ENDBRANCH   42   41
ENDBRANCH   43   42
ENDBRANCH   44   43
ENDBRANCH   46   44
ENDBRANCH   50   49
BRANCH   54   55
ATOM     65  F5  UNL A   1      13.745  46.932   5.942  1.00  0.00    +0.000 F 
ATOM     55  C42 UNL A   1      11.853  48.021   4.993  1.00  0.00    +0.000 C 
ATOM     56  C43 UNL A   1      10.461  48.027   4.824  1.00  0.00    +0.000 C 
ATOM     57  F1  UNL A   1       9.870  49.000   4.116  1.00  0.00    +0.000 F 
ATOM     58  C44 UNL A   1       9.664  47.041   5.405  1.00  0.00    +0.000 C 
ATOM     59  F2  UNL A   1       8.334  47.084   5.257  1.00  0.00    +0.000 F 
ATOM     60  C45 UNL A   1      10.247  46.020   6.142  1.00  0.00    +0.000 C 
ATOM     61  F3  UNL A   1       9.480  45.066   6.688  1.00  0.00    +0.000 F 
ATOM     62  C46 UNL A   1      11.622  45.990   6.314  1.00  0.00    +0.000 C 
ATOM     63  F4  UNL A   1      12.187  44.998   7.017  1.00  0.00    +0.000 F 
ATOM     64  C47 UNL A   1      12.418  46.987   5.755  1.00  0.00    +0.000 C 
ENDBRANCH   54   55
BRANCH   71   72
ATOM     72  C53 UNL A   1      16.479  48.278  -0.514  1.00  0.00    +0.000 C 
ATOM     73  C54 UNL A   1      15.752  47.890  -1.648  1.00  0.00    +0.000 C 
ATOM     74  F6  UNL A   1      14.488  48.311  -1.816  1.00  0.00    +0.000 F 
ATOM     75  C55 UNL A   1      16.312  47.044  -2.602  1.00  0.00    +0.000 C 
ATOM     76  F7  UNL A   1      15.587  46.658  -3.660  1.00  0.00    +0.000 F 
ATOM     77  C56 UNL A   1      17.615  46.593  -2.452  1.00  0.00    +0.000 C 
ATOM     78  F8  UNL A   1      18.157  45.787  -3.376  1.00  0.00    +0.000 F 
ATOM     79  C57 UNL A   1      18.356  46.974  -1.343  1.00  0.00    +0.000 C 
ATOM     80  F9  UNL A   1      19.619  46.549  -1.204  1.00  0.00    +0.000 F 
ATOM     81  C58 UNL A   1      17.790  47.800  -0.376  1.00  0.00    +0.000 C 
ATOM     82  F10 UNL A   1      18.528  48.148   0.689  1.00  0.00    +0.000 F 
ENDBRANCH   71   72
BRANCH   86   87
ATOM     97  F15 UNL A   1      19.181  54.869   2.278  1.00  0.00    +0.000 F 
ATOM     87  C62 UNL A   1      17.433  55.077   0.680  1.00  0.00    +0.000 C 
ATOM     88  C63 UNL A   1      16.954  55.733  -0.461  1.00  0.00    +0.000 C 
ATOM     89  F11 UNL A   1      15.775  55.376  -0.993  1.00  0.00    +0.000 F 
ATOM     90  C64 UNL A   1      17.694  56.743  -1.071  1.00  0.00    +0.000 C 
ATOM     91  F12 UNL A   1      17.227  57.337  -2.178  1.00  0.00    +0.000 F 
ATOM     92  C65 UNL A   1      18.916  57.128  -0.540  1.00  0.00    +0.000 C 
ATOM     93  F13 UNL A   1      19.621  58.109  -1.121  1.00  0.00    +0.000 F 
ATOM     94  C66 UNL A   1      19.408  56.495   0.591  1.00  0.00    +0.000 C 
ATOM     95  F14 UNL A   1      20.581  56.875   1.116  1.00  0.00    +0.000 F 
ATOM     96  C67 UNL A   1      18.681  55.469   1.186  1.00  0.00    +0.000 C 
ENDBRANCH   86   87
TORSDOF 23
ENDMDL
MODEL 4
REMARK VINA RESULT:      -8.8      2.698      8.144
ROOT
ATOM    142  H34 UNL A   1      18.220  51.259  -2.240  1.00  0.00    +0.000 H 
ATOM    143  H35 UNL A   1      18.651  53.751  -1.609  1.00  0.00    +0.000 H 
ATOM    144  H36 UNL A   1      16.272  52.057   1.327  1.00  0.00    +0.000 H 
ATOM    145  H37 UNL A   1      12.817  52.666   6.648  1.00  0.00    +0.000 H 
ATOM    146  H38 UNL A   1      12.630  50.176   6.186  1.00  0.00    +0.000 H 
ATOM    147  H39 UNL A   1      14.988  51.848   3.199  1.00  0.00    +0.000 H 
ATOM    148  H40 UNL A   1      15.596  56.672   4.484  1.00  0.00    +0.000 H 
ATOM    149  H41 UNL A   1      16.994  56.933   2.355  1.00  0.00    +0.000 H 
ATOM    150  H42 UNL A   1      15.618  47.224   0.142  1.00  0.00    +0.000 H 
ATOM    151  H43 UNL A   1      14.059  46.987   2.159  1.00  0.00    +0.000 H 
ATOM     50  C38 UNL A   1      13.895  49.337   3.778  1.00  0.00    +0.000 C 
ATOM     51  C39 UNL A   1      14.650  49.152   2.488  1.00  0.00    +0.000 C 
ATOM     52  N3  UNL A   1      15.375  50.018   1.823  1.00  0.00    +0.000 N 
ATOM     53  C40 UNL A   1      15.865  49.336   0.715  1.00  0.00    +0.000 C 
ATOM     54  C41 UNL A   1      16.638  49.806  -0.293  1.00  0.00    +0.000 C 
ATOM     66  C48 UNL A   1      17.095  51.166  -0.401  1.00  0.00    +0.000 C 
ATOM     67  C49 UNL A   1      17.868  51.739  -1.397  1.00  0.00    +0.000 C 
ATOM     68  C50 UNL A   1      18.086  53.080  -1.066  1.00  0.00    +0.000 C 
ATOM     69  C51 UNL A   1      17.418  53.352   0.116  1.00  0.00    +0.000 C 
ATOM     70  N4  UNL A   1      16.817  52.168   0.515  1.00  0.00    +0.000 N 
ATOM     71  C52 UNL A   1      17.337  54.599   0.834  1.00  0.00    +0.000 C 
ATOM     83  C59 UNL A   1      16.616  54.800   1.964  1.00  0.00    +0.000 C 
ATOM     84  N5  UNL A   1      15.838  53.895   2.673  1.00  0.00    +0.000 N 
ATOM     85  C60 UNL A   1      15.373  54.554   3.704  1.00  0.00    +0.000 C 
ATOM     86  C61 UNL A   1      14.475  54.072   4.809  1.00  0.00    +0.000 C 
ATOM     98  C68 UNL A   1      14.107  52.778   4.840  1.00  0.00    +0.000 C 
ATOM     99  C69 UNL A   1      13.257  52.168   5.860  1.00  0.00    +0.000 C 
ATOM    100  C70 UNL A   1      13.143  50.857   5.604  1.00  0.00    +0.000 C 
ATOM    101  C71 UNL A   1      13.861  50.546   4.368  1.00  0.00    +0.000 C 
ATOM    102  N6  UNL A   1      14.419  51.742   3.996  1.00  0.00    +0.000 N 
ATOM    103  C72 UNL A   1      15.806  55.957   3.769  1.00  0.00    +0.000 C 
ATOM    104  C73 UNL A   1      16.538  56.062   2.669  1.00  0.00    +0.000 C 
ATOM    105  C74 UNL A   1      15.379  47.976   0.808  1.00  0.00    +0.000 C 
ATOM    106  C75 UNL A   1      14.585  47.823   1.859  1.00  0.00    +0.000 C 
ENDROOT
BRANCH   50   49
ATOM    107  C76 UNL A   1      11.722  48.177   4.307  1.00  0.00    +0.000 C 
ATOM    108  C77 UNL A   1      11.011  47.199   5.009  1.00  0.00    +0.000 C 
ATOM    140  H32 UNL A   1      13.606  45.370   6.092  1.00  0.00    +0.000 H 
ATOM     46  C34 UNL A   1      11.709  46.228   5.731  1.00  0.00    +0.000 C 
ATOM     47  C35 UNL A   1      13.103  46.166   5.672  1.00  0.00    +0.000 C 
ATOM     48  C36 UNL A   1      13.806  47.185   5.041  1.00  0.00    +0.000 C 
ATOM    141  H33 UNL A   1      14.837  47.186   5.066  1.00  0.00    +0.000 H 
ATOM     49  C37 UNL A   1      13.124  48.213   4.368  1.00  0.00    +0.000 C 
ATOM    152  H44 UNL A   1      11.214  48.874   3.740  1.00  0.00    +0.000 H 
ATOM    153  H45 UNL A   1       9.980  47.196   4.995  1.00  0.00    +0.000 H 
BRANCH   46   44
ATOM     44  C33 UNL A   1      10.960  45.328   6.633  1.00  0.00    +0.000 C 
ATOM     45  O10 UNL A   1       9.933  44.781   6.247  1.00  0.00    +0.000 O 
BRANCH   44   43
ATOM     43  N2  UNL A   1      11.410  45.157   7.922  1.00  0.00    +0.000 N 
ATOM    139  H31 UNL A   1      11.860  44.301   8.108  1.00  0.00    +0.000 H 
BRANCH   43   42
ATOM    137  H29 UNL A   1      10.272  46.210   9.283  1.00  0.00    +0.000 H 
ATOM     42  C32 UNL A   1      11.307  46.075   9.047  1.00  0.00    +0.000 C 
ATOM    138  H30 UNL A   1      11.850  45.646   9.863  1.00  0.00    +0.000 H 
BRANCH   42   41
ATOM     41  C31 UNL A   1      11.920  47.436   8.756  1.00  0.00    +0.000 C 
ATOM    135  H27 UNL A   1      12.001  47.545   7.695  1.00  0.00    +0.000 H 
ATOM    136  H28 UNL A   1      11.274  48.161   9.207  1.00  0.00    +0.000 H 
BRANCH   41   40
ATOM    133  H25 UNL A   1      13.476  48.712   9.420  1.00  0.00    +0.000 H 
ATOM    134  H26 UNL A   1      13.290  47.174  10.319  1.00  0.00    +0.000 H 
ATOM     40  C30 UNL A   1      13.303  47.657   9.363  1.00  0.00    +0.000 C 
BRANCH   40   39
ATOM    131  H23 UNL A   1      14.558  46.009   8.899  1.00  0.00    +0.000 H 
ATOM    132  H24 UNL A   1      14.221  47.140   7.550  1.00  0.00    +0.000 H 
ATOM     39  C29 UNL A   1      14.465  47.029   8.586  1.00  0.00    +0.000 C 
BRANCH   39   38
ATOM    129  H21 UNL A   1      15.820  48.220   9.714  1.00  0.00    +0.000 H 
ATOM    130  H22 UNL A   1      16.565  46.935   8.730  1.00  0.00    +0.000 H 
ATOM     38  C28 UNL A   1      15.827  47.708   8.775  1.00  0.00    +0.000 C 
BRANCH   38   37
ATOM     37  C27 UNL A   1      16.180  48.716   7.682  1.00  0.00    +0.000 C 
ATOM    127  H19 UNL A   1      16.835  48.250   6.976  1.00  0.00    +0.000 H 
ATOM    128  H20 UNL A   1      15.274  49.031   7.206  1.00  0.00    +0.000 H 
BRANCH   37   36
ATOM     36  N1  UNL A   1      16.835  49.882   8.234  1.00  0.00    +0.000 N 
ATOM    126  H18 UNL A   1      17.723  50.148   7.903  1.00  0.00    +0.000 H 
BRANCH   36    2
ATOM      1  O1  UNL A   1      16.814  51.157  10.136  1.00  0.00    +0.000 O 
ATOM      2  C1  UNL A   1      16.227  50.614   9.207  1.00  0.00    +0.000 C 
BRANCH    2    3
ATOM      3  C2  UNL A   1      14.761  50.770   9.099  1.00  0.00    +0.000 C 
ATOM    109  H1  UNL A   1      14.255  49.932   8.773  1.00  0.00    +0.000 H 
BRANCH    3    4
ATOM      4  C3  UNL A   1      13.983  51.843   9.362  1.00  0.00    +0.000 C 
ATOM    110  H2  UNL A   1      14.099  52.699   8.798  1.00  0.00    +0.000 H 
BRANCH    4    5
ATOM      5  C4  UNL A   1      12.915  51.822  10.493  1.00  0.00    +0.000 C 
ATOM      6  C5  UNL A   1      13.680  51.453  11.736  1.00  0.00    +0.000 C 
ATOM      7  C6  UNL A   1      13.975  52.336  12.700  1.00  0.00    +0.000 C 
ATOM      9  C7  UNL A   1      13.455  53.742  12.650  1.00  0.00    +0.000 C 
ATOM     10  O3  UNL A   1      13.759  54.531  13.539  1.00  0.00    +0.000 O 
ATOM     11  C8  UNL A   1      12.524  54.107  11.556  1.00  0.00    +0.000 C 
ATOM     12  C9  UNL A   1      12.296  53.198  10.604  1.00  0.00    +0.000 C 
ATOM     13  C10 UNL A   1      11.283  53.308   9.524  1.00  0.00    +0.000 C 
ATOM     14  O4  UNL A   1      10.822  54.319   9.059  1.00  0.00    +0.000 O 
ATOM     15  C11 UNL A   1      10.899  51.903   9.215  1.00  0.00    +0.000 C 
ATOM     16  C12 UNL A   1       9.912  51.548   8.388  1.00  0.00    +0.000 C 
ATOM     17  C13 UNL A   1       9.359  50.192   8.504  1.00  0.00    +0.000 C 
ATOM     18  C14 UNL A   1       9.038  49.465   7.347  1.00  0.00    +0.000 C 
ATOM     19  C15 UNL A   1       8.399  48.233   7.470  1.00  0.00    +0.000 C 
ATOM     21  C16 UNL A   1       8.043  47.740   8.722  1.00  0.00    +0.000 C 
ATOM     23  C17 UNL A   1       8.346  48.447   9.873  1.00  0.00    +0.000 C 
ATOM     24  C18 UNL A   1       9.046  49.650   9.772  1.00  0.00    +0.000 C 
ATOM     25  O7  UNL A   1       9.266  50.296  10.959  1.00  0.00    +0.000 O 
ATOM     26  C19 UNL A   1      10.613  50.695  11.333  1.00  0.00    +0.000 C 
ATOM     35  C26 UNL A   1      11.629  50.974  10.166  1.00  0.00    +0.000 C 
ATOM    111  H3  UNL A   1      13.993  50.477  11.851  1.00  0.00    +0.000 H 
ATOM    113  H5  UNL A   1      12.068  55.032  11.531  1.00  0.00    +0.000 H 
ATOM    114  H6  UNL A   1       9.547  52.210   7.686  1.00  0.00    +0.000 H 
ATOM    115  H7  UNL A   1       9.273  49.840   6.415  1.00  0.00    +0.000 H 
ATOM    118  H10 UNL A   1       8.056  48.089  10.796  1.00  0.00    +0.000 H 
ATOM    119  H11 UNL A   1      10.548  51.682  11.742  1.00  0.00    +0.000 H 
ATOM    125  H17 UNL A   1      11.940  50.002   9.844  1.00  0.00    +0.000 H 
BRANCH    7    8
ATOM    112  H4  UNL A   1      14.385  51.445  14.465  1.00  0.00    +0.000 H 
ATOM      8  O2  UNL A   1      14.753  51.968  13.779  1.00  0.00    +0.000 O 
ENDBRANCH    7    8
BRANCH   19   20
ATOM    116  H8  UNL A   1       8.394  46.589   6.317  1.00  0.00    +0.000 H 
ATOM     20  O5  UNL A   1       8.077  47.469   6.383  1.00  0.00    +0.000 O 
ENDBRANCH   19   20
BRANCH   21   22
ATOM    117  H9  UNL A   1       6.448  46.538   8.902  1.00  0.00    +0.000 H 
ATOM     22  O6  UNL A   1       7.383  46.550   8.832  1.00  0.00    +0.000 O 
ENDBRANCH   21   22
BRANCH   26   27
ATOM     34  C25 UNL A   1      11.517  48.416  12.061  1.00  0.00    +0.000 C 
ATOM     28  C21 UNL A   1      11.199  50.125  13.730  1.00  0.00    +0.000 C 
ATOM    120  H12 UNL A   1      10.804  51.036  14.011  1.00  0.00    +0.000 H 
ATOM    121  H13 UNL A   1      11.929  49.658  15.658  1.00  0.00    +0.000 H 
ATOM     27  C20 UNL A   1      11.112  49.717  12.386  1.00  0.00    +0.000 C 
ATOM    124  H16 UNL A   1      11.418  48.073  11.092  1.00  0.00    +0.000 H 
ATOM     29  C22 UNL A   1      11.809  49.317  14.690  1.00  0.00    +0.000 C 
ATOM     30  C23 UNL A   1      12.255  48.050  14.334  1.00  0.00    +0.000 C 
ATOM     32  C24 UNL A   1      12.052  47.581  13.040  1.00  0.00    +0.000 C 
BRANCH   30   31
ATOM    122  H14 UNL A   1      13.434  46.556  14.966  1.00  0.00    +0.000 H 
ATOM     31  O8  UNL A   1      12.886  47.261  15.251  1.00  0.00    +0.000 O 
ENDBRANCH   30   31
BRANCH   32   33
ATOM     33  O9  UNL A   1      12.405  46.301  12.720  1.00  0.00    +0.000 O 
ATOM    123  H15 UNL A   1      11.985  45.580  13.145  1.00  0.00    +0.000 H 
ENDBRANCH   32   33
ENDBRANCH   26   27
ENDBRANCH    4    5
ENDBRANCH    3    4
ENDBRANCH    2    3
ENDBRANCH   36    2
ENDBRANCH   37   36
ENDBRANCH   38   37
ENDBRANCH   39   38
ENDBRANCH   40   39
ENDBRANCH   41   40
ENDBRANCH   42   41
ENDBRANCH   43   42
ENDBRANCH   44   43
ENDBRANCH   46   44
ENDBRANCH   50   49
BRANCH   54   55
ATOM     65  F5  UNL A   1      18.806  47.989  -0.012  1.00  0.00    +0.000 F 
ATOM     55  C42 UNL A   1      17.047  48.843  -1.369  1.00  0.00    +0.000 C 
ATOM     56  C43 UNL A   1      16.398  48.812  -2.611  1.00  0.00    +0.000 C 
ATOM     57  F1  UNL A   1      15.333  49.595  -2.837  1.00  0.00    +0.000 F 
ATOM     58  C44 UNL A   1      16.827  47.954  -3.622  1.00  0.00    +0.000 C 
ATOM     59  F2  UNL A   1      16.173  47.918  -4.791  1.00  0.00    +0.000 F 
ATOM     60  C45 UNL A   1      17.927  47.133  -3.419  1.00  0.00    +0.000 C 
ATOM     61  F3  UNL A   1      18.347  46.320  -4.398  1.00  0.00    +0.000 F 
ATOM     62  C46 UNL A   1      18.589  47.154  -2.201  1.00  0.00    +0.000 C 
ATOM     63  F4  UNL A   1      19.658  46.370  -2.007  1.00  0.00    +0.000 F 
ATOM     64  C47 UNL A   1      18.147  47.993  -1.180  1.00  0.00    +0.000 C 
ENDBRANCH   54   55
BRANCH   71   72
ATOM     72  C53 UNL A   1      18.100  55.767   0.288  1.00  0.00    +0.000 C 
ATOM     73  C54 UNL A   1      19.384  56.079   0.754  1.00  0.00    +0.000 C 
ATOM     74  F6  UNL A   1      19.929  55.370   1.755  1.00  0.00    +0.000 F 
ATOM     75  C55 UNL A   1      20.103  57.141   0.214  1.00  0.00    +0.000 C 
ATOM     76  F7  UNL A   1      21.314  57.444   0.698  1.00  0.00    +0.000 F 
ATOM     77  C56 UNL A   1      19.562  57.892  -0.820  1.00  0.00    +0.000 C 
ATOM     78  F8  UNL A   1      20.260  58.908  -1.348  1.00  0.00    +0.000 F 
ATOM     79  C57 UNL A   1      18.298  57.593  -1.305  1.00  0.00    +0.000 C 
ATOM     80  F9  UNL A   1      17.779  58.310  -2.311  1.00  0.00    +0.000 F 
ATOM     81  C58 UNL A   1      17.567  56.547  -0.748  1.00  0.00    +0.000 C 
ATOM     82  F10 UNL A   1      16.344  56.283  -1.233  1.00  0.00    +0.000 F 
ENDBRANCH   71   72
BRANCH   86   87
ATOM     97  F15 UNL A   1      15.431  54.027   7.489  1.00  0.00    +0.000 F 
ATOM     87  C62 UNL A   1      13.993  54.997   5.865  1.00  0.00    +0.000 C 
ATOM     88  C63 UNL A   1      13.007  55.953   5.587  1.00  0.00    +0.000 C 
ATOM     89  F11 UNL A   1      12.521  56.071   4.342  1.00  0.00    +0.000 F 
ATOM     90  C64 UNL A   1      12.534  56.806   6.582  1.00  0.00    +0.000 C 
ATOM     91  F12 UNL A   1      11.611  57.731   6.285  1.00  0.00    +0.000 F 
ATOM     92  C65 UNL A   1      13.023  56.704   7.876  1.00  0.00    +0.000 C 
ATOM     93  F13 UNL A   1      12.557  57.516   8.836  1.00  0.00    +0.000 F 
ATOM     94  C66 UNL A   1      13.995  55.762   8.175  1.00  0.00    +0.000 C 
ATOM     95  F14 UNL A   1      14.459  55.650   9.427  1.00  0.00    +0.000 F 
ATOM     96  C67 UNL A   1      14.487  54.927   7.175  1.00  0.00    +0.000 C 
ENDBRANCH   86   87
TORSDOF 23
ENDMDL
MODEL 5
REMARK VINA RESULT:      -8.7      1.630      3.891
ROOT
ATOM    142  H34 UNL A   1      19.055  53.467  -1.543  1.00  0.00    +0.000 H 
ATOM    143  H35 UNL A   1      18.581  50.969  -2.115  1.00  0.00    +0.000 H 
ATOM    144  H36 UNL A   1      16.291  52.008   1.175  1.00  0.00    +0.000 H 
ATOM    145  H37 UNL A   1      12.266  50.349   5.830  1.00  0.00    +0.000 H 
ATOM    146  H38 UNL A   1      12.509  52.847   6.216  1.00  0.00    +0.000 H 
ATOM    147  H39 UNL A   1      14.852  51.835   2.934  1.00  0.00    +0.000 H 
ATOM    148  H40 UNL A   1      13.939  46.968   2.059  1.00  0.00    +0.000 H 
ATOM    149  H41 UNL A   1      15.595  47.135   0.113  1.00  0.00    +0.000 H 
ATOM    150  H42 UNL A   1      17.122  56.866   2.123  1.00  0.00    +0.000 H 
ATOM    151  H43 UNL A   1      15.620  56.673   4.188  1.00  0.00    +0.000 H 
ATOM     50  C38 UNL A   1      14.360  54.124   4.469  1.00  0.00    +0.000 C 
ATOM     51  C39 UNL A   1      15.356  54.554   3.424  1.00  0.00    +0.000 C 
ATOM     52  N3  UNL A   1      15.870  53.862   2.437  1.00  0.00    +0.000 N 
ATOM     53  C40 UNL A   1      16.717  54.732   1.761  1.00  0.00    +0.000 C 
ATOM     54  C41 UNL A   1      17.505  54.481   0.688  1.00  0.00    +0.000 C 
ATOM     66  C48 UNL A   1      17.614  53.200   0.041  1.00  0.00    +0.000 C 
ATOM     67  C49 UNL A   1      18.401  52.846  -1.042  1.00  0.00    +0.000 C 
ATOM     68  C50 UNL A   1      18.157  51.502  -1.340  1.00  0.00    +0.000 C 
ATOM     69  C51 UNL A   1      17.248  51.008  -0.418  1.00  0.00    +0.000 C 
ATOM     70  N4  UNL A   1      16.921  52.061   0.421  1.00  0.00    +0.000 N 
ATOM     71  C52 UNL A   1      16.713  49.675  -0.313  1.00  0.00    +0.000 C 
ATOM     83  C59 UNL A   1      15.861  49.253   0.653  1.00  0.00    +0.000 C 
ATOM     84  N5  UNL A   1      15.317  49.972   1.708  1.00  0.00    +0.000 N 
ATOM     85  C60 UNL A   1      14.533  49.138   2.343  1.00  0.00    +0.000 C 
ATOM     86  C61 UNL A   1      13.687  49.375   3.563  1.00  0.00    +0.000 C 
ATOM     98  C68 UNL A   1      13.632  50.610   4.095  1.00  0.00    +0.000 C 
ATOM     99  C69 UNL A   1      12.842  50.990   5.263  1.00  0.00    +0.000 C 
ATOM    100  C70 UNL A   1      12.986  52.305   5.478  1.00  0.00    +0.000 C 
ATOM    101  C71 UNL A   1      13.928  52.849   4.500  1.00  0.00    +0.000 C 
ATOM    102  N6  UNL A   1      14.244  51.775   3.707  1.00  0.00    +0.000 N 
ATOM    103  C72 UNL A   1      14.488  47.790   1.760  1.00  0.00    +0.000 C 
ATOM    104  C73 UNL A   1      15.339  47.907   0.750  1.00  0.00    +0.000 C 
ATOM    105  C74 UNL A   1      16.631  56.012   2.431  1.00  0.00    +0.000 C 
ATOM    106  C75 UNL A   1      15.840  55.942   3.493  1.00  0.00    +0.000 C 
ENDROOT
BRANCH   50   49
ATOM    107  C76 UNL A   1      14.664  55.308   6.672  1.00  0.00    +0.000 C 
ATOM    108  C77 UNL A   1      14.140  56.077   7.715  1.00  0.00    +0.000 C 
ATOM    140  H32 UNL A   1      11.316  57.098   6.220  1.00  0.00    +0.000 H 
ATOM     46  C34 UNL A   1      12.877  56.657   7.574  1.00  0.00    +0.000 C 
ATOM     47  C35 UNL A   1      12.182  56.557   6.367  1.00  0.00    +0.000 C 
ATOM     48  C36 UNL A   1      12.668  55.726   5.365  1.00  0.00    +0.000 C 
ATOM    141  H33 UNL A   1      12.116  55.585   4.505  1.00  0.00    +0.000 H 
ATOM     49  C37 UNL A   1      13.904  55.075   5.514  1.00  0.00    +0.000 C 
ATOM    152  H44 UNL A   1      15.612  54.909   6.754  1.00  0.00    +0.000 H 
ATOM    153  H45 UNL A   1      14.682  56.217   8.581  1.00  0.00    +0.000 H 
BRANCH   46   44
ATOM     44  C33 UNL A   1      12.244  57.293   8.748  1.00  0.00    +0.000 C 
ATOM     45  O10 UNL A   1      12.427  58.482   8.980  1.00  0.00    +0.000 O 
BRANCH   44   43
ATOM     43  N2  UNL A   1      11.489  56.516   9.597  1.00  0.00    +0.000 N 
ATOM    139  H31 UNL A   1      10.914  57.005  10.228  1.00  0.00    +0.000 H 
BRANCH   43   42
ATOM    137  H29 UNL A   1      10.503  54.785  10.135  1.00  0.00    +0.000 H 
ATOM     42  C32 UNL A   1      11.432  55.064   9.685  1.00  0.00    +0.000 C 
ATOM    138  H30 UNL A   1      11.525  54.678   8.690  1.00  0.00    +0.000 H 
BRANCH   42   41
ATOM     41  C31 UNL A   1      12.567  54.477  10.509  1.00  0.00    +0.000 C 
ATOM    135  H27 UNL A   1      13.324  55.225  10.615  1.00  0.00    +0.000 H 
ATOM    136  H28 UNL A   1      12.138  54.176  11.443  1.00  0.00    +0.000 H 
BRANCH   41   40
ATOM    133  H25 UNL A   1      12.645  52.378  10.225  1.00  0.00    +0.000 H 
ATOM    134  H26 UNL A   1      13.216  53.374   8.851  1.00  0.00    +0.000 H 
ATOM     40  C30 UNL A   1      13.214  53.229   9.911  1.00  0.00    +0.000 C 
BRANCH   40   39
ATOM    131  H23 UNL A   1      15.212  52.694   9.437  1.00  0.00    +0.000 H 
ATOM    132  H24 UNL A   1      15.017  53.919  10.729  1.00  0.00    +0.000 H 
ATOM     39  C29 UNL A   1      14.674  52.995  10.311  1.00  0.00    +0.000 C 
BRANCH   39   38
ATOM    129  H21 UNL A   1      15.134  52.432  12.311  1.00  0.00    +0.000 H 
ATOM    130  H22 UNL A   1      13.997  51.360  11.455  1.00  0.00    +0.000 H 
ATOM     38  C28 UNL A   1      14.898  51.933  11.395  1.00  0.00    +0.000 C 
BRANCH   38   37
ATOM     37  C27 UNL A   1      16.024  50.948  11.082  1.00  0.00    +0.000 C 
ATOM    127  H19 UNL A   1      16.964  51.415  11.290  1.00  0.00    +0.000 H 
ATOM    128  H20 UNL A   1      15.892  50.078  11.690  1.00  0.00    +0.000 H 
BRANCH   37   36
ATOM     36  N1  UNL A   1      15.996  50.543   9.693  1.00  0.00    +0.000 N 
ATOM    126  H18 UNL A   1      16.166  51.205   8.986  1.00  0.00    +0.000 H 
BRANCH   36    2
ATOM      1  O1  UNL A   1      16.558  48.482   8.867  1.00  0.00    +0.000 O 
ATOM      2  C1  UNL A   1      15.739  49.248   9.361  1.00  0.00    +0.000 C 
BRANCH    2    3
ATOM      3  C2  UNL A   1      14.377  48.750   9.648  1.00  0.00    +0.000 C 
ATOM    109  H1  UNL A   1      14.242  48.367  10.598  1.00  0.00    +0.000 H 
BRANCH    3    4
ATOM      4  C3  UNL A   1      13.282  48.719   8.858  1.00  0.00    +0.000 C 
ATOM    110  H2  UNL A   1      13.398  48.580   7.842  1.00  0.00    +0.000 H 
BRANCH    4    5
ATOM      5  C4  UNL A   1      11.848  48.889   9.438  1.00  0.00    +0.000 C 
ATOM      6  C5  UNL A   1      11.508  50.336   9.203  1.00  0.00    +0.000 C 
ATOM      7  C6  UNL A   1      10.645  50.739   8.261  1.00  0.00    +0.000 C 
ATOM      9  C7  UNL A   1       9.870  49.748   7.443  1.00  0.00    +0.000 C 
ATOM     10  O3  UNL A   1       9.102  50.148   6.575  1.00  0.00    +0.000 O 
ATOM     11  C8  UNL A   1      10.008  48.309   7.771  1.00  0.00    +0.000 C 
ATOM     12  C9  UNL A   1      10.909  47.965   8.695  1.00  0.00    +0.000 C 
ATOM     13  C10 UNL A   1      11.083  46.609   9.274  1.00  0.00    +0.000 C 
ATOM     14  O4  UNL A   1      10.791  45.556   8.766  1.00  0.00    +0.000 O 
ATOM     15  C11 UNL A   1      11.605  46.844  10.649  1.00  0.00    +0.000 C 
ATOM     16  C12 UNL A   1      11.778  45.893  11.571  1.00  0.00    +0.000 C 
ATOM     17  C13 UNL A   1      11.873  46.297  12.980  1.00  0.00    +0.000 C 
ATOM     18  C14 UNL A   1      12.805  45.676  13.825  1.00  0.00    +0.000 C 
ATOM     19  C15 UNL A   1      12.801  45.978  15.186  1.00  0.00    +0.000 C 
ATOM     21  C16 UNL A   1      11.859  46.855  15.715  1.00  0.00    +0.000 C 
ATOM     23  C17 UNL A   1      10.928  47.471  14.897  1.00  0.00    +0.000 C 
ATOM     24  C18 UNL A   1      10.962  47.232  13.522  1.00  0.00    +0.000 C 
ATOM     25  O7  UNL A   1       9.979  47.855  12.800  1.00  0.00    +0.000 O 
ATOM     26  C19 UNL A   1      10.328  48.683  11.657  1.00  0.00    +0.000 C 
ATOM     35  C26 UNL A   1      11.663  48.339  10.902  1.00  0.00    +0.000 C 
ATOM    111  H3  UNL A   1      11.959  51.051   9.794  1.00  0.00    +0.000 H 
ATOM    113  H5  UNL A   1       9.427  47.598   7.302  1.00  0.00    +0.000 H 
ATOM    114  H6  UNL A   1      11.843  44.900  11.300  1.00  0.00    +0.000 H 
ATOM    115  H7  UNL A   1      13.487  45.003  13.443  1.00  0.00    +0.000 H 
ATOM    118  H10 UNL A   1      10.215  48.100  15.299  1.00  0.00    +0.000 H 
ATOM    119  H11 UNL A   1       9.630  48.457  10.879  1.00  0.00    +0.000 H 
ATOM    125  H17 UNL A   1      12.433  48.755  11.517  1.00  0.00    +0.000 H 
BRANCH    7    8
ATOM    112  H4  UNL A   1      10.434  52.411   7.149  1.00  0.00    +0.000 H 
ATOM      8  O2  UNL A   1      10.432  52.082   8.027  1.00  0.00    +0.000 O 
ENDBRANCH    7    8
BRANCH   19   20
ATOM    116  H8  UNL A   1      14.607  45.635  15.995  1.00  0.00    +0.000 H 
ATOM     20  O5  UNL A   1      13.696  45.421  16.057  1.00  0.00    +0.000 O 
ENDBRANCH   19   20
BRANCH   21   22
ATOM    117  H9  UNL A   1      11.552  47.954  17.364  1.00  0.00    +0.000 H 
ATOM     22  O6  UNL A   1      11.836  47.116  17.055  1.00  0.00    +0.000 O 
ENDBRANCH   21   22
BRANCH   26   27
ATOM     34  C25 UNL A   1      11.238  50.822  12.725  1.00  0.00    +0.000 C 
ATOM     28  C21 UNL A   1       9.012  50.841  11.801  1.00  0.00    +0.000 C 
ATOM    120  H12 UNL A   1       8.195  50.332  11.429  1.00  0.00    +0.000 H 
ATOM    121  H13 UNL A   1       8.069  52.733  11.745  1.00  0.00    +0.000 H 
ATOM     27  C20 UNL A   1      10.198  50.138  12.081  1.00  0.00    +0.000 C 
ATOM    124  H16 UNL A   1      12.100  50.319  12.986  1.00  0.00    +0.000 H 
ATOM     29  C22 UNL A   1       8.921  52.217  12.020  1.00  0.00    +0.000 C 
ATOM     30  C23 UNL A   1       9.985  52.887  12.609  1.00  0.00    +0.000 C 
ATOM     32  C24 UNL A   1      11.112  52.180  13.015  1.00  0.00    +0.000 C 
BRANCH   30   31
ATOM    122  H14 UNL A   1       9.180  54.622  13.211  1.00  0.00    +0.000 H 
ATOM     31  O8  UNL A   1       9.928  54.237  12.797  1.00  0.00    +0.000 O 
ENDBRANCH   30   31
BRANCH   32   33
ATOM     33  O9  UNL A   1      12.115  52.825  13.681  1.00  0.00    +0.000 O 
ATOM    123  H15 UNL A   1      12.947  52.408  13.790  1.00  0.00    +0.000 H 
ENDBRANCH   32   33
ENDBRANCH   26   27
ENDBRANCH    4    5
ENDBRANCH    3    4
ENDBRANCH    2    3
ENDBRANCH   36    2
ENDBRANCH   37   36
ENDBRANCH   38   37
ENDBRANCH   39   38
ENDBRANCH   40   39
ENDBRANCH   41   40
ENDBRANCH   42   41
ENDBRANCH   43   42
ENDBRANCH   44   43
ENDBRANCH   46   44
ENDBRANCH   50   49
BRANCH   54   55
ATOM     65  F5  UNL A   1      16.788  55.905  -1.666  1.00  0.00    +0.000 F 
ATOM     55  C42 UNL A   1      18.317  55.615   0.135  1.00  0.00    +0.000 C 
ATOM     56  C43 UNL A   1      19.519  56.018   0.735  1.00  0.00    +0.000 C 
ATOM     57  F1  UNL A   1      19.930  55.445   1.875  1.00  0.00    +0.000 F 
ATOM     58  C44 UNL A   1      20.293  57.033   0.176  1.00  0.00    +0.000 C 
ATOM     59  F2  UNL A   1      21.422  57.424   0.783  1.00  0.00    +0.000 F 
ATOM     60  C45 UNL A   1      19.894  57.644  -1.004  1.00  0.00    +0.000 C 
ATOM     61  F3  UNL A   1      20.648  58.610  -1.547  1.00  0.00    +0.000 F 
ATOM     62  C46 UNL A   1      18.714  57.255  -1.619  1.00  0.00    +0.000 C 
ATOM     63  F4  UNL A   1      18.333  57.837  -2.764  1.00  0.00    +0.000 F 
ATOM     64  C47 UNL A   1      17.926  56.257  -1.049  1.00  0.00    +0.000 C 
ENDBRANCH   54   55
BRANCH   71   72
ATOM     72  C53 UNL A   1      17.133  48.672  -1.345  1.00  0.00    +0.000 C 
ATOM     73  C54 UNL A   1      16.525  48.630  -2.608  1.00  0.00    +0.000 C 
ATOM     74  F6  UNL A   1      15.502  49.450  -2.892  1.00  0.00    +0.000 F 
ATOM     75  C55 UNL A   1      16.949  47.723  -3.575  1.00  0.00    +0.000 C 
ATOM     76  F7  UNL A   1      16.332  47.675  -4.762  1.00  0.00    +0.000 F 
ATOM     77  C56 UNL A   1      18.004  46.862  -3.306  1.00  0.00    +0.000 C 
ATOM     78  F8  UNL A   1      18.418  45.996  -4.243  1.00  0.00    +0.000 F 
ATOM     79  C57 UNL A   1      18.626  46.896  -2.068  1.00  0.00    +0.000 C 
ATOM     80  F9  UNL A   1      19.653  46.073  -1.812  1.00  0.00    +0.000 F 
ATOM     81  C58 UNL A   1      18.188  47.785  -1.090  1.00  0.00    +0.000 C 
ATOM     82  F10 UNL A   1      18.806  47.792   0.100  1.00  0.00    +0.000 F 
ENDBRANCH   71   72
BRANCH   86   87
ATOM     97  F15 UNL A   1      14.560  47.948   5.866  1.00  0.00    +0.000 F 
ATOM     87  C62 UNL A   1      12.911  48.273   4.185  1.00  0.00    +0.000 C 
ATOM     88  C63 UNL A   1      11.685  47.863   3.644  1.00  0.00    +0.000 C 
ATOM     89  F11 UNL A   1      11.178  48.500   2.578  1.00  0.00    +0.000 F 
ATOM     90  C64 UNL A   1      10.967  46.814   4.211  1.00  0.00    +0.000 C 
ATOM     91  F12 UNL A   1       9.783  46.459   3.692  1.00  0.00    +0.000 F 
ATOM     92  C65 UNL A   1      11.470  46.140   5.314  1.00  0.00    +0.000 C 
ATOM     93  F13 UNL A   1      10.784  45.121   5.850  1.00  0.00    +0.000 F 
ATOM     94  C66 UNL A   1      12.684  46.526   5.863  1.00  0.00    +0.000 C 
ATOM     95  F14 UNL A   1      13.181  45.869   6.920  1.00  0.00    +0.000 F 
ATOM     96  C67 UNL A   1      13.390  47.592   5.313  1.00  0.00    +0.000 C 
ENDBRANCH   86   87
TORSDOF 23
ENDMDL
MODEL 6
REMARK VINA RESULT:      -8.6      2.843      7.783
ROOT
ATOM    142  H34 UNL A   1      18.783  50.676  -2.162  1.00  0.00    +0.000 H 
ATOM    143  H35 UNL A   1      19.357  53.197  -1.827  1.00  0.00    +0.000 H 
ATOM    144  H36 UNL A   1      16.192  52.239   0.666  1.00  0.00    +0.000 H 
ATOM    145  H37 UNL A   1      11.726  54.045   4.840  1.00  0.00    +0.000 H 
ATOM    146  H38 UNL A   1      11.351  51.537   4.726  1.00  0.00    +0.000 H 
ATOM    147  H39 UNL A   1      14.504  52.465   2.182  1.00  0.00    +0.000 H 
ATOM    148  H40 UNL A   1      15.382  57.373   2.835  1.00  0.00    +0.000 H 
ATOM    149  H41 UNL A   1      17.245  57.145   1.093  1.00  0.00    +0.000 H 
ATOM    150  H42 UNL A   1      15.246  47.343   0.098  1.00  0.00    +0.000 H 
ATOM    151  H43 UNL A   1      13.256  47.589   1.690  1.00  0.00    +0.000 H 
ATOM     50  C38 UNL A   1      13.016  50.190   2.849  1.00  0.00    +0.000 C 
ATOM     51  C39 UNL A   1      14.014  49.723   1.823  1.00  0.00    +0.000 C 
ATOM     52  N3  UNL A   1      14.969  50.397   1.230  1.00  0.00    +0.000 N 
ATOM     53  C40 UNL A   1      15.610  49.495   0.390  1.00  0.00    +0.000 C 
ATOM     54  C41 UNL A   1      16.640  49.718  -0.461  1.00  0.00    +0.000 C 
ATOM     66  C48 UNL A   1      17.270  50.996  -0.658  1.00  0.00    +0.000 C 
ATOM     67  C49 UNL A   1      18.310  51.322  -1.512  1.00  0.00    +0.000 C 
ATOM     68  C50 UNL A   1      18.608  52.678  -1.343  1.00  0.00    +0.000 C 
ATOM     69  C51 UNL A   1      17.728  53.206  -0.412  1.00  0.00    +0.000 C 
ATOM     70  N4  UNL A   1      16.915  52.163   0.003  1.00  0.00    +0.000 N 
ATOM     71  C52 UNL A   1      17.638  54.561   0.069  1.00  0.00    +0.000 C 
ATOM     83  C59 UNL A   1      16.711  55.014   0.948  1.00  0.00    +0.000 C 
ATOM     84  N5  UNL A   1      15.691  54.313   1.575  1.00  0.00    +0.000 N 
ATOM     85  C60 UNL A   1      15.087  55.177   2.352  1.00  0.00    +0.000 C 
ATOM     86  C61 UNL A   1      13.913  54.970   3.266  1.00  0.00    +0.000 C 
ATOM     98  C68 UNL A   1      13.395  53.735   3.402  1.00  0.00    +0.000 C 
ATOM     99  C69 UNL A   1      12.270  53.383   4.265  1.00  0.00    +0.000 C 
ATOM    100  C70 UNL A   1      12.060  52.061   4.190  1.00  0.00    +0.000 C 
ATOM    101  C71 UNL A   1      12.995  51.482   3.225  1.00  0.00    +0.000 C 
ATOM    102  N6  UNL A   1      13.762  52.546   2.823  1.00  0.00    +0.000 N 
ATOM    103  C72 UNL A   1      15.660  56.529   2.308  1.00  0.00    +0.000 C 
ATOM    104  C73 UNL A   1      16.628  56.381   1.415  1.00  0.00    +0.000 C 
ATOM    105  C74 UNL A   1      14.955  48.216   0.565  1.00  0.00    +0.000 C 
ATOM    106  C75 UNL A   1      13.933  48.314   1.404  1.00  0.00    +0.000 C 
ENDROOT
BRANCH   50   49
ATOM    107  C76 UNL A   1      10.800  48.996   2.717  1.00  0.00    +0.000 C 
ATOM    108  C77 UNL A   1       9.794  48.243   3.328  1.00  0.00    +0.000 C 
ATOM    140  H32 UNL A   1      11.461  47.313   6.086  1.00  0.00    +0.000 H 
ATOM     46  C34 UNL A   1      10.012  47.704   4.598  1.00  0.00    +0.000 C 
ATOM     47  C35 UNL A   1      11.260  47.826   5.214  1.00  0.00    +0.000 C 
ATOM     48  C36 UNL A   1      12.228  48.642   4.642  1.00  0.00    +0.000 C 
ATOM    141  H33 UNL A   1      13.120  48.800   5.136  1.00  0.00    +0.000 H 
ATOM     49  C37 UNL A   1      12.002  49.253   3.397  1.00  0.00    +0.000 C 
ATOM    152  H44 UNL A   1      10.660  49.365   1.763  1.00  0.00    +0.000 H 
ATOM    153  H45 UNL A   1       8.897  48.086   2.844  1.00  0.00    +0.000 H 
BRANCH   46   44
ATOM     44  C33 UNL A   1       8.880  47.088   5.321  1.00  0.00    +0.000 C 
ATOM     45  O10 UNL A   1       7.917  47.768   5.654  1.00  0.00    +0.000 O 
BRANCH   44   43
ATOM     43  N2  UNL A   1       8.952  45.754   5.653  1.00  0.00    +0.000 N 
ATOM    139  H31 UNL A   1       8.748  45.121   4.928  1.00  0.00    +0.000 H 
BRANCH   43   42
ATOM    137  H29 UNL A   1       8.886  45.773   7.715  1.00  0.00    +0.000 H 
ATOM     42  C32 UNL A   1       9.289  45.158   6.938  1.00  0.00    +0.000 C 
ATOM    138  H30 UNL A   1       8.874  44.172   6.953  1.00  0.00    +0.000 H 
BRANCH   42   41
ATOM     41  C31 UNL A   1      10.789  45.026   7.152  1.00  0.00    +0.000 C 
ATOM    135  H27 UNL A   1      11.010  43.997   7.338  1.00  0.00    +0.000 H 
ATOM    136  H28 UNL A   1      11.255  45.404   6.265  1.00  0.00    +0.000 H 
BRANCH   41   40
ATOM    133  H25 UNL A   1      10.746  46.730   8.411  1.00  0.00    +0.000 H 
ATOM    134  H26 UNL A   1      11.312  45.211   9.172  1.00  0.00    +0.000 H 
ATOM     40  C30 UNL A   1      11.345  45.849   8.312  1.00  0.00    +0.000 C 
BRANCH   40   39
ATOM    131  H23 UNL A   1      13.420  45.411   8.235  1.00  0.00    +0.000 H 
ATOM    132  H24 UNL A   1      12.871  46.778   7.215  1.00  0.00    +0.000 H 
ATOM     39  C29 UNL A   1      12.806  46.285   8.163  1.00  0.00    +0.000 C 
BRANCH   39   38
ATOM    129  H21 UNL A   1      12.996  46.963  10.171  1.00  0.00    +0.000 H 
ATOM    130  H22 UNL A   1      14.363  47.353   9.097  1.00  0.00    +0.000 H 
ATOM     38  C28 UNL A   1      13.300  47.299   9.202  1.00  0.00    +0.000 C 
BRANCH   38   37
ATOM     37  C27 UNL A   1      12.766  48.716   8.996  1.00  0.00    +0.000 C 
ATOM    127  H19 UNL A   1      13.545  49.417   9.210  1.00  0.00    +0.000 H 
ATOM    128  H20 UNL A   1      12.441  48.811   7.980  1.00  0.00    +0.000 H 
BRANCH   37   36
ATOM     36  N1  UNL A   1      11.638  48.984   9.862  1.00  0.00    +0.000 N 
ATOM    126  H18 UNL A   1      10.798  49.325   9.481  1.00  0.00    +0.000 H 
BRANCH   36    2
ATOM      1  O1  UNL A   1      11.089  47.921  11.815  1.00  0.00    +0.000 O 
ATOM      2  C1  UNL A   1      11.735  48.763  11.202  1.00  0.00    +0.000 C 
BRANCH    2    3
ATOM      3  C2  UNL A   1      12.711  49.592  11.940  1.00  0.00    +0.000 C 
ATOM    109  H1  UNL A   1      13.649  49.174  12.046  1.00  0.00    +0.000 H 
BRANCH    3    4
ATOM      4  C3  UNL A   1      12.562  50.814  12.498  1.00  0.00    +0.000 C 
ATOM    110  H2  UNL A   1      12.186  50.887  13.456  1.00  0.00    +0.000 H 
BRANCH    4    5
ATOM      5  C4  UNL A   1      12.942  52.114  11.732  1.00  0.00    +0.000 C 
ATOM      6  C5  UNL A   1      11.655  52.886  11.625  1.00  0.00    +0.000 C 
ATOM      7  C6  UNL A   1      11.396  53.977  12.359  1.00  0.00    +0.000 C 
ATOM      9  C7  UNL A   1      12.434  54.568  13.267  1.00  0.00    +0.000 C 
ATOM     10  O3  UNL A   1      12.159  55.555  13.940  1.00  0.00    +0.000 O 
ATOM     11  C8  UNL A   1      13.791  53.972  13.259  1.00  0.00    +0.000 C 
ATOM     12  C9  UNL A   1      13.981  52.865  12.536  1.00  0.00    +0.000 C 
ATOM     13  C10 UNL A   1      15.290  52.216  12.270  1.00  0.00    +0.000 C 
ATOM     14  O4  UNL A   1      16.285  52.280  12.947  1.00  0.00    +0.000 O 
ATOM     15  C11 UNL A   1      15.128  51.554  10.947  1.00  0.00    +0.000 C 
ATOM     16  C12 UNL A   1      16.112  50.962  10.266  1.00  0.00    +0.000 C 
ATOM     17  C13 UNL A   1      15.930  50.744   8.824  1.00  0.00    +0.000 C 
ATOM     18  C14 UNL A   1      16.357  49.543   8.238  1.00  0.00    +0.000 C 
ATOM     19  C15 UNL A   1      16.294  49.398   6.853  1.00  0.00    +0.000 C 
ATOM     21  C16 UNL A   1      15.851  50.445   6.050  1.00  0.00    +0.000 C 
ATOM     23  C17 UNL A   1      15.433  51.639   6.611  1.00  0.00    +0.000 C 
ATOM     24  C18 UNL A   1      15.425  51.776   8.000  1.00  0.00    +0.000 C 
ATOM     25  O7  UNL A   1      15.032  53.004   8.461  1.00  0.00    +0.000 O 
ATOM     26  C19 UNL A   1      13.965  53.106   9.442  1.00  0.00    +0.000 C 
ATOM     35  C26 UNL A   1      13.750  51.880  10.401  1.00  0.00    +0.000 C 
ATOM    111  H3  UNL A   1      10.940  52.562  10.957  1.00  0.00    +0.000 H 
ATOM    113  H5  UNL A   1      14.564  54.399  13.794  1.00  0.00    +0.000 H 
ATOM    114  H6  UNL A   1      16.979  50.665  10.740  1.00  0.00    +0.000 H 
ATOM    115  H7  UNL A   1      16.714  48.775   8.826  1.00  0.00    +0.000 H 
ATOM    118  H10 UNL A   1      15.130  52.421   6.009  1.00  0.00    +0.000 H 
ATOM    119  H11 UNL A   1      14.269  53.836  10.164  1.00  0.00    +0.000 H 
ATOM    125  H17 UNL A   1      13.219  51.166   9.807  1.00  0.00    +0.000 H 
BRANCH    7    8
ATOM    112  H4  UNL A   1       9.454  54.180  11.843  1.00  0.00    +0.000 H 
ATOM      8  O2  UNL A   1      10.166  54.600  12.286  1.00  0.00    +0.000 O 
ENDBRANCH    7    8
BRANCH   19   20
ATOM    116  H8  UNL A   1      17.474  48.224   5.731  1.00  0.00    +0.000 H 
ATOM     20  O5  UNL A   1      16.677  48.246   6.224  1.00  0.00    +0.000 O 
ENDBRANCH   19   20
BRANCH   21   22
ATOM    117  H9  UNL A   1      16.516  50.679   4.173  1.00  0.00    +0.000 H 
ATOM     22  O6  UNL A   1      15.828  50.310   4.692  1.00  0.00    +0.000 O 
ENDBRANCH   21   22
BRANCH   26   27
ATOM     34  C25 UNL A   1      11.814  52.667   8.130  1.00  0.00    +0.000 C 
ATOM     28  C21 UNL A   1      12.413  54.944   8.648  1.00  0.00    +0.000 C 
ATOM    120  H12 UNL A   1      13.110  55.631   8.974  1.00  0.00    +0.000 H 
ATOM    121  H13 UNL A   1      10.957  56.398   8.163  1.00  0.00    +0.000 H 
ATOM     27  C20 UNL A   1      12.710  53.571   8.718  1.00  0.00    +0.000 C 
ATOM    124  H16 UNL A   1      12.030  51.658   8.123  1.00  0.00    +0.000 H 
ATOM     29  C22 UNL A   1      11.191  55.392   8.144  1.00  0.00    +0.000 C 
ATOM     30  C23 UNL A   1      10.291  54.474   7.616  1.00  0.00    +0.000 C 
ATOM     32  C24 UNL A   1      10.630  53.127   7.555  1.00  0.00    +0.000 C 
BRANCH   30   31
ATOM    122  H14 UNL A   1       8.700  55.687   7.473  1.00  0.00    +0.000 H 
ATOM     31  O8  UNL A   1       9.078  54.891   7.152  1.00  0.00    +0.000 O 
ENDBRANCH   30   31
BRANCH   32   33
ATOM     33  O9  UNL A   1       9.785  52.241   6.948  1.00  0.00    +0.000 O 
ATOM    123  H15 UNL A   1      10.038  51.345   6.851  1.00  0.00    +0.000 H 
ENDBRANCH   32   33
ENDBRANCH   26   27
ENDBRANCH    4    5
ENDBRANCH    3    4
ENDBRANCH    2    3
ENDBRANCH   36    2
ENDBRANCH   37   36
ENDBRANCH   38   37
ENDBRANCH   39   38
ENDBRANCH   40   39
ENDBRANCH   41   40
ENDBRANCH   42   41
ENDBRANCH   43   42
ENDBRANCH   44   43
ENDBRANCH   46   44
ENDBRANCH   50   49
BRANCH   54   55
ATOM     65  F5  UNL A   1      15.572  48.938  -2.977  1.00  0.00    +0.000 F 
ATOM     55  C42 UNL A   1      17.162  48.553  -1.248  1.00  0.00    +0.000 C 
ATOM     56  C43 UNL A   1      18.198  47.743  -0.762  1.00  0.00    +0.000 C 
ATOM     57  F1  UNL A   1      18.806  48.045   0.395  1.00  0.00    +0.000 F 
ATOM     58  C44 UNL A   1      18.632  46.628  -1.477  1.00  0.00    +0.000 C 
ATOM     59  F2  UNL A   1      19.644  45.886  -1.009  1.00  0.00    +0.000 F 
ATOM     60  C45 UNL A   1      18.022  46.289  -2.676  1.00  0.00    +0.000 C 
ATOM     61  F3  UNL A   1      18.432  45.208  -3.355  1.00  0.00    +0.000 F 
ATOM     62  C46 UNL A   1      16.990  47.071  -3.171  1.00  0.00    +0.000 C 
ATOM     63  F4  UNL A   1      16.393  46.739  -4.324  1.00  0.00    +0.000 F 
ATOM     64  C47 UNL A   1      16.570  48.199  -2.471  1.00  0.00    +0.000 C 
ENDBRANCH   54   55
BRANCH   71   72
ATOM     72  C53 UNL A   1      18.639  55.550  -0.446  1.00  0.00    +0.000 C 
ATOM     73  C54 UNL A   1      19.760  55.912   0.314  1.00  0.00    +0.000 C 
ATOM     74  F6  UNL A   1      19.920  55.425   1.555  1.00  0.00    +0.000 F 
ATOM     75  C55 UNL A   1      20.707  56.801  -0.187  1.00  0.00    +0.000 C 
ATOM     76  F7  UNL A   1      21.752  57.161   0.569  1.00  0.00    +0.000 F 
ATOM     77  C56 UNL A   1      20.564  57.322  -1.466  1.00  0.00    +0.000 C 
ATOM     78  F8  UNL A   1      21.482  58.169  -1.952  1.00  0.00    +0.000 F 
ATOM     79  C57 UNL A   1      19.468  56.967  -2.238  1.00  0.00    +0.000 C 
ATOM     80  F9  UNL A   1      19.335  57.460  -3.477  1.00  0.00    +0.000 F 
ATOM     81  C58 UNL A   1      18.507  56.098  -1.729  1.00  0.00    +0.000 C 
ATOM     82  F10 UNL A   1      17.455  55.776  -2.498  1.00  0.00    +0.000 F 
ENDBRANCH   71   72
BRANCH   86   87
ATOM     97  F15 UNL A   1      11.883  56.667   2.216  1.00  0.00    +0.000 F 
ATOM     87  C62 UNL A   1      13.320  56.101   4.023  1.00  0.00    +0.000 C 
ATOM     88  C63 UNL A   1      13.753  56.403   5.321  1.00  0.00    +0.000 C 
ATOM     89  F11 UNL A   1      14.683  55.636   5.911  1.00  0.00    +0.000 F 
ATOM     90  C64 UNL A   1      13.217  57.478   6.024  1.00  0.00    +0.000 C 
ATOM     91  F12 UNL A   1      13.628  57.730   7.275  1.00  0.00    +0.000 F 
ATOM     92  C65 UNL A   1      12.254  58.285   5.435  1.00  0.00    +0.000 C 
ATOM     93  F13 UNL A   1      11.748  59.328   6.108  1.00  0.00    +0.000 F 
ATOM     94  C66 UNL A   1      11.813  58.007   4.150  1.00  0.00    +0.000 C 
ATOM     95  F14 UNL A   1      10.894  58.792   3.572  1.00  0.00    +0.000 F 
ATOM     96  C67 UNL A   1      12.330  56.916   3.457  1.00  0.00    +0.000 C 
ENDBRANCH   86   87
TORSDOF 23
ENDMDL
MODEL 7
REMARK VINA RESULT:      -8.6     42.989     46.967
ROOT
ATOM    142  H34 UNL A   1      18.252  36.419  48.690  1.00  0.00    +0.000 H 
ATOM    143  H35 UNL A   1      18.689  34.584  46.891  1.00  0.00    +0.000 H 
ATOM    144  H36 UNL A   1      22.340  36.125  48.092  1.00  0.00    +0.000 H 
ATOM    145  H37 UNL A   1      28.677  36.403  47.463  1.00  0.00    +0.000 H 
ATOM    146  H38 UNL A   1      28.275  37.983  49.410  1.00  0.00    +0.000 H 
ATOM    147  H39 UNL A   1      24.587  36.489  48.207  1.00  0.00    +0.000 H 
ATOM    148  H40 UNL A   1      25.594  33.087  44.643  1.00  0.00    +0.000 H 
ATOM    149  H41 UNL A   1      23.067  32.708  44.466  1.00  0.00    +0.000 H 
ATOM    150  H42 UNL A   1      21.442  39.530  51.669  1.00  0.00    +0.000 H 
ATOM    151  H43 UNL A   1      23.946  40.063  51.727  1.00  0.00    +0.000 H 
ATOM     50  C38 UNL A   1      25.528  38.372  50.052  1.00  0.00    +0.000 C 
ATOM     51  C39 UNL A   1      24.030  38.387  50.200  1.00  0.00    +0.000 C 
ATOM     52  N3  UNL A   1      23.131  37.651  49.593  1.00  0.00    +0.000 N 
ATOM     53  C40 UNL A   1      21.902  38.050  50.104  1.00  0.00    +0.000 C 
ATOM     54  C41 UNL A   1      20.665  37.612  49.769  1.00  0.00    +0.000 C 
ATOM     66  C48 UNL A   1      20.399  36.615  48.765  1.00  0.00    +0.000 C 
ATOM     67  C49 UNL A   1      19.176  36.120  48.344  1.00  0.00    +0.000 C 
ATOM     68  C50 UNL A   1      19.410  35.146  47.368  1.00  0.00    +0.000 C 
ATOM     69  C51 UNL A   1      20.776  35.062  47.153  1.00  0.00    +0.000 C 
ATOM     70  N4  UNL A   1      21.371  35.966  48.019  1.00  0.00    +0.000 N 
ATOM     71  C52 UNL A   1      21.488  34.216  46.230  1.00  0.00    +0.000 C 
ATOM     83  C59 UNL A   1      22.830  34.228  46.041  1.00  0.00    +0.000 C 
ATOM     84  N5  UNL A   1      23.791  35.007  46.670  1.00  0.00    +0.000 N 
ATOM     85  C60 UNL A   1      24.941  34.631  46.170  1.00  0.00    +0.000 C 
ATOM     86  C61 UNL A   1      26.321  35.134  46.486  1.00  0.00    +0.000 C 
ATOM     98  C68 UNL A   1      26.479  36.058  47.452  1.00  0.00    +0.000 C 
ATOM     99  C69 UNL A   1      27.757  36.622  47.878  1.00  0.00    +0.000 C 
ATOM    100  C70 UNL A   1      27.543  37.472  48.893  1.00  0.00    +0.000 C 
ATOM    101  C71 UNL A   1      26.105  37.558  49.149  1.00  0.00    +0.000 C 
ATOM    102  N6  UNL A   1      25.554  36.670  48.260  1.00  0.00    +0.000 N 
ATOM    103  C72 UNL A   1      24.841  33.564  45.164  1.00  0.00    +0.000 C 
ATOM    104  C73 UNL A   1      23.530  33.377  45.102  1.00  0.00    +0.000 C 
ATOM    105  C74 UNL A   1      22.167  39.075  51.091  1.00  0.00    +0.000 C 
ATOM    106  C75 UNL A   1      23.462  39.353  51.155  1.00  0.00    +0.000 C 
ENDROOT
BRANCH   50   49
ATOM    107  C76 UNL A   1      26.718  40.573  50.353  1.00  0.00    +0.000 C 
ATOM    108  C77 UNL A   1      27.645  41.363  51.037  1.00  0.00    +0.000 C 
ATOM    140  H32 UNL A   1      28.040  39.440  53.757  1.00  0.00    +0.000 H 
ATOM     46  C34 UNL A   1      28.190  40.902  52.237  1.00  0.00    +0.000 C 
ATOM     47  C35 UNL A   1      27.738  39.709  52.807  1.00  0.00    +0.000 C 
ATOM     48  C36 UNL A   1      26.879  38.889  52.087  1.00  0.00    +0.000 C 
ATOM    141  H33 UNL A   1      26.609  37.970  52.469  1.00  0.00    +0.000 H 
ATOM     49  C37 UNL A   1      26.374  39.302  50.842  1.00  0.00    +0.000 C 
ATOM    152  H44 UNL A   1      26.283  40.924  49.485  1.00  0.00    +0.000 H 
ATOM    153  H45 UNL A   1      27.926  42.280  50.657  1.00  0.00    +0.000 H 
BRANCH   46   44
ATOM     44  C33 UNL A   1      29.315  41.640  52.847  1.00  0.00    +0.000 C 
ATOM     45  O10 UNL A   1      29.108  42.460  53.734  1.00  0.00    +0.000 O 
BRANCH   44   43
ATOM     43  N2  UNL A   1      30.587  41.425  52.367  1.00  0.00    +0.000 N 
ATOM    139  H31 UNL A   1      31.320  41.747  52.939  1.00  0.00    +0.000 H 
BRANCH   43   42
ATOM    137  H29 UNL A   1      30.168  40.203  50.758  1.00  0.00    +0.000 H 
ATOM     42  C32 UNL A   1      30.989  40.784  51.123  1.00  0.00    +0.000 C 
ATOM    138  H30 UNL A   1      31.265  41.559  50.438  1.00  0.00    +0.000 H 
BRANCH   42   41
ATOM     41  C31 UNL A   1      32.194  39.872  51.292  1.00  0.00    +0.000 C 
ATOM    135  H27 UNL A   1      32.763  39.902  50.387  1.00  0.00    +0.000 H 
ATOM    136  H28 UNL A   1      32.732  40.237  52.142  1.00  0.00    +0.000 H 
BRANCH   41   40
ATOM    133  H25 UNL A   1      32.536  37.795  51.045  1.00  0.00    +0.000 H 
ATOM    134  H26 UNL A   1      31.933  38.302  52.654  1.00  0.00    +0.000 H 
ATOM     40  C30 UNL A   1      31.855  38.413  51.592  1.00  0.00    +0.000 C 
BRANCH   40   39
ATOM    131  H23 UNL A   1      29.756  38.463  51.905  1.00  0.00    +0.000 H 
ATOM    132  H24 UNL A   1      30.288  38.278  50.204  1.00  0.00    +0.000 H 
ATOM     39  C29 UNL A   1      30.430  37.986  51.224  1.00  0.00    +0.000 C 
BRANCH   39   38
ATOM    129  H21 UNL A   1      30.092  36.180  52.297  1.00  0.00    +0.000 H 
ATOM    130  H22 UNL A   1      29.256  36.307  50.728  1.00  0.00    +0.000 H 
ATOM     38  C28 UNL A   1      30.162  36.476  51.271  1.00  0.00    +0.000 C 
BRANCH   38   37
ATOM     37  C27 UNL A   1      31.242  35.628  50.600  1.00  0.00    +0.000 C 
ATOM    127  H19 UNL A   1      32.203  35.966  50.926  1.00  0.00    +0.000 H 
ATOM    128  H20 UNL A   1      31.088  34.605  50.873  1.00  0.00    +0.000 H 
BRANCH   37   36
ATOM     36  N1  UNL A   1      31.170  35.731  49.158  1.00  0.00    +0.000 N 
ATOM    126  H18 UNL A   1      30.348  35.461  48.689  1.00  0.00    +0.000 H 
BRANCH   36    2
ATOM      1  O1  UNL A   1      33.297  35.609  48.320  1.00  0.00    +0.000 O 
ATOM      2  C1  UNL A   1      32.232  36.201  48.450  1.00  0.00    +0.000 C 
BRANCH    2    3
ATOM      3  C2  UNL A   1      32.055  37.508  47.781  1.00  0.00    +0.000 C 
ATOM    109  H1  UNL A   1      32.887  37.860  47.281  1.00  0.00    +0.000 H 
BRANCH    3    4
ATOM      4  C3  UNL A   1      30.971  38.312  47.725  1.00  0.00    +0.000 C 
ATOM    110  H2  UNL A   1      30.114  38.037  48.230  1.00  0.00    +0.000 H 
BRANCH    4    5
ATOM      5  C4  UNL A   1      30.979  39.642  46.919  1.00  0.00    +0.000 C 
ATOM      6  C5  UNL A   1      32.129  40.429  47.489  1.00  0.00    +0.000 C 
ATOM      7  C6  UNL A   1      33.290  40.599  46.841  1.00  0.00    +0.000 C 
ATOM      9  C7  UNL A   1      33.477  40.099  45.439  1.00  0.00    +0.000 C 
ATOM     10  O3  UNL A   1      34.557  40.253  44.881  1.00  0.00    +0.000 O 
ATOM     11  C8  UNL A   1      32.311  39.499  44.748  1.00  0.00    +0.000 C 
ATOM     12  C9  UNL A   1      31.191  39.323  45.455  1.00  0.00    +0.000 C 
ATOM     13  C10 UNL A   1      29.878  38.893  44.909  1.00  0.00    +0.000 C 
ATOM     14  O4  UNL A   1      29.681  38.248  43.911  1.00  0.00    +0.000 O 
ATOM     15  C11 UNL A   1      28.868  39.513  45.810  1.00  0.00    +0.000 C 
ATOM     16  C12 UNL A   1      27.548  39.491  45.603  1.00  0.00    +0.000 C 
ATOM     17  C13 UNL A   1      26.717  40.483  46.298  1.00  0.00    +0.000 C 
ATOM     18  C14 UNL A   1      25.478  40.103  46.838  1.00  0.00    +0.000 C 
ATOM     19  C15 UNL A   1      24.644  41.076  47.384  1.00  0.00    +0.000 C 
ATOM     21  C16 UNL A   1      25.010  42.419  47.362  1.00  0.00    +0.000 C 
ATOM     23  C17 UNL A   1      26.225  42.811  46.828  1.00  0.00    +0.000 C 
ATOM     24  C18 UNL A   1      27.102  41.842  46.339  1.00  0.00    +0.000 C 
ATOM     25  O7  UNL A   1      28.262  42.328  45.796  1.00  0.00    +0.000 O 
ATOM     26  C19 UNL A   1      29.547  41.830  46.257  1.00  0.00    +0.000 C 
ATOM     35  C26 UNL A   1      29.585  40.369  46.836  1.00  0.00    +0.000 C 
ATOM    111  H3  UNL A   1      32.019  40.857  48.421  1.00  0.00    +0.000 H 
ATOM    113  H5  UNL A   1      32.362  39.227  43.754  1.00  0.00    +0.000 H 
ATOM    114  H6  UNL A   1      27.124  38.796  44.970  1.00  0.00    +0.000 H 
ATOM    115  H7  UNL A   1      25.189  39.113  46.830  1.00  0.00    +0.000 H 
ATOM    118  H10 UNL A   1      26.480  43.811  46.791  1.00  0.00    +0.000 H 
ATOM    119  H11 UNL A   1      30.158  41.685  45.390  1.00  0.00    +0.000 H 
ATOM    125  H17 UNL A   1      29.198  40.465  47.829  1.00  0.00    +0.000 H 
BRANCH    7    8
ATOM    112  H4  UNL A   1      35.221  41.098  47.153  1.00  0.00    +0.000 H 
ATOM      8  O2  UNL A   1      34.344  41.256  47.443  1.00  0.00    +0.000 O 
ENDBRANCH    7    8
BRANCH   19   20
ATOM    116  H8  UNL A   1      22.680  41.290  47.746  1.00  0.00    +0.000 H 
ATOM     20  O5  UNL A   1      23.434  40.767  47.941  1.00  0.00    +0.000 O 
ENDBRANCH   19   20
BRANCH   21   22
ATOM    117  H9  UNL A   1      24.523  44.139  48.270  1.00  0.00    +0.000 H 
ATOM     22  O6  UNL A   1      24.171  43.371  47.864  1.00  0.00    +0.000 O 
ENDBRANCH   21   22
BRANCH   26   27
ATOM     34  C25 UNL A   1      29.696  43.103  48.470  1.00  0.00    +0.000 C 
ATOM     28  C21 UNL A   1      31.236  43.663  46.703  1.00  0.00    +0.000 C 
ATOM    120  H12 UNL A   1      31.520  43.600  45.713  1.00  0.00    +0.000 H 
ATOM    121  H13 UNL A   1      32.761  45.030  47.228  1.00  0.00    +0.000 H 
ATOM     27  C20 UNL A   1      30.157  42.887  47.164  1.00  0.00    +0.000 C 
ATOM    124  H16 UNL A   1      28.875  42.583  48.819  1.00  0.00    +0.000 H 
ATOM     29  C22 UNL A   1      31.928  44.519  47.562  1.00  0.00    +0.000 C 
ATOM     30  C23 UNL A   1      31.488  44.677  48.870  1.00  0.00    +0.000 C 
ATOM     32  C24 UNL A   1      30.341  44.018  49.301  1.00  0.00    +0.000 C 
BRANCH   30   31
ATOM    122  H14 UNL A   1      31.707  46.043  50.321  1.00  0.00    +0.000 H 
ATOM     31  O8  UNL A   1      32.173  45.481  49.733  1.00  0.00    +0.000 O 
ENDBRANCH   30   31
BRANCH   32   33
ATOM     33  O9  UNL A   1      29.856  44.251  50.556  1.00  0.00    +0.000 O 
ATOM    123  H15 UNL A   1      29.432  43.562  51.029  1.00  0.00    +0.000 H 
ENDBRANCH   32   33
ENDBRANCH   26   27
ENDBRANCH    4    5
ENDBRANCH    3    4
ENDBRANCH    2    3
ENDBRANCH   36    2
ENDBRANCH   37   36
ENDBRANCH   38   37
ENDBRANCH   39   38
ENDBRANCH   40   39
ENDBRANCH   41   40
ENDBRANCH   42   41
ENDBRANCH   43   42
ENDBRANCH   44   43
ENDBRANCH   46   44
ENDBRANCH   50   49
BRANCH   54   55
ATOM     65  F5  UNL A   1      19.628  36.532  52.186  1.00  0.00    +0.000 F 
ATOM     55  C42 UNL A   1      19.492  38.202  50.495  1.00  0.00    +0.000 C 
ATOM     56  C43 UNL A   1      18.803  39.315  49.993  1.00  0.00    +0.000 C 
ATOM     57  F1  UNL A   1      19.233  39.932  48.883  1.00  0.00    +0.000 F 
ATOM     58  C44 UNL A   1      17.678  39.816  50.647  1.00  0.00    +0.000 C 
ATOM     59  F2  UNL A   1      17.053  40.899  50.167  1.00  0.00    +0.000 F 
ATOM     60  C45 UNL A   1      17.209  39.198  51.797  1.00  0.00    +0.000 C 
ATOM     61  F3  UNL A   1      16.119  39.673  52.416  1.00  0.00    +0.000 F 
ATOM     62  C46 UNL A   1      17.869  38.091  52.306  1.00  0.00    +0.000 C 
ATOM     63  F4  UNL A   1      17.411  37.487  53.411  1.00  0.00    +0.000 F 
ATOM     64  C47 UNL A   1      19.008  37.603  51.668  1.00  0.00    +0.000 C 
ENDBRANCH   54   55
BRANCH   71   72
ATOM     72  C53 UNL A   1      20.687  33.252  45.409  1.00  0.00    +0.000 C 
ATOM     73  C54 UNL A   1      20.606  31.895  45.754  1.00  0.00    +0.000 C 
ATOM     74  F6  UNL A   1      21.308  31.420  46.795  1.00  0.00    +0.000 F 
ATOM     75  C55 UNL A   1      19.827  31.014  45.009  1.00  0.00    +0.000 C 
ATOM     76  F7  UNL A   1      19.792  29.715  45.334  1.00  0.00    +0.000 F 
ATOM     77  C56 UNL A   1      19.094  31.478  43.927  1.00  0.00    +0.000 C 
ATOM     78  F8  UNL A   1      18.335  30.630  43.218  1.00  0.00    +0.000 F 
ATOM     79  C57 UNL A   1      19.150  32.818  43.577  1.00  0.00    +0.000 C 
ATOM     80  F9  UNL A   1      18.433  33.270  42.538  1.00  0.00    +0.000 F 
ATOM     81  C58 UNL A   1      19.948  33.697  44.304  1.00  0.00    +0.000 C 
ATOM     82  F10 UNL A   1      19.987  34.987  43.940  1.00  0.00    +0.000 F 
ENDBRANCH   71   72
BRANCH   86   87
ATOM     97  F15 UNL A   1      27.978  33.032  47.455  1.00  0.00    +0.000 F 
ATOM     87  C62 UNL A   1      27.510  34.627  45.756  1.00  0.00    +0.000 C 
ATOM     88  C63 UNL A   1      27.890  35.183  44.528  1.00  0.00    +0.000 C 
ATOM     89  F11 UNL A   1      27.150  36.157  43.976  1.00  0.00    +0.000 F 
ATOM     90  C64 UNL A   1      29.019  34.727  43.852  1.00  0.00    +0.000 C 
ATOM     91  F12 UNL A   1      29.346  35.256  42.665  1.00  0.00    +0.000 F 
ATOM     92  C65 UNL A   1      29.800  33.721  44.402  1.00  0.00    +0.000 C 
ATOM     93  F13 UNL A   1      30.894  33.291  43.757  1.00  0.00    +0.000 F 
ATOM     94  C66 UNL A   1      29.445  33.158  45.618  1.00  0.00    +0.000 C 
ATOM     95  F14 UNL A   1      30.204  32.196  46.160  1.00  0.00    +0.000 F 
ATOM     96  C67 UNL A   1      28.302  33.596  46.282  1.00  0.00    +0.000 C 
ENDBRANCH   86   87
TORSDOF 23
ENDMDL
MODEL 8
REMARK VINA RESULT:      -8.5     45.689     52.341
ROOT
ATOM    142  H34 UNL A   1       5.477  10.267  24.436  1.00  0.00    +0.000 H 
ATOM    143  H35 UNL A   1       7.440  11.396  25.728  1.00  0.00    +0.000 H 
ATOM    144  H36 UNL A   1       7.749   7.296  26.215  1.00  0.00    +0.000 H 
ATOM    145  H37 UNL A   1      10.607   2.267  28.895  1.00  0.00    +0.000 H 
ATOM    146  H38 UNL A   1       8.872   1.154  27.412  1.00  0.00    +0.000 H 
ATOM    147  H39 UNL A   1       8.503   5.266  26.928  1.00  0.00    +0.000 H 
ATOM    148  H40 UNL A   1      12.255   7.292  29.594  1.00  0.00    +0.000 H 
ATOM    149  H41 UNL A   1      11.385   9.581  28.844  1.00  0.00    +0.000 H 
ATOM    150  H42 UNL A   1       4.048   5.174  23.572  1.00  0.00    +0.000 H 
ATOM    151  H43 UNL A   1       4.781   2.889  24.464  1.00  0.00    +0.000 H 
ATOM     50  C38 UNL A   1       7.158   2.974  26.049  1.00  0.00    +0.000 C 
ATOM     51  C39 UNL A   1       6.412   4.130  25.437  1.00  0.00    +0.000 C 
ATOM     52  N3  UNL A   1       6.672   5.413  25.506  1.00  0.00    +0.000 N 
ATOM     53  C40 UNL A   1       5.690   6.044  24.753  1.00  0.00    +0.000 C 
ATOM     54  C41 UNL A   1       5.507   7.370  24.544  1.00  0.00    +0.000 C 
ATOM     66  C48 UNL A   1       6.333   8.404  25.109  1.00  0.00    +0.000 C 
ATOM     67  C49 UNL A   1       6.212   9.776  24.968  1.00  0.00    +0.000 C 
ATOM     68  C50 UNL A   1       7.256  10.382  25.674  1.00  0.00    +0.000 C 
ATOM     69  C51 UNL A   1       8.004   9.390  26.286  1.00  0.00    +0.000 C 
ATOM     70  N4  UNL A   1       7.429   8.181  25.928  1.00  0.00    +0.000 N 
ATOM     71  C52 UNL A   1       9.162   9.532  27.130  1.00  0.00    +0.000 C 
ATOM     83  C59 UNL A   1       9.812   8.509  27.737  1.00  0.00    +0.000 C 
ATOM     84  N5  UNL A   1       9.542   7.150  27.679  1.00  0.00    +0.000 N 
ATOM     85  C60 UNL A   1      10.465   6.569  28.404  1.00  0.00    +0.000 C 
ATOM     86  C61 UNL A   1      10.663   5.108  28.692  1.00  0.00    +0.000 C 
ATOM     98  C68 UNL A   1       9.852   4.207  28.108  1.00  0.00    +0.000 C 
ATOM     99  C69 UNL A   1       9.938   2.759  28.281  1.00  0.00    +0.000 C 
ATOM    100  C70 UNL A   1       9.009   2.172  27.513  1.00  0.00    +0.000 C 
ATOM    101  C71 UNL A   1       8.221   3.206  26.841  1.00  0.00    +0.000 C 
ATOM    102  N6  UNL A   1       8.806   4.381  27.238  1.00  0.00    +0.000 N 
ATOM    103  C72 UNL A   1      11.432   7.498  29.005  1.00  0.00    +0.000 C 
ATOM    104  C73 UNL A   1      10.971   8.670  28.590  1.00  0.00    +0.000 C 
ATOM    105  C74 UNL A   1       4.841   5.005  24.210  1.00  0.00    +0.000 C 
ATOM    106  C75 UNL A   1       5.216   3.808  24.642  1.00  0.00    +0.000 C 
ENDROOT
BRANCH   50   49
ATOM    107  C76 UNL A   1       5.572   1.078  26.539  1.00  0.00    +0.000 C 
ATOM    108  C77 UNL A   1       5.247  -0.279  26.459  1.00  0.00    +0.000 C 
ATOM    140  H32 UNL A   1       7.488  -1.200  24.140  1.00  0.00    +0.000 H 
ATOM     46  C34 UNL A   1       6.008  -1.122  25.646  1.00  0.00    +0.000 C 
ATOM     47  C35 UNL A   1       7.021  -0.601  24.838  1.00  0.00    +0.000 C 
ATOM     48  C36 UNL A   1       7.394   0.730  24.981  1.00  0.00    +0.000 C 
ATOM    141  H33 UNL A   1       8.196   1.097  24.446  1.00  0.00    +0.000 H 
ATOM     49  C37 UNL A   1       6.686   1.580  25.848  1.00  0.00    +0.000 C 
ATOM    152  H44 UNL A   1       4.990   1.714  27.108  1.00  0.00    +0.000 H 
ATOM    153  H45 UNL A   1       4.451  -0.655  26.997  1.00  0.00    +0.000 H 
BRANCH   46   44
ATOM     44  C33 UNL A   1       5.792  -2.581  25.724  1.00  0.00    +0.000 C 
ATOM     45  O10 UNL A   1       4.772  -3.029  26.234  1.00  0.00    +0.000 O 
BRANCH   44   43
ATOM     43  N2  UNL A   1       6.776  -3.423  25.258  1.00  0.00    +0.000 N 
ATOM    139  H31 UNL A   1       6.712  -3.673  24.308  1.00  0.00    +0.000 H 
BRANCH   43   42
ATOM    137  H29 UNL A   1       7.865  -3.640  26.998  1.00  0.00    +0.000 H 
ATOM     42  C32 UNL A   1       7.899  -3.993  25.988  1.00  0.00    +0.000 C 
ATOM    138  H30 UNL A   1       7.809  -5.058  25.935  1.00  0.00    +0.000 H 
BRANCH   42   41
ATOM     41  C31 UNL A   1       9.245  -3.618  25.387  1.00  0.00    +0.000 C 
ATOM    135  H27 UNL A   1       9.841  -4.504  25.327  1.00  0.00    +0.000 H 
ATOM    136  H28 UNL A   1       9.038  -3.183  24.431  1.00  0.00    +0.000 H 
BRANCH   41   40
ATOM    133  H25 UNL A   1       9.843  -1.615  25.734  1.00  0.00    +0.000 H 
ATOM    134  H26 UNL A   1       9.690  -2.647  27.189  1.00  0.00    +0.000 H 
ATOM     40  C30 UNL A   1      10.028  -2.571  26.176  1.00  0.00    +0.000 C 
BRANCH   40   39
ATOM    131  H23 UNL A   1      11.728  -3.782  26.565  1.00  0.00    +0.000 H 
ATOM    132  H24 UNL A   1      11.896  -2.606  25.224  1.00  0.00    +0.000 H 
ATOM     39  C29 UNL A   1      11.545  -2.786  26.219  1.00  0.00    +0.000 C 
BRANCH   39   38
ATOM    129  H21 UNL A   1      11.629  -1.363  27.799  1.00  0.00    +0.000 H 
ATOM    130  H22 UNL A   1      13.067  -2.401  27.625  1.00  0.00    +0.000 H 
ATOM     38  C28 UNL A   1      12.322  -1.821  27.123  1.00  0.00    +0.000 C 
BRANCH   38   37
ATOM     37  C27 UNL A   1      13.059  -0.715  26.370  1.00  0.00    +0.000 C 
ATOM    127  H19 UNL A   1      13.857  -0.349  26.982  1.00  0.00    +0.000 H 
ATOM    128  H20 UNL A   1      13.440  -1.123  25.457  1.00  0.00    +0.000 H 
BRANCH   37   36
ATOM     36  N1  UNL A   1      12.173   0.382  26.046  1.00  0.00    +0.000 N 
ATOM    126  H18 UNL A   1      11.628   0.796  26.752  1.00  0.00    +0.000 H 
BRANCH   36    2
ATOM      1  O1  UNL A   1      13.031   0.880  23.982  1.00  0.00    +0.000 O 
ATOM      2  C1  UNL A   1      12.091   0.843  24.768  1.00  0.00    +0.000 C 
BRANCH    2    3
ATOM      3  C2  UNL A   1      10.762   1.304  24.314  1.00  0.00    +0.000 C 
ATOM    109  H1  UNL A   1       9.982   0.661  24.523  1.00  0.00    +0.000 H 
BRANCH    3    4
ATOM      4  C3  UNL A   1      10.413   2.438  23.668  1.00  0.00    +0.000 C 
ATOM    110  H2  UNL A   1      10.634   3.350  24.097  1.00  0.00    +0.000 H 
BRANCH    4    5
ATOM      5  C4  UNL A   1       9.686   2.405  22.293  1.00  0.00    +0.000 C 
ATOM      6  C5  UNL A   1       8.576   3.414  22.421  1.00  0.00    +0.000 C 
ATOM      7  C6  UNL A   1       8.608   4.613  21.824  1.00  0.00    +0.000 C 
ATOM      9  C7  UNL A   1       9.720   4.985  20.887  1.00  0.00    +0.000 C 
ATOM     10  O3  UNL A   1       9.730   6.098  20.372  1.00  0.00    +0.000 O 
ATOM     11  C8  UNL A   1      10.733   3.955  20.559  1.00  0.00    +0.000 C 
ATOM     12  C9  UNL A   1      10.672   2.791  21.212  1.00  0.00    +0.000 C 
ATOM     13  C10 UNL A   1      11.486   1.585  20.914  1.00  0.00    +0.000 C 
ATOM     14  O4  UNL A   1      12.567   1.549  20.384  1.00  0.00    +0.000 O 
ATOM     15  C11 UNL A   1      10.633   0.436  21.327  1.00  0.00    +0.000 C 
ATOM     16  C12 UNL A   1      10.929  -0.848  21.110  1.00  0.00    +0.000 C 
ATOM     17  C13 UNL A   1       9.840  -1.833  21.163  1.00  0.00    +0.000 C 
ATOM     18  C14 UNL A   1      10.052  -3.079  21.772  1.00  0.00    +0.000 C 
ATOM     19  C15 UNL A   1       9.055  -4.051  21.706  1.00  0.00    +0.000 C 
ATOM     21  C16 UNL A   1       7.874  -3.809  21.011  1.00  0.00    +0.000 C 
ATOM     23  C17 UNL A   1       7.651  -2.588  20.399  1.00  0.00    +0.000 C 
ATOM     24  C18 UNL A   1       8.611  -1.580  20.513  1.00  0.00    +0.000 C 
ATOM     25  O7  UNL A   1       8.320  -0.422  19.843  1.00  0.00    +0.000 O 
ATOM     26  C19 UNL A   1       8.344   0.851  20.544  1.00  0.00    +0.000 C 
ATOM     35  C26 UNL A   1       9.290   0.965  21.794  1.00  0.00    +0.000 C 
ATOM    111  H3  UNL A   1       7.754   3.172  22.995  1.00  0.00    +0.000 H 
ATOM    113  H5  UNL A   1      11.462   4.131  19.851  1.00  0.00    +0.000 H 
ATOM    114  H6  UNL A   1      11.898  -1.141  20.909  1.00  0.00    +0.000 H 
ATOM    115  H7  UNL A   1      10.938  -3.274  22.264  1.00  0.00    +0.000 H 
ATOM    118  H10 UNL A   1       6.785  -2.424  19.862  1.00  0.00    +0.000 H 
ATOM    119  H11 UNL A   1       8.826   1.557  19.900  1.00  0.00    +0.000 H 
ATOM    125  H17 UNL A   1       8.756   0.472  22.579  1.00  0.00    +0.000 H 
BRANCH    7    8
ATOM    112  H4  UNL A   1       7.491   6.252  21.448  1.00  0.00    +0.000 H 
ATOM      8  O2  UNL A   1       7.606   5.537  22.043  1.00  0.00    +0.000 O 
ENDBRANCH    7    8
BRANCH   19   20
ATOM    116  H8  UNL A   1       8.443  -5.824  22.423  1.00  0.00    +0.000 H 
ATOM     20  O5  UNL A   1       9.194  -5.277  22.295  1.00  0.00    +0.000 O 
ENDBRANCH   19   20
BRANCH   21   22
ATOM    117  H9  UNL A   1       7.013  -5.471  20.294  1.00  0.00    +0.000 H 
ATOM     22  O6  UNL A   1       6.918  -4.778  20.918  1.00  0.00    +0.000 O 
ENDBRANCH   21   22
BRANCH   26   27
ATOM     34  C25 UNL A   1       6.130   0.686  21.815  1.00  0.00    +0.000 C 
ATOM     28  C21 UNL A   1       6.322   2.284  20.021  1.00  0.00    +0.000 C 
ATOM    120  H12 UNL A   1       6.830   2.648  19.201  1.00  0.00    +0.000 H 
ATOM    121  H13 UNL A   1       4.683   3.601  19.801  1.00  0.00    +0.000 H 
ATOM     27  C20 UNL A   1       6.903   1.267  20.801  1.00  0.00    +0.000 C 
ATOM    124  H16 UNL A   1       6.513  -0.095  22.371  1.00  0.00    +0.000 H 
ATOM     29  C22 UNL A   1       5.067   2.808  20.339  1.00  0.00    +0.000 C 
ATOM     30  C23 UNL A   1       4.340   2.253  21.384  1.00  0.00    +0.000 C 
ATOM     32  C24 UNL A   1       4.845   1.158  22.077  1.00  0.00    +0.000 C 
BRANCH   30   31
ATOM    122  H14 UNL A   1       2.569   2.312  22.323  1.00  0.00    +0.000 H 
ATOM     31  O8  UNL A   1       3.128   2.775  21.731  1.00  0.00    +0.000 O 
ENDBRANCH   30   31
BRANCH   32   33
ATOM     33  O9  UNL A   1       4.086   0.555  23.040  1.00  0.00    +0.000 O 
ATOM    123  H15 UNL A   1       3.500  -0.138  22.808  1.00  0.00    +0.000 H 
ENDBRANCH   32   33
ENDBRANCH   26   27
ENDBRANCH    4    5
ENDBRANCH    3    4
ENDBRANCH    2    3
ENDBRANCH   36    2
ENDBRANCH   37   36
ENDBRANCH   38   37
ENDBRANCH   39   38
ENDBRANCH   40   39
ENDBRANCH   41   40
ENDBRANCH   42   41
ENDBRANCH   43   42
ENDBRANCH   44   43
ENDBRANCH   46   44
ENDBRANCH   50   49
BRANCH   54   55
ATOM     65  F5  UNL A   1       5.740   7.645  21.724  1.00  0.00    +0.000 F 
ATOM     55  C42 UNL A   1       4.367   7.789  23.663  1.00  0.00    +0.000 C 
ATOM     56  C43 UNL A   1       3.110   8.113  24.193  1.00  0.00    +0.000 C 
ATOM     57  F1  UNL A   1       2.875   7.976  25.507  1.00  0.00    +0.000 F 
ATOM     58  C44 UNL A   1       2.078   8.559  23.369  1.00  0.00    +0.000 C 
ATOM     59  F2  UNL A   1       0.876   8.833  23.893  1.00  0.00    +0.000 F 
ATOM     60  C45 UNL A   1       2.292   8.712  22.007  1.00  0.00    +0.000 C 
ATOM     61  F3  UNL A   1       1.302   9.154  21.219  1.00  0.00    +0.000 F 
ATOM     62  C46 UNL A   1       3.529   8.405  21.463  1.00  0.00    +0.000 C 
ATOM     63  F4  UNL A   1       3.740   8.563  20.149  1.00  0.00    +0.000 F 
ATOM     64  C47 UNL A   1       4.555   7.937  22.281  1.00  0.00    +0.000 C 
ENDBRANCH   54   55
BRANCH   71   72
ATOM     72  C53 UNL A   1       9.687  10.916  27.365  1.00  0.00    +0.000 C 
ATOM     73  C54 UNL A   1      10.799  11.401  26.662  1.00  0.00    +0.000 C 
ATOM     74  F6  UNL A   1      11.458  10.603  25.808  1.00  0.00    +0.000 F 
ATOM     75  C55 UNL A   1      11.255  12.702  26.856  1.00  0.00    +0.000 C 
ATOM     76  F7  UNL A   1      12.340  13.134  26.201  1.00  0.00    +0.000 F 
ATOM     77  C56 UNL A   1      10.593  13.548  27.735  1.00  0.00    +0.000 C 
ATOM     78  F8  UNL A   1      11.027  14.804  27.912  1.00  0.00    +0.000 F 
ATOM     79  C57 UNL A   1       9.484  13.091  28.431  1.00  0.00    +0.000 C 
ATOM     80  F9  UNL A   1       8.837  13.911  29.271  1.00  0.00    +0.000 F 
ATOM     81  C58 UNL A   1       9.041  11.783  28.258  1.00  0.00    +0.000 C 
ATOM     82  F10 UNL A   1       7.969  11.367  28.948  1.00  0.00    +0.000 F 
ENDBRANCH   71   72
BRANCH   86   87
ATOM     97  F15 UNL A   1      10.549   5.389  31.522  1.00  0.00    +0.000 F 
ATOM     87  C62 UNL A   1      11.739   4.644  29.604  1.00  0.00    +0.000 C 
ATOM     88  C63 UNL A   1      12.899   4.042  29.099  1.00  0.00    +0.000 C 
ATOM     89  F11 UNL A   1      13.026   3.836  27.779  1.00  0.00    +0.000 F 
ATOM     90  C64 UNL A   1      13.920   3.628  29.950  1.00  0.00    +0.000 C 
ATOM     91  F12 UNL A   1      15.008   3.029  29.446  1.00  0.00    +0.000 F 
ATOM     92  C65 UNL A   1      13.811   3.829  31.318  1.00  0.00    +0.000 C 
ATOM     93  F13 UNL A   1      14.801   3.442  32.136  1.00  0.00    +0.000 F 
ATOM     94  C66 UNL A   1      12.674   4.427  31.839  1.00  0.00    +0.000 C 
ATOM     95  F14 UNL A   1      12.570   4.635  33.159  1.00  0.00    +0.000 F 
ATOM     96  C67 UNL A   1      11.641   4.817  30.992  1.00  0.00    +0.000 C 
ENDBRANCH   86   87
TORSDOF 23
ENDMDL
MODEL 9
REMARK VINA RESULT:      -8.5     19.702     24.557
ROOT
ATOM    142  H34 UNL A   1      12.661  27.066  -9.640  1.00  0.00    +0.000 H 
ATOM    143  H35 UNL A   1      14.685  27.609 -11.190  1.00  0.00    +0.000 H 
ATOM    144  H36 UNL A   1      12.745  31.155 -10.292  1.00  0.00    +0.000 H 
ATOM    145  H37 UNL A   1      12.111  37.445 -11.105  1.00  0.00    +0.000 H 
ATOM    146  H38 UNL A   1      10.317  36.958  -9.375  1.00  0.00    +0.000 H 
ATOM    147  H39 UNL A   1      12.213  33.372 -10.281  1.00  0.00    +0.000 H 
ATOM    148  H40 UNL A   1      15.982  34.571 -13.387  1.00  0.00    +0.000 H 
ATOM    149  H41 UNL A   1      16.556  32.076 -13.452  1.00  0.00    +0.000 H 
ATOM    150  H42 UNL A   1       8.965  30.065  -7.176  1.00  0.00    +0.000 H 
ATOM    151  H43 UNL A   1       8.255  32.524  -7.249  1.00  0.00    +0.000 H 
ATOM     50  C38 UNL A   1      10.039  34.200  -8.724  1.00  0.00    +0.000 C 
ATOM     51  C39 UNL A   1      10.110  32.707  -8.542  1.00  0.00    +0.000 C 
ATOM     52  N3  UNL A   1      10.981  31.855  -9.025  1.00  0.00    +0.000 N 
ATOM     53  C40 UNL A   1      10.604  30.608  -8.542  1.00  0.00    +0.000 C 
ATOM     54  C41 UNL A   1      11.169  29.401  -8.787  1.00  0.00    +0.000 C 
ATOM     66  C48 UNL A   1      12.307  29.194  -9.643  1.00  0.00    +0.000 C 
ATOM     67  C49 UNL A   1      12.938  28.004  -9.965  1.00  0.00    +0.000 C 
ATOM     68  C50 UNL A   1      14.015  28.295 -10.809  1.00  0.00    +0.000 C 
ATOM     69  C51 UNL A   1      14.031  29.659 -11.044  1.00  0.00    +0.000 C 
ATOM     70  N4  UNL A   1      12.980  30.200 -10.320  1.00  0.00    +0.000 N 
ATOM     71  C52 UNL A   1      14.941  30.418 -11.864  1.00  0.00    +0.000 C 
ATOM     83  C59 UNL A   1      14.860  31.752 -12.086  1.00  0.00    +0.000 C 
ATOM     84  N5  UNL A   1      13.939  32.663 -11.588  1.00  0.00    +0.000 N 
ATOM     85  C60 UNL A   1      14.297  33.830 -12.062  1.00  0.00    +0.000 C 
ATOM     86  C61 UNL A   1      13.660  35.174 -11.849  1.00  0.00    +0.000 C 
ATOM     98  C68 UNL A   1      12.607  35.279 -11.017  1.00  0.00    +0.000 C 
ATOM     99  C69 UNL A   1      11.903  36.519 -10.701  1.00  0.00    +0.000 C 
ATOM    100  C70 UNL A   1      10.943  36.258  -9.802  1.00  0.00    +0.000 C 
ATOM    101  C71 UNL A   1      10.924  34.821  -9.525  1.00  0.00    +0.000 C 
ATOM    102  N6  UNL A   1      11.959  34.324 -10.276  1.00  0.00    +0.000 N 
ATOM    103  C72 UNL A   1      15.492  33.793 -12.916  1.00  0.00    +0.000 C 
ATOM    104  C73 UNL A   1      15.778  32.498 -12.920  1.00  0.00    +0.000 C 
ATOM    105  C74 UNL A   1       9.441  30.812  -7.706  1.00  0.00    +0.000 C 
ATOM    106  C75 UNL A   1       9.067  32.084  -7.711  1.00  0.00    +0.000 C 
ENDROOT
BRANCH   50   49
ATOM    107  C76 UNL A   1       9.055  35.423  -6.752  1.00  0.00    +0.000 C 
ATOM    108  C77 UNL A   1       7.959  36.016  -6.121  1.00  0.00    +0.000 C 
ATOM    140  H32 UNL A   1       5.899  36.209  -8.762  1.00  0.00    +0.000 H 
ATOM     46  C34 UNL A   1       6.779  36.221  -6.840  1.00  0.00    +0.000 C 
ATOM     47  C35 UNL A   1       6.723  35.931  -8.205  1.00  0.00    +0.000 C 
ATOM     48  C36 UNL A   1       7.784  35.268  -8.808  1.00  0.00    +0.000 C 
ATOM    141  H33 UNL A   1       7.712  34.979  -9.796  1.00  0.00    +0.000 H 
ATOM     49  C37 UNL A   1       8.955  34.988  -8.084  1.00  0.00    +0.000 C 
ATOM    152  H44 UNL A   1       9.943  35.304  -6.238  1.00  0.00    +0.000 H 
ATOM    153  H45 UNL A   1       8.021  36.301  -5.132  1.00  0.00    +0.000 H 
BRANCH   46   44
ATOM     44  C33 UNL A   1       5.565  36.656  -6.119  1.00  0.00    +0.000 C 
ATOM     45  O10 UNL A   1       4.996  37.694  -6.437  1.00  0.00    +0.000 O 
BRANCH   44   43
ATOM     43  N2  UNL A   1       5.117  35.901  -5.059  1.00  0.00    +0.000 N 
ATOM    139  H31 UNL A   1       5.349  36.240  -4.164  1.00  0.00    +0.000 H 
BRANCH   43   42
ATOM    137  H29 UNL A   1       3.644  34.683  -4.281  1.00  0.00    +0.000 H 
ATOM     42  C32 UNL A   1       4.346  34.667  -5.088  1.00  0.00    +0.000 C 
ATOM    138  H30 UNL A   1       3.859  34.615  -6.040  1.00  0.00    +0.000 H 
BRANCH   42   41
ATOM     41  C31 UNL A   1       5.215  33.425  -4.952  1.00  0.00    +0.000 C 
ATOM    135  H27 UNL A   1       4.597  32.622  -4.610  1.00  0.00    +0.000 H 
ATOM    136  H28 UNL A   1       5.641  33.247  -5.918  1.00  0.00    +0.000 H 
BRANCH   41   40
ATOM    133  H25 UNL A   1       6.605  34.611  -3.878  1.00  0.00    +0.000 H 
ATOM    134  H26 UNL A   1       6.080  33.100  -3.072  1.00  0.00    +0.000 H 
ATOM     40  C30 UNL A   1       6.387  33.568  -3.984  1.00  0.00    +0.000 C 
BRANCH   40   39
ATOM    131  H23 UNL A   1       7.417  32.105  -5.126  1.00  0.00    +0.000 H 
ATOM    132  H24 UNL A   1       8.317  33.620  -4.804  1.00  0.00    +0.000 H 
ATOM     39  C29 UNL A   1       7.676  32.858  -4.412  1.00  0.00    +0.000 C 
BRANCH   39   38
ATOM    129  H21 UNL A   1       7.881  32.245  -2.384  1.00  0.00    +0.000 H 
ATOM    130  H22 UNL A   1       8.647  31.179  -3.589  1.00  0.00    +0.000 H 
ATOM     38  C28 UNL A   1       8.464  32.186  -3.280  1.00  0.00    +0.000 C 
BRANCH   38   37
ATOM     37  C27 UNL A   1       9.828  32.817  -3.007  1.00  0.00    +0.000 C 
ATOM    127  H19 UNL A   1       9.693  33.855  -2.785  1.00  0.00    +0.000 H 
ATOM    128  H20 UNL A   1      10.277  32.309  -2.179  1.00  0.00    +0.000 H 
BRANCH   37   36
ATOM     36  N1  UNL A   1      10.705  32.689  -4.151  1.00  0.00    +0.000 N 
ATOM    126  H18 UNL A   1      10.535  33.223  -4.959  1.00  0.00    +0.000 H 
BRANCH   36    2
ATOM      1  O1  UNL A   1      11.709  30.648  -4.411  1.00  0.00    +0.000 O 
ATOM      2  C1  UNL A   1      11.764  31.835  -4.111  1.00  0.00    +0.000 C 
BRANCH    2    3
ATOM      3  C2  UNL A   1      13.062  32.409  -3.699  1.00  0.00    +0.000 C 
ATOM    109  H1  UNL A   1      13.687  32.679  -4.475  1.00  0.00    +0.000 H 
BRANCH    3    4
ATOM      4  C3  UNL A   1      13.555  32.634  -2.461  1.00  0.00    +0.000 C 
ATOM    110  H2  UNL A   1      13.947  33.562  -2.236  1.00  0.00    +0.000 H 
BRANCH    4    5
ATOM      5  C4  UNL A   1      13.546  31.531  -1.364  1.00  0.00    +0.000 C 
ATOM      6  C5  UNL A   1      14.217  30.346  -2.006  1.00  0.00    +0.000 C 
ATOM      7  C6  UNL A   1      15.462  29.957  -1.698  1.00  0.00    +0.000 C 
ATOM      9  C7  UNL A   1      16.233  30.622  -0.596  1.00  0.00    +0.000 C 
ATOM     10  O3  UNL A   1      17.377  30.255  -0.351  1.00  0.00    +0.000 O 
ATOM     11  C8  UNL A   1      15.547  31.658   0.212  1.00  0.00    +0.000 C 
ATOM     12  C9  UNL A   1      14.321  32.031  -0.165  1.00  0.00    +0.000 C 
ATOM     13  C10 UNL A   1      13.413  32.926   0.598  1.00  0.00    +0.000 C 
ATOM     14  O4  UNL A   1      13.727  33.770   1.398  1.00  0.00    +0.000 O 
ATOM     15  C11 UNL A   1      12.041  32.485   0.226  1.00  0.00    +0.000 C 
ATOM     16  C12 UNL A   1      10.917  32.938   0.789  1.00  0.00    +0.000 C 
ATOM     17  C13 UNL A   1       9.696  32.133   0.654  1.00  0.00    +0.000 C 
ATOM     18  C14 UNL A   1       8.465  32.763   0.411  1.00  0.00    +0.000 C 
ATOM     19  C15 UNL A   1       7.297  32.002   0.409  1.00  0.00    +0.000 C 
ATOM     21  C16 UNL A   1       7.338  30.638   0.685  1.00  0.00    +0.000 C 
ATOM     23  C17 UNL A   1       8.543  30.003   0.934  1.00  0.00    +0.000 C 
ATOM     24  C18 UNL A   1       9.728  30.737   0.872  1.00  0.00    +0.000 C 
ATOM     25  O7  UNL A   1      10.864  30.032   1.169  1.00  0.00    +0.000 O 
ATOM     26  C19 UNL A   1      11.984  30.031   0.244  1.00  0.00    +0.000 C 
ATOM     35  C26 UNL A   1      12.144  31.283  -0.693  1.00  0.00    +0.000 C 
ATOM    111  H3  UNL A   1      13.696  29.810  -2.717  1.00  0.00    +0.000 H 
ATOM    113  H5  UNL A   1      16.002  32.078   1.038  1.00  0.00    +0.000 H 
ATOM    114  H6  UNL A   1      10.908  33.832   1.305  1.00  0.00    +0.000 H 
ATOM    115  H7  UNL A   1       8.426  33.778   0.235  1.00  0.00    +0.000 H 
ATOM    118  H10 UNL A   1       8.564  28.997   1.164  1.00  0.00    +0.000 H 
ATOM    119  H11 UNL A   1      12.876  30.140   0.826  1.00  0.00    +0.000 H 
ATOM    125  H17 UNL A   1      11.423  31.130  -1.469  1.00  0.00    +0.000 H 
BRANCH    7    8
ATOM    112  H4  UNL A   1      16.140  28.949  -3.310  1.00  0.00    +0.000 H 
ATOM      8  O2  UNL A   1      16.064  28.917  -2.376  1.00  0.00    +0.000 O 
ENDBRANCH    7    8
BRANCH   19   20
ATOM    116  H8  UNL A   1       6.009  33.390  -0.259  1.00  0.00    +0.000 H 
ATOM     20  O5  UNL A   1       6.071  32.553   0.160  1.00  0.00    +0.000 O 
ENDBRANCH   19   20
BRANCH   21   22
ATOM    117  H9  UNL A   1       5.755  29.674  -0.078  1.00  0.00    +0.000 H 
ATOM     22  O6  UNL A   1       6.186  29.907   0.721  1.00  0.00    +0.000 O 
ENDBRANCH   21   22
BRANCH   26   27
ATOM     34  C25 UNL A   1      12.804  27.629  -0.077  1.00  0.00    +0.000 C 
ATOM     28  C21 UNL A   1      11.129  28.494  -1.578  1.00  0.00    +0.000 C 
ATOM    120  H12 UNL A   1      10.601  29.293  -1.963  1.00  0.00    +0.000 H 
ATOM    121  H13 UNL A   1      10.296  27.085  -2.916  1.00  0.00    +0.000 H 
ATOM     27  C20 UNL A   1      11.987  28.693  -0.482  1.00  0.00    +0.000 C 
ATOM    124  H16 UNL A   1      13.478  27.762   0.694  1.00  0.00    +0.000 H 
ATOM     29  C22 UNL A   1      10.980  27.232  -2.157  1.00  0.00    +0.000 C 
ATOM     30  C23 UNL A   1      11.761  26.176  -1.704  1.00  0.00    +0.000 C 
ATOM     32  C24 UNL A   1      12.711  26.391  -0.711  1.00  0.00    +0.000 C 
BRANCH   30   31
ATOM    122  H14 UNL A   1      10.812  24.450  -2.081  1.00  0.00    +0.000 H 
ATOM     31  O8  UNL A   1      11.604  24.929  -2.234  1.00  0.00    +0.000 O 
ENDBRANCH   30   31
BRANCH   32   33
ATOM     33  O9  UNL A   1      13.542  25.374  -0.335  1.00  0.00    +0.000 O 
ATOM    123  H15 UNL A   1      14.218  25.084  -0.915  1.00  0.00    +0.000 H 
ENDBRANCH   32   33
ENDBRANCH   26   27
ENDBRANCH    4    5
ENDBRANCH    3    4
ENDBRANCH    2    3
ENDBRANCH   36    2
ENDBRANCH   37   36
ENDBRANCH   38   37
ENDBRANCH   39   38
ENDBRANCH   40   39
ENDBRANCH   41   40
ENDBRANCH   42   41
ENDBRANCH   43   42
ENDBRANCH   44   43
ENDBRANCH   46   44
ENDBRANCH   50   49
BRANCH   54   55
ATOM     65  F5  UNL A   1      12.165  28.320  -6.353  1.00  0.00    +0.000 F 
ATOM     55  C42 UNL A   1      10.571  28.199  -8.117  1.00  0.00    +0.000 C 
ATOM     56  C43 UNL A   1       9.493  27.504  -8.683  1.00  0.00    +0.000 C 
ATOM     57  F1  UNL A   1       8.916  27.953  -9.807  1.00  0.00    +0.000 F 
ATOM     58  C44 UNL A   1       8.987  26.354  -8.080  1.00  0.00    +0.000 C 
ATOM     59  F2  UNL A   1       7.936  25.723  -8.622  1.00  0.00    +0.000 F 
ATOM     60  C45 UNL A   1       9.564  25.865  -6.917  1.00  0.00    +0.000 C 
ATOM     61  F3  UNL A   1       9.084  24.751  -6.348  1.00  0.00    +0.000 F 
ATOM     62  C46 UNL A   1      10.636  26.532  -6.345  1.00  0.00    +0.000 C 
ATOM     63  F4  UNL A   1      11.202  26.055  -5.228  1.00  0.00    +0.000 F 
ATOM     64  C47 UNL A   1      11.130  27.695  -6.932  1.00  0.00    +0.000 C 
ENDBRANCH   54   55
BRANCH   71   72
ATOM     72  C53 UNL A   1      16.060  29.676 -12.531  1.00  0.00    +0.000 C 
ATOM     73  C54 UNL A   1      17.316  29.553 -11.921  1.00  0.00    +0.000 C 
ATOM     74  F6  UNL A   1      17.559  30.160 -10.749  1.00  0.00    +0.000 F 
ATOM     75  C55 UNL A   1      18.338  28.828 -12.528  1.00  0.00    +0.000 C 
ATOM     76  F7  UNL A   1      19.541  28.752 -11.945  1.00  0.00    +0.000 F 
ATOM     77  C56 UNL A   1      18.114  28.192 -13.741  1.00  0.00    +0.000 C 
ATOM     78  F8  UNL A   1      19.095  27.486 -14.319  1.00  0.00    +0.000 F 
ATOM     79  C57 UNL A   1      16.874  28.292 -14.355  1.00  0.00    +0.000 C 
ATOM     80  F9  UNL A   1      16.654  27.668 -15.521  1.00  0.00    +0.000 F 
ATOM     81  C58 UNL A   1      15.859  29.037 -13.763  1.00  0.00    +0.000 C 
ATOM     82  F10 UNL A   1      14.672  29.120 -14.382  1.00  0.00    +0.000 F 
ENDBRANCH   71   72
BRANCH   86   87
ATOM     97  F15 UNL A   1      12.804  35.997 -14.435  1.00  0.00    +0.000 F 
ATOM     87  C62 UNL A   1      14.176  36.386 -12.534  1.00  0.00    +0.000 C 
ATOM     88  C63 UNL A   1      15.146  37.196 -11.929  1.00  0.00    +0.000 C 
ATOM     89  F11 UNL A   1      15.586  36.905 -10.695  1.00  0.00    +0.000 F 
ATOM     90  C64 UNL A   1      15.651  38.319 -12.580  1.00  0.00    +0.000 C 
ATOM     91  F12 UNL A   1      16.557  39.094 -11.968  1.00  0.00    +0.000 F 
ATOM     92  C65 UNL A   1      15.211  38.640 -13.855  1.00  0.00    +0.000 C 
ATOM     93  F13 UNL A   1      15.707  39.714 -14.487  1.00  0.00    +0.000 F 
ATOM     94  C66 UNL A   1      14.255  37.850 -14.475  1.00  0.00    +0.000 C 
ATOM     95  F14 UNL A   1      13.838  38.149 -15.714  1.00  0.00    +0.000 F 
ATOM     96  C67 UNL A   1      13.731  36.742 -13.815  1.00  0.00    +0.000 C 
ENDBRANCH   86   87
TORSDOF 23
ENDMDL
MODEL 10
REMARK VINA RESULT:      -8.5      1.531      4.327
ROOT
ATOM    142  H34 UNL A   1      18.539  53.448  -0.859  1.00  0.00    +0.000 H 
ATOM    143  H35 UNL A   1      18.196  50.931  -1.442  1.00  0.00    +0.000 H 
ATOM    144  H36 UNL A   1      15.748  51.869   1.763  1.00  0.00    +0.000 H 
ATOM    145  H37 UNL A   1      11.639  50.034   6.277  1.00  0.00    +0.000 H 
ATOM    146  H38 UNL A   1      11.758  52.541   6.667  1.00  0.00    +0.000 H 
ATOM    147  H39 UNL A   1      14.257  51.632   3.471  1.00  0.00    +0.000 H 
ATOM    148  H40 UNL A   1      13.592  46.729   2.574  1.00  0.00    +0.000 H 
ATOM    149  H41 UNL A   1      15.307  46.969   0.687  1.00  0.00    +0.000 H 
ATOM    150  H42 UNL A   1      16.329  56.759   2.731  1.00  0.00    +0.000 H 
ATOM    151  H43 UNL A   1      14.765  56.501   4.742  1.00  0.00    +0.000 H 
ATOM     50  C38 UNL A   1      13.611  53.898   4.983  1.00  0.00    +0.000 C 
ATOM     51  C39 UNL A   1      14.622  54.371   3.973  1.00  0.00    +0.000 C 
ATOM     52  N3  UNL A   1      15.201  53.703   3.006  1.00  0.00    +0.000 N 
ATOM     53  C40 UNL A   1      16.032  54.609   2.358  1.00  0.00    +0.000 C 
ATOM     54  C41 UNL A   1      16.868  54.393   1.314  1.00  0.00    +0.000 C 
ATOM     66  C48 UNL A   1      17.056  53.118   0.674  1.00  0.00    +0.000 C 
ATOM     67  C49 UNL A   1      17.895  52.799  -0.380  1.00  0.00    +0.000 C 
ATOM     68  C50 UNL A   1      17.722  51.445  -0.684  1.00  0.00    +0.000 C 
ATOM     69  C51 UNL A   1      16.804  50.911   0.206  1.00  0.00    +0.000 C 
ATOM     70  N4  UNL A   1      16.401  51.950   1.031  1.00  0.00    +0.000 N 
ATOM     71  C52 UNL A   1      16.325  49.556   0.295  1.00  0.00    +0.000 C 
ATOM     83  C59 UNL A   1      15.460  49.097   1.232  1.00  0.00    +0.000 C 
ATOM     84  N5  UNL A   1      14.847  49.791   2.265  1.00  0.00    +0.000 N 
ATOM     85  C60 UNL A   1      14.079  48.924   2.875  1.00  0.00    +0.000 C 
ATOM     86  C61 UNL A   1      13.181  49.123   4.063  1.00  0.00    +0.000 C 
ATOM     98  C68 UNL A   1      13.053  50.355   4.591  1.00  0.00    +0.000 C 
ATOM     99  C69 UNL A   1      12.206  50.700   5.729  1.00  0.00    +0.000 C 
ATOM    100  C70 UNL A   1      12.284  52.021   5.947  1.00  0.00    +0.000 C 
ATOM    101  C71 UNL A   1      13.235  52.606   5.001  1.00  0.00    +0.000 C 
ATOM    102  N6  UNL A   1      13.626  51.546   4.222  1.00  0.00    +0.000 N 
ATOM    103  C72 UNL A   1      14.114  47.575   2.293  1.00  0.00    +0.000 C 
ATOM    104  C73 UNL A   1      14.994  47.729   1.313  1.00  0.00    +0.000 C 
ATOM    105  C74 UNL A   1      15.866  55.884   3.023  1.00  0.00    +0.000 C 
ATOM    106  C75 UNL A   1      15.042  55.780   4.056  1.00  0.00    +0.000 C 
ENDROOT
BRANCH   50   49
ATOM    107  C76 UNL A   1      11.872  55.523   5.811  1.00  0.00    +0.000 C 
ATOM    108  C77 UNL A   1      11.474  56.514   6.713  1.00  0.00    +0.000 C 
ATOM    140  H32 UNL A   1      13.868  56.086   9.023  1.00  0.00    +0.000 H 
ATOM     46  C34 UNL A   1      12.257  56.773   7.840  1.00  0.00    +0.000 C 
ATOM     47  C35 UNL A   1      13.373  55.982   8.124  1.00  0.00    +0.000 C 
ATOM     48  C36 UNL A   1      13.811  55.055   7.186  1.00  0.00    +0.000 C 
ATOM    141  H33 UNL A   1      14.681  54.528   7.355  1.00  0.00    +0.000 H 
ATOM     49  C37 UNL A   1      13.077  54.829   6.010  1.00  0.00    +0.000 C 
ATOM    152  H44 UNL A   1      11.279  55.301   4.996  1.00  0.00    +0.000 H 
ATOM    153  H45 UNL A   1      10.609  57.050   6.547  1.00  0.00    +0.000 H 
BRANCH   46   44
ATOM     44  C33 UNL A   1      11.947  57.952   8.675  1.00  0.00    +0.000 C 
ATOM     45  O10 UNL A   1      12.806  58.798   8.894  1.00  0.00    +0.000 O 
BRANCH   44   43
ATOM     43  N2  UNL A   1      10.696  58.054   9.239  1.00  0.00    +0.000 N 
ATOM    139  H31 UNL A   1       9.939  58.023   8.611  1.00  0.00    +0.000 H 
BRANCH   43   42
ATOM    137  H29 UNL A   1      10.953  58.975  11.068  1.00  0.00    +0.000 H 
ATOM     42  C32 UNL A   1      10.346  58.202  10.645  1.00  0.00    +0.000 C 
ATOM    138  H30 UNL A   1       9.304  58.442  10.692  1.00  0.00    +0.000 H 
BRANCH   42   41
ATOM     41  C31 UNL A   1      10.558  56.925  11.444  1.00  0.00    +0.000 C 
ATOM    135  H27 UNL A   1      11.599  56.683  11.415  1.00  0.00    +0.000 H 
ATOM    136  H28 UNL A   1      10.199  57.125  12.432  1.00  0.00    +0.000 H 
BRANCH   41   40
ATOM    133  H25 UNL A   1       9.362  55.965   9.982  1.00  0.00    +0.000 H 
ATOM    134  H26 UNL A   1      10.470  54.903  10.904  1.00  0.00    +0.000 H 
ATOM     40  C30 UNL A   1       9.775  55.716  10.937  1.00  0.00    +0.000 C 
BRANCH   40   39
ATOM    131  H23 UNL A   1       8.639  55.862  12.725  1.00  0.00    +0.000 H 
ATOM    132  H24 UNL A   1       7.734  55.360  11.263  1.00  0.00    +0.000 H 
ATOM     39  C29 UNL A   1       8.627  55.256  11.843  1.00  0.00    +0.000 C 
BRANCH   39   38
ATOM    129  H21 UNL A   1       9.685  53.437  12.160  1.00  0.00    +0.000 H 
ATOM    130  H22 UNL A   1       8.346  53.753  13.292  1.00  0.00    +0.000 H 
ATOM     38  C28 UNL A   1       8.680  53.786  12.277  1.00  0.00    +0.000 C 
BRANCH   38   37
ATOM     37  C27 UNL A   1       7.757  52.865  11.480  1.00  0.00    +0.000 C 
ATOM    127  H19 UNL A   1       7.244  52.215  12.157  1.00  0.00    +0.000 H 
ATOM    128  H20 UNL A   1       7.062  53.470  10.937  1.00  0.00    +0.000 H 
BRANCH   37   36
ATOM     36  N1  UNL A   1       8.503  52.065  10.533  1.00  0.00    +0.000 N 
ATOM    126  H18 UNL A   1       8.807  51.164  10.786  1.00  0.00    +0.000 H 
BRANCH   36    2
ATOM      1  O1  UNL A   1       7.962  53.077   8.551  1.00  0.00    +0.000 O 
ATOM      2  C1  UNL A   1       8.784  52.553   9.294  1.00  0.00    +0.000 C 
BRANCH    2    3
ATOM      3  C2  UNL A   1      10.190  52.453   8.847  1.00  0.00    +0.000 C 
ATOM    109  H1  UNL A   1      10.333  51.940   7.963  1.00  0.00    +0.000 H 
BRANCH    3    4
ATOM      4  C3  UNL A   1      11.316  52.932   9.420  1.00  0.00    +0.000 C 
ATOM    110  H2  UNL A   1      11.609  53.902   9.223  1.00  0.00    +0.000 H 
BRANCH    4    5
ATOM      5  C4  UNL A   1      12.185  52.059  10.371  1.00  0.00    +0.000 C 
ATOM      6  C5  UNL A   1      11.969  50.646   9.899  1.00  0.00    +0.000 C 
ATOM      7  C6  UNL A   1      12.894  49.956   9.217  1.00  0.00    +0.000 C 
ATOM      9  C7  UNL A   1      14.263  50.519   8.975  1.00  0.00    +0.000 C 
ATOM     10  O3  UNL A   1      15.079  49.870   8.331  1.00  0.00    +0.000 O 
ATOM     11  C8  UNL A   1      14.603  51.822   9.595  1.00  0.00    +0.000 C 
ATOM     12  C9  UNL A   1      13.632  52.481  10.232  1.00  0.00    +0.000 C 
ATOM     13  C10 UNL A   1      13.807  53.709  11.049  1.00  0.00    +0.000 C 
ATOM     14  O4  UNL A   1      14.681  54.532  10.948  1.00  0.00    +0.000 O 
ATOM     15  C11 UNL A   1      12.727  53.645  12.073  1.00  0.00    +0.000 C 
ATOM     16  C12 UNL A   1      12.600  54.491  13.099  1.00  0.00    +0.000 C 
ATOM     17  C13 UNL A   1      11.787  54.074  14.249  1.00  0.00    +0.000 C 
ATOM     18  C14 UNL A   1      10.935  54.997  14.875  1.00  0.00    +0.000 C 
ATOM     19  C15 UNL A   1      10.264  54.626  16.040  1.00  0.00    +0.000 C 
ATOM     21  C16 UNL A   1      10.464  53.370  16.604  1.00  0.00    +0.000 C 
ATOM     23  C17 UNL A   1      11.306  52.451  16.003  1.00  0.00    +0.000 C 
ATOM     24  C18 UNL A   1      11.933  52.781  14.800  1.00  0.00    +0.000 C 
ATOM     25  O7  UNL A   1      12.775  51.823  14.302  1.00  0.00    +0.000 O 
ATOM     26  C19 UNL A   1      12.615  51.350  12.937  1.00  0.00    +0.000 C 
ATOM     35  C26 UNL A   1      11.968  52.343  11.904  1.00  0.00    +0.000 C 
ATOM    111  H3  UNL A   1      11.069  50.189  10.109  1.00  0.00    +0.000 H 
ATOM    113  H5  UNL A   1      15.559  52.206   9.537  1.00  0.00    +0.000 H 
ATOM    114  H6  UNL A   1      13.062  55.413  13.083  1.00  0.00    +0.000 H 
ATOM    115  H7  UNL A   1      10.806  55.939  14.477  1.00  0.00    +0.000 H 
ATOM    118  H10 UNL A   1      11.471  51.530  16.441  1.00  0.00    +0.000 H 
ATOM    119  H11 UNL A   1      13.594  51.276  12.512  1.00  0.00    +0.000 H 
ATOM    125  H17 UNL A   1      10.919  52.295  12.109  1.00  0.00    +0.000 H 
BRANCH    7    8
ATOM    112  H4  UNL A   1      12.175  48.595   7.910  1.00  0.00    +0.000 H 
ATOM      8  O2  UNL A   1      12.615  48.694   8.731  1.00  0.00    +0.000 O 
ENDBRANCH    7    8
BRANCH   19   20
ATOM    116  H8  UNL A   1       8.765  55.130  17.277  1.00  0.00    +0.000 H 
ATOM     20  O5  UNL A   1       9.406  55.473  16.685  1.00  0.00    +0.000 O 
ENDBRANCH   19   20
BRANCH   21   22
ATOM    117  H9  UNL A   1       9.341  53.670  18.237  1.00  0.00    +0.000 H 
ATOM     22  O6  UNL A   1       9.834  53.028  17.766  1.00  0.00    +0.000 O 
ENDBRANCH   21   22
BRANCH   26   27
ATOM     34  C25 UNL A   1      12.703  48.794  12.932  1.00  0.00    +0.000 C 
ATOM     28  C21 UNL A   1      10.562  49.881  13.142  1.00  0.00    +0.000 C 
ATOM    120  H12 UNL A   1       9.984  50.733  13.080  1.00  0.00    +0.000 H 
ATOM    121  H13 UNL A   1       8.930  48.600  13.545  1.00  0.00    +0.000 H 
ATOM     27  C20 UNL A   1      11.958  49.979  12.995  1.00  0.00    +0.000 C 
ATOM    124  H16 UNL A   1      13.722  48.834  12.776  1.00  0.00    +0.000 H 
ATOM     29  C22 UNL A   1       9.946  48.649  13.369  1.00  0.00    +0.000 C 
ATOM     30  C23 UNL A   1      10.712  47.490  13.358  1.00  0.00    +0.000 C 
ATOM     32  C24 UNL A   1      12.073  47.559  13.079  1.00  0.00    +0.000 C 
BRANCH   30   31
ATOM    122  H14 UNL A   1       9.256  46.111  13.328  1.00  0.00    +0.000 H 
ATOM     31  O8  UNL A   1      10.132  46.281  13.614  1.00  0.00    +0.000 O 
ENDBRANCH   30   31
BRANCH   32   33
ATOM     33  O9  UNL A   1      12.803  46.410  12.974  1.00  0.00    +0.000 O 
ATOM    123  H15 UNL A   1      12.590  45.779  12.315  1.00  0.00    +0.000 H 
ENDBRANCH   32   33
ENDBRANCH   26   27
ENDBRANCH    4    5
ENDBRANCH    3    4
ENDBRANCH    2    3
ENDBRANCH   36    2
ENDBRANCH   37   36
ENDBRANCH   38   37
ENDBRANCH   39   38
ENDBRANCH   40   39
ENDBRANCH   41   40
ENDBRANCH   42   41
ENDBRANCH   43   42
ENDBRANCH   44   43
ENDBRANCH   46   44
ENDBRANCH   50   49
BRANCH   54   55
ATOM     65  F5  UNL A   1      15.881  56.142  -0.698  1.00  0.00    +0.000 F 
ATOM     55  C42 UNL A   1      17.648  55.561   0.788  1.00  0.00    +0.000 C 
ATOM     56  C43 UNL A   1      18.947  55.839   1.237  1.00  0.00    +0.000 C 
ATOM     57  F1  UNL A   1      19.494  55.105   2.216  1.00  0.00    +0.000 F 
ATOM     58  C44 UNL A   1      19.682  56.892   0.696  1.00  0.00    +0.000 C 
ATOM     59  F2  UNL A   1      20.910  57.159   1.161  1.00  0.00    +0.000 F 
ATOM     60  C45 UNL A   1      19.142  57.668  -0.320  1.00  0.00    +0.000 C 
ATOM     61  F3  UNL A   1      19.857  58.671  -0.849  1.00  0.00    +0.000 F 
ATOM     62  C46 UNL A   1      17.863  57.406  -0.785  1.00  0.00    +0.000 C 
ATOM     63  F4  UNL A   1      17.345  58.148  -1.773  1.00  0.00    +0.000 F 
ATOM     64  C47 UNL A   1      17.117  56.369  -0.229  1.00  0.00    +0.000 C 
ENDBRANCH   54   55
BRANCH   71   72
ATOM     72  C53 UNL A   1      16.825  48.572  -0.719  1.00  0.00    +0.000 C 
ATOM     73  C54 UNL A   1      18.035  47.889  -0.534  1.00  0.00    +0.000 C 
ATOM     74  F6  UNL A   1      18.805  48.157   0.532  1.00  0.00    +0.000 F 
ATOM     75  C55 UNL A   1      18.473  46.947  -1.461  1.00  0.00    +0.000 C 
ATOM     76  F7  UNL A   1      19.649  46.331  -1.283  1.00  0.00    +0.000 F 
ATOM     77  C56 UNL A   1      17.697  46.652  -2.573  1.00  0.00    +0.000 C 
ATOM     78  F8  UNL A   1      18.115  45.737  -3.459  1.00  0.00    +0.000 F 
ATOM     79  C57 UNL A   1      16.491  47.308  -2.768  1.00  0.00    +0.000 C 
ATOM     80  F9  UNL A   1      15.736  47.016  -3.836  1.00  0.00    +0.000 F 
ATOM     81  C58 UNL A   1      16.063  48.269  -1.856  1.00  0.00    +0.000 C 
ATOM     82  F10 UNL A   1      14.895  48.891  -2.073  1.00  0.00    +0.000 F 
ENDBRANCH   71   72
BRANCH   86   87
ATOM     97  F15 UNL A   1      10.625  48.274   3.145  1.00  0.00    +0.000 F 
ATOM     87  C62 UNL A   1      12.433  47.989   4.660  1.00  0.00    +0.000 C 
ATOM     88  C63 UNL A   1      12.959  47.271   5.743  1.00  0.00    +0.000 C 
ATOM     89  F11 UNL A   1      14.174  47.578   6.222  1.00  0.00    +0.000 F 
ATOM     90  C64 UNL A   1      12.249  46.223   6.321  1.00  0.00    +0.000 C 
ATOM     91  F12 UNL A   1      12.785  45.533   7.337  1.00  0.00    +0.000 F 
ATOM     92  C65 UNL A   1      10.991  45.886   5.842  1.00  0.00    +0.000 C 
ATOM     93  F13 UNL A   1      10.302  44.885   6.408  1.00  0.00    +0.000 F 
ATOM     94  C66 UNL A   1      10.449  46.585   4.774  1.00  0.00    +0.000 C 
ATOM     95  F14 UNL A   1       9.228  46.273   4.318  1.00  0.00    +0.000 F 
ATOM     96  C67 UNL A   1      11.170  47.616   4.179  1.00  0.00    +0.000 C 
ENDBRANCH   86   87
TORSDOF 23
ENDMDL
