MODEL 1
REMARK VINA RESULT:     -10.2      0.000      0.000
ROOT
ATOM    129  H27 UNL A   1      45.374  27.993  32.255  1.00  0.00    +0.000 H 
ATOM    130  H28 UNL A   1      44.939  31.471  30.233  1.00  0.00    +0.000 H 
ATOM    131  H29 UNL A   1      37.373  28.536  31.385  1.00  0.00    +0.000 H 
ATOM    132  H30 UNL A   1      38.606  26.529  30.420  1.00  0.00    +0.000 H 
ATOM    133  H31 UNL A   1      41.229  29.738  30.269  1.00  0.00    +0.000 H 
ATOM    134  H32 UNL A   1      40.554  32.799  29.659  1.00  0.00    +0.000 H 
ATOM    135  H33 UNL A   1      43.004  32.021  29.913  1.00  0.00    +0.000 H 
ATOM    136  H34 UNL A   1      43.671  28.756  25.588  1.00  0.00    +0.000 H 
ATOM    137  H35 UNL A   1      41.277  27.987  26.163  1.00  0.00    +0.000 H 
ATOM     38  C28 UNL A   1      40.999  27.288  28.954  1.00  0.00    +0.000 C 
ATOM     39  C29 UNL A   1      42.148  27.921  28.259  1.00  0.00    +0.000 C 
ATOM     40  N5  UNL A   1      43.305  28.197  28.764  1.00  0.00    +0.000 N 
ATOM     41  C30 UNL A   1      44.023  28.832  27.756  1.00  0.00    +0.000 C 
ATOM     42  C31 UNL A   1      45.013  29.715  28.063  1.00  0.00    +0.000 C 
ATOM     54  C38 UNL A   1      45.419  29.572  29.442  1.00  0.00    +0.000 C 
ATOM     55  C39 UNL A   1      45.924  28.530  30.195  1.00  0.00    +0.000 C 
ATOM     56  C40 UNL A   1      45.278  28.647  31.462  1.00  0.00    +0.000 C 
ATOM     57  C41 UNL A   1      44.493  29.800  31.439  1.00  0.00    +0.000 C 
ATOM     58  N6  UNL A   1      44.948  30.493  30.347  1.00  0.00    +0.000 N 
ATOM     59  C42 UNL A   1      43.394  30.246  32.260  1.00  0.00    +0.000 C 
ATOM     71  C49 UNL A   1      42.429  31.120  31.847  1.00  0.00    +0.000 C 
ATOM     72  N7  UNL A   1      41.196  31.175  32.481  1.00  0.00    +0.000 N 
ATOM     73  C50 UNL A   1      40.366  31.566  31.549  1.00  0.00    +0.000 C 
ATOM     74  C51 UNL A   1      39.016  30.966  31.368  1.00  0.00    +0.000 C 
ATOM     86  C58 UNL A   1      39.217  29.684  30.971  1.00  0.00    +0.000 C 
ATOM     87  C59 UNL A   1      38.331  28.545  30.999  1.00  0.00    +0.000 C 
ATOM     88  C60 UNL A   1      38.964  27.496  30.441  1.00  0.00    +0.000 C 
ATOM     89  C61 UNL A   1      40.239  27.936  29.866  1.00  0.00    +0.000 C 
ATOM     90  N8  UNL A   1      40.399  29.216  30.348  1.00  0.00    +0.000 N 
ATOM     91  C62 UNL A   1      40.976  32.216  30.399  1.00  0.00    +0.000 C 
ATOM     92  C63 UNL A   1      42.243  31.833  30.584  1.00  0.00    +0.000 C 
ATOM     93  C64 UNL A   1      43.296  28.597  26.536  1.00  0.00    +0.000 C 
ATOM     94  C65 UNL A   1      42.070  28.142  26.805  1.00  0.00    +0.000 C 
ATOM    128  H26 UNL A   1      46.616  27.821  29.906  1.00  0.00    +0.000 H 
ENDROOT
BRANCH   38   37
ATOM     34  C24 UNL A   1      39.816  23.702  27.116  1.00  0.00    +0.000 C 
ATOM     35  C25 UNL A   1      41.013  23.702  27.839  1.00  0.00    +0.000 C 
ATOM     36  C26 UNL A   1      41.386  24.858  28.519  1.00  0.00    +0.000 C 
ATOM     37  C27 UNL A   1      40.587  26.004  28.400  1.00  0.00    +0.000 C 
ATOM    138  H36 UNL A   1      38.897  26.865  27.477  1.00  0.00    +0.000 H 
ATOM    139  H37 UNL A   1      38.015  24.734  26.749  1.00  0.00    +0.000 H 
ATOM    127  H25 UNL A   1      42.238  24.872  29.102  1.00  0.00    +0.000 H 
ATOM    126  H24 UNL A   1      41.610  22.861  27.869  1.00  0.00    +0.000 H 
ATOM     95  C66 UNL A   1      39.420  25.991  27.645  1.00  0.00    +0.000 C 
ATOM     96  C67 UNL A   1      38.972  24.807  27.128  1.00  0.00    +0.000 C 
BRANCH   34   32
ATOM     33  O4  UNL A   1      38.271  22.445  25.880  1.00  0.00    +0.000 O 
ATOM     32  C23 UNL A   1      39.423  22.554  26.285  1.00  0.00    +0.000 C 
BRANCH   32   31
ATOM    125  H23 UNL A   1      41.236  21.957  25.625  1.00  0.00    +0.000 H 
ATOM     31  N4  UNL A   1      40.381  21.612  25.970  1.00  0.00    +0.000 N 
BRANCH   31   30
ATOM    123  H21 UNL A   1      39.679  19.925  26.955  1.00  0.00    +0.000 H 
ATOM    124  H22 UNL A   1      39.804  19.780  25.204  1.00  0.00    +0.000 H 
ATOM     30  C22 UNL A   1      40.267  20.158  26.091  1.00  0.00    +0.000 C 
BRANCH   30   29
ATOM    121  H19 UNL A   1      41.635  18.908  27.120  1.00  0.00    +0.000 H 
ATOM    122  H20 UNL A   1      41.798  18.915  25.355  1.00  0.00    +0.000 H 
ATOM     29  C21 UNL A   1      41.632  19.505  26.232  1.00  0.00    +0.000 C 
BRANCH   29   28
ATOM     28  C20 UNL A   1      42.777  20.526  26.324  1.00  0.00    +0.000 C 
ATOM    119  H17 UNL A   1      42.357  21.502  26.198  1.00  0.00    +0.000 H 
ATOM    120  H18 UNL A   1      43.231  20.370  27.280  1.00  0.00    +0.000 H 
BRANCH   28   27
ATOM     27  C19 UNL A   1      43.902  20.358  25.290  1.00  0.00    +0.000 C 
ATOM    117  H15 UNL A   1      44.714  19.846  25.762  1.00  0.00    +0.000 H 
ATOM    118  H16 UNL A   1      43.478  19.816  24.470  1.00  0.00    +0.000 H 
BRANCH   27   26
ATOM     26  C18 UNL A   1      44.443  21.670  24.705  1.00  0.00    +0.000 C 
ATOM    115  H13 UNL A   1      44.249  21.680  23.652  1.00  0.00    +0.000 H 
ATOM    116  H14 UNL A   1      43.948  22.476  25.205  1.00  0.00    +0.000 H 
BRANCH   26   25
ATOM     25  C17 UNL A   1      45.947  21.839  24.929  1.00  0.00    +0.000 C 
ATOM    114  H12 UNL A   1      46.461  21.712  23.999  1.00  0.00    +0.000 H 
ATOM    113  H11 UNL A   1      46.286  21.105  25.631  1.00  0.00    +0.000 H 
BRANCH   25   24
ATOM    112  H10 UNL A   1      47.163  23.431  25.373  1.00  0.00    +0.000 H 
ATOM     24  N3  UNL A   1      46.219  23.162  25.449  1.00  0.00    +0.000 N 
BRANCH   24   22
ATOM     22  C16 UNL A   1      45.421  24.116  26.025  1.00  0.00    +0.000 C 
ATOM     23  O3  UNL A   1      45.099  25.080  25.330  1.00  0.00    +0.000 O 
BRANCH   22   21
ATOM     97  C68 UNL A   1      44.537  22.957  28.129  1.00  0.00    +0.000 C 
ATOM     98  C69 UNL A   1      44.381  22.960  29.516  1.00  0.00    +0.000 C 
ATOM    140  H38 UNL A   1      44.294  22.110  27.591  1.00  0.00    +0.000 H 
ATOM    141  H39 UNL A   1      44.134  22.091  30.015  1.00  0.00    +0.000 H 
ATOM    110  H8  UNL A   1      44.934  26.225  30.054  1.00  0.00    +0.000 H 
ATOM    111  H9  UNL A   1      45.447  26.142  27.685  1.00  0.00    +0.000 H 
ATOM     18  C12 UNL A   1      44.561  24.149  30.221  1.00  0.00    +0.000 C 
ATOM     19  C13 UNL A   1      44.888  25.328  29.545  1.00  0.00    +0.000 C 
ATOM     20  C14 UNL A   1      45.151  25.284  28.176  1.00  0.00    +0.000 C 
ATOM     21  C15 UNL A   1      45.018  24.085  27.458  1.00  0.00    +0.000 C 
BRANCH   18   17
ATOM     99  N9  UNL A   1      44.728  25.251  32.348  1.00  0.00    +0.000 N 
ATOM    100  N10 UNL A   1      44.381  25.021  33.602  1.00  0.00    +0.000 N 
ATOM    109  H7  UNL A   1      43.596  22.232  32.170  1.00  0.00    +0.000 H 
ATOM     15  C10 UNL A   1      43.863  23.754  33.693  1.00  0.00    +0.000 C 
ATOM     16  C11 UNL A   1      43.885  23.186  32.437  1.00  0.00    +0.000 C 
ATOM     17  N2  UNL A   1      44.380  24.176  31.617  1.00  0.00    +0.000 N 
BRANCH   15   14
ATOM    107  H5  UNL A   1      42.874  23.888  35.527  1.00  0.00    +0.000 H 
ATOM    108  H6  UNL A   1      43.021  22.247  34.818  1.00  0.00    +0.000 H 
ATOM     14  C9  UNL A   1      43.500  23.181  35.023  1.00  0.00    +0.000 C 
BRANCH   14   13
ATOM     13  O2  UNL A   1      44.605  22.872  35.892  1.00  0.00    +0.000 O 
BRANCH   13   12
ATOM    101  C70 UNL A   1      46.944  22.932  35.139  1.00  0.00    +0.000 C 
ATOM    102  C71 UNL A   1      48.073  22.192  34.782  1.00  0.00    +0.000 C 
ATOM      9  C5  UNL A   1      47.976  20.817  34.561  1.00  0.00    +0.000 C 
ATOM     10  C6  UNL A   1      46.723  20.203  34.632  1.00  0.00    +0.000 C 
ATOM    105  H3  UNL A   1      46.623  19.205  34.390  1.00  0.00    +0.000 H 
ATOM     11  C7  UNL A   1      45.604  20.943  35.032  1.00  0.00    +0.000 C 
ATOM    106  H4  UNL A   1      44.683  20.483  35.093  1.00  0.00    +0.000 H 
ATOM     12  C8  UNL A   1      45.723  22.298  35.350  1.00  0.00    +0.000 C 
ATOM    143  H41 UNL A   1      48.984  22.664  34.681  1.00  0.00    +0.000 H 
ATOM    142  H40 UNL A   1      47.016  23.956  35.247  1.00  0.00    +0.000 H 
BRANCH    9    8
ATOM    104  H2  UNL A   1      49.093  19.231  33.641  1.00  0.00    +0.000 H 
ATOM      8  C4  UNL A   1      49.184  20.042  34.272  1.00  0.00    +0.000 C 
BRANCH    8    7
ATOM      1  O1  UNL A   1      49.996  19.584  37.026  1.00  0.00    +0.000 O 
ATOM      2  C1  UNL A   1      50.745  20.042  36.193  1.00  0.00    +0.000 C 
ATOM      3  N1  UNL A   1      52.055  20.381  36.415  1.00  0.00    +0.000 N 
ATOM      4  C2  UNL A   1      52.775  20.882  35.375  1.00  0.00    +0.000 C 
ATOM      5  S1  UNL A   1      54.363  21.336  35.498  1.00  0.00    +0.000 S 
ATOM      6  S2  UNL A   1      51.774  20.965  33.946  1.00  0.00    +0.000 S 
ATOM      7  C3  UNL A   1      50.399  20.311  34.768  1.00  0.00    +0.000 C 
ATOM    103  H1  UNL A   1      52.463  20.263  37.302  1.00  0.00    +0.000 H 
ENDBRANCH    8    7
ENDBRANCH    9    8
ENDBRANCH   13   12
ENDBRANCH   14   13
ENDBRANCH   15   14
ENDBRANCH   18   17
ENDBRANCH   22   21
ENDBRANCH   24   22
ENDBRANCH   25   24
ENDBRANCH   26   25
ENDBRANCH   27   26
ENDBRANCH   28   27
ENDBRANCH   29   28
ENDBRANCH   30   29
ENDBRANCH   31   30
ENDBRANCH   32   31
ENDBRANCH   34   32
ENDBRANCH   38   37
BRANCH   42   43
ATOM     43  C32 UNL A   1      45.340  30.955  27.266  1.00  0.00    +0.000 C 
ATOM     44  C33 UNL A   1      46.683  31.202  26.917  1.00  0.00    +0.000 C 
ATOM     45  F1  UNL A   1      47.608  30.235  27.028  1.00  0.00    +0.000 F 
ATOM     46  C34 UNL A   1      47.129  32.473  26.546  1.00  0.00    +0.000 C 
ATOM     47  F2  UNL A   1      48.439  32.690  26.360  1.00  0.00    +0.000 F 
ATOM     48  C35 UNL A   1      46.239  33.525  26.442  1.00  0.00    +0.000 C 
ATOM     49  F3  UNL A   1      46.672  34.758  26.154  1.00  0.00    +0.000 F 
ATOM     50  C36 UNL A   1      44.901  33.302  26.689  1.00  0.00    +0.000 C 
ATOM     51  F4  UNL A   1      44.025  34.313  26.608  1.00  0.00    +0.000 F 
ATOM     52  C37 UNL A   1      44.462  32.050  27.112  1.00  0.00    +0.000 C 
ATOM     53  F5  UNL A   1      43.175  31.993  27.469  1.00  0.00    +0.000 F 
ENDBRANCH   42   43
BRANCH   59   60
ATOM     65  C46 UNL A   1      42.475  28.167  35.930  1.00  0.00    +0.000 C 
ATOM     66  F8  UNL A   1      42.118  27.532  37.056  1.00  0.00    +0.000 F 
ATOM     67  C47 UNL A   1      42.180  27.612  34.695  1.00  0.00    +0.000 C 
ATOM     68  F9  UNL A   1      41.515  26.451  34.625  1.00  0.00    +0.000 F 
ATOM     69  C48 UNL A   1      42.542  28.272  33.524  1.00  0.00    +0.000 C 
ATOM     70  F10 UNL A   1      42.216  27.718  32.346  1.00  0.00    +0.000 F 
ATOM     60  C43 UNL A   1      43.183  29.517  33.558  1.00  0.00    +0.000 C 
ATOM     61  C44 UNL A   1      43.440  30.074  34.823  1.00  0.00    +0.000 C 
ATOM     62  F6  UNL A   1      43.949  31.306  34.941  1.00  0.00    +0.000 F 
ATOM     63  C45 UNL A   1      43.113  29.394  35.996  1.00  0.00    +0.000 C 
ATOM     64  F7  UNL A   1      43.379  29.945  37.189  1.00  0.00    +0.000 F 
ENDBRANCH   59   60
BRANCH   74   75
ATOM     75  C52 UNL A   1      37.768  31.767  31.329  1.00  0.00    +0.000 C 
ATOM     76  C53 UNL A   1      37.148  32.083  30.109  1.00  0.00    +0.000 C 
ATOM     77  F11 UNL A   1      37.784  31.859  28.950  1.00  0.00    +0.000 F 
ATOM     78  C54 UNL A   1      35.835  32.567  30.053  1.00  0.00    +0.000 C 
ATOM     79  F12 UNL A   1      35.255  32.792  28.866  1.00  0.00    +0.000 F 
ATOM     80  C55 UNL A   1      35.108  32.757  31.216  1.00  0.00    +0.000 C 
ATOM     81  F13 UNL A   1      33.829  33.155  31.161  1.00  0.00    +0.000 F 
ATOM     82  C56 UNL A   1      35.700  32.491  32.435  1.00  0.00    +0.000 C 
ATOM     83  F14 UNL A   1      34.998  32.638  33.569  1.00  0.00    +0.000 F 
ATOM     84  C57 UNL A   1      37.006  32.002  32.492  1.00  0.00    +0.000 C 
ATOM     85  F15 UNL A   1      37.474  31.673  33.703  1.00  0.00    +0.000 F 
ENDBRANCH   74   75
TORSDOF 21
ENDMDL
MODEL 2
REMARK VINA RESULT:      -9.6      6.570     13.794
ROOT
ATOM    129  H27 UNL A   1      44.505  32.295  31.070  1.00  0.00    +0.000 H 
ATOM    130  H28 UNL A   1      45.209  28.533  32.383  1.00  0.00    +0.000 H 
ATOM    131  H29 UNL A   1      41.372  27.759  25.181  1.00  0.00    +0.000 H 
ATOM    132  H30 UNL A   1      39.878  29.396  26.433  1.00  0.00    +0.000 H 
ATOM    133  H31 UNL A   1      42.782  28.130  29.110  1.00  0.00    +0.000 H 
ATOM    134  H32 UNL A   1      44.087  25.226  29.363  1.00  0.00    +0.000 H 
ATOM    135  H33 UNL A   1      44.646  27.070  31.083  1.00  0.00    +0.000 H 
ATOM    136  H34 UNL A   1      39.866  27.829  33.610  1.00  0.00    +0.000 H 
ATOM    137  H35 UNL A   1      38.897  27.562  31.234  1.00  0.00    +0.000 H 
ATOM     38  C28 UNL A   1      40.237  29.256  29.315  1.00  0.00    +0.000 C 
ATOM     39  C29 UNL A   1      40.588  28.991  30.733  1.00  0.00    +0.000 C 
ATOM     40  N5  UNL A   1      41.525  29.556  31.420  1.00  0.00    +0.000 N 
ATOM     41  C30 UNL A   1      41.509  28.944  32.668  1.00  0.00    +0.000 C 
ATOM     42  C31 UNL A   1      42.641  28.882  33.423  1.00  0.00    +0.000 C 
ATOM     54  C38 UNL A   1      43.630  29.819  32.943  1.00  0.00    +0.000 C 
ATOM     55  C39 UNL A   1      43.654  31.190  32.767  1.00  0.00    +0.000 C 
ATOM     56  C40 UNL A   1      44.353  31.390  31.540  1.00  0.00    +0.000 C 
ATOM     57  C41 UNL A   1      44.793  30.145  31.088  1.00  0.00    +0.000 C 
ATOM     58  N6  UNL A   1      44.663  29.328  32.182  1.00  0.00    +0.000 N 
ATOM     59  C42 UNL A   1      45.237  29.679  29.798  1.00  0.00    +0.000 C 
ATOM     71  C49 UNL A   1      45.169  28.380  29.382  1.00  0.00    +0.000 C 
ATOM     72  N7  UNL A   1      45.188  28.060  28.032  1.00  0.00    +0.000 N 
ATOM     73  C50 UNL A   1      44.508  26.946  27.951  1.00  0.00    +0.000 C 
ATOM     74  C51 UNL A   1      43.513  26.685  26.875  1.00  0.00    +0.000 C 
ATOM     86  C58 UNL A   1      42.494  27.560  27.076  1.00  0.00    +0.000 C 
ATOM     87  C59 UNL A   1      41.463  28.019  26.176  1.00  0.00    +0.000 C 
ATOM     88  C60 UNL A   1      40.641  28.844  26.853  1.00  0.00    +0.000 C 
ATOM     89  C61 UNL A   1      40.995  28.839  28.276  1.00  0.00    +0.000 C 
ATOM     90  N8  UNL A   1      42.200  28.173  28.318  1.00  0.00    +0.000 N 
ATOM     91  C62 UNL A   1      44.366  26.205  29.196  1.00  0.00    +0.000 C 
ATOM     92  C63 UNL A   1      44.705  27.170  30.057  1.00  0.00    +0.000 C 
ATOM     93  C64 UNL A   1      40.270  28.215  32.743  1.00  0.00    +0.000 C 
ATOM     94  C65 UNL A   1      39.717  28.113  31.532  1.00  0.00    +0.000 C 
ATOM    128  H26 UNL A   1      43.254  31.911  33.388  1.00  0.00    +0.000 H 
ENDROOT
BRANCH   38   37
ATOM     34  C24 UNL A   1      36.459  30.920  28.545  1.00  0.00    +0.000 C 
ATOM     35  C25 UNL A   1      36.634  29.554  28.301  1.00  0.00    +0.000 C 
ATOM     36  C26 UNL A   1      37.855  28.966  28.620  1.00  0.00    +0.000 C 
ATOM     37  C27 UNL A   1      38.890  29.774  29.110  1.00  0.00    +0.000 C 
ATOM    138  H36 UNL A   1      39.501  31.740  29.569  1.00  0.00    +0.000 H 
ATOM    139  H37 UNL A   1      37.251  32.622  29.504  1.00  0.00    +0.000 H 
ATOM    127  H25 UNL A   1      37.995  27.951  28.498  1.00  0.00    +0.000 H 
ATOM    126  H24 UNL A   1      35.872  28.991  27.891  1.00  0.00    +0.000 H 
ATOM     95  C66 UNL A   1      38.704  31.137  29.311  1.00  0.00    +0.000 C 
ATOM     96  C67 UNL A   1      37.454  31.670  29.162  1.00  0.00    +0.000 C 
BRANCH   34   32
ATOM     33  O4  UNL A   1      34.324  31.012  27.583  1.00  0.00    +0.000 O 
ATOM     32  C23 UNL A   1      35.236  31.623  28.126  1.00  0.00    +0.000 C 
BRANCH   32   31
ATOM    125  H23 UNL A   1      35.773  33.553  27.874  1.00  0.00    +0.000 H 
ATOM     31  N4  UNL A   1      35.144  32.979  28.366  1.00  0.00    +0.000 N 
BRANCH   31   30
ATOM    123  H21 UNL A   1      33.985  34.624  28.875  1.00  0.00    +0.000 H 
ATOM    124  H22 UNL A   1      33.329  33.062  29.353  1.00  0.00    +0.000 H 
ATOM     30  C22 UNL A   1      34.214  33.657  29.271  1.00  0.00    +0.000 C 
BRANCH   30   29
ATOM    121  H19 UNL A   1      35.873  33.920  30.564  1.00  0.00    +0.000 H 
ATOM    122  H20 UNL A   1      34.367  34.687  31.099  1.00  0.00    +0.000 H 
ATOM     29  C21 UNL A   1      34.812  33.820  30.659  1.00  0.00    +0.000 C 
BRANCH   29   28
ATOM     28  C20 UNL A   1      34.512  32.629  31.582  1.00  0.00    +0.000 C 
ATOM    119  H17 UNL A   1      33.451  32.564  31.699  1.00  0.00    +0.000 H 
ATOM    120  H18 UNL A   1      34.949  31.776  31.109  1.00  0.00    +0.000 H 
BRANCH   28   27
ATOM     27  C19 UNL A   1      35.139  32.701  32.985  1.00  0.00    +0.000 C 
ATOM    117  H15 UNL A   1      35.041  33.705  33.342  1.00  0.00    +0.000 H 
ATOM    118  H16 UNL A   1      34.614  31.986  33.584  1.00  0.00    +0.000 H 
BRANCH   27   26
ATOM     26  C18 UNL A   1      36.622  32.314  33.051  1.00  0.00    +0.000 C 
ATOM    115  H13 UNL A   1      36.768  31.662  33.887  1.00  0.00    +0.000 H 
ATOM    116  H14 UNL A   1      36.873  31.835  32.128  1.00  0.00    +0.000 H 
BRANCH   26   25
ATOM     25  C17 UNL A   1      37.540  33.528  33.207  1.00  0.00    +0.000 C 
ATOM    114  H12 UNL A   1      38.011  33.495  34.168  1.00  0.00    +0.000 H 
ATOM    113  H11 UNL A   1      36.962  34.425  33.121  1.00  0.00    +0.000 H 
BRANCH   25   24
ATOM    112  H10 UNL A   1      38.226  33.785  31.290  1.00  0.00    +0.000 H 
ATOM     24  N3  UNL A   1      38.556  33.510  32.176  1.00  0.00    +0.000 N 
BRANCH   24   22
ATOM     22  C16 UNL A   1      39.888  33.186  32.190  1.00  0.00    +0.000 C 
ATOM     23  O3  UNL A   1      40.258  32.347  33.011  1.00  0.00    +0.000 O 
BRANCH   22   21
ATOM     97  C68 UNL A   1      40.774  34.082  29.961  1.00  0.00    +0.000 C 
ATOM     98  C69 UNL A   1      41.668  34.908  29.279  1.00  0.00    +0.000 C 
ATOM    140  H38 UNL A   1      40.007  33.623  29.444  1.00  0.00    +0.000 H 
ATOM    141  H39 UNL A   1      41.502  35.152  28.290  1.00  0.00    +0.000 H 
ATOM    110  H8  UNL A   1      43.892  35.353  31.751  1.00  0.00    +0.000 H 
ATOM    111  H9  UNL A   1      42.198  34.130  32.984  1.00  0.00    +0.000 H 
ATOM     18  C12 UNL A   1      42.789  35.399  29.946  1.00  0.00    +0.000 C 
ATOM     19  C13 UNL A   1      43.018  35.063  31.284  1.00  0.00    +0.000 C 
ATOM     20  C14 UNL A   1      42.057  34.332  31.982  1.00  0.00    +0.000 C 
ATOM     21  C15 UNL A   1      40.901  33.867  31.337  1.00  0.00    +0.000 C 
BRANCH   18   17
ATOM     99  N9  UNL A   1      44.852  35.700  28.753  1.00  0.00    +0.000 N 
ATOM    100  N10 UNL A   1      45.484  36.669  28.117  1.00  0.00    +0.000 N 
ATOM    109  H7  UNL A   1      42.947  38.235  29.363  1.00  0.00    +0.000 H 
ATOM     15  C10 UNL A   1      44.782  37.836  28.276  1.00  0.00    +0.000 C 
ATOM     16  C11 UNL A   1      43.663  37.568  29.037  1.00  0.00    +0.000 C 
ATOM     17  N2  UNL A   1      43.716  36.210  29.265  1.00  0.00    +0.000 N 
BRANCH   15   14
ATOM    107  H5  UNL A   1      44.729  39.920  28.148  1.00  0.00    +0.000 H 
ATOM    108  H6  UNL A   1      46.352  39.157  28.086  1.00  0.00    +0.000 H 
ATOM     14  C9  UNL A   1      45.333  39.125  27.761  1.00  0.00    +0.000 C 
BRANCH   14   13
ATOM     13  O2  UNL A   1      45.374  39.259  26.329  1.00  0.00    +0.000 O 
BRANCH   13   12
ATOM    101  C70 UNL A   1      45.968  41.277  25.059  1.00  0.00    +0.000 C 
ATOM    102  C71 UNL A   1      45.504  42.394  24.361  1.00  0.00    +0.000 C 
ATOM      9  C5  UNL A   1      44.161  42.765  24.434  1.00  0.00    +0.000 C 
ATOM     10  C6  UNL A   1      43.302  42.048  25.270  1.00  0.00    +0.000 C 
ATOM    105  H3  UNL A   1      42.327  42.360  25.399  1.00  0.00    +0.000 H 
ATOM     11  C7  UNL A   1      43.764  40.904  25.932  1.00  0.00    +0.000 C 
ATOM    106  H4  UNL A   1      43.123  40.372  26.540  1.00  0.00    +0.000 H 
ATOM     12  C8  UNL A   1      45.085  40.477  25.777  1.00  0.00    +0.000 C 
ATOM    143  H41 UNL A   1      46.159  42.948  23.788  1.00  0.00    +0.000 H 
ATOM    142  H40 UNL A   1      46.974  41.044  25.040  1.00  0.00    +0.000 H 
BRANCH    9    8
ATOM    104  H2  UNL A   1      43.243  44.682  24.126  1.00  0.00    +0.000 H 
ATOM      8  C4  UNL A   1      43.673  43.887  23.629  1.00  0.00    +0.000 C 
BRANCH    8    7
ATOM      1  O1  UNL A   1      41.851  42.559  21.793  1.00  0.00    +0.000 O 
ATOM      2  C1  UNL A   1      42.770  43.250  21.415  1.00  0.00    +0.000 C 
ATOM      3  N1  UNL A   1      43.062  43.519  20.102  1.00  0.00    +0.000 N 
ATOM      4  C2  UNL A   1      44.128  44.321  19.831  1.00  0.00    +0.000 C 
ATOM      5  S1  UNL A   1      44.599  44.726  18.296  1.00  0.00    +0.000 S 
ATOM      6  S2  UNL A   1      44.885  44.824  21.323  1.00  0.00    +0.000 S 
ATOM      7  C3  UNL A   1      43.747  43.955  22.293  1.00  0.00    +0.000 C 
ATOM    103  H1  UNL A   1      42.515  43.143  19.376  1.00  0.00    +0.000 H 
ENDBRANCH    8    7
ENDBRANCH    9    8
ENDBRANCH   13   12
ENDBRANCH   14   13
ENDBRANCH   15   14
ENDBRANCH   18   17
ENDBRANCH   22   21
ENDBRANCH   24   22
ENDBRANCH   25   24
ENDBRANCH   26   25
ENDBRANCH   27   26
ENDBRANCH   28   27
ENDBRANCH   29   28
ENDBRANCH   30   29
ENDBRANCH   31   30
ENDBRANCH   32   31
ENDBRANCH   34   32
ENDBRANCH   38   37
BRANCH   42   43
ATOM     43  C32 UNL A   1      43.015  27.730  34.323  1.00  0.00    +0.000 C 
ATOM     44  C33 UNL A   1      43.279  26.472  33.742  1.00  0.00    +0.000 C 
ATOM     45  F1  UNL A   1      43.481  26.360  32.419  1.00  0.00    +0.000 F 
ATOM     46  C34 UNL A   1      43.239  25.291  34.486  1.00  0.00    +0.000 C 
ATOM     47  F2  UNL A   1      43.357  24.109  33.863  1.00  0.00    +0.000 F 
ATOM     48  C35 UNL A   1      43.003  25.327  35.847  1.00  0.00    +0.000 C 
ATOM     49  F3  UNL A   1      42.896  24.193  36.550  1.00  0.00    +0.000 F 
ATOM     50  C36 UNL A   1      42.829  26.545  36.468  1.00  0.00    +0.000 C 
ATOM     51  F4  UNL A   1      42.585  26.601  37.785  1.00  0.00    +0.000 F 
ATOM     52  C37 UNL A   1      42.814  27.721  35.721  1.00  0.00    +0.000 C 
ATOM     53  F5  UNL A   1      42.484  28.822  36.405  1.00  0.00    +0.000 F 
ENDBRANCH   42   43
BRANCH   59   60
ATOM     65  C46 UNL A   1      46.056  32.524  26.656  1.00  0.00    +0.000 C 
ATOM     66  F8  UNL A   1      46.281  33.361  25.632  1.00  0.00    +0.000 F 
ATOM     67  C47 UNL A   1      44.757  32.234  27.044  1.00  0.00    +0.000 C 
ATOM     68  F9  UNL A   1      43.725  32.770  26.379  1.00  0.00    +0.000 F 
ATOM     69  C48 UNL A   1      44.519  31.361  28.102  1.00  0.00    +0.000 C 
ATOM     70  F10 UNL A   1      43.249  31.082  28.432  1.00  0.00    +0.000 F 
ATOM     60  C43 UNL A   1      45.573  30.735  28.779  1.00  0.00    +0.000 C 
ATOM     61  C44 UNL A   1      46.878  31.019  28.344  1.00  0.00    +0.000 C 
ATOM     62  F6  UNL A   1      47.932  30.379  28.865  1.00  0.00    +0.000 F 
ATOM     63  C45 UNL A   1      47.118  31.925  27.311  1.00  0.00    +0.000 C 
ATOM     64  F7  UNL A   1      48.374  32.185  26.922  1.00  0.00    +0.000 F 
ENDBRANCH   59   60
BRANCH   74   75
ATOM     75  C52 UNL A   1      43.549  25.483  26.007  1.00  0.00    +0.000 C 
ATOM     76  C53 UNL A   1      44.666  25.204  25.202  1.00  0.00    +0.000 C 
ATOM     77  F11 UNL A   1      45.625  26.125  25.034  1.00  0.00    +0.000 F 
ATOM     78  C54 UNL A   1      44.854  23.947  24.614  1.00  0.00    +0.000 C 
ATOM     79  F12 UNL A   1      45.967  23.698  23.910  1.00  0.00    +0.000 F 
ATOM     80  C55 UNL A   1      43.926  22.937  24.806  1.00  0.00    +0.000 C 
ATOM     81  F13 UNL A   1      44.140  21.713  24.302  1.00  0.00    +0.000 F 
ATOM     82  C56 UNL A   1      42.798  23.189  25.562  1.00  0.00    +0.000 C 
ATOM     83  F14 UNL A   1      41.908  22.212  25.785  1.00  0.00    +0.000 F 
ATOM     84  C57 UNL A   1      42.613  24.439  26.155  1.00  0.00    +0.000 C 
ATOM     85  F15 UNL A   1      41.546  24.575  26.954  1.00  0.00    +0.000 F 
ENDBRANCH   74   75
TORSDOF 21
ENDMDL
MODEL 3
REMARK VINA RESULT:      -9.4     29.011     35.194
ROOT
ATOM    129  H27 UNL A   1      20.281  16.243   9.722  1.00  0.00    +0.000 H 
ATOM    130  H28 UNL A   1      22.101  13.331   7.582  1.00  0.00    +0.000 H 
ATOM    131  H29 UNL A   1      26.473  20.152   6.340  1.00  0.00    +0.000 H 
ATOM    132  H30 UNL A   1      24.094  20.924   5.867  1.00  0.00    +0.000 H 
ATOM    133  H31 UNL A   1      23.929  16.825   6.480  1.00  0.00    +0.000 H 
ATOM    134  H32 UNL A   1      26.072  14.622   5.612  1.00  0.00    +0.000 H 
ATOM    135  H33 UNL A   1      23.815  13.919   6.650  1.00  0.00    +0.000 H 
ATOM    136  H34 UNL A   1      20.219  15.464   2.843  1.00  0.00    +0.000 H 
ATOM    137  H35 UNL A   1      21.753  17.529   2.646  1.00  0.00    +0.000 H 
ATOM     38  C28 UNL A   1      22.313  18.719   5.219  1.00  0.00    +0.000 C 
ATOM     39  C29 UNL A   1      21.618  17.444   4.911  1.00  0.00    +0.000 C 
ATOM     40  N5  UNL A   1      21.033  16.655   5.751  1.00  0.00    +0.000 N 
ATOM     41  C30 UNL A   1      20.583  15.569   5.008  1.00  0.00    +0.000 C 
ATOM     42  C31 UNL A   1      20.427  14.349   5.593  1.00  0.00    +0.000 C 
ATOM     54  C38 UNL A   1      20.408  14.467   7.032  1.00  0.00    +0.000 C 
ATOM     55  C39 UNL A   1      19.616  15.155   7.932  1.00  0.00    +0.000 C 
ATOM     56  C40 UNL A   1      20.522  15.635   8.924  1.00  0.00    +0.000 C 
ATOM     57  C41 UNL A   1      21.791  15.138   8.625  1.00  0.00    +0.000 C 
ATOM     58  N6  UNL A   1      21.552  14.137   7.717  1.00  0.00    +0.000 N 
ATOM     59  C42 UNL A   1      23.114  15.531   9.042  1.00  0.00    +0.000 C 
ATOM     71  C49 UNL A   1      24.250  15.296   8.322  1.00  0.00    +0.000 C 
ATOM     72  N7  UNL A   1      25.397  16.050   8.530  1.00  0.00    +0.000 N 
ATOM     73  C50 UNL A   1      26.006  16.044   7.373  1.00  0.00    +0.000 C 
ATOM     74  C51 UNL A   1      26.637  17.258   6.787  1.00  0.00    +0.000 C 
ATOM     86  C58 UNL A   1      25.625  18.117   6.506  1.00  0.00    +0.000 C 
ATOM     87  C59 UNL A   1      25.643  19.542   6.279  1.00  0.00    +0.000 C 
ATOM     88  C60 UNL A   1      24.393  19.942   5.976  1.00  0.00    +0.000 C 
ATOM     89  C61 UNL A   1      23.520  18.774   5.826  1.00  0.00    +0.000 C 
ATOM     90  N8  UNL A   1      24.279  17.728   6.303  1.00  0.00    +0.000 N 
ATOM     91  C62 UNL A   1      25.609  14.982   6.461  1.00  0.00    +0.000 C 
ATOM     92  C63 UNL A   1      24.468  14.611   7.049  1.00  0.00    +0.000 C 
ATOM     93  C64 UNL A   1      20.669  15.963   3.627  1.00  0.00    +0.000 C 
ATOM     94  C65 UNL A   1      21.412  17.065   3.503  1.00  0.00    +0.000 C 
ATOM    128  H26 UNL A   1      18.594  15.291   7.895  1.00  0.00    +0.000 H 
ENDROOT
BRANCH   38   37
ATOM     34  C24 UNL A   1      20.659  21.998   3.183  1.00  0.00    +0.000 C 
ATOM     35  C25 UNL A   1      19.849  21.323   4.102  1.00  0.00    +0.000 C 
ATOM     36  C26 UNL A   1      20.400  20.281   4.843  1.00  0.00    +0.000 C 
ATOM     37  C27 UNL A   1      21.725  19.898   4.595  1.00  0.00    +0.000 C 
ATOM    138  H36 UNL A   1      23.436  20.204   3.399  1.00  0.00    +0.000 H 
ATOM    139  H37 UNL A   1      22.635  22.308   2.517  1.00  0.00    +0.000 H 
ATOM    127  H25 UNL A   1      19.841  19.799   5.564  1.00  0.00    +0.000 H 
ATOM    126  H24 UNL A   1      18.860  21.591   4.229  1.00  0.00    +0.000 H 
ATOM     95  C66 UNL A   1      22.500  20.560   3.650  1.00  0.00    +0.000 C 
ATOM     96  C67 UNL A   1      22.009  21.689   3.056  1.00  0.00    +0.000 C 
BRANCH   34   32
ATOM     33  O4  UNL A   1      18.964  22.936   1.864  1.00  0.00    +0.000 O 
ATOM     32  C23 UNL A   1      20.109  23.029   2.289  1.00  0.00    +0.000 C 
BRANCH   32   31
ATOM    125  H23 UNL A   1      20.885  24.874   2.560  1.00  0.00    +0.000 H 
ATOM     31  N4  UNL A   1      20.910  24.100   1.951  1.00  0.00    +0.000 N 
BRANCH   31   30
ATOM    123  H21 UNL A   1      22.340  25.131   0.856  1.00  0.00    +0.000 H 
ATOM    124  H22 UNL A   1      22.457  23.375   0.786  1.00  0.00    +0.000 H 
ATOM     30  C22 UNL A   1      21.793  24.214   0.789  1.00  0.00    +0.000 C 
BRANCH   30   29
ATOM    121  H19 UNL A   1      20.146  23.576  -0.383  1.00  0.00    +0.000 H 
ATOM    122  H20 UNL A   1      20.728  25.215  -0.726  1.00  0.00    +0.000 H 
ATOM     29  C21 UNL A   1      21.003  24.204  -0.510  1.00  0.00    +0.000 C 
BRANCH   29   28
ATOM     28  C20 UNL A   1      21.820  23.684  -1.702  1.00  0.00    +0.000 C 
ATOM    119  H17 UNL A   1      22.840  23.968  -1.550  1.00  0.00    +0.000 H 
ATOM    120  H18 UNL A   1      21.664  22.626  -1.724  1.00  0.00    +0.000 H 
BRANCH   28   27
ATOM     27  C19 UNL A   1      21.386  24.202  -3.083  1.00  0.00    +0.000 C 
ATOM    117  H15 UNL A   1      20.543  23.627  -3.404  1.00  0.00    +0.000 H 
ATOM    118  H16 UNL A   1      21.166  25.242  -2.957  1.00  0.00    +0.000 H 
BRANCH   27   26
ATOM     26  C18 UNL A   1      22.463  24.118  -4.173  1.00  0.00    +0.000 C 
ATOM    115  H13 UNL A   1      22.966  23.177  -4.084  1.00  0.00    +0.000 H 
ATOM    116  H14 UNL A   1      21.974  24.216  -5.119  1.00  0.00    +0.000 H 
BRANCH   26   25
ATOM     25  C17 UNL A   1      23.498  25.240  -4.066  1.00  0.00    +0.000 C 
ATOM    114  H12 UNL A   1      24.321  24.907  -3.469  1.00  0.00    +0.000 H 
ATOM    113  H11 UNL A   1      23.047  26.097  -3.611  1.00  0.00    +0.000 H 
BRANCH   25   24
ATOM    112  H10 UNL A   1      23.625  26.449  -5.719  1.00  0.00    +0.000 H 
ATOM     24  N3  UNL A   1      23.976  25.592  -5.386  1.00  0.00    +0.000 N 
BRANCH   24   22
ATOM     22  C16 UNL A   1      24.823  24.967  -6.264  1.00  0.00    +0.000 C 
ATOM     23  O3  UNL A   1      24.373  24.672  -7.372  1.00  0.00    +0.000 O 
BRANCH   22   21
ATOM     97  C68 UNL A   1      26.527  23.551  -4.982  1.00  0.00    +0.000 C 
ATOM     98  C69 UNL A   1      27.835  23.080  -4.859  1.00  0.00    +0.000 C 
ATOM    140  H38 UNL A   1      25.785  23.157  -4.382  1.00  0.00    +0.000 H 
ATOM    141  H39 UNL A   1      28.042  22.268  -4.258  1.00  0.00    +0.000 H 
ATOM    110  H8  UNL A   1      29.348  25.353  -6.808  1.00  0.00    +0.000 H 
ATOM    111  H9  UNL A   1      27.042  25.993  -7.205  1.00  0.00    +0.000 H 
ATOM     18  C12 UNL A   1      28.859  23.720  -5.555  1.00  0.00    +0.000 C 
ATOM     19  C13 UNL A   1      28.580  24.826  -6.364  1.00  0.00    +0.000 C 
ATOM     20  C14 UNL A   1      27.255  25.212  -6.565  1.00  0.00    +0.000 C 
ATOM     21  C15 UNL A   1      26.207  24.551  -5.906  1.00  0.00    +0.000 C 
BRANCH   18   17
ATOM     99  N9  UNL A   1      31.039  23.282  -6.464  1.00  0.00    +0.000 N 
ATOM    100  N10 UNL A   1      32.220  22.883  -6.030  1.00  0.00    +0.000 N 
ATOM    109  H7  UNL A   1      30.399  22.585  -3.376  1.00  0.00    +0.000 H 
ATOM     15  C10 UNL A   1      32.116  22.552  -4.703  1.00  0.00    +0.000 C 
ATOM     16  C11 UNL A   1      30.813  22.766  -4.304  1.00  0.00    +0.000 C 
ATOM     17  N2  UNL A   1      30.188  23.276  -5.421  1.00  0.00    +0.000 N 
BRANCH   15   14
ATOM    107  H5  UNL A   1      33.202  22.226  -2.949  1.00  0.00    +0.000 H 
ATOM    108  H6  UNL A   1      33.214  20.896  -4.154  1.00  0.00    +0.000 H 
ATOM     14  C9  UNL A   1      33.277  21.951  -3.981  1.00  0.00    +0.000 C 
BRANCH   14   13
ATOM     13  O2  UNL A   1      34.577  22.348  -4.451  1.00  0.00    +0.000 O 
BRANCH   13   12
ATOM    101  C70 UNL A   1      35.417  23.428  -2.408  1.00  0.00    +0.000 C 
ATOM    102  C71 UNL A   1      36.410  23.453  -1.427  1.00  0.00    +0.000 C 
ATOM      9  C5  UNL A   1      37.584  22.718  -1.591  1.00  0.00    +0.000 C 
ATOM     10  C6  UNL A   1      37.786  22.014  -2.780  1.00  0.00    +0.000 C 
ATOM    105  H3  UNL A   1      38.684  21.535  -2.951  1.00  0.00    +0.000 H 
ATOM     11  C7  UNL A   1      36.769  21.959  -3.741  1.00  0.00    +0.000 C 
ATOM    106  H4  UNL A   1      36.918  21.430  -4.614  1.00  0.00    +0.000 H 
ATOM     12  C8  UNL A   1      35.553  22.614  -3.529  1.00  0.00    +0.000 C 
ATOM    143  H41 UNL A   1      36.273  24.018  -0.575  1.00  0.00    +0.000 H 
ATOM    142  H40 UNL A   1      34.576  24.018  -2.301  1.00  0.00    +0.000 H 
BRANCH    9    8
ATOM    104  H2  UNL A   1      39.290  23.431  -0.499  1.00  0.00    +0.000 H 
ATOM      8  C4  UNL A   1      38.577  22.686  -0.515  1.00  0.00    +0.000 C 
BRANCH    8    7
ATOM      1  O1  UNL A   1      40.994  21.352   0.397  1.00  0.00    +0.000 O 
ATOM      2  C1  UNL A   1      39.904  21.123   0.871  1.00  0.00    +0.000 C 
ATOM      3  N1  UNL A   1      39.662  20.243   1.894  1.00  0.00    +0.000 N 
ATOM      4  C2  UNL A   1      38.380  20.095   2.326  1.00  0.00    +0.000 C 
ATOM      5  S1  UNL A   1      37.940  19.067   3.548  1.00  0.00    +0.000 S 
ATOM      6  S2  UNL A   1      37.320  21.131   1.401  1.00  0.00    +0.000 S 
ATOM      7  C3  UNL A   1      38.623  21.759   0.452  1.00  0.00    +0.000 C 
ATOM    103  H1  UNL A   1      40.396  19.734   2.306  1.00  0.00    +0.000 H 
ENDBRANCH    8    7
ENDBRANCH    9    8
ENDBRANCH   13   12
ENDBRANCH   14   13
ENDBRANCH   15   14
ENDBRANCH   18   17
ENDBRANCH   22   21
ENDBRANCH   24   22
ENDBRANCH   25   24
ENDBRANCH   26   25
ENDBRANCH   27   26
ENDBRANCH   28   27
ENDBRANCH   29   28
ENDBRANCH   30   29
ENDBRANCH   31   30
ENDBRANCH   32   31
ENDBRANCH   34   32
ENDBRANCH   38   37
BRANCH   42   43
ATOM     43  C32 UNL A   1      20.688  13.027   4.911  1.00  0.00    +0.000 C 
ATOM     44  C33 UNL A   1      19.687  12.035   4.951  1.00  0.00    +0.000 C 
ATOM     45  F1  UNL A   1      18.434  12.342   5.323  1.00  0.00    +0.000 F 
ATOM     46  C34 UNL A   1      19.971  10.688   4.711  1.00  0.00    +0.000 C 
ATOM     47  F2  UNL A   1      19.018   9.764   4.898  1.00  0.00    +0.000 F 
ATOM     48  C35 UNL A   1      21.247  10.293   4.355  1.00  0.00    +0.000 C 
ATOM     49  F3  UNL A   1      21.538   8.998   4.192  1.00  0.00    +0.000 F 
ATOM     50  C36 UNL A   1      22.233  11.247   4.218  1.00  0.00    +0.000 C 
ATOM     51  F4  UNL A   1      23.480  10.882   3.888  1.00  0.00    +0.000 F 
ATOM     52  C37 UNL A   1      21.966  12.582   4.510  1.00  0.00    +0.000 C 
ATOM     53  F5  UNL A   1      23.033  13.389   4.492  1.00  0.00    +0.000 F 
ENDBRANCH   42   43
BRANCH   59   60
ATOM     65  C46 UNL A   1      23.623  18.317  12.300  1.00  0.00    +0.000 C 
ATOM     66  F8  UNL A   1      23.844  19.205  13.280  1.00  0.00    +0.000 F 
ATOM     67  C47 UNL A   1      23.350  18.756  11.014  1.00  0.00    +0.000 C 
ATOM     68  F9  UNL A   1      23.331  20.068  10.744  1.00  0.00    +0.000 F 
ATOM     69  C48 UNL A   1      23.127  17.837   9.992  1.00  0.00    +0.000 C 
ATOM     70  F10 UNL A   1      22.892  18.298   8.753  1.00  0.00    +0.000 F 
ATOM     60  C43 UNL A   1      23.200  16.458  10.224  1.00  0.00    +0.000 C 
ATOM     61  C44 UNL A   1      23.513  16.040  11.529  1.00  0.00    +0.000 C 
ATOM     62  F6  UNL A   1      23.709  14.746  11.808  1.00  0.00    +0.000 F 
ATOM     63  C45 UNL A   1      23.696  16.959  12.561  1.00  0.00    +0.000 C 
ATOM     64  F7  UNL A   1      23.983  16.532  13.799  1.00  0.00    +0.000 F 
ENDBRANCH   59   60
BRANCH   74   75
ATOM     75  C52 UNL A   1      28.049  17.303   6.333  1.00  0.00    +0.000 C 
ATOM     76  C53 UNL A   1      28.369  17.442   4.972  1.00  0.00    +0.000 C 
ATOM     77  F11 UNL A   1      27.415  17.315   4.039  1.00  0.00    +0.000 F 
ATOM     78  C54 UNL A   1      29.658  17.787   4.550  1.00  0.00    +0.000 C 
ATOM     79  F12 UNL A   1      29.906  17.977   3.247  1.00  0.00    +0.000 F 
ATOM     80  C55 UNL A   1      30.667  17.993   5.476  1.00  0.00    +0.000 C 
ATOM     81  F13 UNL A   1      31.885  18.390   5.077  1.00  0.00    +0.000 F 
ATOM     82  C56 UNL A   1      30.396  17.829   6.820  1.00  0.00    +0.000 C 
ATOM     83  F14 UNL A   1      31.354  18.057   7.730  1.00  0.00    +0.000 F 
ATOM     84  C57 UNL A   1      29.110  17.493   7.243  1.00  0.00    +0.000 C 
ATOM     85  F15 UNL A   1      28.902  17.450   8.566  1.00  0.00    +0.000 F 
ENDBRANCH   74   75
TORSDOF 21
ENDMDL
MODEL 4
REMARK VINA RESULT:      -9.3     28.624     34.710
ROOT
ATOM    129  H27 UNL A   1      21.162  16.717   9.728  1.00  0.00    +0.000 H 
ATOM    130  H28 UNL A   1      23.218  13.724   7.942  1.00  0.00    +0.000 H 
ATOM    131  H29 UNL A   1      26.969  20.682   5.775  1.00  0.00    +0.000 H 
ATOM    132  H30 UNL A   1      24.529  21.180   5.248  1.00  0.00    +0.000 H 
ATOM    133  H31 UNL A   1      24.727  17.193   6.377  1.00  0.00    +0.000 H 
ATOM    134  H32 UNL A   1      27.049  15.090   5.758  1.00  0.00    +0.000 H 
ATOM    135  H33 UNL A   1      24.868  14.333   6.915  1.00  0.00    +0.000 H 
ATOM    136  H34 UNL A   1      21.128  15.067   3.004  1.00  0.00    +0.000 H 
ATOM    137  H35 UNL A   1      22.475  17.214   2.522  1.00  0.00    +0.000 H 
ATOM     38  C28 UNL A   1      22.944  18.765   4.915  1.00  0.00    +0.000 C 
ATOM     39  C29 UNL A   1      22.361  17.406   4.782  1.00  0.00    +0.000 C 
ATOM     40  N5  UNL A   1      21.852  16.684   5.724  1.00  0.00    +0.000 N 
ATOM     41  C30 UNL A   1      21.494  15.477   5.133  1.00  0.00    +0.000 C 
ATOM     42  C31 UNL A   1      21.449  14.332   5.869  1.00  0.00    +0.000 C 
ATOM     54  C38 UNL A   1      21.428  14.631   7.282  1.00  0.00    +0.000 C 
ATOM     55  C39 UNL A   1      20.585  15.357   8.101  1.00  0.00    +0.000 C 
ATOM     56  C40 UNL A   1      21.451  16.035   9.009  1.00  0.00    +0.000 C 
ATOM     57  C41 UNL A   1      22.756  15.615   8.753  1.00  0.00    +0.000 C 
ATOM     58  N6  UNL A   1      22.601  14.491   7.984  1.00  0.00    +0.000 N 
ATOM     59  C42 UNL A   1      24.043  16.170   9.095  1.00  0.00    +0.000 C 
ATOM     71  C49 UNL A   1      25.191  15.944   8.392  1.00  0.00    +0.000 C 
ATOM     72  N7  UNL A   1      26.268  16.815   8.483  1.00  0.00    +0.000 N 
ATOM     73  C50 UNL A   1      26.869  16.713   7.327  1.00  0.00    +0.000 C 
ATOM     74  C51 UNL A   1      27.388  17.893   6.581  1.00  0.00    +0.000 C 
ATOM     86  C58 UNL A   1      26.303  18.619   6.211  1.00  0.00    +0.000 C 
ATOM     87  C59 UNL A   1      26.195  20.000   5.805  1.00  0.00    +0.000 C 
ATOM     88  C60 UNL A   1      24.913  20.249   5.476  1.00  0.00    +0.000 C 
ATOM     89  C61 UNL A   1      24.145  19.001   5.489  1.00  0.00    +0.000 C 
ATOM     90  N8  UNL A   1      24.995  18.093   6.081  1.00  0.00    +0.000 N 
ATOM     91  C62 UNL A   1      26.561  15.514   6.562  1.00  0.00    +0.000 C 
ATOM     92  C63 UNL A   1      25.460  15.124   7.212  1.00  0.00    +0.000 C 
ATOM     93  C64 UNL A   1      21.538  15.698   3.711  1.00  0.00    +0.000 C 
ATOM     94  C65 UNL A   1      22.180  16.836   3.436  1.00  0.00    +0.000 C 
ATOM    128  H26 UNL A   1      19.554  15.399   8.065  1.00  0.00    +0.000 H 
ENDROOT
BRANCH   38   37
ATOM     34  C24 UNL A   1      20.939  21.892   2.955  1.00  0.00    +0.000 C 
ATOM     35  C25 UNL A   1      22.202  21.525   2.479  1.00  0.00    +0.000 C 
ATOM     36  C26 UNL A   1      22.851  20.442   3.065  1.00  0.00    +0.000 C 
ATOM     37  C27 UNL A   1      22.251  19.800   4.157  1.00  0.00    +0.000 C 
ATOM    138  H36 UNL A   1      20.627  19.797   5.503  1.00  0.00    +0.000 H 
ATOM    139  H37 UNL A   1      19.308  21.314   4.159  1.00  0.00    +0.000 H 
ATOM    127  H25 UNL A   1      23.761  20.117   2.701  1.00  0.00    +0.000 H 
ATOM    126  H24 UNL A   1      22.646  22.047   1.707  1.00  0.00    +0.000 H 
ATOM     95  C66 UNL A   1      21.010  20.205   4.636  1.00  0.00    +0.000 C 
ATOM     96  C67 UNL A   1      20.304  21.150   3.946  1.00  0.00    +0.000 C 
BRANCH   34   32
ATOM     33  O4  UNL A   1      19.291  23.554   3.061  1.00  0.00    +0.000 O 
ATOM     32  C23 UNL A   1      20.252  23.093   2.457  1.00  0.00    +0.000 C 
BRANCH   32   31
ATOM    125  H23 UNL A   1      21.689  23.852   1.258  1.00  0.00    +0.000 H 
ATOM     31  N4  UNL A   1      20.719  23.686   1.302  1.00  0.00    +0.000 N 
BRANCH   31   30
ATOM    123  H21 UNL A   1      19.034  23.519   0.102  1.00  0.00    +0.000 H 
ATOM    124  H22 UNL A   1      19.714  25.139   0.227  1.00  0.00    +0.000 H 
ATOM     30  C22 UNL A   1      19.935  24.096   0.136  1.00  0.00    +0.000 C 
BRANCH   30   29
ATOM    121  H19 UNL A   1      20.397  24.619  -1.865  1.00  0.00    +0.000 H 
ATOM    122  H20 UNL A   1      21.749  23.967  -0.923  1.00  0.00    +0.000 H 
ATOM     29  C21 UNL A   1      20.708  23.882  -1.155  1.00  0.00    +0.000 C 
BRANCH   29   28
ATOM     28  C20 UNL A   1      20.483  22.490  -1.763  1.00  0.00    +0.000 C 
ATOM    119  H17 UNL A   1      21.260  21.847  -1.407  1.00  0.00    +0.000 H 
ATOM    120  H18 UNL A   1      19.501  22.193  -1.458  1.00  0.00    +0.000 H 
BRANCH   28   27
ATOM     27  C19 UNL A   1      20.483  22.426  -3.300  1.00  0.00    +0.000 C 
ATOM    117  H15 UNL A   1      19.845  21.621  -3.599  1.00  0.00    +0.000 H 
ATOM    118  H16 UNL A   1      20.145  23.383  -3.639  1.00  0.00    +0.000 H 
BRANCH   27   26
ATOM     26  C18 UNL A   1      21.861  22.204  -3.937  1.00  0.00    +0.000 C 
ATOM    115  H13 UNL A   1      21.893  22.724  -4.872  1.00  0.00    +0.000 H 
ATOM    116  H14 UNL A   1      22.597  22.575  -3.255  1.00  0.00    +0.000 H 
BRANCH   26   25
ATOM     25  C17 UNL A   1      22.162  20.725  -4.187  1.00  0.00    +0.000 C 
ATOM    114  H12 UNL A   1      22.897  20.638  -4.960  1.00  0.00    +0.000 H 
ATOM    113  H11 UNL A   1      21.264  20.225  -4.486  1.00  0.00    +0.000 H 
BRANCH   25   24
ATOM    112  H10 UNL A   1      22.092  20.258  -2.189  1.00  0.00    +0.000 H 
ATOM     24  N3  UNL A   1      22.669  20.117  -2.974  1.00  0.00    +0.000 N 
BRANCH   24   22
ATOM     22  C16 UNL A   1      23.795  19.383  -2.704  1.00  0.00    +0.000 C 
ATOM     23  O3  UNL A   1      23.637  18.258  -2.230  1.00  0.00    +0.000 O 
BRANCH   22   21
ATOM     97  C68 UNL A   1      25.533  20.964  -3.720  1.00  0.00    +0.000 C 
ATOM     98  C69 UNL A   1      26.802  21.541  -3.655  1.00  0.00    +0.000 C 
ATOM    140  H38 UNL A   1      24.849  21.313  -4.410  1.00  0.00    +0.000 H 
ATOM    141  H39 UNL A   1      27.021  22.383  -4.210  1.00  0.00    +0.000 H 
ATOM    110  H8  UNL A   1      28.220  19.349  -1.549  1.00  0.00    +0.000 H 
ATOM    111  H9  UNL A   1      25.943  18.516  -1.482  1.00  0.00    +0.000 H 
ATOM     18  C12 UNL A   1      27.772  20.969  -2.833  1.00  0.00    +0.000 C 
ATOM     19  C13 UNL A   1      27.479  19.824  -2.087  1.00  0.00    +0.000 C 
ATOM     20  C14 UNL A   1      26.175  19.327  -2.076  1.00  0.00    +0.000 C 
ATOM     21  C15 UNL A   1      25.175  19.919  -2.863  1.00  0.00    +0.000 C 
BRANCH   18   17
ATOM     99  N9  UNL A   1      29.659  21.800  -1.602  1.00  0.00    +0.000 N 
ATOM    100  N10 UNL A   1      30.879  22.237  -1.855  1.00  0.00    +0.000 N 
ATOM    109  H7  UNL A   1      29.683  21.843  -4.831  1.00  0.00    +0.000 H 
ATOM     15  C10 UNL A   1      31.053  22.305  -3.213  1.00  0.00    +0.000 C 
ATOM     16  C11 UNL A   1      29.890  21.882  -3.821  1.00  0.00    +0.000 C 
ATOM     17  N2  UNL A   1      29.065  21.521  -2.778  1.00  0.00    +0.000 N 
BRANCH   15   14
ATOM    107  H5  UNL A   1      32.106  23.158  -4.802  1.00  0.00    +0.000 H 
ATOM    108  H6  UNL A   1      32.557  23.713  -3.156  1.00  0.00    +0.000 H 
ATOM     14  C9  UNL A   1      32.304  22.886  -3.786  1.00  0.00    +0.000 C 
BRANCH   14   13
ATOM     13  O2  UNL A   1      33.454  22.021  -3.777  1.00  0.00    +0.000 O 
BRANCH   13   12
ATOM    101  C70 UNL A   1      34.470  21.900  -1.542  1.00  0.00    +0.000 C 
ATOM    102  C71 UNL A   1      35.635  22.023  -0.783  1.00  0.00    +0.000 C 
ATOM      9  C5  UNL A   1      36.783  22.592  -1.338  1.00  0.00    +0.000 C 
ATOM     10  C6  UNL A   1      36.730  23.101  -2.637  1.00  0.00    +0.000 C 
ATOM    105  H3  UNL A   1      37.544  23.599  -3.031  1.00  0.00    +0.000 H 
ATOM     11  C7  UNL A   1      35.572  22.935  -3.407  1.00  0.00    +0.000 C 
ATOM    106  H4  UNL A   1      35.541  23.304  -4.369  1.00  0.00    +0.000 H 
ATOM     12  C8  UNL A   1      34.458  22.275  -2.882  1.00  0.00    +0.000 C 
ATOM    143  H41 UNL A   1      35.648  21.691   0.193  1.00  0.00    +0.000 H 
ATOM    142  H40 UNL A   1      33.612  21.527  -1.105  1.00  0.00    +0.000 H 
BRANCH    9    8
ATOM    104  H2  UNL A   1      38.564  23.512  -0.569  1.00  0.00    +0.000 H 
ATOM      8  C4  UNL A   1      38.021  22.635  -0.557  1.00  0.00    +0.000 C 
BRANCH    8    7
ATOM      1  O1  UNL A   1      39.755  20.532  -1.569  1.00  0.00    +0.000 O 
ATOM      2  C1  UNL A   1      39.390  20.579  -0.416  1.00  0.00    +0.000 C 
ATOM      3  N1  UNL A   1      39.750  19.684   0.559  1.00  0.00    +0.000 N 
ATOM      4  C2  UNL A   1      39.262  19.869   1.815  1.00  0.00    +0.000 C 
ATOM      5  S1  UNL A   1      39.609  18.867   3.087  1.00  0.00    +0.000 S 
ATOM      6  S2  UNL A   1      38.242  21.287   1.851  1.00  0.00    +0.000 S 
ATOM      7  C3  UNL A   1      38.498  21.618   0.173  1.00  0.00    +0.000 C 
ATOM    103  H1  UNL A   1      40.346  18.928   0.354  1.00  0.00    +0.000 H 
ENDBRANCH    8    7
ENDBRANCH    9    8
ENDBRANCH   13   12
ENDBRANCH   14   13
ENDBRANCH   15   14
ENDBRANCH   18   17
ENDBRANCH   22   21
ENDBRANCH   24   22
ENDBRANCH   25   24
ENDBRANCH   26   25
ENDBRANCH   27   26
ENDBRANCH   28   27
ENDBRANCH   29   28
ENDBRANCH   30   29
ENDBRANCH   31   30
ENDBRANCH   32   31
ENDBRANCH   34   32
ENDBRANCH   38   37
BRANCH   42   43
ATOM     43  C32 UNL A   1      21.820  12.962   5.355  1.00  0.00    +0.000 C 
ATOM     44  C33 UNL A   1      23.054  12.798   4.691  1.00  0.00    +0.000 C 
ATOM     45  F1  UNL A   1      24.000  13.747   4.763  1.00  0.00    +0.000 F 
ATOM     46  C34 UNL A   1      23.304  11.707   3.855  1.00  0.00    +0.000 C 
ATOM     47  F2  UNL A   1      24.434  11.666   3.136  1.00  0.00    +0.000 F 
ATOM     48  C35 UNL A   1      22.361  10.707   3.707  1.00  0.00    +0.000 C 
ATOM     49  F3  UNL A   1      22.569   9.697   2.854  1.00  0.00    +0.000 F 
ATOM     50  C36 UNL A   1      21.178  10.787   4.410  1.00  0.00    +0.000 C 
ATOM     51  F4  UNL A   1      20.245   9.835   4.268  1.00  0.00    +0.000 F 
ATOM     52  C37 UNL A   1      20.903  11.900   5.201  1.00  0.00    +0.000 C 
ATOM     53  F5  UNL A   1      19.667  11.940   5.710  1.00  0.00    +0.000 F 
ENDBRANCH   42   43
BRANCH   59   60
ATOM     65  C46 UNL A   1      23.776  19.170  12.188  1.00  0.00    +0.000 C 
ATOM     66  F8  UNL A   1      23.622  20.084  13.158  1.00  0.00    +0.000 F 
ATOM     67  C47 UNL A   1      23.696  17.819  12.487  1.00  0.00    +0.000 C 
ATOM     68  F9  UNL A   1      23.441  17.426  13.742  1.00  0.00    +0.000 F 
ATOM     69  C48 UNL A   1      23.848  16.868  11.482  1.00  0.00    +0.000 C 
ATOM     70  F10 UNL A   1      23.738  15.570  11.804  1.00  0.00    +0.000 F 
ATOM     60  C43 UNL A   1      24.054  17.244  10.149  1.00  0.00    +0.000 C 
ATOM     61  C44 UNL A   1      24.096  18.621   9.867  1.00  0.00    +0.000 C 
ATOM     62  F6  UNL A   1      24.180  19.062   8.607  1.00  0.00    +0.000 F 
ATOM     63  C45 UNL A   1      23.984  19.573  10.880  1.00  0.00    +0.000 C 
ATOM     64  F7  UNL A   1      24.038  20.879  10.584  1.00  0.00    +0.000 F 
ENDBRANCH   59   60
BRANCH   74   75
ATOM     75  C52 UNL A   1      28.788  18.001   6.102  1.00  0.00    +0.000 C 
ATOM     76  C53 UNL A   1      29.839  18.280   6.991  1.00  0.00    +0.000 C 
ATOM     77  F11 UNL A   1      29.576  18.669   8.247  1.00  0.00    +0.000 F 
ATOM     78  C54 UNL A   1      31.179  18.093   6.630  1.00  0.00    +0.000 C 
ATOM     79  F12 UNL A   1      32.150  18.304   7.529  1.00  0.00    +0.000 F 
ATOM     80  C55 UNL A   1      31.506  17.632   5.365  1.00  0.00    +0.000 C 
ATOM     81  F13 UNL A   1      32.784  17.387   5.041  1.00  0.00    +0.000 F 
ATOM     82  C56 UNL A   1      30.499  17.383   4.454  1.00  0.00    +0.000 C 
ATOM     83  F14 UNL A   1      30.797  16.904   3.237  1.00  0.00    +0.000 F 
ATOM     84  C57 UNL A   1      29.162  17.562   4.815  1.00  0.00    +0.000 C 
ATOM     85  F15 UNL A   1      28.240  17.204   3.911  1.00  0.00    +0.000 F 
ENDBRANCH   74   75
TORSDOF 21
ENDMDL
MODEL 5
REMARK VINA RESULT:      -9.3     18.830     26.120
ROOT
ATOM    129  H27 UNL A   1      58.531  23.227  16.341  1.00  0.00    +0.000 H 
ATOM    130  H28 UNL A   1      54.592  22.624  17.041  1.00  0.00    +0.000 H 
ATOM    131  H29 UNL A   1      55.846  20.634   9.190  1.00  0.00    +0.000 H 
ATOM    132  H30 UNL A   1      56.939  22.926   9.362  1.00  0.00    +0.000 H 
ATOM    133  H31 UNL A   1      55.075  22.205  12.997  1.00  0.00    +0.000 H 
ATOM    134  H32 UNL A   1      52.308  20.699  13.521  1.00  0.00    +0.000 H 
ATOM    135  H33 UNL A   1      53.567  21.844  15.464  1.00  0.00    +0.000 H 
ATOM    136  H34 UNL A   1      53.257  27.130  14.131  1.00  0.00    +0.000 H 
ATOM    137  H35 UNL A   1      53.676  26.254  11.741  1.00  0.00    +0.000 H 
ATOM     38  C28 UNL A   1      55.945  24.469  11.618  1.00  0.00    +0.000 C 
ATOM     39  C29 UNL A   1      55.280  25.053  12.809  1.00  0.00    +0.000 C 
ATOM     40  N5  UNL A   1      55.658  24.948  14.040  1.00  0.00    +0.000 N 
ATOM     41  C30 UNL A   1      54.694  25.605  14.796  1.00  0.00    +0.000 C 
ATOM     42  C31 UNL A   1      54.467  25.246  16.090  1.00  0.00    +0.000 C 
ATOM     54  C38 UNL A   1      55.558  24.450  16.602  1.00  0.00    +0.000 C 
ATOM     55  C39 UNL A   1      56.915  24.659  16.752  1.00  0.00    +0.000 C 
ATOM     56  C40 UNL A   1      57.518  23.415  16.399  1.00  0.00    +0.000 C 
ATOM     57  C41 UNL A   1      56.497  22.499  16.146  1.00  0.00    +0.000 C 
ATOM     58  N6  UNL A   1      55.379  23.090  16.676  1.00  0.00    +0.000 N 
ATOM     59  C42 UNL A   1      56.472  21.236  15.450  1.00  0.00    +0.000 C 
ATOM     71  C49 UNL A   1      55.360  20.700  14.866  1.00  0.00    +0.000 C 
ATOM     72  N7  UNL A   1      55.468  19.746  13.864  1.00  0.00    +0.000 N 
ATOM     73  C50 UNL A   1      54.398  19.915  13.134  1.00  0.00    +0.000 C 
ATOM     74  C51 UNL A   1      54.424  19.889  11.646  1.00  0.00    +0.000 C 
ATOM     86  C58 UNL A   1      55.138  20.976  11.257  1.00  0.00    +0.000 C 
ATOM     87  C59 UNL A   1      55.794  21.267  10.004  1.00  0.00    +0.000 C 
ATOM     88  C60 UNL A   1      56.327  22.501  10.076  1.00  0.00    +0.000 C 
ATOM     89  C61 UNL A   1      55.907  23.150  11.322  1.00  0.00    +0.000 C 
ATOM     90  N8  UNL A   1      55.327  22.135  12.049  1.00  0.00    +0.000 N 
ATOM     91  C62 UNL A   1      53.306  20.630  13.777  1.00  0.00    +0.000 C 
ATOM     92  C63 UNL A   1      53.978  21.171  14.798  1.00  0.00    +0.000 C 
ATOM     93  C64 UNL A   1      53.912  26.377  13.867  1.00  0.00    +0.000 C 
ATOM     94  C65 UNL A   1      54.154  25.982  12.615  1.00  0.00    +0.000 C 
ATOM    128  H26 UNL A   1      57.390  25.524  17.053  1.00  0.00    +0.000 H 
ENDROOT
BRANCH   38   37
ATOM     34  C24 UNL A   1      57.090  27.399   8.835  1.00  0.00    +0.000 C 
ATOM     35  C25 UNL A   1      57.778  27.348  10.052  1.00  0.00    +0.000 C 
ATOM     36  C26 UNL A   1      57.466  26.338  10.957  1.00  0.00    +0.000 C 
ATOM     37  C27 UNL A   1      56.428  25.449  10.651  1.00  0.00    +0.000 C 
ATOM    138  H36 UNL A   1      54.903  24.950   9.281  1.00  0.00    +0.000 H 
ATOM    139  H37 UNL A   1      55.799  26.360   7.532  1.00  0.00    +0.000 H 
ATOM    127  H25 UNL A   1      57.992  26.246  11.840  1.00  0.00    +0.000 H 
ATOM    126  H24 UNL A   1      58.503  28.048  10.275  1.00  0.00    +0.000 H 
ATOM     95  C66 UNL A   1      55.733  25.540   9.450  1.00  0.00    +0.000 C 
ATOM     96  C67 UNL A   1      56.162  26.420   8.496  1.00  0.00    +0.000 C 
BRANCH   34   32
ATOM     33  O4  UNL A   1      58.405  28.988   7.723  1.00  0.00    +0.000 O 
ATOM     32  C23 UNL A   1      57.291  28.505   7.886  1.00  0.00    +0.000 C 
BRANCH   32   31
ATOM    125  H23 UNL A   1      56.146  28.716   6.235  1.00  0.00    +0.000 H 
ATOM     31  N4  UNL A   1      56.199  28.974   7.184  1.00  0.00    +0.000 N 
BRANCH   31   30
ATOM    123  H21 UNL A   1      54.834  29.469   8.667  1.00  0.00    +0.000 H 
ATOM    124  H22 UNL A   1      55.458  30.825   7.733  1.00  0.00    +0.000 H 
ATOM     30  C22 UNL A   1      55.113  29.813   7.693  1.00  0.00    +0.000 C 
BRANCH   30   29
ATOM    121  H19 UNL A   1      53.631  30.758   6.508  1.00  0.00    +0.000 H 
ATOM    122  H20 UNL A   1      54.162  29.169   5.930  1.00  0.00    +0.000 H 
ATOM     29  C21 UNL A   1      53.898  29.758   6.782  1.00  0.00    +0.000 C 
BRANCH   29   28
ATOM     28  C20 UNL A   1      52.684  29.091   7.446  1.00  0.00    +0.000 C 
ATOM    119  H17 UNL A   1      52.304  29.762   8.187  1.00  0.00    +0.000 H 
ATOM    120  H18 UNL A   1      51.995  28.884   6.654  1.00  0.00    +0.000 H 
BRANCH   28   27
ATOM     27  C19 UNL A   1      52.957  27.740   8.128  1.00  0.00    +0.000 C 
ATOM    117  H15 UNL A   1      52.771  26.964   7.415  1.00  0.00    +0.000 H 
ATOM    118  H16 UNL A   1      53.974  27.773   8.462  1.00  0.00    +0.000 H 
BRANCH   27   26
ATOM     26  C18 UNL A   1      52.104  27.459   9.372  1.00  0.00    +0.000 C 
ATOM    115  H13 UNL A   1      52.657  26.822  10.030  1.00  0.00    +0.000 H 
ATOM    116  H14 UNL A   1      51.879  28.400   9.829  1.00  0.00    +0.000 H 
BRANCH   26   25
ATOM     25  C17 UNL A   1      50.775  26.779   9.032  1.00  0.00    +0.000 C 
ATOM    114  H12 UNL A   1      50.253  27.363   8.303  1.00  0.00    +0.000 H 
ATOM    113  H11 UNL A   1      50.182  26.695   9.919  1.00  0.00    +0.000 H 
BRANCH   25   24
ATOM    112  H10 UNL A   1      51.611  25.457   7.703  1.00  0.00    +0.000 H 
ATOM     24  N3  UNL A   1      51.026  25.458   8.495  1.00  0.00    +0.000 N 
BRANCH   24   22
ATOM     22  C16 UNL A   1      50.608  24.208   8.870  1.00  0.00    +0.000 C 
ATOM     23  O3  UNL A   1      51.106  23.727   9.889  1.00  0.00    +0.000 O 
BRANCH   22   21
ATOM     97  C68 UNL A   1      49.188  23.732   6.794  1.00  0.00    +0.000 C 
ATOM     98  C69 UNL A   1      48.483  22.812   6.017  1.00  0.00    +0.000 C 
ATOM    140  H38 UNL A   1      49.356  24.684   6.431  1.00  0.00    +0.000 H 
ATOM    141  H39 UNL A   1      48.229  23.039   5.042  1.00  0.00    +0.000 H 
ATOM    110  H8  UNL A   1      48.119  20.409   8.329  1.00  0.00    +0.000 H 
ATOM    111  H9  UNL A   1      49.559  21.913   9.573  1.00  0.00    +0.000 H 
ATOM     18  C12 UNL A   1      48.124  21.584   6.570  1.00  0.00    +0.000 C 
ATOM     19  C13 UNL A   1      48.461  21.279   7.892  1.00  0.00    +0.000 C 
ATOM     20  C14 UNL A   1      49.263  22.161   8.617  1.00  0.00    +0.000 C 
ATOM     21  C15 UNL A   1      49.671  23.383   8.059  1.00  0.00    +0.000 C 
BRANCH   18   17
ATOM     99  N9  UNL A   1      47.395  19.343   6.106  1.00  0.00    +0.000 N 
ATOM    100  N10 UNL A   1      46.569  18.733   5.276  1.00  0.00    +0.000 N 
ATOM    109  H7  UNL A   1      46.466  21.778   4.199  1.00  0.00    +0.000 H 
ATOM     15  C10 UNL A   1      46.072  19.653   4.389  1.00  0.00    +0.000 C 
ATOM     16  C11 UNL A   1      46.611  20.885   4.694  1.00  0.00    +0.000 C 
ATOM     17  N2  UNL A   1      47.388  20.656   5.809  1.00  0.00    +0.000 N 
BRANCH   15   14
ATOM    107  H5  UNL A   1      45.191  20.001   2.527  1.00  0.00    +0.000 H 
ATOM    108  H6  UNL A   1      45.626  18.300   2.899  1.00  0.00    +0.000 H 
ATOM     14  C9  UNL A   1      45.203  19.216   3.255  1.00  0.00    +0.000 C 
BRANCH   14   13
ATOM     13  O2  UNL A   1      43.839  18.911   3.597  1.00  0.00    +0.000 O 
BRANCH   13   12
ATOM    101  C70 UNL A   1      43.045  19.778   1.439  1.00  0.00    +0.000 C 
ATOM    102  C71 UNL A   1      41.982  19.865   0.537  1.00  0.00    +0.000 C 
ATOM      9  C5  UNL A   1      40.697  19.475   0.919  1.00  0.00    +0.000 C 
ATOM     10  C6  UNL A   1      40.474  19.065   2.235  1.00  0.00    +0.000 C 
ATOM    105  H3  UNL A   1      39.516  18.853   2.555  1.00  0.00    +0.000 H 
ATOM     11  C7  UNL A   1      41.552  18.939   3.121  1.00  0.00    +0.000 C 
ATOM    106  H4  UNL A   1      41.384  18.626   4.089  1.00  0.00    +0.000 H 
ATOM     12  C8  UNL A   1      42.852  19.235   2.705  1.00  0.00    +0.000 C 
ATOM    143  H41 UNL A   1      42.147  20.220  -0.417  1.00  0.00    +0.000 H 
ATOM    142  H40 UNL A   1      43.979  20.120   1.162  1.00  0.00    +0.000 H 
BRANCH    9    8
ATOM    104  H2  UNL A   1      39.552  18.701  -0.724  1.00  0.00    +0.000 H 
ATOM      8  C4  UNL A   1      39.612  19.491  -0.063  1.00  0.00    +0.000 C 
BRANCH    8    7
ATOM      1  O1  UNL A   1      40.143  22.209  -0.948  1.00  0.00    +0.000 O 
ATOM      2  C1  UNL A   1      39.038  21.830  -0.634  1.00  0.00    +0.000 C 
ATOM      3  N1  UNL A   1      37.903  22.599  -0.671  1.00  0.00    +0.000 N 
ATOM      4  C2  UNL A   1      36.727  22.031  -0.291  1.00  0.00    +0.000 C 
ATOM      5  S1  UNL A   1      35.282  22.839  -0.282  1.00  0.00    +0.000 S 
ATOM      6  S2  UNL A   1      36.996  20.368   0.172  1.00  0.00    +0.000 S 
ATOM      7  C3  UNL A   1      38.690  20.459  -0.165  1.00  0.00    +0.000 C 
ATOM    103  H1  UNL A   1      37.939  23.537  -0.966  1.00  0.00    +0.000 H 
ENDBRANCH    8    7
ENDBRANCH    9    8
ENDBRANCH   13   12
ENDBRANCH   14   13
ENDBRANCH   15   14
ENDBRANCH   18   17
ENDBRANCH   22   21
ENDBRANCH   24   22
ENDBRANCH   25   24
ENDBRANCH   26   25
ENDBRANCH   27   26
ENDBRANCH   28   27
ENDBRANCH   29   28
ENDBRANCH   30   29
ENDBRANCH   31   30
ENDBRANCH   32   31
ENDBRANCH   34   32
ENDBRANCH   38   37
BRANCH   42   43
ATOM     43  C32 UNL A   1      53.116  25.265  16.765  1.00  0.00    +0.000 C 
ATOM     44  C33 UNL A   1      53.002  25.864  18.036  1.00  0.00    +0.000 C 
ATOM     45  F1  UNL A   1      53.980  26.650  18.512  1.00  0.00    +0.000 F 
ATOM     46  C34 UNL A   1      51.931  25.589  18.890  1.00  0.00    +0.000 C 
ATOM     47  F2  UNL A   1      51.936  26.071  20.140  1.00  0.00    +0.000 F 
ATOM     48  C35 UNL A   1      50.902  24.762  18.479  1.00  0.00    +0.000 C 
ATOM     49  F3  UNL A   1      49.910  24.441  19.318  1.00  0.00    +0.000 F 
ATOM     50  C36 UNL A   1      50.933  24.227  17.209  1.00  0.00    +0.000 C 
ATOM     51  F4  UNL A   1      49.953  23.411  16.798  1.00  0.00    +0.000 F 
ATOM     52  C37 UNL A   1      52.027  24.456  16.376  1.00  0.00    +0.000 C 
ATOM     53  F5  UNL A   1      52.020  23.764  15.231  1.00  0.00    +0.000 F 
ENDBRANCH   42   43
BRANCH   59   60
ATOM     65  C46 UNL A   1      60.401  19.539  14.885  1.00  0.00    +0.000 C 
ATOM     66  F8  UNL A   1      61.643  19.047  14.770  1.00  0.00    +0.000 F 
ATOM     67  C47 UNL A   1      59.591  19.144  15.938  1.00  0.00    +0.000 C 
ATOM     68  F9  UNL A   1      60.059  18.289  16.857  1.00  0.00    +0.000 F 
ATOM     69  C48 UNL A   1      58.304  19.659  16.064  1.00  0.00    +0.000 C 
ATOM     70  F10 UNL A   1      57.558  19.275  17.112  1.00  0.00    +0.000 F 
ATOM     60  C43 UNL A   1      57.804  20.602  15.157  1.00  0.00    +0.000 C 
ATOM     61  C44 UNL A   1      58.658  21.011  14.118  1.00  0.00    +0.000 C 
ATOM     62  F6  UNL A   1      58.297  21.986  13.276  1.00  0.00    +0.000 F 
ATOM     63  C45 UNL A   1      59.932  20.465  13.969  1.00  0.00    +0.000 C 
ATOM     64  F7  UNL A   1      60.722  20.866  12.962  1.00  0.00    +0.000 F 
ENDBRANCH   59   60
BRANCH   74   75
ATOM     75  C52 UNL A   1      53.548  19.012  10.830  1.00  0.00    +0.000 C 
ATOM     76  C53 UNL A   1      53.717  17.618  10.831  1.00  0.00    +0.000 C 
ATOM     77  F11 UNL A   1      54.805  17.069  11.390  1.00  0.00    +0.000 F 
ATOM     78  C54 UNL A   1      52.737  16.757  10.322  1.00  0.00    +0.000 C 
ATOM     79  F12 UNL A   1      52.905  15.430  10.403  1.00  0.00    +0.000 F 
ATOM     80  C55 UNL A   1      51.564  17.266   9.790  1.00  0.00    +0.000 C 
ATOM     81  F13 UNL A   1      50.596  16.441   9.366  1.00  0.00    +0.000 F 
ATOM     82  C56 UNL A   1      51.382  18.634   9.741  1.00  0.00    +0.000 C 
ATOM     83  F14 UNL A   1      50.237  19.142   9.260  1.00  0.00    +0.000 F 
ATOM     84  C57 UNL A   1      52.354  19.493  10.254  1.00  0.00    +0.000 C 
ATOM     85  F15 UNL A   1      52.061  20.801  10.263  1.00  0.00    +0.000 F 
ENDBRANCH   74   75
TORSDOF 21
ENDMDL
MODEL 6
REMARK VINA RESULT:      -9.2      6.679     10.894
ROOT
ATOM    129  H27 UNL A   1      42.981  29.922  29.007  1.00  0.00    +0.000 H 
ATOM    130  H28 UNL A   1      45.594  28.671  26.183  1.00  0.00    +0.000 H 
ATOM    131  H29 UNL A   1      42.241  21.897  29.354  1.00  0.00    +0.000 H 
ATOM    132  H30 UNL A   1      42.967  23.180  31.429  1.00  0.00    +0.000 H 
ATOM    133  H31 UNL A   1      44.387  25.290  28.152  1.00  0.00    +0.000 H 
ATOM    134  H32 UNL A   1      45.513  24.121  25.402  1.00  0.00    +0.000 H 
ATOM    135  H33 UNL A   1      45.614  26.655  25.889  1.00  0.00    +0.000 H 
ATOM    136  H34 UNL A   1      49.135  26.928  30.054  1.00  0.00    +0.000 H 
ATOM    137  H35 UNL A   1      47.908  24.803  30.851  1.00  0.00    +0.000 H 
ATOM     38  C28 UNL A   1      45.038  25.141  30.861  1.00  0.00    +0.000 C 
ATOM     39  C29 UNL A   1      46.084  26.049  30.327  1.00  0.00    +0.000 C 
ATOM     40  N5  UNL A   1      45.910  27.233  29.841  1.00  0.00    +0.000 N 
ATOM     41  C30 UNL A   1      47.163  27.663  29.417  1.00  0.00    +0.000 C 
ATOM     42  C31 UNL A   1      47.279  28.570  28.408  1.00  0.00    +0.000 C 
ATOM     54  C38 UNL A   1      46.021  29.239  28.172  1.00  0.00    +0.000 C 
ATOM     55  C39 UNL A   1      45.176  30.006  28.952  1.00  0.00    +0.000 C 
ATOM     56  C40 UNL A   1      43.862  29.597  28.579  1.00  0.00    +0.000 C 
ATOM     57  C41 UNL A   1      43.977  28.678  27.536  1.00  0.00    +0.000 C 
ATOM     58  N6  UNL A   1      45.268  28.829  27.099  1.00  0.00    +0.000 N 
ATOM     59  C42 UNL A   1      43.065  27.702  26.993  1.00  0.00    +0.000 C 
ATOM     71  C49 UNL A   1      43.450  26.571  26.330  1.00  0.00    +0.000 C 
ATOM     72  N7  UNL A   1      42.599  25.481  26.222  1.00  0.00    +0.000 N 
ATOM     73  C50 UNL A   1      43.398  24.449  26.142  1.00  0.00    +0.000 C 
ATOM     74  C51 UNL A   1      43.150  23.178  26.876  1.00  0.00    +0.000 C 
ATOM     86  C58 UNL A   1      43.283  23.467  28.196  1.00  0.00    +0.000 C 
ATOM     87  C59 UNL A   1      42.812  22.757  29.362  1.00  0.00    +0.000 C 
ATOM     88  C60 UNL A   1      43.241  23.407  30.460  1.00  0.00    +0.000 C 
ATOM     89  C61 UNL A   1      44.156  24.485  30.073  1.00  0.00    +0.000 C 
ATOM     90  N8  UNL A   1      44.019  24.564  28.705  1.00  0.00    +0.000 N 
ATOM     91  C62 UNL A   1      44.767  24.745  25.748  1.00  0.00    +0.000 C 
ATOM     92  C63 UNL A   1      44.772  26.063  25.968  1.00  0.00    +0.000 C 
ATOM     93  C64 UNL A   1      48.117  26.760  30.005  1.00  0.00    +0.000 C 
ATOM     94  C65 UNL A   1      47.500  25.675  30.478  1.00  0.00    +0.000 C 
ATOM    128  H26 UNL A   1      45.438  30.719  29.650  1.00  0.00    +0.000 H 
ENDROOT
BRANCH   38   37
ATOM     34  C24 UNL A   1      45.666  23.999  34.853  1.00  0.00    +0.000 C 
ATOM     35  C25 UNL A   1      45.855  25.344  34.520  1.00  0.00    +0.000 C 
ATOM     36  C26 UNL A   1      45.580  25.759  33.220  1.00  0.00    +0.000 C 
ATOM     37  C27 UNL A   1      45.190  24.804  32.271  1.00  0.00    +0.000 C 
ATOM    138  H36 UNL A   1      44.860  22.756  31.890  1.00  0.00    +0.000 H 
ATOM    139  H37 UNL A   1      44.837  22.163  34.234  1.00  0.00    +0.000 H 
ATOM    127  H25 UNL A   1      45.661  26.754  32.960  1.00  0.00    +0.000 H 
ATOM    126  H24 UNL A   1      46.193  26.018  35.226  1.00  0.00    +0.000 H 
ATOM     95  C66 UNL A   1      45.043  23.465  32.617  1.00  0.00    +0.000 C 
ATOM     96  C67 UNL A   1      45.144  23.099  33.930  1.00  0.00    +0.000 C 
BRANCH   34   32
ATOM     33  O4  UNL A   1      46.859  24.074  36.869  1.00  0.00    +0.000 O 
ATOM     32  C23 UNL A   1      46.047  23.475  36.174  1.00  0.00    +0.000 C 
BRANCH   32   31
ATOM    125  H23 UNL A   1      44.487  22.322  36.735  1.00  0.00    +0.000 H 
ATOM     31  N4  UNL A   1      45.463  22.303  36.609  1.00  0.00    +0.000 N 
BRANCH   31   30
ATOM    123  H21 UNL A   1      46.724  21.152  37.789  1.00  0.00    +0.000 H 
ATOM    124  H22 UNL A   1      45.387  20.283  37.044  1.00  0.00    +0.000 H 
ATOM     30  C22 UNL A   1      46.133  21.036  36.905  1.00  0.00    +0.000 C 
BRANCH   30   29
ATOM    121  H19 UNL A   1      46.685  19.672  35.379  1.00  0.00    +0.000 H 
ATOM    122  H20 UNL A   1      47.003  21.378  35.019  1.00  0.00    +0.000 H 
ATOM     29  C21 UNL A   1      47.037  20.607  35.760  1.00  0.00    +0.000 C 
BRANCH   29   28
ATOM     28  C20 UNL A   1      48.504  20.443  36.186  1.00  0.00    +0.000 C 
ATOM    119  H17 UNL A   1      48.516  20.140  37.212  1.00  0.00    +0.000 H 
ATOM    120  H18 UNL A   1      48.923  19.721  35.516  1.00  0.00    +0.000 H 
BRANCH   28   27
ATOM     27  C19 UNL A   1      49.380  21.699  36.053  1.00  0.00    +0.000 C 
ATOM    117  H15 UNL A   1      50.148  21.495  35.336  1.00  0.00    +0.000 H 
ATOM    118  H16 UNL A   1      48.725  22.492  35.758  1.00  0.00    +0.000 H 
BRANCH   27   26
ATOM     26  C18 UNL A   1      50.054  22.158  37.353  1.00  0.00    +0.000 C 
ATOM    115  H13 UNL A   1      51.005  21.674  37.434  1.00  0.00    +0.000 H 
ATOM    116  H14 UNL A   1      50.155  23.222  37.308  1.00  0.00    +0.000 H 
BRANCH   26   25
ATOM     25  C17 UNL A   1      49.225  21.823  38.595  1.00  0.00    +0.000 C 
ATOM    114  H12 UNL A   1      48.288  21.402  38.293  1.00  0.00    +0.000 H 
ATOM    113  H11 UNL A   1      49.054  22.716  39.160  1.00  0.00    +0.000 H 
BRANCH   25   24
ATOM    112  H10 UNL A   1      50.559  21.277  40.056  1.00  0.00    +0.000 H 
ATOM     24  N3  UNL A   1      49.936  20.864  39.415  1.00  0.00    +0.000 N 
BRANCH   24   22
ATOM     22  C16 UNL A   1      49.913  19.495  39.475  1.00  0.00    +0.000 C 
ATOM     23  O3  UNL A   1      50.896  18.893  39.043  1.00  0.00    +0.000 O 
BRANCH   22   21
ATOM     97  C68 UNL A   1      48.602  18.142  41.207  1.00  0.00    +0.000 C 
ATOM     98  C69 UNL A   1      47.382  17.613  41.633  1.00  0.00    +0.000 C 
ATOM    140  H38 UNL A   1      49.420  18.105  41.835  1.00  0.00    +0.000 H 
ATOM    141  H39 UNL A   1      47.265  17.292  42.607  1.00  0.00    +0.000 H 
ATOM    110  H8  UNL A   1      45.732  17.802  38.718  1.00  0.00    +0.000 H 
ATOM    111  H9  UNL A   1      47.771  18.947  38.071  1.00  0.00    +0.000 H 
ATOM     18  C12 UNL A   1      46.324  17.523  40.730  1.00  0.00    +0.000 C 
ATOM     19  C13 UNL A   1      46.485  17.951  39.409  1.00  0.00    +0.000 C 
ATOM     20  C14 UNL A   1      47.671  18.580  39.031  1.00  0.00    +0.000 C 
ATOM     21  C15 UNL A   1      48.730  18.719  39.940  1.00  0.00    +0.000 C 
BRANCH   18   17
ATOM     99  N9  UNL A   1      44.637  17.121  42.391  1.00  0.00    +0.000 N 
ATOM    100  N10 UNL A   1      43.444  16.560  42.461  1.00  0.00    +0.000 N 
ATOM    109  H7  UNL A   1      44.331  15.864  39.433  1.00  0.00    +0.000 H 
ATOM     15  C10 UNL A   1      43.157  15.976  41.254  1.00  0.00    +0.000 C 
ATOM     16  C11 UNL A   1      44.219  16.198  40.402  1.00  0.00    +0.000 C 
ATOM     17  N2  UNL A   1      45.096  16.966  41.135  1.00  0.00    +0.000 N 
BRANCH   15   14
ATOM    107  H5  UNL A   1      41.212  15.743  40.531  1.00  0.00    +0.000 H 
ATOM    108  H6  UNL A   1      42.224  14.263  40.588  1.00  0.00    +0.000 H 
ATOM     14  C9  UNL A   1      41.918  15.160  41.085  1.00  0.00    +0.000 C 
BRANCH   14   13
ATOM     13  O2  UNL A   1      41.280  14.735  42.303  1.00  0.00    +0.000 O 
BRANCH   13   12
ATOM    101  C70 UNL A   1      42.070  12.413  42.473  1.00  0.00    +0.000 C 
ATOM    102  C71 UNL A   1      42.817  11.487  43.204  1.00  0.00    +0.000 C 
ATOM      9  C5  UNL A   1      43.260  11.794  44.491  1.00  0.00    +0.000 C 
ATOM     10  C6  UNL A   1      42.886  13.010  45.067  1.00  0.00    +0.000 C 
ATOM    105  H3  UNL A   1      43.134  13.215  46.048  1.00  0.00    +0.000 H 
ATOM     11  C7  UNL A   1      42.173  13.951  44.314  1.00  0.00    +0.000 C 
ATOM    106  H4  UNL A   1      41.907  14.851  44.740  1.00  0.00    +0.000 H 
ATOM     12  C8  UNL A   1      41.818  13.681  42.990  1.00  0.00    +0.000 C 
ATOM    143  H41 UNL A   1      43.044  10.570  42.788  1.00  0.00    +0.000 H 
ATOM    142  H40 UNL A   1      41.702  12.155  41.543  1.00  0.00    +0.000 H 
BRANCH    9    8
ATOM    104  H2  UNL A   1      43.911   9.841  45.103  1.00  0.00    +0.000 H 
ATOM      8  C4  UNL A   1      44.115  10.847  45.209  1.00  0.00    +0.000 C 
BRANCH    8    7
ATOM      1  O1  UNL A   1      46.520  12.201  44.297  1.00  0.00    +0.000 O 
ATOM      2  C1  UNL A   1      46.344  11.893  45.454  1.00  0.00    +0.000 C 
ATOM      3  N1  UNL A   1      47.218  12.153  46.478  1.00  0.00    +0.000 N 
ATOM      4  C2  UNL A   1      46.880  11.749  47.732  1.00  0.00    +0.000 C 
ATOM      5  S1  UNL A   1      47.838  11.991  49.060  1.00  0.00    +0.000 S 
ATOM      6  S2  UNL A   1      45.322  10.957  47.699  1.00  0.00    +0.000 S 
ATOM      7  C3  UNL A   1      45.144  11.193  45.994  1.00  0.00    +0.000 C 
ATOM    103  H1  UNL A   1      48.068  12.619  46.309  1.00  0.00    +0.000 H 
ENDBRANCH    8    7
ENDBRANCH    9    8
ENDBRANCH   13   12
ENDBRANCH   14   13
ENDBRANCH   15   14
ENDBRANCH   18   17
ENDBRANCH   22   21
ENDBRANCH   24   22
ENDBRANCH   25   24
ENDBRANCH   26   25
ENDBRANCH   27   26
ENDBRANCH   28   27
ENDBRANCH   29   28
ENDBRANCH   30   29
ENDBRANCH   31   30
ENDBRANCH   32   31
ENDBRANCH   34   32
ENDBRANCH   38   37
BRANCH   42   43
ATOM     43  C32 UNL A   1      48.385  28.578  27.380  1.00  0.00    +0.000 C 
ATOM     44  C33 UNL A   1      48.633  27.403  26.641  1.00  0.00    +0.000 C 
ATOM     45  F1  UNL A   1      47.741  26.400  26.632  1.00  0.00    +0.000 F 
ATOM     46  C34 UNL A   1      49.845  27.188  25.981  1.00  0.00    +0.000 C 
ATOM     47  F2  UNL A   1      50.089  25.999  25.411  1.00  0.00    +0.000 F 
ATOM     48  C35 UNL A   1      50.824  28.164  25.975  1.00  0.00    +0.000 C 
ATOM     49  F3  UNL A   1      52.011  27.934  25.403  1.00  0.00    +0.000 F 
ATOM     50  C36 UNL A   1      50.583  29.363  26.611  1.00  0.00    +0.000 C 
ATOM     51  F4  UNL A   1      51.524  30.316  26.630  1.00  0.00    +0.000 F 
ATOM     52  C37 UNL A   1      49.398  29.560  27.317  1.00  0.00    +0.000 C 
ATOM     53  F5  UNL A   1      49.340  30.696  28.019  1.00  0.00    +0.000 F 
ENDBRANCH   42   43
BRANCH   59   60
ATOM     65  C46 UNL A   1      38.973  28.389  28.184  1.00  0.00    +0.000 C 
ATOM     66  F8  UNL A   1      37.719  28.672  28.567  1.00  0.00    +0.000 F 
ATOM     67  C47 UNL A   1      39.487  28.944  27.023  1.00  0.00    +0.000 C 
ATOM     68  F9  UNL A   1      38.740  29.784  26.295  1.00  0.00    +0.000 F 
ATOM     69  C48 UNL A   1      40.790  28.657  26.626  1.00  0.00    +0.000 C 
ATOM     70  F10 UNL A   1      41.264  29.234  25.510  1.00  0.00    +0.000 F 
ATOM     60  C43 UNL A   1      41.621  27.832  27.394  1.00  0.00    +0.000 C 
ATOM     61  C44 UNL A   1      41.086  27.310  28.585  1.00  0.00    +0.000 C 
ATOM     62  F6  UNL A   1      41.848  26.604  29.429  1.00  0.00    +0.000 F 
ATOM     63  C45 UNL A   1      39.768  27.564  28.961  1.00  0.00    +0.000 C 
ATOM     64  F7  UNL A   1      39.281  27.045  30.097  1.00  0.00    +0.000 F 
ENDBRANCH   59   60
BRANCH   74   75
ATOM     75  C52 UNL A   1      43.104  21.851  26.215  1.00  0.00    +0.000 C 
ATOM     76  C53 UNL A   1      44.278  21.226  25.762  1.00  0.00    +0.000 C 
ATOM     77  F11 UNL A   1      45.431  21.908  25.717  1.00  0.00    +0.000 F 
ATOM     78  C54 UNL A   1      44.304  19.870  25.415  1.00  0.00    +0.000 C 
ATOM     79  F12 UNL A   1      45.458  19.295  25.053  1.00  0.00    +0.000 F 
ATOM     80  C55 UNL A   1      43.155  19.102  25.503  1.00  0.00    +0.000 C 
ATOM     81  F13 UNL A   1      43.194  17.788  25.238  1.00  0.00    +0.000 F 
ATOM     82  C56 UNL A   1      41.975  19.693  25.911  1.00  0.00    +0.000 C 
ATOM     83  F14 UNL A   1      40.862  18.955  26.033  1.00  0.00    +0.000 F 
ATOM     84  C57 UNL A   1      41.949  21.043  26.264  1.00  0.00    +0.000 C 
ATOM     85  F15 UNL A   1      40.793  21.519  26.744  1.00  0.00    +0.000 F 
ENDBRANCH   74   75
TORSDOF 21
ENDMDL
MODEL 7
REMARK VINA RESULT:      -9.2     22.770     28.394
ROOT
ATOM    129  H27 UNL A   1      18.532  38.620  46.463  1.00  0.00    +0.000 H 
ATOM    130  H28 UNL A   1      18.971  34.630  46.967  1.00  0.00    +0.000 H 
ATOM    131  H29 UNL A   1      24.644  38.169  51.708  1.00  0.00    +0.000 H 
ATOM    132  H30 UNL A   1      24.999  39.319  49.465  1.00  0.00    +0.000 H 
ATOM    133  H31 UNL A   1      22.173  36.345  48.857  1.00  0.00    +0.000 H 
ATOM    134  H32 UNL A   1      22.048  33.451  50.201  1.00  0.00    +0.000 H 
ATOM    135  H33 UNL A   1      20.382  34.106  48.340  1.00  0.00    +0.000 H 
ATOM    136  H34 UNL A   1      23.619  34.637  43.975  1.00  0.00    +0.000 H 
ATOM    137  H35 UNL A   1      25.233  35.729  45.666  1.00  0.00    +0.000 H 
ATOM     38  C28 UNL A   1      23.938  37.778  47.240  1.00  0.00    +0.000 C 
ATOM     39  C29 UNL A   1      23.336  36.813  46.285  1.00  0.00    +0.000 C 
ATOM     40  N5  UNL A   1      22.105  36.770  45.897  1.00  0.00    +0.000 N 
ATOM     41  C30 UNL A   1      22.005  35.667  45.056  1.00  0.00    +0.000 C 
ATOM     42  C31 UNL A   1      20.820  35.013  44.910  1.00  0.00    +0.000 C 
ATOM     54  C38 UNL A   1      19.725  35.820  45.394  1.00  0.00    +0.000 C 
ATOM     55  C39 UNL A   1      19.233  37.071  45.071  1.00  0.00    +0.000 C 
ATOM     56  C40 UNL A   1      18.879  37.659  46.322  1.00  0.00    +0.000 C 
ATOM     57  C41 UNL A   1      19.087  36.706  47.319  1.00  0.00    +0.000 C 
ATOM     58  N6  UNL A   1      19.209  35.525  46.633  1.00  0.00    +0.000 N 
ATOM     59  C42 UNL A   1      19.227  36.809  48.751  1.00  0.00    +0.000 C 
ATOM     71  C49 UNL A   1      19.894  35.905  49.527  1.00  0.00    +0.000 C 
ATOM     72  N7  UNL A   1      20.372  36.254  50.782  1.00  0.00    +0.000 N 
ATOM     73  C50 UNL A   1      21.416  35.489  50.959  1.00  0.00    +0.000 C 
ATOM     74  C51 UNL A   1      22.691  35.986  51.544  1.00  0.00    +0.000 C 
ATOM     86  C58 UNL A   1      23.204  36.867  50.648  1.00  0.00    +0.000 C 
ATOM     87  C59 UNL A   1      24.191  37.908  50.818  1.00  0.00    +0.000 C 
ATOM     88  C60 UNL A   1      24.417  38.481  49.621  1.00  0.00    +0.000 C 
ATOM     89  C61 UNL A   1      23.714  37.737  48.573  1.00  0.00    +0.000 C 
ATOM     90  N8  UNL A   1      22.889  36.880  49.268  1.00  0.00    +0.000 N 
ATOM     91  C62 UNL A   1      21.478  34.306  50.114  1.00  0.00    +0.000 C 
ATOM     92  C63 UNL A   1      20.576  34.656  49.192  1.00  0.00    +0.000 C 
ATOM     93  C64 UNL A   1      23.355  35.283  44.736  1.00  0.00    +0.000 C 
ATOM     94  C65 UNL A   1      24.217  35.881  45.562  1.00  0.00    +0.000 C 
ATOM    128  H26 UNL A   1      19.142  37.488  44.132  1.00  0.00    +0.000 H 
ENDROOT
BRANCH   38   37
ATOM     34  C24 UNL A   1      26.921  40.365  45.809  1.00  0.00    +0.000 C 
ATOM     35  C25 UNL A   1      27.297  39.066  46.165  1.00  0.00    +0.000 C 
ATOM     36  C26 UNL A   1      26.313  38.169  46.569  1.00  0.00    +0.000 C 
ATOM     37  C27 UNL A   1      24.989  38.616  46.674  1.00  0.00    +0.000 C 
ATOM    138  H36 UNL A   1      23.688  40.270  46.531  1.00  0.00    +0.000 H 
ATOM    139  H37 UNL A   1      25.300  41.633  45.351  1.00  0.00    +0.000 H 
ATOM    127  H25 UNL A   1      26.554  37.190  46.789  1.00  0.00    +0.000 H 
ATOM    126  H24 UNL A   1      28.288  38.777  46.128  1.00  0.00    +0.000 H 
ATOM     95  C66 UNL A   1      24.643  39.922  46.349  1.00  0.00    +0.000 C 
ATOM     96  C67 UNL A   1      25.582  40.742  45.788  1.00  0.00    +0.000 C 
BRANCH   34   32
ATOM     33  O4  UNL A   1      28.689  41.234  44.541  1.00  0.00    +0.000 O 
ATOM     32  C23 UNL A   1      27.923  41.392  45.483  1.00  0.00    +0.000 C 
BRANCH   32   31
ATOM    125  H23 UNL A   1      27.372  43.266  45.993  1.00  0.00    +0.000 H 
ATOM     31  N4  UNL A   1      27.971  42.532  46.259  1.00  0.00    +0.000 N 
BRANCH   31   30
ATOM    123  H21 UNL A   1      28.761  43.806  47.695  1.00  0.00    +0.000 H 
ATOM    124  H22 UNL A   1      28.458  42.157  48.233  1.00  0.00    +0.000 H 
ATOM     30  C22 UNL A   1      28.813  42.770  47.432  1.00  0.00    +0.000 C 
BRANCH   30   29
ATOM    121  H19 UNL A   1      30.345  41.337  47.125  1.00  0.00    +0.000 H 
ATOM    122  H20 UNL A   1      30.535  42.852  46.225  1.00  0.00    +0.000 H 
ATOM     29  C21 UNL A   1      30.263  42.404  47.157  1.00  0.00    +0.000 C 
BRANCH   29   28
ATOM     28  C20 UNL A   1      31.228  42.939  48.225  1.00  0.00    +0.000 C 
ATOM    119  H17 UNL A   1      30.682  43.610  48.854  1.00  0.00    +0.000 H 
ATOM    120  H18 UNL A   1      31.606  42.078  48.735  1.00  0.00    +0.000 H 
BRANCH   28   27
ATOM     27  C19 UNL A   1      32.461  43.688  47.693  1.00  0.00    +0.000 C 
ATOM    117  H15 UNL A   1      32.460  44.672  48.114  1.00  0.00    +0.000 H 
ATOM    118  H16 UNL A   1      33.312  43.106  47.979  1.00  0.00    +0.000 H 
BRANCH   27   26
ATOM     26  C18 UNL A   1      32.525  43.824  46.166  1.00  0.00    +0.000 C 
ATOM    115  H13 UNL A   1      31.710  43.277  45.739  1.00  0.00    +0.000 H 
ATOM    116  H14 UNL A   1      32.466  44.866  45.931  1.00  0.00    +0.000 H 
BRANCH   26   25
ATOM     25  C17 UNL A   1      33.835  43.290  45.582  1.00  0.00    +0.000 C 
ATOM    114  H12 UNL A   1      34.604  43.350  46.324  1.00  0.00    +0.000 H 
ATOM    113  H11 UNL A   1      34.109  43.876  44.730  1.00  0.00    +0.000 H 
BRANCH   25   24
ATOM    112  H10 UNL A   1      33.861  41.745  44.231  1.00  0.00    +0.000 H 
ATOM     24  N3  UNL A   1      33.665  41.909  45.182  1.00  0.00    +0.000 N 
BRANCH   24   22
ATOM     22  C16 UNL A   1      33.285  40.783  45.866  1.00  0.00    +0.000 C 
ATOM     23  O3  UNL A   1      33.858  40.547  46.930  1.00  0.00    +0.000 O 
BRANCH   22   21
ATOM     97  C68 UNL A   1      31.917  39.695  43.996  1.00  0.00    +0.000 C 
ATOM     98  C69 UNL A   1      31.149  38.618  43.552  1.00  0.00    +0.000 C 
ATOM    140  H38 UNL A   1      32.208  40.424  43.325  1.00  0.00    +0.000 H 
ATOM    141  H39 UNL A   1      30.967  38.487  42.545  1.00  0.00    +0.000 H 
ATOM    110  H8  UNL A   1      30.409  37.292  46.544  1.00  0.00    +0.000 H 
ATOM    111  H9  UNL A   1      31.951  39.019  47.269  1.00  0.00    +0.000 H 
ATOM     18  C12 UNL A   1      30.628  37.721  44.484  1.00  0.00    +0.000 C 
ATOM     19  C13 UNL A   1      30.867  37.903  45.849  1.00  0.00    +0.000 C 
ATOM     20  C14 UNL A   1      31.729  38.917  46.266  1.00  0.00    +0.000 C 
ATOM     21  C15 UNL A   1      32.298  39.802  45.337  1.00  0.00    +0.000 C 
BRANCH   18   17
ATOM     99  N9  UNL A   1      30.036  36.044  42.870  1.00  0.00    +0.000 N 
ATOM    100  N10 UNL A   1      29.190  35.035  42.770  1.00  0.00    +0.000 N 
ATOM    109  H7  UNL A   1      28.321  36.355  45.589  1.00  0.00    +0.000 H 
ATOM     15  C10 UNL A   1      28.380  35.024  43.876  1.00  0.00    +0.000 C 
ATOM     16  C11 UNL A   1      28.752  36.069  44.696  1.00  0.00    +0.000 C 
ATOM     17  N2  UNL A   1      29.827  36.645  44.056  1.00  0.00    +0.000 N 
BRANCH   15   14
ATOM    107  H5  UNL A   1      26.518  34.330  43.232  1.00  0.00    +0.000 H 
ATOM    108  H6  UNL A   1      27.672  33.089  43.823  1.00  0.00    +0.000 H 
ATOM     14  C9  UNL A   1      27.244  34.059  43.971  1.00  0.00    +0.000 C 
BRANCH   14   13
ATOM     13  O2  UNL A   1      26.578  34.002  45.245  1.00  0.00    +0.000 O 
BRANCH   13   12
ATOM    101  C70 UNL A   1      25.421  31.933  45.892  1.00  0.00    +0.000 C 
ATOM    102  C71 UNL A   1      25.543  30.642  46.410  1.00  0.00    +0.000 C 
ATOM      9  C5  UNL A   1      26.737  30.229  47.003  1.00  0.00    +0.000 C 
ATOM     10  C6  UNL A   1      27.783  31.145  47.137  1.00  0.00    +0.000 C 
ATOM    105  H3  UNL A   1      28.640  30.879  47.647  1.00  0.00    +0.000 H 
ATOM     11  C7  UNL A   1      27.668  32.423  46.577  1.00  0.00    +0.000 C 
ATOM    106  H4  UNL A   1      28.447  33.093  46.669  1.00  0.00    +0.000 H 
ATOM     12  C8  UNL A   1      26.509  32.800  45.895  1.00  0.00    +0.000 C 
ATOM    143  H41 UNL A   1      24.746  29.989  46.353  1.00  0.00    +0.000 H 
ATOM    142  H40 UNL A   1      24.516  32.245  45.504  1.00  0.00    +0.000 H 
BRANCH    9    8
ATOM    104  H2  UNL A   1      26.324  28.121  46.981  1.00  0.00    +0.000 H 
ATOM      8  C4  UNL A   1      26.878  28.846  47.464  1.00  0.00    +0.000 C 
BRANCH    8    7
ATOM      1  O1  UNL A   1      29.458  27.549  47.127  1.00  0.00    +0.000 O 
ATOM      2  C1  UNL A   1      28.991  27.800  48.215  1.00  0.00    +0.000 C 
ATOM      3  N1  UNL A   1      29.605  27.538  49.413  1.00  0.00    +0.000 N 
ATOM      4  C2  UNL A   1      28.957  27.883  50.558  1.00  0.00    +0.000 C 
ATOM      5  S1  UNL A   1      29.575  27.624  52.072  1.00  0.00    +0.000 S 
ATOM      6  S2  UNL A   1      27.418  28.614  50.169  1.00  0.00    +0.000 S 
ATOM      7  C3  UNL A   1      27.676  28.454  48.466  1.00  0.00    +0.000 C 
ATOM    103  H1  UNL A   1      30.491  27.112  49.442  1.00  0.00    +0.000 H 
ENDBRANCH    8    7
ENDBRANCH    9    8
ENDBRANCH   13   12
ENDBRANCH   14   13
ENDBRANCH   15   14
ENDBRANCH   18   17
ENDBRANCH   22   21
ENDBRANCH   24   22
ENDBRANCH   25   24
ENDBRANCH   26   25
ENDBRANCH   27   26
ENDBRANCH   28   27
ENDBRANCH   29   28
ENDBRANCH   30   29
ENDBRANCH   31   30
ENDBRANCH   32   31
ENDBRANCH   34   32
ENDBRANCH   38   37
BRANCH   42   43
ATOM     43  C32 UNL A   1      20.677  33.523  44.711  1.00  0.00    +0.000 C 
ATOM     44  C33 UNL A   1      19.624  33.045  43.905  1.00  0.00    +0.000 C 
ATOM     45  F1  UNL A   1      18.944  33.879  43.102  1.00  0.00    +0.000 F 
ATOM     46  C34 UNL A   1      19.176  31.723  43.979  1.00  0.00    +0.000 C 
ATOM     47  F2  UNL A   1      18.083  31.352  43.298  1.00  0.00    +0.000 F 
ATOM     48  C35 UNL A   1      19.808  30.816  44.809  1.00  0.00    +0.000 C 
ATOM     49  F3  UNL A   1      19.339  29.568  44.935  1.00  0.00    +0.000 F 
ATOM     50  C36 UNL A   1      20.898  31.223  45.547  1.00  0.00    +0.000 C 
ATOM     51  F4  UNL A   1      21.515  30.362  46.368  1.00  0.00    +0.000 F 
ATOM     52  C37 UNL A   1      21.313  32.553  45.516  1.00  0.00    +0.000 C 
ATOM     53  F5  UNL A   1      22.279  32.864  46.386  1.00  0.00    +0.000 F 
ENDBRANCH   42   43
BRANCH   59   60
ATOM     65  C46 UNL A   1      17.813  40.573  50.321  1.00  0.00    +0.000 C 
ATOM     66  F8  UNL A   1      17.327  41.746  50.752  1.00  0.00    +0.000 F 
ATOM     67  C47 UNL A   1      17.010  39.443  50.329  1.00  0.00    +0.000 C 
ATOM     68  F9  UNL A   1      15.740  39.528  50.745  1.00  0.00    +0.000 F 
ATOM     69  C48 UNL A   1      17.509  38.226  49.876  1.00  0.00    +0.000 C 
ATOM     70  F10 UNL A   1      16.696  37.158  49.873  1.00  0.00    +0.000 F 
ATOM     60  C43 UNL A   1      18.813  38.113  49.376  1.00  0.00    +0.000 C 
ATOM     61  C44 UNL A   1      19.594  39.282  49.346  1.00  0.00    +0.000 C 
ATOM     62  F6  UNL A   1      20.809  39.282  48.785  1.00  0.00    +0.000 F 
ATOM     63  C45 UNL A   1      19.108  40.492  49.838  1.00  0.00    +0.000 C 
ATOM     64  F7  UNL A   1      19.878  41.589  49.807  1.00  0.00    +0.000 F 
ENDBRANCH   59   60
BRANCH   74   75
ATOM     75  C52 UNL A   1      23.355  35.353  52.710  1.00  0.00    +0.000 C 
ATOM     76  C53 UNL A   1      22.677  35.193  53.930  1.00  0.00    +0.000 C 
ATOM     77  F11 UNL A   1      21.501  35.803  54.135  1.00  0.00    +0.000 F 
ATOM     78  C54 UNL A   1      23.159  34.345  54.935  1.00  0.00    +0.000 C 
ATOM     79  F12 UNL A   1      22.449  34.166  56.057  1.00  0.00    +0.000 F 
ATOM     80  C55 UNL A   1      24.337  33.640  54.751  1.00  0.00    +0.000 C 
ATOM     81  F13 UNL A   1      24.764  32.775  55.683  1.00  0.00    +0.000 F 
ATOM     82  C56 UNL A   1      25.047  33.802  53.578  1.00  0.00    +0.000 C 
ATOM     83  F14 UNL A   1      26.172  33.101  53.371  1.00  0.00    +0.000 F 
ATOM     84  C57 UNL A   1      24.564  34.641  52.573  1.00  0.00    +0.000 C 
ATOM     85  F15 UNL A   1      25.256  34.668  51.425  1.00  0.00    +0.000 F 
ENDBRANCH   74   75
TORSDOF 21
ENDMDL
MODEL 8
REMARK VINA RESULT:      -9.1     40.177     44.976
ROOT
ATOM    129  H27 UNL A   1       5.878  16.168  38.895  1.00  0.00    +0.000 H 
ATOM    130  H28 UNL A   1       6.396  13.754  42.100  1.00  0.00    +0.000 H 
ATOM    131  H29 UNL A   1       2.517   9.254  36.453  1.00  0.00    +0.000 H 
ATOM    132  H30 UNL A   1       1.107  11.371  36.539  1.00  0.00    +0.000 H 
ATOM    133  H31 UNL A   1       3.948  11.694  39.544  1.00  0.00    +0.000 H 
ATOM    134  H32 UNL A   1       5.108   9.374  41.407  1.00  0.00    +0.000 H 
ATOM    135  H33 UNL A   1       5.759  11.839  41.822  1.00  0.00    +0.000 H 
ATOM    136  H34 UNL A   1       1.026  14.078  43.369  1.00  0.00    +0.000 H 
ATOM    137  H35 UNL A   1       0.042  12.571  41.520  1.00  0.00    +0.000 H 
ATOM     38  C28 UNL A   1       1.462  12.848  39.019  1.00  0.00    +0.000 C 
ATOM     39  C29 UNL A   1       1.801  13.405  40.352  1.00  0.00    +0.000 C 
ATOM     40  N5  UNL A   1       2.766  14.218  40.633  1.00  0.00    +0.000 N 
ATOM     41  C30 UNL A   1       2.722  14.407  42.010  1.00  0.00    +0.000 C 
ATOM     42  C31 UNL A   1       3.850  14.730  42.700  1.00  0.00    +0.000 C 
ATOM     54  C38 UNL A   1       4.883  15.198  41.806  1.00  0.00    +0.000 C 
ATOM     55  C39 UNL A   1       4.975  16.235  40.897  1.00  0.00    +0.000 C 
ATOM     56  C40 UNL A   1       5.681  15.687  39.786  1.00  0.00    +0.000 C 
ATOM     57  C41 UNL A   1       6.059  14.385  40.116  1.00  0.00    +0.000 C 
ATOM     58  N6  UNL A   1       5.889  14.323  41.476  1.00  0.00    +0.000 N 
ATOM     59  C42 UNL A   1       6.478  13.260  39.317  1.00  0.00    +0.000 C 
ATOM     71  C49 UNL A   1       6.345  11.955  39.694  1.00  0.00    +0.000 C 
ATOM     72  N7  UNL A   1       6.346  10.935  38.753  1.00  0.00    +0.000 N 
ATOM     73  C50 UNL A   1       5.612   9.995  39.288  1.00  0.00    +0.000 C 
ATOM     74  C51 UNL A   1       4.604   9.220  38.514  1.00  0.00    +0.000 C 
ATOM     86  C58 UNL A   1       3.630  10.099  38.167  1.00  0.00    +0.000 C 
ATOM     87  C59 UNL A   1       2.622  10.020  37.136  1.00  0.00    +0.000 C 
ATOM     88  C60 UNL A   1       1.843  11.116  37.216  1.00  0.00    +0.000 C 
ATOM     89  C61 UNL A   1       2.197  11.891  38.409  1.00  0.00    +0.000 C 
ATOM     90  N8  UNL A   1       3.368  11.313  38.847  1.00  0.00    +0.000 N 
ATOM     91  C62 UNL A   1       5.435  10.081  40.730  1.00  0.00    +0.000 C 
ATOM     92  C63 UNL A   1       5.822  11.347  40.917  1.00  0.00    +0.000 C 
ATOM     93  C64 UNL A   1       1.448  13.897  42.444  1.00  0.00    +0.000 C 
ATOM     94  C65 UNL A   1       0.889  13.160  41.482  1.00  0.00    +0.000 C 
ATOM    128  H26 UNL A   1       4.612  17.196  40.999  1.00  0.00    +0.000 H 
ENDROOT
BRANCH   38   37
ATOM     34  C24 UNL A   1      -2.247  13.884  37.345  1.00  0.00    +0.000 C 
ATOM     35  C25 UNL A   1      -2.202  12.781  38.203  1.00  0.00    +0.000 C 
ATOM     36  C26 UNL A   1      -0.999  12.465  38.828  1.00  0.00    +0.000 C 
ATOM     37  C27 UNL A   1       0.142  13.220  38.524  1.00  0.00    +0.000 C 
ATOM    138  H36 UNL A   1       0.945  14.772  37.342  1.00  0.00    +0.000 H 
ATOM    139  H37 UNL A   1      -1.227  15.608  36.687  1.00  0.00    +0.000 H 
ATOM    127  H25 UNL A   1      -0.948  11.688  39.504  1.00  0.00    +0.000 H 
ATOM    126  H24 UNL A   1      -3.046  12.209  38.369  1.00  0.00    +0.000 H 
ATOM     95  C66 UNL A   1       0.082  14.291  37.640  1.00  0.00    +0.000 C 
ATOM     96  C67 UNL A   1      -1.135  14.701  37.169  1.00  0.00    +0.000 C 
BRANCH   34   32
ATOM     33  O4  UNL A   1      -4.288  14.985  37.006  1.00  0.00    +0.000 O 
ATOM     32  C23 UNL A   1      -3.455  14.202  36.567  1.00  0.00    +0.000 C 
BRANCH   32   31
ATOM    125  H23 UNL A   1      -4.017  14.161  34.628  1.00  0.00    +0.000 H 
ATOM     31  N4  UNL A   1      -3.619  13.603  35.334  1.00  0.00    +0.000 N 
BRANCH   31   30
ATOM    123  H21 UNL A   1      -3.424  11.591  35.805  1.00  0.00    +0.000 H 
ATOM    124  H22 UNL A   1      -3.885  11.936  34.141  1.00  0.00    +0.000 H 
ATOM     30  C22 UNL A   1      -3.267  12.232  34.962  1.00  0.00    +0.000 C 
BRANCH   30   29
ATOM    121  H19 UNL A   1      -1.719  12.557  33.551  1.00  0.00    +0.000 H 
ATOM    122  H20 UNL A   1      -1.226  12.657  35.251  1.00  0.00    +0.000 H 
ATOM     29  C21 UNL A   1      -1.814  12.131  34.528  1.00  0.00    +0.000 C 
BRANCH   29   28
ATOM     28  C20 UNL A   1      -1.303  10.683  34.484  1.00  0.00    +0.000 C 
ATOM    119  H17 UNL A   1      -1.956  10.123  33.848  1.00  0.00    +0.000 H 
ATOM    120  H18 UNL A   1      -0.295  10.740  34.129  1.00  0.00    +0.000 H 
BRANCH   28   27
ATOM     27  C19 UNL A   1      -1.231   9.961  35.840  1.00  0.00    +0.000 C 
ATOM    117  H15 UNL A   1      -0.203   9.747  36.048  1.00  0.00    +0.000 H 
ATOM    118  H16 UNL A   1      -1.679  10.620  36.555  1.00  0.00    +0.000 H 
BRANCH   27   26
ATOM     26  C18 UNL A   1      -2.017   8.646  35.914  1.00  0.00    +0.000 C 
ATOM    115  H13 UNL A   1      -2.963   8.785  35.434  1.00  0.00    +0.000 H 
ATOM    116  H14 UNL A   1      -1.434   7.893  35.427  1.00  0.00    +0.000 H 
BRANCH   26   25
ATOM     25  C17 UNL A   1      -2.259   8.186  37.354  1.00  0.00    +0.000 C 
ATOM    114  H12 UNL A   1      -3.228   7.735  37.423  1.00  0.00    +0.000 H 
ATOM    113  H11 UNL A   1      -2.207   9.029  38.010  1.00  0.00    +0.000 H 
BRANCH   25   24
ATOM    112  H10 UNL A   1      -1.507   6.286  37.541  1.00  0.00    +0.000 H 
ATOM     24  N3  UNL A   1      -1.253   7.217  37.734  1.00  0.00    +0.000 N 
BRANCH   24   22
ATOM     22  C16 UNL A   1      -0.016   7.341  38.311  1.00  0.00    +0.000 C 
ATOM     23  O3  UNL A   1       0.957   6.985  37.646  1.00  0.00    +0.000 O 
BRANCH   22   21
ATOM     97  C68 UNL A   1       0.174   6.941  40.832  1.00  0.00    +0.000 C 
ATOM     98  C69 UNL A   1       0.578   7.402  42.086  1.00  0.00    +0.000 C 
ATOM    140  H38 UNL A   1      -0.140   5.963  40.726  1.00  0.00    +0.000 H 
ATOM    141  H39 UNL A   1       0.673   6.746  42.877  1.00  0.00    +0.000 H 
ATOM    110  H8  UNL A   1       0.832  10.663  41.338  1.00  0.00    +0.000 H 
ATOM    111  H9  UNL A   1       0.376   9.801  39.117  1.00  0.00    +0.000 H 
ATOM     18  C12 UNL A   1       0.852   8.758  42.259  1.00  0.00    +0.000 C 
ATOM     19  C13 UNL A   1       0.716   9.648  41.190  1.00  0.00    +0.000 C 
ATOM     20  C14 UNL A   1       0.422   9.154  39.918  1.00  0.00    +0.000 C 
ATOM     21  C15 UNL A   1       0.188   7.785  39.718  1.00  0.00    +0.000 C 
BRANCH   18   17
ATOM     99  N9  UNL A   1       2.295   8.739  44.178  1.00  0.00    +0.000 N 
ATOM    100  N10 UNL A   1       2.454   9.430  45.293  1.00  0.00    +0.000 N 
ATOM    109  H7  UNL A   1      -0.233  10.746  44.070  1.00  0.00    +0.000 H 
ATOM     15  C10 UNL A   1       1.442  10.350  45.392  1.00  0.00    +0.000 C 
ATOM     16  C11 UNL A   1       0.631  10.224  44.283  1.00  0.00    +0.000 C 
ATOM     17  N2  UNL A   1       1.233   9.245  43.523  1.00  0.00    +0.000 N 
BRANCH   15   14
ATOM    107  H5  UNL A   1       1.517  12.203  46.351  1.00  0.00    +0.000 H 
ATOM    108  H6  UNL A   1       0.302  11.035  46.966  1.00  0.00    +0.000 H 
ATOM     14  C9  UNL A   1       1.302  11.189  46.619  1.00  0.00    +0.000 C 
BRANCH   14   13
ATOM     13  O2  UNL A   1       2.158  10.833  47.719  1.00  0.00    +0.000 O 
BRANCH   13   12
ATOM    101  C70 UNL A   1       2.519  13.191  48.311  1.00  0.00    +0.000 C 
ATOM    102  C71 UNL A   1       3.096  14.093  49.207  1.00  0.00    +0.000 C 
ATOM      9  C5  UNL A   1       4.021  13.653  50.155  1.00  0.00    +0.000 C 
ATOM     10  C6  UNL A   1       4.416  12.314  50.150  1.00  0.00    +0.000 C 
ATOM    105  H3  UNL A   1       5.159  11.992  50.789  1.00  0.00    +0.000 H 
ATOM     11  C7  UNL A   1       3.802  11.407  49.277  1.00  0.00    +0.000 C 
ATOM    106  H4  UNL A   1       4.090  10.417  49.283  1.00  0.00    +0.000 H 
ATOM     12  C8  UNL A   1       2.803  11.832  48.397  1.00  0.00    +0.000 C 
ATOM    143  H41 UNL A   1       2.837  15.090  49.169  1.00  0.00    +0.000 H 
ATOM    142  H40 UNL A   1       1.878  13.537  47.579  1.00  0.00    +0.000 H 
BRANCH    9    8
ATOM    104  H2  UNL A   1       4.405  14.376  52.141  1.00  0.00    +0.000 H 
ATOM      8  C4  UNL A   1       4.551  14.595  51.143  1.00  0.00    +0.000 C 
BRANCH    8    7
ATOM      1  O1  UNL A   1       7.180  14.700  49.907  1.00  0.00    +0.000 O 
ATOM      2  C1  UNL A   1       6.558  15.695  50.203  1.00  0.00    +0.000 C 
ATOM      3  N1  UNL A   1       6.981  16.981  49.982  1.00  0.00    +0.000 N 
ATOM      4  C2  UNL A   1       6.168  18.002  50.367  1.00  0.00    +0.000 C 
ATOM      5  S1  UNL A   1       6.550  19.600  50.167  1.00  0.00    +0.000 S 
ATOM      6  S2  UNL A   1       4.710  17.359  51.083  1.00  0.00    +0.000 S 
ATOM      7  C3  UNL A   1       5.213  15.721  50.844  1.00  0.00    +0.000 C 
ATOM    103  H1  UNL A   1       7.850  17.160  49.557  1.00  0.00    +0.000 H 
ENDBRANCH    8    7
ENDBRANCH    9    8
ENDBRANCH   13   12
ENDBRANCH   14   13
ENDBRANCH   15   14
ENDBRANCH   18   17
ENDBRANCH   22   21
ENDBRANCH   24   22
ENDBRANCH   25   24
ENDBRANCH   26   25
ENDBRANCH   27   26
ENDBRANCH   28   27
ENDBRANCH   29   28
ENDBRANCH   30   29
ENDBRANCH   31   30
ENDBRANCH   32   31
ENDBRANCH   34   32
ENDBRANCH   38   37
BRANCH   42   43
ATOM     43  C32 UNL A   1       4.167  14.262  44.100  1.00  0.00    +0.000 C 
ATOM     44  C33 UNL A   1       4.671  15.196  45.029  1.00  0.00    +0.000 C 
ATOM     45  F1  UNL A   1       4.600  16.513  44.781  1.00  0.00    +0.000 F 
ATOM     46  C34 UNL A   1       5.350  14.797  46.183  1.00  0.00    +0.000 C 
ATOM     47  F2  UNL A   1       5.932  15.719  46.963  1.00  0.00    +0.000 F 
ATOM     48  C35 UNL A   1       5.490  13.456  46.486  1.00  0.00    +0.000 C 
ATOM     49  F3  UNL A   1       6.198  13.069  47.554  1.00  0.00    +0.000 F 
ATOM     50  C36 UNL A   1       4.933  12.514  45.648  1.00  0.00    +0.000 C 
ATOM     51  F4  UNL A   1       5.070  11.209  45.916  1.00  0.00    +0.000 F 
ATOM     52  C37 UNL A   1       4.303  12.906  44.469  1.00  0.00    +0.000 C 
ATOM     53  F5  UNL A   1       3.939  11.904  43.662  1.00  0.00    +0.000 F 
ENDBRANCH   42   43
BRANCH   59   60
ATOM     65  C46 UNL A   1       7.654  14.397  35.322  1.00  0.00    +0.000 C 
ATOM     66  F8  UNL A   1       8.029  14.818  34.105  1.00  0.00    +0.000 F 
ATOM     67  C47 UNL A   1       8.567  14.384  36.364  1.00  0.00    +0.000 C 
ATOM     68  F9  UNL A   1       9.819  14.817  36.163  1.00  0.00    +0.000 F 
ATOM     69  C48 UNL A   1       8.180  13.953  37.630  1.00  0.00    +0.000 C 
ATOM     70  F10 UNL A   1       9.083  13.980  38.623  1.00  0.00    +0.000 F 
ATOM     60  C43 UNL A   1       6.864  13.552  37.893  1.00  0.00    +0.000 C 
ATOM     61  C44 UNL A   1       5.950  13.608  36.826  1.00  0.00    +0.000 C 
ATOM     62  F6  UNL A   1       4.651  13.346  37.020  1.00  0.00    +0.000 F 
ATOM     63  C45 UNL A   1       6.347  14.000  35.549  1.00  0.00    +0.000 C 
ATOM     64  F7  UNL A   1       5.456  14.034  34.548  1.00  0.00    +0.000 F 
ENDBRANCH   59   60
BRANCH   74   75
ATOM     75  C52 UNL A   1       4.579   7.738  38.465  1.00  0.00    +0.000 C 
ATOM     76  C53 UNL A   1       3.904   6.991  39.444  1.00  0.00    +0.000 C 
ATOM     77  F11 UNL A   1       3.457   7.587  40.559  1.00  0.00    +0.000 F 
ATOM     78  C54 UNL A   1       3.610   5.634  39.264  1.00  0.00    +0.000 C 
ATOM     79  F12 UNL A   1       2.904   4.974  40.192  1.00  0.00    +0.000 F 
ATOM     80  C55 UNL A   1       3.992   4.982  38.103  1.00  0.00    +0.000 C 
ATOM     81  F13 UNL A   1       3.651   3.701  37.900  1.00  0.00    +0.000 F 
ATOM     82  C56 UNL A   1       4.689   5.678  37.135  1.00  0.00    +0.000 C 
ATOM     83  F14 UNL A   1       5.036   5.069  35.991  1.00  0.00    +0.000 F 
ATOM     84  C57 UNL A   1       4.976   7.032  37.310  1.00  0.00    +0.000 C 
ATOM     85  F15 UNL A   1       5.566   7.661  36.285  1.00  0.00    +0.000 F 
ENDBRANCH   74   75
TORSDOF 21
ENDMDL
MODEL 9
REMARK VINA RESULT:      -9.0     20.965     27.528
ROOT
ATOM    129  H27 UNL A   1      27.136  37.301  45.512  1.00  0.00    +0.000 H 
ATOM    130  H28 UNL A   1      27.402  36.642  49.495  1.00  0.00    +0.000 H 
ATOM    131  H29 UNL A   1      27.074  29.248  45.973  1.00  0.00    +0.000 H 
ATOM    132  H30 UNL A   1      25.104  30.458  44.907  1.00  0.00    +0.000 H 
ATOM    133  H31 UNL A   1      26.639  32.987  47.815  1.00  0.00    +0.000 H 
ATOM    134  H32 UNL A   1      27.858  32.198  50.659  1.00  0.00    +0.000 H 
ATOM    135  H33 UNL A   1      27.528  34.677  50.016  1.00  0.00    +0.000 H 
ATOM    136  H34 UNL A   1      22.093  35.118  49.723  1.00  0.00    +0.000 H 
ATOM    137  H35 UNL A   1      22.253  32.789  48.624  1.00  0.00    +0.000 H 
ATOM     38  C28 UNL A   1      24.198  32.724  46.488  1.00  0.00    +0.000 C 
ATOM     39  C29 UNL A   1      23.920  33.806  47.465  1.00  0.00    +0.000 C 
ATOM     40  N5  UNL A   1      24.440  34.988  47.485  1.00  0.00    +0.000 N 
ATOM     41  C30 UNL A   1      23.922  35.619  48.611  1.00  0.00    +0.000 C 
ATOM     42  C31 UNL A   1      24.622  36.607  49.234  1.00  0.00    +0.000 C 
ATOM     54  C38 UNL A   1      25.671  37.111  48.379  1.00  0.00    +0.000 C 
ATOM     55  C39 UNL A   1      25.697  37.692  47.126  1.00  0.00    +0.000 C 
ATOM     56  C40 UNL A   1      26.844  37.134  46.487  1.00  0.00    +0.000 C 
ATOM     57  C41 UNL A   1      27.499  36.322  47.413  1.00  0.00    +0.000 C 
ATOM     58  N6  UNL A   1      26.954  36.683  48.619  1.00  0.00    +0.000 N 
ATOM     59  C42 UNL A   1      28.478  35.273  47.268  1.00  0.00    +0.000 C 
ATOM     71  C49 UNL A   1      28.662  34.261  48.166  1.00  0.00    +0.000 C 
ATOM     72  N7  UNL A   1      29.275  33.074  47.789  1.00  0.00    +0.000 N 
ATOM     73  C50 UNL A   1      28.754  32.172  48.580  1.00  0.00    +0.000 C 
ATOM     74  C51 UNL A   1      28.332  30.827  48.101  1.00  0.00    +0.000 C 
ATOM     86  C58 UNL A   1      27.283  31.030  47.266  1.00  0.00    +0.000 C 
ATOM     87  C59 UNL A   1      26.715  30.176  46.249  1.00  0.00    +0.000 C 
ATOM     88  C60 UNL A   1      25.641  30.794  45.722  1.00  0.00    +0.000 C 
ATOM     89  C61 UNL A   1      25.349  32.014  46.480  1.00  0.00    +0.000 C 
ATOM     90  N8  UNL A   1      26.452  32.177  47.289  1.00  0.00    +0.000 N 
ATOM     91  C62 UNL A   1      28.130  32.684  49.791  1.00  0.00    +0.000 C 
ATOM     92  C63 UNL A   1      28.016  33.970  49.444  1.00  0.00    +0.000 C 
ATOM     93  C64 UNL A   1      22.810  34.815  49.045  1.00  0.00    +0.000 C 
ATOM     94  C65 UNL A   1      22.837  33.622  48.446  1.00  0.00    +0.000 C 
ATOM    128  H26 UNL A   1      25.033  38.380  46.736  1.00  0.00    +0.000 H 
ENDROOT
BRANCH   38   37
ATOM     34  C24 UNL A   1      20.723  31.569  44.434  1.00  0.00    +0.000 C 
ATOM     35  C25 UNL A   1      21.466  32.633  43.914  1.00  0.00    +0.000 C 
ATOM     36  C26 UNL A   1      22.661  32.984  44.536  1.00  0.00    +0.000 C 
ATOM     37  C27 UNL A   1      23.045  32.306  45.701  1.00  0.00    +0.000 C 
ATOM    138  H36 UNL A   1      22.506  30.854  47.133  1.00  0.00    +0.000 H 
ATOM    139  H37 UNL A   1      20.738  29.934  45.764  1.00  0.00    +0.000 H 
ATOM    127  H25 UNL A   1      23.255  33.732  44.145  1.00  0.00    +0.000 H 
ATOM    126  H24 UNL A   1      21.135  33.151  43.084  1.00  0.00    +0.000 H 
ATOM     95  C66 UNL A   1      22.272  31.273  46.220  1.00  0.00    +0.000 C 
ATOM     96  C67 UNL A   1      21.196  30.822  45.507  1.00  0.00    +0.000 C 
BRANCH   34   32
ATOM     33  O4  UNL A   1      19.050  31.634  42.794  1.00  0.00    +0.000 O 
ATOM     32  C23 UNL A   1      19.399  31.222  43.894  1.00  0.00    +0.000 C 
BRANCH   32   31
ATOM    125  H23 UNL A   1      18.660  30.499  45.629  1.00  0.00    +0.000 H 
ATOM     31  N4  UNL A   1      18.570  30.421  44.652  1.00  0.00    +0.000 N 
BRANCH   31   30
ATOM    123  H21 UNL A   1      17.893  29.076  43.222  1.00  0.00    +0.000 H 
ATOM    124  H22 UNL A   1      17.471  28.685  44.886  1.00  0.00    +0.000 H 
ATOM     30  C22 UNL A   1      17.571  29.468  44.164  1.00  0.00    +0.000 C 
BRANCH   30   29
ATOM    121  H19 UNL A   1      16.031  30.256  42.939  1.00  0.00    +0.000 H 
ATOM    122  H20 UNL A   1      15.485  29.495  44.444  1.00  0.00    +0.000 H 
ATOM     29  C21 UNL A   1      16.214  30.130  43.986  1.00  0.00    +0.000 C 
BRANCH   29   28
ATOM     28  C20 UNL A   1      16.125  31.503  44.669  1.00  0.00    +0.000 C 
ATOM    119  H17 UNL A   1      15.382  31.440  45.436  1.00  0.00    +0.000 H 
ATOM    120  H18 UNL A   1      17.108  31.713  45.033  1.00  0.00    +0.000 H 
BRANCH   28   27
ATOM     27  C19 UNL A   1      15.756  32.680  43.750  1.00  0.00    +0.000 C 
ATOM    117  H15 UNL A   1      15.706  32.315  42.746  1.00  0.00    +0.000 H 
ATOM    118  H16 UNL A   1      14.823  33.061  44.110  1.00  0.00    +0.000 H 
BRANCH   27   26
ATOM     26  C18 UNL A   1      16.742  33.856  43.780  1.00  0.00    +0.000 C 
ATOM    115  H13 UNL A   1      17.630  33.571  43.255  1.00  0.00    +0.000 H 
ATOM    116  H14 UNL A   1      16.262  34.693  43.317  1.00  0.00    +0.000 H 
BRANCH   26   25
ATOM     25  C17 UNL A   1      17.123  34.268  45.203  1.00  0.00    +0.000 C 
ATOM    114  H12 UNL A   1      16.701  33.573  45.899  1.00  0.00    +0.000 H 
ATOM    113  H11 UNL A   1      16.747  35.250  45.402  1.00  0.00    +0.000 H 
BRANCH   25   24
ATOM    112  H10 UNL A   1      19.044  34.096  44.501  1.00  0.00    +0.000 H 
ATOM     24  N3  UNL A   1      18.565  34.268  45.343  1.00  0.00    +0.000 N 
BRANCH   24   22
ATOM     22  C16 UNL A   1      19.393  34.461  46.418  1.00  0.00    +0.000 C 
ATOM     23  O3  UNL A   1      19.578  33.503  47.169  1.00  0.00    +0.000 O 
BRANCH   22   21
ATOM     97  C68 UNL A   1      19.655  36.539  47.889  1.00  0.00    +0.000 C 
ATOM     98  C69 UNL A   1      20.405  37.661  48.246  1.00  0.00    +0.000 C 
ATOM    140  H38 UNL A   1      18.842  36.265  48.463  1.00  0.00    +0.000 H 
ATOM    141  H39 UNL A   1      20.223  38.147  49.138  1.00  0.00    +0.000 H 
ATOM    110  H8  UNL A   1      22.320  37.854  45.498  1.00  0.00    +0.000 H 
ATOM    111  H9  UNL A   1      21.181  35.766  45.017  1.00  0.00    +0.000 H 
ATOM     18  C12 UNL A   1      21.402  38.118  47.386  1.00  0.00    +0.000 C 
ATOM     19  C13 UNL A   1      21.644  37.464  46.174  1.00  0.00    +0.000 C 
ATOM     20  C14 UNL A   1      20.964  36.281  45.885  1.00  0.00    +0.000 C 
ATOM     21  C15 UNL A   1      19.989  35.782  46.762  1.00  0.00    +0.000 C 
BRANCH   18   17
ATOM     99  N9  UNL A   1      21.662  40.202  48.551  1.00  0.00    +0.000 N 
ATOM    100  N10 UNL A   1      22.599  41.114  48.732  1.00  0.00    +0.000 N 
ATOM    109  H7  UNL A   1      23.993  39.144  46.582  1.00  0.00    +0.000 H 
ATOM     15  C10 UNL A   1      23.683  40.796  47.954  1.00  0.00    +0.000 C 
ATOM     16  C11 UNL A   1      23.400  39.631  47.272  1.00  0.00    +0.000 C 
ATOM     17  N2  UNL A   1      22.150  39.264  47.718  1.00  0.00    +0.000 N 
BRANCH   15   14
ATOM    107  H5  UNL A   1      25.132  41.805  46.838  1.00  0.00    +0.000 H 
ATOM    108  H6  UNL A   1      24.520  42.648  48.299  1.00  0.00    +0.000 H 
ATOM     14  C9  UNL A   1      24.849  41.725  47.868  1.00  0.00    +0.000 C 
BRANCH   14   13
ATOM     13  O2  UNL A   1      26.014  41.335  48.617  1.00  0.00    +0.000 O 
BRANCH   13   12
ATOM    101  C70 UNL A   1      28.175  40.176  48.443  1.00  0.00    +0.000 C 
ATOM    102  C71 UNL A   1      29.154  39.658  47.593  1.00  0.00    +0.000 C 
ATOM      9  C5  UNL A   1      29.141  39.961  46.231  1.00  0.00    +0.000 C 
ATOM     10  C6  UNL A   1      28.179  40.847  45.741  1.00  0.00    +0.000 C 
ATOM    105  H3  UNL A   1      28.208  41.146  44.753  1.00  0.00    +0.000 H 
ATOM     11  C7  UNL A   1      27.175  41.329  46.589  1.00  0.00    +0.000 C 
ATOM    106  H4  UNL A   1      26.461  41.975  46.220  1.00  0.00    +0.000 H 
ATOM     12  C8  UNL A   1      27.132  40.943  47.931  1.00  0.00    +0.000 C 
ATOM    143  H41 UNL A   1      29.892  39.046  47.975  1.00  0.00    +0.000 H 
ATOM    142  H40 UNL A   1      28.226  39.989  49.457  1.00  0.00    +0.000 H 
BRANCH    9    8
ATOM    104  H2  UNL A   1      29.851  38.470  44.858  1.00  0.00    +0.000 H 
ATOM      8  C4  UNL A   1      30.124  39.340  45.340  1.00  0.00    +0.000 C 
BRANCH    8    7
ATOM      1  O1  UNL A   1      31.794  38.608  43.076  1.00  0.00    +0.000 O 
ATOM      2  C1  UNL A   1      32.147  39.405  43.916  1.00  0.00    +0.000 C 
ATOM      3  N1  UNL A   1      33.342  40.076  43.909  1.00  0.00    +0.000 N 
ATOM      4  C2  UNL A   1      33.597  40.947  44.923  1.00  0.00    +0.000 C 
ATOM      5  S1  UNL A   1      34.998  41.822  45.046  1.00  0.00    +0.000 S 
ATOM      6  S2  UNL A   1      32.247  40.978  46.031  1.00  0.00    +0.000 S 
ATOM      7  C3  UNL A   1      31.352  39.823  45.105  1.00  0.00    +0.000 C 
ATOM    103  H1  UNL A   1      33.998  39.932  43.190  1.00  0.00    +0.000 H 
ENDBRANCH    8    7
ENDBRANCH    9    8
ENDBRANCH   13   12
ENDBRANCH   14   13
ENDBRANCH   15   14
ENDBRANCH   18   17
ENDBRANCH   22   21
ENDBRANCH   24   22
ENDBRANCH   25   24
ENDBRANCH   26   25
ENDBRANCH   27   26
ENDBRANCH   28   27
ENDBRANCH   29   28
ENDBRANCH   30   29
ENDBRANCH   31   30
ENDBRANCH   32   31
ENDBRANCH   34   32
ENDBRANCH   38   37
BRANCH   42   43
ATOM     43  C32 UNL A   1      24.632  36.847  50.725  1.00  0.00    +0.000 C 
ATOM     44  C33 UNL A   1      25.001  35.788  51.580  1.00  0.00    +0.000 C 
ATOM     45  F1  UNL A   1      25.605  34.693  51.090  1.00  0.00    +0.000 F 
ATOM     46  C34 UNL A   1      24.667  35.782  52.936  1.00  0.00    +0.000 C 
ATOM     47  F2  UNL A   1      24.915  34.693  53.677  1.00  0.00    +0.000 F 
ATOM     48  C35 UNL A   1      24.015  36.862  53.502  1.00  0.00    +0.000 C 
ATOM     49  F3  UNL A   1      23.633  36.831  54.784  1.00  0.00    +0.000 F 
ATOM     50  C36 UNL A   1      23.717  37.955  52.718  1.00  0.00    +0.000 C 
ATOM     51  F4  UNL A   1      23.072  39.005  53.244  1.00  0.00    +0.000 F 
ATOM     52  C37 UNL A   1      23.999  37.941  51.353  1.00  0.00    +0.000 C 
ATOM     53  F5  UNL A   1      23.527  38.988  50.667  1.00  0.00    +0.000 F 
ENDBRANCH   42   43
BRANCH   59   60
ATOM     65  C46 UNL A   1      30.439  34.663  43.470  1.00  0.00    +0.000 C 
ATOM     66  F8  UNL A   1      31.050  34.401  42.306  1.00  0.00    +0.000 F 
ATOM     67  C47 UNL A   1      29.144  34.219  43.691  1.00  0.00    +0.000 C 
ATOM     68  F9  UNL A   1      28.511  33.507  42.750  1.00  0.00    +0.000 F 
ATOM     69  C48 UNL A   1      28.510  34.483  44.902  1.00  0.00    +0.000 C 
ATOM     70  F10 UNL A   1      27.266  34.014  45.091  1.00  0.00    +0.000 F 
ATOM     60  C43 UNL A   1      29.163  35.171  45.932  1.00  0.00    +0.000 C 
ATOM     61  C44 UNL A   1      30.487  35.579  45.695  1.00  0.00    +0.000 C 
ATOM     62  F6  UNL A   1      31.215  36.145  46.665  1.00  0.00    +0.000 F 
ATOM     63  C45 UNL A   1      31.108  35.351  44.468  1.00  0.00    +0.000 C 
ATOM     64  F7  UNL A   1      32.368  35.761  44.266  1.00  0.00    +0.000 F 
ENDBRANCH   59   60
BRANCH   74   75
ATOM     75  C52 UNL A   1      28.800  29.560  48.716  1.00  0.00    +0.000 C 
ATOM     76  C53 UNL A   1      30.154  29.189  48.670  1.00  0.00    +0.000 C 
ATOM     77  F11 UNL A   1      31.010  29.856  47.883  1.00  0.00    +0.000 F 
ATOM     78  C54 UNL A   1      30.667  28.172  49.485  1.00  0.00    +0.000 C 
ATOM     79  F12 UNL A   1      31.978  27.894  49.460  1.00  0.00    +0.000 F 
ATOM     80  C55 UNL A   1      29.839  27.493  50.363  1.00  0.00    +0.000 C 
ATOM     81  F13 UNL A   1      30.343  26.568  51.193  1.00  0.00    +0.000 F 
ATOM     82  C56 UNL A   1      28.496  27.808  50.407  1.00  0.00    +0.000 C 
ATOM     83  F14 UNL A   1      27.688  27.182  51.276  1.00  0.00    +0.000 F 
ATOM     84  C57 UNL A   1      27.984  28.826  49.601  1.00  0.00    +0.000 C 
ATOM     85  F15 UNL A   1      26.693  29.141  49.774  1.00  0.00    +0.000 F 
ENDBRANCH   74   75
TORSDOF 21
ENDMDL
MODEL 10
REMARK VINA RESULT:      -9.0     21.998     28.108
ROOT
ATOM    129  H27 UNL A   1      53.656  14.183   6.453  1.00  0.00    +0.000 H 
ATOM    130  H28 UNL A   1      51.813  17.612   5.352  1.00  0.00    +0.000 H 
ATOM    131  H29 UNL A   1      59.385  19.729   7.668  1.00  0.00    +0.000 H 
ATOM    132  H30 UNL A   1      58.587  18.304   9.619  1.00  0.00    +0.000 H 
ATOM    133  H31 UNL A   1      55.355  18.755   7.058  1.00  0.00    +0.000 H 
ATOM    134  H32 UNL A   1      54.559  21.324   5.335  1.00  0.00    +0.000 H 
ATOM    135  H33 UNL A   1      53.003  19.264   5.416  1.00  0.00    +0.000 H 
ATOM    136  H34 UNL A   1      51.366  19.211  10.625  1.00  0.00    +0.000 H 
ATOM    137  H35 UNL A   1      53.816  19.864  11.099  1.00  0.00    +0.000 H 
ATOM     38  C28 UNL A   1      55.688  18.120   9.755  1.00  0.00    +0.000 C 
ATOM     39  C29 UNL A   1      54.211  18.189   9.619  1.00  0.00    +0.000 C 
ATOM     40  N5  UNL A   1      53.457  17.398   8.929  1.00  0.00    +0.000 N 
ATOM     41  C30 UNL A   1      52.163  17.890   9.059  1.00  0.00    +0.000 C 
ATOM     42  C31 UNL A   1      51.238  17.669   8.084  1.00  0.00    +0.000 C 
ATOM     54  C38 UNL A   1      51.664  16.606   7.204  1.00  0.00    +0.000 C 
ATOM     55  C39 UNL A   1      51.994  15.277   7.386  1.00  0.00    +0.000 C 
ATOM     56  C40 UNL A   1      53.111  15.056   6.527  1.00  0.00    +0.000 C 
ATOM     57  C41 UNL A   1      53.338  16.228   5.806  1.00  0.00    +0.000 C 
ATOM     58  N6  UNL A   1      52.190  16.957   5.984  1.00  0.00    +0.000 N 
ATOM     59  C42 UNL A   1      54.478  16.712   5.067  1.00  0.00    +0.000 C 
ATOM     71  C49 UNL A   1      54.743  18.032   4.836  1.00  0.00    +0.000 C 
ATOM     72  N7  UNL A   1      56.025  18.460   4.524  1.00  0.00    +0.000 N 
ATOM     73  C50 UNL A   1      56.080  19.685   4.976  1.00  0.00    +0.000 C 
ATOM     74  C51 UNL A   1      57.261  20.224   5.706  1.00  0.00    +0.000 C 
ATOM     86  C58 UNL A   1      57.327  19.545   6.879  1.00  0.00    +0.000 C 
ATOM     87  C59 UNL A   1      58.426  19.371   7.799  1.00  0.00    +0.000 C 
ATOM     88  C60 UNL A   1      57.989  18.662   8.857  1.00  0.00    +0.000 C 
ATOM     89  C61 UNL A   1      56.538  18.475   8.765  1.00  0.00    +0.000 C 
ATOM     90  N8  UNL A   1      56.229  18.893   7.490  1.00  0.00    +0.000 N 
ATOM     91  C62 UNL A   1      54.795  20.328   5.205  1.00  0.00    +0.000 C 
ATOM     92  C63 UNL A   1      54.011  19.245   5.196  1.00  0.00    +0.000 C 
ATOM     93  C64 UNL A   1      52.199  18.832  10.147  1.00  0.00    +0.000 C 
ATOM     94  C65 UNL A   1      53.461  19.143  10.452  1.00  0.00    +0.000 C 
ATOM    128  H26 UNL A   1      51.534  14.594   8.008  1.00  0.00    +0.000 H 
ENDROOT
BRANCH   38   37
ATOM     34  C24 UNL A   1      56.926  17.674  13.743  1.00  0.00    +0.000 C 
ATOM     35  C25 UNL A   1      56.161  16.648  13.177  1.00  0.00    +0.000 C 
ATOM     36  C26 UNL A   1      55.804  16.741  11.834  1.00  0.00    +0.000 C 
ATOM     37  C27 UNL A   1      56.162  17.888  11.114  1.00  0.00    +0.000 C 
ATOM    138  H36 UNL A   1      57.059  19.795  11.201  1.00  0.00    +0.000 H 
ATOM    139  H37 UNL A   1      58.097  19.380  13.345  1.00  0.00    +0.000 H 
ATOM    127  H25 UNL A   1      55.283  15.976  11.377  1.00  0.00    +0.000 H 
ATOM    126  H24 UNL A   1      55.865  15.838  13.744  1.00  0.00    +0.000 H 
ATOM     95  C66 UNL A   1      56.893  18.911  11.707  1.00  0.00    +0.000 C 
ATOM     96  C67 UNL A   1      57.387  18.733  12.969  1.00  0.00    +0.000 C 
BRANCH   34   32
ATOM     33  O4  UNL A   1      57.759  16.721  15.715  1.00  0.00    +0.000 O 
ATOM     32  C23 UNL A   1      57.238  17.693  15.180  1.00  0.00    +0.000 C 
BRANCH   32   31
ATOM    125  H23 UNL A   1      57.704  19.349  16.238  1.00  0.00    +0.000 H 
ATOM     31  N4  UNL A   1      56.938  18.829  15.903  1.00  0.00    +0.000 N 
BRANCH   31   30
ATOM    123  H21 UNL A   1      54.880  18.588  16.027  1.00  0.00    +0.000 H 
ATOM    124  H22 UNL A   1      55.595  19.623  17.260  1.00  0.00    +0.000 H 
ATOM     30  C22 UNL A   1      55.607  19.347  16.226  1.00  0.00    +0.000 C 
BRANCH   30   29
ATOM    121  H19 UNL A   1      54.813  21.303  16.036  1.00  0.00    +0.000 H 
ATOM    122  H20 UNL A   1      56.192  20.941  14.982  1.00  0.00    +0.000 H 
ATOM     29  C21 UNL A   1      55.275  20.578  15.399  1.00  0.00    +0.000 C 
BRANCH   29   28
ATOM     28  C20 UNL A   1      54.326  20.275  14.230  1.00  0.00    +0.000 C 
ATOM    119  H17 UNL A   1      54.817  20.563  13.325  1.00  0.00    +0.000 H 
ATOM    120  H18 UNL A   1      54.111  19.229  14.293  1.00  0.00    +0.000 H 
BRANCH   28   27
ATOM     27  C19 UNL A   1      52.964  20.988  14.277  1.00  0.00    +0.000 C 
ATOM    117  H15 UNL A   1      52.224  20.316  13.897  1.00  0.00    +0.000 H 
ATOM    118  H16 UNL A   1      52.803  21.261  15.299  1.00  0.00    +0.000 H 
BRANCH   27   26
ATOM     26  C18 UNL A   1      52.888  22.289  13.467  1.00  0.00    +0.000 C 
ATOM    115  H13 UNL A   1      52.631  23.090  14.129  1.00  0.00    +0.000 H 
ATOM    116  H14 UNL A   1      53.844  22.444  13.013  1.00  0.00    +0.000 H 
BRANCH   26   25
ATOM     25  C17 UNL A   1      51.847  22.224  12.346  1.00  0.00    +0.000 C 
ATOM    114  H12 UNL A   1      51.055  22.912  12.559  1.00  0.00    +0.000 H 
ATOM    113  H11 UNL A   1      51.455  21.231  12.283  1.00  0.00    +0.000 H 
BRANCH   25   24
ATOM    112  H10 UNL A   1      52.148  22.039  10.325  1.00  0.00    +0.000 H 
ATOM     24  N3  UNL A   1      52.463  22.579  11.085  1.00  0.00    +0.000 N 
BRANCH   24   22
ATOM     22  C16 UNL A   1      53.398  23.521  10.740  1.00  0.00    +0.000 C 
ATOM     23  O3  UNL A   1      52.985  24.604  10.326  1.00  0.00    +0.000 O 
BRANCH   22   21
ATOM     97  C68 UNL A   1      55.770  23.824  11.653  1.00  0.00    +0.000 C 
ATOM     98  C69 UNL A   1      57.087  23.366  11.729  1.00  0.00    +0.000 C 
ATOM    140  H38 UNL A   1      55.462  24.592  12.270  1.00  0.00    +0.000 H 
ATOM    141  H39 UNL A   1      57.716  23.709  12.470  1.00  0.00    +0.000 H 
ATOM    110  H8  UNL A   1      57.054  21.364   9.036  1.00  0.00    +0.000 H 
ATOM    111  H9  UNL A   1      54.707  21.978   9.077  1.00  0.00    +0.000 H 
ATOM     18  C12 UNL A   1      57.542  22.440  10.791  1.00  0.00    +0.000 C 
ATOM     19  C13 UNL A   1      56.692  21.980   9.782  1.00  0.00    +0.000 C 
ATOM     20  C14 UNL A   1      55.350  22.360   9.788  1.00  0.00    +0.000 C 
ATOM     21  C15 UNL A   1      54.864  23.257  10.752  1.00  0.00    +0.000 C 
BRANCH   18   17
ATOM     99  N9  UNL A   1      59.671  22.044   9.751  1.00  0.00    +0.000 N 
ATOM    100  N10 UNL A   1      60.872  21.623  10.105  1.00  0.00    +0.000 N 
ATOM    109  H7  UNL A   1      59.188  21.201  12.831  1.00  0.00    +0.000 H 
ATOM     15  C10 UNL A   1      60.834  21.230  11.418  1.00  0.00    +0.000 C 
ATOM     16  C11 UNL A   1      59.555  21.426  11.893  1.00  0.00    +0.000 C 
ATOM     17  N2  UNL A   1      58.875  21.989  10.836  1.00  0.00    +0.000 N 
BRANCH   15   14
ATOM    107  H5  UNL A   1      62.880  21.206  11.836  1.00  0.00    +0.000 H 
ATOM    108  H6  UNL A   1      61.801  20.515  13.093  1.00  0.00    +0.000 H 
ATOM     14  C9  UNL A   1      62.029  20.593  12.050  1.00  0.00    +0.000 C 
BRANCH   14   13
ATOM     13  O2  UNL A   1      62.328  19.255  11.613  1.00  0.00    +0.000 O 
BRANCH   13   12
ATOM    101  C70 UNL A   1      60.635  17.602  10.947  1.00  0.00    +0.000 C 
ATOM    102  C71 UNL A   1      59.913  16.463  11.309  1.00  0.00    +0.000 C 
ATOM      9  C5  UNL A   1      59.917  16.013  12.630  1.00  0.00    +0.000 C 
ATOM     10  C6  UNL A   1      60.594  16.756  13.599  1.00  0.00    +0.000 C 
ATOM    105  H3  UNL A   1      60.537  16.483  14.593  1.00  0.00    +0.000 H 
ATOM     11  C7  UNL A   1      61.351  17.873  13.223  1.00  0.00    +0.000 C 
ATOM    106  H4  UNL A   1      61.857  18.413  13.940  1.00  0.00    +0.000 H 
ATOM     12  C8  UNL A   1      61.426  18.262  11.883  1.00  0.00    +0.000 C 
ATOM    143  H41 UNL A   1      59.373  15.951  10.594  1.00  0.00    +0.000 H 
ATOM    142  H40 UNL A   1      60.581  17.956   9.979  1.00  0.00    +0.000 H 
BRANCH    9    8
ATOM    104  H2  UNL A   1      58.432  14.829  13.631  1.00  0.00    +0.000 H 
ATOM      8  C4  UNL A   1      59.226  14.769  12.975  1.00  0.00    +0.000 C 
BRANCH    8    7
ATOM      1  O1  UNL A   1      61.260  13.027  14.105  1.00  0.00    +0.000 O 
ATOM      2  C1  UNL A   1      60.602  12.719  13.137  1.00  0.00    +0.000 C 
ATOM      3  N1  UNL A   1      60.702  11.527  12.466  1.00  0.00    +0.000 N 
ATOM      4  C2  UNL A   1      59.889  11.322  11.395  1.00  0.00    +0.000 C 
ATOM      5  S1  UNL A   1      59.903   9.935  10.490  1.00  0.00    +0.000 S 
ATOM      6  S2  UNL A   1      58.873  12.721  11.146  1.00  0.00    +0.000 S 
ATOM      7  C3  UNL A   1      59.550  13.559  12.498  1.00  0.00    +0.000 C 
ATOM    103  H1  UNL A   1      61.344  10.839  12.753  1.00  0.00    +0.000 H 
ENDBRANCH    8    7
ENDBRANCH    9    8
ENDBRANCH   13   12
ENDBRANCH   14   13
ENDBRANCH   15   14
ENDBRANCH   18   17
ENDBRANCH   22   21
ENDBRANCH   24   22
ENDBRANCH   25   24
ENDBRANCH   26   25
ENDBRANCH   27   26
ENDBRANCH   28   27
ENDBRANCH   29   28
ENDBRANCH   30   29
ENDBRANCH   31   30
ENDBRANCH   32   31
ENDBRANCH   34   32
ENDBRANCH   38   37
BRANCH   42   43
ATOM     43  C32 UNL A   1      50.160  18.646   7.682  1.00  0.00    +0.000 C 
ATOM     44  C33 UNL A   1      48.960  18.145   7.136  1.00  0.00    +0.000 C 
ATOM     45  F1  UNL A   1      48.656  16.841   7.235  1.00  0.00    +0.000 F 
ATOM     46  C34 UNL A   1      48.096  18.948   6.387  1.00  0.00    +0.000 C 
ATOM     47  F2  UNL A   1      47.042  18.395   5.771  1.00  0.00    +0.000 F 
ATOM     48  C35 UNL A   1      48.363  20.293   6.215  1.00  0.00    +0.000 C 
ATOM     49  F3  UNL A   1      47.575  21.050   5.442  1.00  0.00    +0.000 F 
ATOM     50  C36 UNL A   1      49.480  20.840   6.809  1.00  0.00    +0.000 C 
ATOM     51  F4  UNL A   1      49.764  22.139   6.641  1.00  0.00    +0.000 F 
ATOM     52  C37 UNL A   1      50.372  20.031   7.510  1.00  0.00    +0.000 C 
ATOM     53  F5  UNL A   1      51.494  20.640   7.908  1.00  0.00    +0.000 F 
ENDBRANCH   42   43
BRANCH   59   60
ATOM     65  C46 UNL A   1      57.320  13.606   4.113  1.00  0.00    +0.000 C 
ATOM     66  F8  UNL A   1      58.147  12.593   3.816  1.00  0.00    +0.000 F 
ATOM     67  C47 UNL A   1      56.374  14.025   3.190  1.00  0.00    +0.000 C 
ATOM     68  F9  UNL A   1      56.269  13.400   2.009  1.00  0.00    +0.000 F 
ATOM     69  C48 UNL A   1      55.509  15.071   3.497  1.00  0.00    +0.000 C 
ATOM     70  F10 UNL A   1      54.588  15.432   2.590  1.00  0.00    +0.000 F 
ATOM     60  C43 UNL A   1      55.549  15.706   4.745  1.00  0.00    +0.000 C 
ATOM     61  C44 UNL A   1      56.494  15.239   5.675  1.00  0.00    +0.000 C 
ATOM     62  F6  UNL A   1      56.522  15.718   6.925  1.00  0.00    +0.000 F 
ATOM     63  C45 UNL A   1      57.387  14.218   5.353  1.00  0.00    +0.000 C 
ATOM     64  F7  UNL A   1      58.285  13.799   6.256  1.00  0.00    +0.000 F 
ENDBRANCH   59   60
BRANCH   74   75
ATOM     75  C52 UNL A   1      57.964  21.468   5.310  1.00  0.00    +0.000 C 
ATOM     76  C53 UNL A   1      57.656  22.698   5.915  1.00  0.00    +0.000 C 
ATOM     77  F11 UNL A   1      56.575  22.813   6.699  1.00  0.00    +0.000 F 
ATOM     78  C54 UNL A   1      58.493  23.814   5.785  1.00  0.00    +0.000 C 
ATOM     79  F12 UNL A   1      58.199  24.949   6.434  1.00  0.00    +0.000 F 
ATOM     80  C55 UNL A   1      59.657  23.733   5.039  1.00  0.00    +0.000 C 
ATOM     81  F13 UNL A   1      60.493  24.779   4.970  1.00  0.00    +0.000 F 
ATOM     82  C56 UNL A   1      59.971  22.549   4.401  1.00  0.00    +0.000 C 
ATOM     83  F14 UNL A   1      61.111  22.446   3.702  1.00  0.00    +0.000 F 
ATOM     84  C57 UNL A   1      59.142  21.435   4.536  1.00  0.00    +0.000 C 
ATOM     85  F15 UNL A   1      59.566  20.297   3.970  1.00  0.00    +0.000 F 
ENDBRANCH   74   75
TORSDOF 21
ENDMDL
