MODEL 1
REMARK VINA RESULT:      -7.8      0.000      0.000
ROOT
ATOM    131  H34 UNL A   1      52.641  51.141  22.478  1.00  0.00    +0.000 H 
ATOM    132  H35 UNL A   1      53.514  53.460  21.666  1.00  0.00    +0.000 H 
ATOM    133  H36 UNL A   1      49.999  52.612  19.647  1.00  0.00    +0.000 H 
ATOM    134  H37 UNL A   1      45.736  54.099  15.144  1.00  0.00    +0.000 H 
ATOM    135  H38 UNL A   1      44.866  51.866  15.984  1.00  0.00    +0.000 H 
ATOM    136  H39 UNL A   1      48.368  52.720  18.052  1.00  0.00    +0.000 H 
ATOM    137  H40 UNL A   1      49.846  57.254  16.463  1.00  0.00    +0.000 H 
ATOM    138  H41 UNL A   1      51.889  56.969  17.979  1.00  0.00    +0.000 H 
ATOM    139  H42 UNL A   1      48.234  48.268  21.427  1.00  0.00    +0.000 H 
ATOM    140  H43 UNL A   1      46.473  48.273  19.569  1.00  0.00    +0.000 H 
ATOM     37  C30 UNL A   1      46.473  50.655  17.995  1.00  0.00    +0.000 C 
ATOM     38  C31 UNL A   1      47.441  50.264  19.076  1.00  0.00    +0.000 C 
ATOM     39  N3  UNL A   1      48.484  50.916  19.527  1.00  0.00    +0.000 N 
ATOM     40  C32 UNL A   1      48.999  50.141  20.558  1.00  0.00    +0.000 C 
ATOM     41  C33 UNL A   1      50.105  50.362  21.307  1.00  0.00    +0.000 C 
ATOM     53  C40 UNL A   1      50.988  51.487  21.136  1.00  0.00    +0.000 C 
ATOM     54  C41 UNL A   1      52.182  51.751  21.783  1.00  0.00    +0.000 C 
ATOM     55  C42 UNL A   1      52.659  52.986  21.334  1.00  0.00    +0.000 C 
ATOM     56  C43 UNL A   1      51.791  53.466  20.368  1.00  0.00    +0.000 C 
ATOM     57  N4  UNL A   1      50.768  52.538  20.257  1.00  0.00    +0.000 N 
ATOM     58  C44 UNL A   1      51.886  54.681  19.601  1.00  0.00    +0.000 C 
ATOM     70  C51 UNL A   1      50.999  55.074  18.655  1.00  0.00    +0.000 C 
ATOM     71  N5  UNL A   1      49.847  54.433  18.219  1.00  0.00    +0.000 N 
ATOM     72  C52 UNL A   1      49.320  55.218  17.311  1.00  0.00    +0.000 C 
ATOM     73  C53 UNL A   1      48.080  55.014  16.483  1.00  0.00    +0.000 C 
ATOM     85  C60 UNL A   1      47.384  53.870  16.619  1.00  0.00    +0.000 C 
ATOM     86  C61 UNL A   1      46.174  53.524  15.882  1.00  0.00    +0.000 C 
ATOM     87  C62 UNL A   1      45.721  52.338  16.318  1.00  0.00    +0.000 C 
ATOM     88  C63 UNL A   1      46.629  51.821  17.341  1.00  0.00    +0.000 C 
ATOM     89  N6  UNL A   1      47.596  52.791  17.444  1.00  0.00    +0.000 N 
ATOM     90  C64 UNL A   1      50.070  56.463  17.087  1.00  0.00    +0.000 C 
ATOM     91  C65 UNL A   1      51.105  56.303  17.897  1.00  0.00    +0.000 C 
ATOM     92  C66 UNL A   1      48.134  48.990  20.697  1.00  0.00    +0.000 C 
ATOM     93  C67 UNL A   1      47.192  48.987  19.763  1.00  0.00    +0.000 C 
ENDROOT
BRANCH   37   36
ATOM     33  C26 UNL A   1      43.093  48.176  17.063  1.00  0.00    +0.000 C 
ATOM     34  C27 UNL A   1      44.349  47.866  16.536  1.00  0.00    +0.000 C 
ATOM     35  C28 UNL A   1      45.456  48.656  16.858  1.00  0.00    +0.000 C 
ATOM    129  H32 UNL A   1      44.460  47.054  15.908  1.00  0.00    +0.000 H 
ATOM    130  H33 UNL A   1      46.388  48.406  16.492  1.00  0.00    +0.000 H 
ATOM     36  C29 UNL A   1      45.309  49.786  17.677  1.00  0.00    +0.000 C 
ATOM    141  H44 UNL A   1      43.920  50.926  18.792  1.00  0.00    +0.000 H 
ATOM    142  H45 UNL A   1      42.048  49.439  18.395  1.00  0.00    +0.000 H 
ATOM     94  C68 UNL A   1      44.045  50.086  18.205  1.00  0.00    +0.000 C 
ATOM     95  C69 UNL A   1      42.956  49.256  17.941  1.00  0.00    +0.000 C 
BRANCH   33   31
ATOM     31  C25 UNL A   1      41.944  47.304  16.720  1.00  0.00    +0.000 C 
ATOM     32  O5  UNL A   1      41.184  47.626  15.810  1.00  0.00    +0.000 O 
BRANCH   31   30
ATOM     30  N2  UNL A   1      41.732  46.133  17.402  1.00  0.00    +0.000 N 
ATOM    128  H31 UNL A   1      41.277  46.216  18.272  1.00  0.00    +0.000 H 
BRANCH   30   29
ATOM     29  C24 UNL A   1      42.096  44.784  17.002  1.00  0.00    +0.000 C 
ATOM    126  H29 UNL A   1      41.273  44.342  16.480  1.00  0.00    +0.000 H 
ATOM    127  H30 UNL A   1      42.958  44.844  16.371  1.00  0.00    +0.000 H 
BRANCH   29   28
ATOM    124  H27 UNL A   1      42.797  42.975  17.847  1.00  0.00    +0.000 H 
ATOM     28  C23 UNL A   1      42.442  43.918  18.206  1.00  0.00    +0.000 C 
ATOM    125  H28 UNL A   1      43.177  44.457  18.766  1.00  0.00    +0.000 H 
BRANCH   28   27
ATOM    122  H25 UNL A   1      40.675  44.542  19.203  1.00  0.00    +0.000 H 
ATOM     27  C22 UNL A   1      41.275  43.657  19.160  1.00  0.00    +0.000 C 
ATOM    123  H26 UNL A   1      40.753  42.809  18.768  1.00  0.00    +0.000 H 
BRANCH   27   26
ATOM    121  H24 UNL A   1      40.885  42.687  20.981  1.00  0.00    +0.000 H 
ATOM     26  C21 UNL A   1      41.681  43.287  20.592  1.00  0.00    +0.000 C 
ATOM    120  H23 UNL A   1      41.838  44.195  21.136  1.00  0.00    +0.000 H 
BRANCH   26   25
ATOM     25  C20 UNL A   1      42.951  42.438  20.709  1.00  0.00    +0.000 C 
ATOM    118  H21 UNL A   1      42.668  41.445  20.989  1.00  0.00    +0.000 H 
ATOM    119  H22 UNL A   1      43.438  42.475  19.758  1.00  0.00    +0.000 H 
BRANCH   25   24
ATOM    116  H19 UNL A   1      43.677  42.594  22.704  1.00  0.00    +0.000 H 
ATOM    117  H20 UNL A   1      44.926  42.618  21.464  1.00  0.00    +0.000 H 
ATOM     24  C19 UNL A   1      43.949  42.960  21.737  1.00  0.00    +0.000 C 
BRANCH   24   23
ATOM    115  H18 UNL A   1      43.111  44.839  22.010  1.00  0.00    +0.000 H 
ATOM     23  N1  UNL A   1      43.962  44.407  21.767  1.00  0.00    +0.000 N 
BRANCH   23   21
ATOM     21  C18 UNL A   1      44.998  45.245  21.502  1.00  0.00    +0.000 C 
ATOM     22  O4  UNL A   1      45.663  45.732  22.407  1.00  0.00    +0.000 O 
BRANCH   21   20
ATOM    114  H17 UNL A   1      45.010  46.519  19.731  1.00  0.00    +0.000 H 
ATOM     20  C17 UNL A   1      45.294  45.598  20.099  1.00  0.00    +0.000 C 
BRANCH   20   19
ATOM    113  H16 UNL A   1      45.380  44.192  18.610  1.00  0.00    +0.000 H 
ATOM     19  C16 UNL A   1      45.930  44.727  19.300  1.00  0.00    +0.000 C 
BRANCH   19   18
ATOM      9  C8  UNL A   1      48.210  45.115  18.383  1.00  0.00    +0.000 C 
ATOM     10  C9  UNL A   1      49.594  44.871  18.375  1.00  0.00    +0.000 C 
ATOM     11  C10 UNL A   1      50.178  44.029  19.315  1.00  0.00    +0.000 C 
ATOM    105  H8  UNL A   1      50.186  45.321  17.659  1.00  0.00    +0.000 H 
ATOM    109  H12 UNL A   1      49.812  42.861  21.015  1.00  0.00    +0.000 H 
ATOM     14  C12 UNL A   1      49.376  43.459  20.297  1.00  0.00    +0.000 C 
ATOM     15  C13 UNL A   1      47.986  43.674  20.338  1.00  0.00    +0.000 C 
ATOM     18  C15 UNL A   1      47.383  44.510  19.372  1.00  0.00    +0.000 C 
BRANCH    9    8
ATOM    104  H7  UNL A   1      46.697  46.162  17.231  1.00  0.00    +0.000 H 
ATOM      8  C7  UNL A   1      47.709  45.967  17.282  1.00  0.00    +0.000 C 
BRANCH    8    7
ATOM    103  H6  UNL A   1      48.770  45.889  15.552  1.00  0.00    +0.000 H 
ATOM      7  C6  UNL A   1      48.512  46.497  16.344  1.00  0.00    +0.000 C 
BRANCH    7    6
ATOM     97  C71 UNL A   1      49.040  50.104  15.341  1.00  0.00    +0.000 C 
ATOM      3  C2  UNL A   1      50.042  50.530  16.210  1.00  0.00    +0.000 C 
ATOM      4  C3  UNL A   1      50.541  49.629  17.152  1.00  0.00    +0.000 C 
ATOM    101  H4  UNL A   1      51.281  49.934  17.805  1.00  0.00    +0.000 H 
ATOM      5  C4  UNL A   1      50.054  48.316  17.224  1.00  0.00    +0.000 C 
ATOM    102  H5  UNL A   1      50.431  47.671  17.935  1.00  0.00    +0.000 H 
ATOM      6  C5  UNL A   1      49.062  47.870  16.342  1.00  0.00    +0.000 C 
ATOM    143  H46 UNL A   1      47.816  48.489  14.755  1.00  0.00    +0.000 H 
ATOM    144  H47 UNL A   1      48.651  50.761  14.645  1.00  0.00    +0.000 H 
ATOM     96  C70 UNL A   1      48.558  48.789  15.408  1.00  0.00    +0.000 C 
BRANCH    3    2
ATOM      2  O1  UNL A   1      50.632  51.763  16.217  1.00  0.00    +0.000 O 
BRANCH    2    1
ATOM      1  C1  UNL A   1      50.680  52.456  14.975  1.00  0.00    +0.000 C 
ATOM     98  H1  UNL A   1      49.706  52.828  14.736  1.00  0.00    +0.000 H 
ATOM     99  H2  UNL A   1      51.006  51.787  14.206  1.00  0.00    +0.000 H 
ATOM    100  H3  UNL A   1      51.366  53.274  15.050  1.00  0.00    +0.000 H 
ENDBRANCH    2    1
ENDBRANCH    3    2
ENDBRANCH    7    6
ENDBRANCH    8    7
ENDBRANCH    9    8
BRANCH   11   12
ATOM     12  O2  UNL A   1      51.524  43.831  19.177  1.00  0.00    +0.000 O 
BRANCH   12   13
ATOM    106  H9  UNL A   1      51.203  43.452  17.190  1.00  0.00    +0.000 H 
ATOM    107  H10 UNL A   1      52.121  42.234  18.044  1.00  0.00    +0.000 H 
ATOM    108  H11 UNL A   1      52.865  43.760  17.633  1.00  0.00    +0.000 H 
ATOM     13  C11 UNL A   1      51.956  43.285  17.933  1.00  0.00    +0.000 C 
ENDBRANCH   12   13
ENDBRANCH   11   12
BRANCH   15   16
ATOM     16  O3  UNL A   1      47.439  42.934  21.352  1.00  0.00    +0.000 O 
BRANCH   16   17
ATOM     17  C14 UNL A   1      47.529  41.523  21.408  1.00  0.00    +0.000 C 
ATOM    110  H13 UNL A   1      47.646  41.134  20.418  1.00  0.00    +0.000 H 
ATOM    111  H14 UNL A   1      46.639  41.125  21.846  1.00  0.00    +0.000 H 
ATOM    112  H15 UNL A   1      48.375  41.244  22.002  1.00  0.00    +0.000 H 
ENDBRANCH   16   17
ENDBRANCH   15   16
ENDBRANCH   19   18
ENDBRANCH   20   19
ENDBRANCH   21   20
ENDBRANCH   23   21
ENDBRANCH   24   23
ENDBRANCH   25   24
ENDBRANCH   26   25
ENDBRANCH   27   26
ENDBRANCH   28   27
ENDBRANCH   29   28
ENDBRANCH   30   29
ENDBRANCH   31   30
ENDBRANCH   33   31
ENDBRANCH   37   36
BRANCH   41   42
ATOM     42  C34 UNL A   1      50.437  49.370  22.383  1.00  0.00    +0.000 C 
ATOM     43  C35 UNL A   1      49.994  49.539  23.704  1.00  0.00    +0.000 C 
ATOM     44  F1  UNL A   1      49.321  50.645  24.054  1.00  0.00    +0.000 F 
ATOM     45  C36 UNL A   1      50.264  48.580  24.677  1.00  0.00    +0.000 C 
ATOM     46  F2  UNL A   1      49.860  48.779  25.941  1.00  0.00    +0.000 F 
ATOM     47  C37 UNL A   1      50.950  47.422  24.344  1.00  0.00    +0.000 C 
ATOM     48  F3  UNL A   1      51.193  46.493  25.279  1.00  0.00    +0.000 F 
ATOM     49  C38 UNL A   1      51.387  47.230  23.043  1.00  0.00    +0.000 C 
ATOM     50  F4  UNL A   1      52.039  46.105  22.716  1.00  0.00    +0.000 F 
ATOM     51  C39 UNL A   1      51.144  48.199  22.074  1.00  0.00    +0.000 C 
ATOM     52  F5  UNL A   1      51.585  47.985  20.824  1.00  0.00    +0.000 F 
ENDBRANCH   41   42
BRANCH   58   59
ATOM     65  F8  UNL A   1      56.284  58.108  20.513  1.00  0.00    +0.000 F 
ATOM     66  C49 UNL A   1      54.041  57.512  20.951  1.00  0.00    +0.000 C 
ATOM     67  F9  UNL A   1      53.916  58.547  21.792  1.00  0.00    +0.000 F 
ATOM     68  C50 UNL A   1      52.967  56.652  20.742  1.00  0.00    +0.000 C 
ATOM     69  F10 UNL A   1      51.823  56.878  21.406  1.00  0.00    +0.000 F 
ATOM     59  C45 UNL A   1      53.066  55.575  19.848  1.00  0.00    +0.000 C 
ATOM     60  C46 UNL A   1      54.283  55.389  19.175  1.00  0.00    +0.000 C 
ATOM     61  F6  UNL A   1      54.433  54.366  18.322  1.00  0.00    +0.000 F 
ATOM     62  C47 UNL A   1      55.366  56.231  19.411  1.00  0.00    +0.000 C 
ATOM     63  F7  UNL A   1      56.535  56.003  18.796  1.00  0.00    +0.000 F 
ATOM     64  C48 UNL A   1      55.242  57.295  20.292  1.00  0.00    +0.000 C 
ENDBRANCH   58   59
BRANCH   73   74
ATOM     74  C54 UNL A   1      47.629  56.053  15.519  1.00  0.00    +0.000 C 
ATOM     75  C55 UNL A   1      47.027  57.238  15.965  1.00  0.00    +0.000 C 
ATOM     76  F11 UNL A   1      46.853  57.450  17.278  1.00  0.00    +0.000 F 
ATOM     77  C56 UNL A   1      46.555  58.190  15.062  1.00  0.00    +0.000 C 
ATOM     78  F12 UNL A   1      45.934  59.288  15.513  1.00  0.00    +0.000 F 
ATOM     79  C57 UNL A   1      46.710  57.992  13.699  1.00  0.00    +0.000 C 
ATOM     80  F13 UNL A   1      46.256  58.906  12.831  1.00  0.00    +0.000 F 
ATOM     81  C58 UNL A   1      47.326  56.839  13.235  1.00  0.00    +0.000 C 
ATOM     82  F14 UNL A   1      47.492  56.652  11.919  1.00  0.00    +0.000 F 
ATOM     83  C59 UNL A   1      47.769  55.872  14.137  1.00  0.00    +0.000 C 
ATOM     84  F15 UNL A   1      48.344  54.760  13.658  1.00  0.00    +0.000 F 
ENDBRANCH   73   74
TORSDOF 26
ENDMDL
MODEL 2
REMARK VINA RESULT:      -7.4     24.238     28.485
ROOT
ATOM    131  H34 UNL A   1      40.127  28.688  26.922  1.00  0.00    +0.000 H 
ATOM    132  H35 UNL A   1      38.147  30.297  27.463  1.00  0.00    +0.000 H 
ATOM    133  H36 UNL A   1      40.380  29.776  30.911  1.00  0.00    +0.000 H 
ATOM    134  H37 UNL A   1      41.168  30.747  37.165  1.00  0.00    +0.000 H 
ATOM    135  H38 UNL A   1      43.124  29.226  36.611  1.00  0.00    +0.000 H 
ATOM    136  H39 UNL A   1      40.921  29.772  33.131  1.00  0.00    +0.000 H 
ATOM    137  H40 UNL A   1      37.232  32.975  34.312  1.00  0.00    +0.000 H 
ATOM    138  H41 UNL A   1      36.396  32.685  31.911  1.00  0.00    +0.000 H 
ATOM    139  H42 UNL A   1      44.310  26.882  29.754  1.00  0.00    +0.000 H 
ATOM    140  H43 UNL A   1      44.877  26.732  32.247  1.00  0.00    +0.000 H 
ATOM     37  C30 UNL A   1      43.226  28.373  33.899  1.00  0.00    +0.000 C 
ATOM     38  C31 UNL A   1      43.094  28.123  32.423  1.00  0.00    +0.000 C 
ATOM     39  N3  UNL A   1      42.207  28.592  31.581  1.00  0.00    +0.000 N 
ATOM     40  C32 UNL A   1      42.567  28.095  30.335  1.00  0.00    +0.000 C 
ATOM     41  C33 UNL A   1      41.933  28.255  29.149  1.00  0.00    +0.000 C 
ATOM     53  C40 UNL A   1      40.706  28.990  28.978  1.00  0.00    +0.000 C 
ATOM     54  C41 UNL A   1      39.940  29.132  27.836  1.00  0.00    +0.000 C 
ATOM     55  C42 UNL A   1      38.868  29.980  28.130  1.00  0.00    +0.000 C 
ATOM     56  C43 UNL A   1      38.936  30.322  29.471  1.00  0.00    +0.000 C 
ATOM     57  N4  UNL A   1      40.070  29.710  29.979  1.00  0.00    +0.000 N 
ATOM     58  C44 UNL A   1      38.034  31.147  30.233  1.00  0.00    +0.000 C 
ATOM     70  C51 UNL A   1      38.161  31.421  31.554  1.00  0.00    +0.000 C 
ATOM     71  N5  UNL A   1      39.138  30.996  32.443  1.00  0.00    +0.000 N 
ATOM     72  C52 UNL A   1      38.839  31.545  33.596  1.00  0.00    +0.000 C 
ATOM     73  C53 UNL A   1      39.537  31.409  34.922  1.00  0.00    +0.000 C 
ATOM     85  C60 UNL A   1      40.607  30.597  35.018  1.00  0.00    +0.000 C 
ATOM     86  C61 UNL A   1      41.378  30.355  36.232  1.00  0.00    +0.000 C 
ATOM     87  C62 UNL A   1      42.405  29.542  35.941  1.00  0.00    +0.000 C 
ATOM     88  C63 UNL A   1      42.345  29.174  34.528  1.00  0.00    +0.000 C 
ATOM     89  N6  UNL A   1      41.236  29.836  34.061  1.00  0.00    +0.000 N 
ATOM     90  C64 UNL A   1      37.647  32.405  33.558  1.00  0.00    +0.000 C 
ATOM     91  C65 UNL A   1      37.249  32.258  32.304  1.00  0.00    +0.000 C 
ATOM     92  C66 UNL A   1      43.776  27.323  30.519  1.00  0.00    +0.000 C 
ATOM     93  C67 UNL A   1      44.108  27.256  31.801  1.00  0.00    +0.000 C 
ENDROOT
BRANCH   37   36
ATOM     33  C26 UNL A   1      46.486  26.637  36.089  1.00  0.00    +0.000 C 
ATOM     34  C27 UNL A   1      46.667  27.847  35.415  1.00  0.00    +0.000 C 
ATOM     35  C28 UNL A   1      45.601  28.428  34.723  1.00  0.00    +0.000 C 
ATOM    129  H32 UNL A   1      47.588  28.313  35.429  1.00  0.00    +0.000 H 
ATOM    130  H33 UNL A   1      45.730  29.337  34.253  1.00  0.00    +0.000 H 
ATOM     36  C29 UNL A   1      44.355  27.783  34.665  1.00  0.00    +0.000 C 
ATOM    141  H44 UNL A   1      43.278  26.076  35.296  1.00  0.00    +0.000 H 
ATOM    142  H45 UNL A   1      45.068  25.179  36.660  1.00  0.00    +0.000 H 
ATOM     94  C68 UNL A   1      44.182  26.571  35.348  1.00  0.00    +0.000 C 
ATOM     95  C69 UNL A   1      45.226  26.029  36.098  1.00  0.00    +0.000 C 
BRANCH   33   31
ATOM     31  C25 UNL A   1      47.631  26.059  36.833  1.00  0.00    +0.000 C 
ATOM     32  O5  UNL A   1      48.319  26.780  37.550  1.00  0.00    +0.000 O 
BRANCH   31   30
ATOM     30  N2  UNL A   1      47.919  24.721  36.737  1.00  0.00    +0.000 N 
ATOM    128  H31 UNL A   1      47.913  24.342  35.828  1.00  0.00    +0.000 H 
BRANCH   30   29
ATOM     29  C24 UNL A   1      48.230  23.793  37.811  1.00  0.00    +0.000 C 
ATOM    126  H29 UNL A   1      48.759  22.956  37.405  1.00  0.00    +0.000 H 
ATOM    127  H30 UNL A   1      48.828  24.306  38.535  1.00  0.00    +0.000 H 
BRANCH   29   28
ATOM    124  H27 UNL A   1      47.253  22.570  39.236  1.00  0.00    +0.000 H 
ATOM     28  C23 UNL A   1      46.967  23.293  38.501  1.00  0.00    +0.000 C 
ATOM    125  H28 UNL A   1      46.491  24.154  38.922  1.00  0.00    +0.000 H 
BRANCH   28   27
ATOM    122  H25 UNL A   1      45.129  22.287  38.162  1.00  0.00    +0.000 H 
ATOM     27  C22 UNL A   1      45.944  22.644  37.567  1.00  0.00    +0.000 C 
ATOM    123  H26 UNL A   1      45.657  23.401  36.866  1.00  0.00    +0.000 H 
BRANCH   27   26
ATOM    121  H24 UNL A   1      46.013  20.591  37.132  1.00  0.00    +0.000 H 
ATOM     26  C21 UNL A   1      46.478  21.470  36.737  1.00  0.00    +0.000 C 
ATOM    120  H23 UNL A   1      47.545  21.464  36.822  1.00  0.00    +0.000 H 
BRANCH   26   25
ATOM     25  C20 UNL A   1      46.120  21.509  35.248  1.00  0.00    +0.000 C 
ATOM    118  H21 UNL A   1      46.994  21.791  34.699  1.00  0.00    +0.000 H 
ATOM    119  H22 UNL A   1      45.768  20.534  34.988  1.00  0.00    +0.000 H 
BRANCH   25   24
ATOM    116  H19 UNL A   1      44.062  21.994  35.012  1.00  0.00    +0.000 H 
ATOM    117  H20 UNL A   1      45.069  23.323  35.575  1.00  0.00    +0.000 H 
ATOM     24  C19 UNL A   1      45.003  22.489  34.907  1.00  0.00    +0.000 C 
BRANCH   24   23
ATOM    115  H18 UNL A   1      46.031  22.915  33.155  1.00  0.00    +0.000 H 
ATOM     23  N1  UNL A   1      45.131  22.977  33.550  1.00  0.00    +0.000 N 
BRANCH   23   21
ATOM     21  C18 UNL A   1      44.168  23.509  32.753  1.00  0.00    +0.000 C 
ATOM     22  O4  UNL A   1      43.364  24.322  33.191  1.00  0.00    +0.000 O 
BRANCH   21   20
ATOM    114  H17 UNL A   1      44.198  22.067  31.116  1.00  0.00    +0.000 H 
ATOM     20  C17 UNL A   1      44.074  23.065  31.348  1.00  0.00    +0.000 C 
BRANCH   20   19
ATOM    113  H16 UNL A   1      43.325  24.821  30.603  1.00  0.00    +0.000 H 
ATOM     19  C16 UNL A   1      43.830  23.952  30.371  1.00  0.00    +0.000 C 
BRANCH   19   18
ATOM      9  C8  UNL A   1      43.408  22.981  28.119  1.00  0.00    +0.000 C 
ATOM     10  C9  UNL A   1      43.817  22.684  26.808  1.00  0.00    +0.000 C 
ATOM     11  C10 UNL A   1      45.056  23.099  26.333  1.00  0.00    +0.000 C 
ATOM    105  H8  UNL A   1      43.189  22.150  26.188  1.00  0.00    +0.000 H 
ATOM    109  H12 UNL A   1      46.784  24.188  26.804  1.00  0.00    +0.000 H 
ATOM     14  C12 UNL A   1      45.877  23.851  27.165  1.00  0.00    +0.000 C 
ATOM     15  C13 UNL A   1      45.509  24.166  28.486  1.00  0.00    +0.000 C 
ATOM     18  C15 UNL A   1      44.260  23.729  28.982  1.00  0.00    +0.000 C 
BRANCH    9    8
ATOM    104  H7  UNL A   1      41.788  22.543  29.495  1.00  0.00    +0.000 H 
ATOM      8  C7  UNL A   1      42.101  22.415  28.520  1.00  0.00    +0.000 C 
BRANCH    8    7
ATOM    103  H6  UNL A   1      41.572  20.771  27.451  1.00  0.00    +0.000 H 
ATOM      7  C6  UNL A   1      41.304  21.743  27.673  1.00  0.00    +0.000 C 
BRANCH    7    6
ATOM     97  C71 UNL A   1      38.255  21.881  25.442  1.00  0.00    +0.000 C 
ATOM      3  C2  UNL A   1      37.735  23.148  25.697  1.00  0.00    +0.000 C 
ATOM      4  C3  UNL A   1      38.380  23.965  26.626  1.00  0.00    +0.000 C 
ATOM    101  H4  UNL A   1      38.003  24.904  26.828  1.00  0.00    +0.000 H 
ATOM      5  C4  UNL A   1      39.536  23.528  27.291  1.00  0.00    +0.000 C 
ATOM    102  H5  UNL A   1      39.990  24.145  27.982  1.00  0.00    +0.000 H 
ATOM      6  C5  UNL A   1      40.080  22.265  27.028  1.00  0.00    +0.000 C 
ATOM    143  H46 UNL A   1      39.788  20.506  25.898  1.00  0.00    +0.000 H 
ATOM    144  H47 UNL A   1      37.784  21.260  24.765  1.00  0.00    +0.000 H 
ATOM     96  C70 UNL A   1      39.415  21.447  26.101  1.00  0.00    +0.000 C 
BRANCH    3    2
ATOM      2  O1  UNL A   1      36.646  23.709  25.089  1.00  0.00    +0.000 O 
BRANCH    2    1
ATOM      1  C1  UNL A   1      35.373  23.187  25.450  1.00  0.00    +0.000 C 
ATOM     98  H1  UNL A   1      35.424  22.120  25.492  1.00  0.00    +0.000 H 
ATOM     99  H2  UNL A   1      34.647  23.482  24.722  1.00  0.00    +0.000 H 
ATOM    100  H3  UNL A   1      35.091  23.568  26.410  1.00  0.00    +0.000 H 
ENDBRANCH    2    1
ENDBRANCH    3    2
ENDBRANCH    7    6
ENDBRANCH    8    7
ENDBRANCH    9    8
BRANCH   11   12
ATOM     12  O2  UNL A   1      45.363  22.709  25.058  1.00  0.00    +0.000 O 
BRANCH   12   13
ATOM    106  H9  UNL A   1      44.232  21.854  23.581  1.00  0.00    +0.000 H 
ATOM    107  H10 UNL A   1      44.508  23.571  23.411  1.00  0.00    +0.000 H 
ATOM    108  H11 UNL A   1      43.384  22.981  24.611  1.00  0.00    +0.000 H 
ATOM     13  C11 UNL A   1      44.306  22.784  24.106  1.00  0.00    +0.000 C 
ENDBRANCH   12   13
ENDBRANCH   11   12
BRANCH   15   16
ATOM     16  O3  UNL A   1      46.531  24.842  29.097  1.00  0.00    +0.000 O 
BRANCH   16   17
ATOM     17  C14 UNL A   1      46.900  26.160  28.741  1.00  0.00    +0.000 C 
ATOM    110  H13 UNL A   1      46.814  26.280  27.681  1.00  0.00    +0.000 H 
ATOM    111  H14 UNL A   1      47.911  26.341  29.040  1.00  0.00    +0.000 H 
ATOM    112  H15 UNL A   1      46.253  26.857  29.232  1.00  0.00    +0.000 H 
ENDBRANCH   16   17
ENDBRANCH   15   16
ENDBRANCH   19   18
ENDBRANCH   20   19
ENDBRANCH   21   20
ENDBRANCH   23   21
ENDBRANCH   24   23
ENDBRANCH   25   24
ENDBRANCH   26   25
ENDBRANCH   27   26
ENDBRANCH   28   27
ENDBRANCH   29   28
ENDBRANCH   30   29
ENDBRANCH   31   30
ENDBRANCH   33   31
ENDBRANCH   37   36
BRANCH   41   42
ATOM     42  C34 UNL A   1      42.546  27.625  27.933  1.00  0.00    +0.000 C 
ATOM     43  C35 UNL A   1      41.975  26.501  27.318  1.00  0.00    +0.000 C 
ATOM     44  F1  UNL A   1      40.898  25.910  27.857  1.00  0.00    +0.000 F 
ATOM     45  C36 UNL A   1      42.526  25.963  26.156  1.00  0.00    +0.000 C 
ATOM     46  F2  UNL A   1      41.984  24.867  25.606  1.00  0.00    +0.000 F 
ATOM     47  C37 UNL A   1      43.634  26.556  25.571  1.00  0.00    +0.000 C 
ATOM     48  F3  UNL A   1      44.151  26.048  24.444  1.00  0.00    +0.000 F 
ATOM     49  C38 UNL A   1      44.207  27.675  26.156  1.00  0.00    +0.000 C 
ATOM     50  F4  UNL A   1      45.270  28.258  25.583  1.00  0.00    +0.000 F 
ATOM     51  C39 UNL A   1      43.677  28.198  27.331  1.00  0.00    +0.000 C 
ATOM     52  F5  UNL A   1      44.258  29.278  27.875  1.00  0.00    +0.000 F 
ENDBRANCH   41   42
BRANCH   58   59
ATOM     65  F8  UNL A   1      33.565  33.401  27.613  1.00  0.00    +0.000 F 
ATOM     66  C49 UNL A   1      35.688  33.667  28.614  1.00  0.00    +0.000 C 
ATOM     67  F9  UNL A   1      35.650  34.985  28.375  1.00  0.00    +0.000 F 
ATOM     68  C50 UNL A   1      36.797  33.105  29.238  1.00  0.00    +0.000 C 
ATOM     69  F10 UNL A   1      37.819  33.906  29.578  1.00  0.00    +0.000 F 
ATOM     59  C45 UNL A   1      36.849  31.732  29.521  1.00  0.00    +0.000 C 
ATOM     60  C46 UNL A   1      35.750  30.942  29.151  1.00  0.00    +0.000 C 
ATOM     61  F6  UNL A   1      35.758  29.622  29.386  1.00  0.00    +0.000 F 
ATOM     62  C47 UNL A   1      34.656  31.502  28.497  1.00  0.00    +0.000 C 
ATOM     63  F7  UNL A   1      33.640  30.720  28.107  1.00  0.00    +0.000 F 
ATOM     64  C48 UNL A   1      34.622  32.864  28.236  1.00  0.00    +0.000 C 
ENDBRANCH   58   59
BRANCH   73   74
ATOM     74  C54 UNL A   1      39.053  32.151  36.116  1.00  0.00    +0.000 C 
ATOM     75  C55 UNL A   1      38.148  31.565  37.013  1.00  0.00    +0.000 C 
ATOM     76  F11 UNL A   1      37.706  30.316  36.800  1.00  0.00    +0.000 F 
ATOM     77  C56 UNL A   1      37.652  32.276  38.104  1.00  0.00    +0.000 C 
ATOM     78  F12 UNL A   1      36.745  31.711  38.913  1.00  0.00    +0.000 F 
ATOM     79  C57 UNL A   1      38.081  33.572  38.342  1.00  0.00    +0.000 C 
ATOM     80  F13 UNL A   1      37.605  34.256  39.391  1.00  0.00    +0.000 F 
ATOM     81  C58 UNL A   1      38.997  34.164  37.485  1.00  0.00    +0.000 C 
ATOM     82  F14 UNL A   1      39.426  35.411  37.720  1.00  0.00    +0.000 F 
ATOM     83  C59 UNL A   1      39.468  33.464  36.374  1.00  0.00    +0.000 C 
ATOM     84  F15 UNL A   1      40.338  34.068  35.553  1.00  0.00    +0.000 F 
ENDBRANCH   73   74
TORSDOF 26
ENDMDL
MODEL 3
REMARK VINA RESULT:      -7.3     33.291     38.509
ROOT
ATOM    131  H34 UNL A   1      18.589  53.177  -0.953  1.00  0.00    +0.000 H 
ATOM    132  H35 UNL A   1      18.102  50.683  -1.536  1.00  0.00    +0.000 H 
ATOM    133  H36 UNL A   1      15.712  51.760   1.670  1.00  0.00    +0.000 H 
ATOM    134  H37 UNL A   1      11.547  50.152   6.223  1.00  0.00    +0.000 H 
ATOM    135  H38 UNL A   1      11.988  52.598   6.744  1.00  0.00    +0.000 H 
ATOM    136  H39 UNL A   1      14.362  51.547   3.500  1.00  0.00    +0.000 H 
ATOM    137  H40 UNL A   1      13.220  46.770   2.435  1.00  0.00    +0.000 H 
ATOM    138  H41 UNL A   1      15.014  46.888   0.614  1.00  0.00    +0.000 H 
ATOM    139  H42 UNL A   1      16.502  56.629   2.585  1.00  0.00    +0.000 H 
ATOM    140  H43 UNL A   1      15.111  56.407   4.723  1.00  0.00    +0.000 H 
ATOM     37  C30 UNL A   1      13.895  53.843   5.040  1.00  0.00    +0.000 C 
ATOM     38  C31 UNL A   1      14.867  54.278   3.979  1.00  0.00    +0.000 C 
ATOM     39  N3  UNL A   1      15.367  53.589   2.983  1.00  0.00    +0.000 N 
ATOM     40  C32 UNL A   1      16.169  54.474   2.275  1.00  0.00    +0.000 C 
ATOM     41  C33 UNL A   1      16.940  54.228   1.190  1.00  0.00    +0.000 C 
ATOM     53  C40 UNL A   1      17.079  52.936   0.569  1.00  0.00    +0.000 C 
ATOM     54  C41 UNL A   1      17.906  52.566  -0.476  1.00  0.00    +0.000 C 
ATOM     55  C42 UNL A   1      17.658  51.224  -0.777  1.00  0.00    +0.000 C 
ATOM     56  C43 UNL A   1      16.717  50.742   0.117  1.00  0.00    +0.000 C 
ATOM     57  N4  UNL A   1      16.367  51.803   0.936  1.00  0.00    +0.000 N 
ATOM     58  C44 UNL A   1      16.174  49.411   0.217  1.00  0.00    +0.000 C 
ATOM     70  C51 UNL A   1      15.263  49.011   1.137  1.00  0.00    +0.000 C 
ATOM     71  N5  UNL A   1      14.666  49.748   2.151  1.00  0.00    +0.000 N 
ATOM     72  C52 UNL A   1      13.842  48.926   2.756  1.00  0.00    +0.000 C 
ATOM     73  C53 UNL A   1      12.953  49.176   3.943  1.00  0.00    +0.000 C 
ATOM     85  C60 UNL A   1      12.983  50.383   4.540  1.00  0.00    +0.000 C 
ATOM     86  C61 UNL A   1      12.191  50.770   5.703  1.00  0.00    +0.000 C 
ATOM     87  C62 UNL A   1      12.433  52.060   5.984  1.00  0.00    +0.000 C 
ATOM     88  C63 UNL A   1      13.426  52.581   5.046  1.00  0.00    +0.000 C 
ATOM     89  N6  UNL A   1      13.706  51.511   4.233  1.00  0.00    +0.000 N 
ATOM     90  C64 UNL A   1      13.806  47.577   2.172  1.00  0.00    +0.000 C 
ATOM     91  C65 UNL A   1      14.723  47.671   1.221  1.00  0.00    +0.000 C 
ATOM     92  C66 UNL A   1      16.060  55.761   2.927  1.00  0.00    +0.000 C 
ATOM     93  C67 UNL A   1      15.318  55.678   4.022  1.00  0.00    +0.000 C 
ENDROOT
BRANCH   37   36
ATOM     33  C26 UNL A   1      12.515  56.660   7.972  1.00  0.00    +0.000 C 
ATOM     34  C27 UNL A   1      11.840  56.535   6.755  1.00  0.00    +0.000 C 
ATOM     35  C28 UNL A   1      12.271  55.601   5.810  1.00  0.00    +0.000 C 
ATOM    129  H32 UNL A   1      11.022  57.133   6.555  1.00  0.00    +0.000 H 
ATOM    130  H33 UNL A   1      11.751  55.490   4.925  1.00  0.00    +0.000 H 
ATOM     36  C29 UNL A   1      13.406  54.813   6.055  1.00  0.00    +0.000 C 
ATOM    141  H44 UNL A   1      14.921  54.382   7.465  1.00  0.00    +0.000 H 
ATOM    142  H45 UNL A   1      14.050  55.856   9.181  1.00  0.00    +0.000 H 
ATOM     94  C68 UNL A   1      14.074  54.942   7.281  1.00  0.00    +0.000 C 
ATOM     95  C69 UNL A   1      13.600  55.822   8.253  1.00  0.00    +0.000 C 
BRANCH   33   31
ATOM     31  C25 UNL A   1      12.018  57.645   8.963  1.00  0.00    +0.000 C 
ATOM     32  O5  UNL A   1      12.370  58.819   8.887  1.00  0.00    +0.000 O 
BRANCH   31   30
ATOM     30  N2  UNL A   1      11.155  57.256   9.957  1.00  0.00    +0.000 N 
ATOM    128  H31 UNL A   1      10.934  57.941  10.629  1.00  0.00    +0.000 H 
BRANCH   30   29
ATOM     29  C24 UNL A   1      10.529  55.957  10.142  1.00  0.00    +0.000 C 
ATOM    126  H29 UNL A   1       9.537  56.101  10.516  1.00  0.00    +0.000 H 
ATOM    127  H30 UNL A   1      10.511  55.456   9.197  1.00  0.00    +0.000 H 
BRANCH   29   28
ATOM    124  H27 UNL A   1      12.237  54.822  10.667  1.00  0.00    +0.000 H 
ATOM     28  C23 UNL A   1      11.310  55.096  11.126  1.00  0.00    +0.000 C 
ATOM    125  H28 UNL A   1      11.438  55.686  12.010  1.00  0.00    +0.000 H 
BRANCH   28   27
ATOM    122  H25 UNL A   1      11.247  53.277  12.217  1.00  0.00    +0.000 H 
ATOM     27  C22 UNL A   1      10.595  53.815  11.560  1.00  0.00    +0.000 C 
ATOM    123  H26 UNL A   1       9.683  54.124  12.026  1.00  0.00    +0.000 H 
BRANCH   27   26
ATOM    121  H24 UNL A   1       9.676  53.485   9.701  1.00  0.00    +0.000 H 
ATOM     26  C21 UNL A   1      10.195  52.878  10.413  1.00  0.00    +0.000 C 
ATOM    120  H23 UNL A   1       9.595  52.092  10.823  1.00  0.00    +0.000 H 
BRANCH   26   25
ATOM     25  C20 UNL A   1      11.364  52.238   9.657  1.00  0.00    +0.000 C 
ATOM    118  H21 UNL A   1      11.195  52.362   8.608  1.00  0.00    +0.000 H 
ATOM    119  H22 UNL A   1      12.254  52.728   9.991  1.00  0.00    +0.000 H 
BRANCH   25   24
ATOM    116  H19 UNL A   1      10.692  50.221   9.572  1.00  0.00    +0.000 H 
ATOM    117  H20 UNL A   1      12.438  50.420   9.456  1.00  0.00    +0.000 H 
ATOM     24  C19 UNL A   1      11.544  50.752   9.942  1.00  0.00    +0.000 C 
BRANCH   24   23
ATOM    115  H18 UNL A   1      10.990  50.919  11.935  1.00  0.00    +0.000 H 
ATOM     23  N1  UNL A   1      11.674  50.502  11.362  1.00  0.00    +0.000 N 
BRANCH   23   21
ATOM     21  C18 UNL A   1      12.619  49.768  12.005  1.00  0.00    +0.000 C 
ATOM     22  O4  UNL A   1      13.811  49.940  11.783  1.00  0.00    +0.000 O 
BRANCH   21   20
ATOM    114  H17 UNL A   1      12.094  48.949  13.957  1.00  0.00    +0.000 H 
ATOM     20  C17 UNL A   1      12.191  48.722  12.955  1.00  0.00    +0.000 C 
BRANCH   20   19
ATOM    113  H16 UNL A   1      12.470  46.692  12.916  1.00  0.00    +0.000 H 
ATOM     19  C16 UNL A   1      11.930  47.479  12.524  1.00  0.00    +0.000 C 
BRANCH   19   18
ATOM      9  C8  UNL A   1      11.290  46.538  10.310  1.00  0.00    +0.000 C 
ATOM     10  C9  UNL A   1      10.351  46.320   9.289  1.00  0.00    +0.000 C 
ATOM     11  C10 UNL A   1       9.035  46.750   9.422  1.00  0.00    +0.000 C 
ATOM    105  H8  UNL A   1      10.641  45.832   8.427  1.00  0.00    +0.000 H 
ATOM    109  H12 UNL A   1       7.664  47.662  10.718  1.00  0.00    +0.000 H 
ATOM     14  C12 UNL A   1       8.647  47.370  10.604  1.00  0.00    +0.000 C 
ATOM     15  C13 UNL A   1       9.557  47.614  11.649  1.00  0.00    +0.000 C 
ATOM     18  C15 UNL A   1      10.900  47.198  11.512  1.00  0.00    +0.000 C 
BRANCH    9    8
ATOM    104  H7  UNL A   1      13.111  45.400  10.628  1.00  0.00    +0.000 H 
ATOM      8  C7  UNL A   1      12.670  46.099  10.009  1.00  0.00    +0.000 C 
BRANCH    8    7
ATOM    103  H6  UNL A   1      13.279  46.064   8.071  1.00  0.00    +0.000 H 
ATOM      7  C6  UNL A   1      13.376  46.569   8.966  1.00  0.00    +0.000 C 
BRANCH    7    6
ATOM     97  C71 UNL A   1      16.366  48.731   9.791  1.00  0.00    +0.000 C 
ATOM      3  C2  UNL A   1      16.090  49.919   9.120  1.00  0.00    +0.000 C 
ATOM      4  C3  UNL A   1      14.917  50.011   8.370  1.00  0.00    +0.000 C 
ATOM    101  H4  UNL A   1      14.703  50.885   7.864  1.00  0.00    +0.000 H 
ATOM      5  C4  UNL A   1      14.023  48.933   8.294  1.00  0.00    +0.000 C 
ATOM    102  H5  UNL A   1      13.167  49.020   7.725  1.00  0.00    +0.000 H 
ATOM      6  C5  UNL A   1      14.279  47.740   8.982  1.00  0.00    +0.000 C 
ATOM    143  H46 UNL A   1      15.687  46.782  10.227  1.00  0.00    +0.000 H 
ATOM    144  H47 UNL A   1      17.235  48.642  10.342  1.00  0.00    +0.000 H 
ATOM     96  C70 UNL A   1      15.468  47.655   9.722  1.00  0.00    +0.000 C 
BRANCH    3    2
ATOM      2  O1  UNL A   1      16.853  51.054   9.146  1.00  0.00    +0.000 O 
BRANCH    2    1
ATOM      1  C1  UNL A   1      18.099  51.003   8.463  1.00  0.00    +0.000 C 
ATOM     98  H1  UNL A   1      17.948  50.628   7.473  1.00  0.00    +0.000 H 
ATOM     99  H2  UNL A   1      18.769  50.357   8.991  1.00  0.00    +0.000 H 
ATOM    100  H3  UNL A   1      18.519  51.987   8.412  1.00  0.00    +0.000 H 
ENDBRANCH    2    1
ENDBRANCH    3    2
ENDBRANCH    7    6
ENDBRANCH    8    7
ENDBRANCH    9    8
BRANCH   11   12
ATOM     12  O2  UNL A   1       8.226  46.523   8.343  1.00  0.00    +0.000 O 
BRANCH   12   13
ATOM    106  H9  UNL A   1       6.290  46.276   7.722  1.00  0.00    +0.000 H 
ATOM    107  H10 UNL A   1       6.481  46.963   9.318  1.00  0.00    +0.000 H 
ATOM    108  H11 UNL A   1       6.782  45.262   9.058  1.00  0.00    +0.000 H 
ATOM     13  C11 UNL A   1       6.860  46.238   8.628  1.00  0.00    +0.000 C 
ENDBRANCH   12   13
ENDBRANCH   11   12
BRANCH   15   16
ATOM     16  O3  UNL A   1       8.929  48.304  12.651  1.00  0.00    +0.000 O 
BRANCH   16   17
ATOM     17  C14 UNL A   1       8.397  49.602  12.472  1.00  0.00    +0.000 C 
ATOM    110  H13 UNL A   1       8.785  50.025  11.569  1.00  0.00    +0.000 H 
ATOM    111  H14 UNL A   1       8.672  50.218  13.302  1.00  0.00    +0.000 H 
ATOM    112  H15 UNL A   1       7.330  49.544  12.408  1.00  0.00    +0.000 H 
ENDBRANCH   16   17
ENDBRANCH   15   16
ENDBRANCH   19   18
ENDBRANCH   20   19
ENDBRANCH   21   20
ENDBRANCH   23   21
ENDBRANCH   24   23
ENDBRANCH   25   24
ENDBRANCH   26   25
ENDBRANCH   27   26
ENDBRANCH   28   27
ENDBRANCH   29   28
ENDBRANCH   30   29
ENDBRANCH   31   30
ENDBRANCH   33   31
ENDBRANCH   37   36
BRANCH   41   42
ATOM     42  C34 UNL A   1      17.704  55.375   0.594  1.00  0.00    +0.000 C 
ATOM     43  C35 UNL A   1      17.176  56.151  -0.448  1.00  0.00    +0.000 C 
ATOM     44  F1  UNL A   1      15.993  55.833  -0.994  1.00  0.00    +0.000 F 
ATOM     45  C36 UNL A   1      17.875  57.246  -0.950  1.00  0.00    +0.000 C 
ATOM     46  F2  UNL A   1      17.367  57.953  -1.970  1.00  0.00    +0.000 F 
ATOM     47  C37 UNL A   1      19.097  57.605  -0.401  1.00  0.00    +0.000 C 
ATOM     48  F3  UNL A   1      19.759  58.670  -0.874  1.00  0.00    +0.000 F 
ATOM     49  C38 UNL A   1      19.632  56.858   0.638  1.00  0.00    +0.000 C 
ATOM     50  F4  UNL A   1      20.806  57.212   1.179  1.00  0.00    +0.000 F 
ATOM     51  C39 UNL A   1      18.950  55.747   1.123  1.00  0.00    +0.000 C 
ATOM     52  F5  UNL A   1      19.497  55.042   2.125  1.00  0.00    +0.000 F 
ENDBRANCH   41   42
BRANCH   58   59
ATOM     65  F8  UNL A   1      18.100  45.564  -3.445  1.00  0.00    +0.000 F 
ATOM     66  C49 UNL A   1      18.402  46.832  -1.475  1.00  0.00    +0.000 C 
ATOM     67  F9  UNL A   1      19.605  46.275  -1.284  1.00  0.00    +0.000 F 
ATOM     68  C50 UNL A   1      17.914  47.763  -0.562  1.00  0.00    +0.000 C 
ATOM     69  F10 UNL A   1      18.666  48.073   0.505  1.00  0.00    +0.000 F 
ATOM     59  C45 UNL A   1      16.668  48.378  -0.754  1.00  0.00    +0.000 C 
ATOM     60  C46 UNL A   1      15.926  48.023  -1.890  1.00  0.00    +0.000 C 
ATOM     61  F6  UNL A   1      14.723  48.572  -2.110  1.00  0.00    +0.000 F 
ATOM     62  C47 UNL A   1      16.402  47.068  -2.784  1.00  0.00    +0.000 C 
ATOM     63  F7  UNL A   1      15.654  46.706  -3.835  1.00  0.00    +0.000 F 
ATOM     64  C48 UNL A   1      17.641  46.479  -2.580  1.00  0.00    +0.000 C 
ENDBRANCH   58   59
BRANCH   73   74
ATOM     74  C54 UNL A   1      12.057  48.108   4.462  1.00  0.00    +0.000 C 
ATOM     75  C55 UNL A   1      10.686  48.112   4.172  1.00  0.00    +0.000 C 
ATOM     76  F11 UNL A   1      10.163  49.088   3.414  1.00  0.00    +0.000 F 
ATOM     77  C56 UNL A   1       9.835  47.142   4.700  1.00  0.00    +0.000 C 
ATOM     78  F12 UNL A   1       8.519  47.201   4.453  1.00  0.00    +0.000 F 
ATOM     79  C57 UNL A   1      10.345  46.129   5.497  1.00  0.00    +0.000 C 
ATOM     80  F13 UNL A   1       9.528  45.197   6.005  1.00  0.00    +0.000 F 
ATOM     81  C58 UNL A   1      11.703  46.089   5.775  1.00  0.00    +0.000 C 
ATOM     82  F14 UNL A   1      12.203  45.102   6.532  1.00  0.00    +0.000 F 
ATOM     83  C59 UNL A   1      12.549  47.077   5.274  1.00  0.00    +0.000 C 
ATOM     84  F15 UNL A   1      13.854  47.023   5.576  1.00  0.00    +0.000 F 
ENDBRANCH   73   74
TORSDOF 26
ENDMDL
MODEL 4
REMARK VINA RESULT:      -7.2     39.664     45.954
ROOT
ATOM    131  H34 UNL A   1      11.678  19.581  10.370  1.00  0.00    +0.000 H 
ATOM    132  H35 UNL A   1      11.291  21.640   8.817  1.00  0.00    +0.000 H 
ATOM    133  H36 UNL A   1      14.742  19.710   7.585  1.00  0.00    +0.000 H 
ATOM    134  H37 UNL A   1      19.905  19.503   3.848  1.00  0.00    +0.000 H 
ATOM    135  H38 UNL A   1      20.238  17.469   5.330  1.00  0.00    +0.000 H 
ATOM    136  H39 UNL A   1      16.751  19.367   6.553  1.00  0.00    +0.000 H 
ATOM    137  H40 UNL A   1      16.091  23.224   3.398  1.00  0.00    +0.000 H 
ATOM    138  H41 UNL A   1      14.034  23.837   4.791  1.00  0.00    +0.000 H 
ATOM    139  H42 UNL A   1      15.298  15.622  10.439  1.00  0.00    +0.000 H 
ATOM    140  H43 UNL A   1      17.617  15.275   9.412  1.00  0.00    +0.000 H 
ATOM     37  C30 UNL A   1      18.226  17.106   7.308  1.00  0.00    +0.000 C 
ATOM     38  C31 UNL A   1      17.020  17.100   8.205  1.00  0.00    +0.000 C 
ATOM     39  N3  UNL A   1      15.999  17.920   8.223  1.00  0.00    +0.000 N 
ATOM     40  C32 UNL A   1      15.143  17.439   9.205  1.00  0.00    +0.000 C 
ATOM     41  C33 UNL A   1      13.975  17.969   9.637  1.00  0.00    +0.000 C 
ATOM     53  C40 UNL A   1      13.405  19.194   9.137  1.00  0.00    +0.000 C 
ATOM     54  C41 UNL A   1      12.274  19.860   9.574  1.00  0.00    +0.000 C 
ATOM     55  C42 UNL A   1      12.077  20.974   8.753  1.00  0.00    +0.000 C 
ATOM     56  C43 UNL A   1      13.116  21.033   7.839  1.00  0.00    +0.000 C 
ATOM     57  N4  UNL A   1      13.923  19.934   8.084  1.00  0.00    +0.000 N 
ATOM     58  C44 UNL A   1      13.356  22.018   6.817  1.00  0.00    +0.000 C 
ATOM     70  C51 UNL A   1      14.413  22.016   5.968  1.00  0.00    +0.000 C 
ATOM     71  N5  UNL A   1      15.462  21.112   5.884  1.00  0.00    +0.000 N 
ATOM     72  C52 UNL A   1      16.215  21.525   4.894  1.00  0.00    +0.000 C 
ATOM     73  C53 UNL A   1      17.502  20.944   4.373  1.00  0.00    +0.000 C 
ATOM     85  C60 UNL A   1      18.029  19.867   4.985  1.00  0.00    +0.000 C 
ATOM     86  C61 UNL A   1      19.270  19.201   4.604  1.00  0.00    +0.000 C 
ATOM     87  C62 UNL A   1      19.451  18.133   5.396  1.00  0.00    +0.000 C 
ATOM     88  C63 UNL A   1      18.360  18.058   6.366  1.00  0.00    +0.000 C 
ATOM     89  N6  UNL A   1      17.569  19.137   6.056  1.00  0.00    +0.000 N 
ATOM     90  C64 UNL A   1      15.710  22.729   4.219  1.00  0.00    +0.000 C 
ATOM     91  C65 UNL A   1      14.636  23.012   4.941  1.00  0.00    +0.000 C 
ATOM     92  C66 UNL A   1      15.740  16.233   9.735  1.00  0.00    +0.000 C 
ATOM     93  C67 UNL A   1      16.931  16.014   9.194  1.00  0.00    +0.000 C 
ENDROOT
BRANCH   37   36
ATOM     33  C26 UNL A   1      21.178  14.009   7.661  1.00  0.00    +0.000 C 
ATOM     34  C27 UNL A   1      20.100  13.845   6.788  1.00  0.00    +0.000 C 
ATOM     35  C28 UNL A   1      19.152  14.862   6.651  1.00  0.00    +0.000 C 
ATOM    129  H32 UNL A   1      20.004  12.974   6.243  1.00  0.00    +0.000 H 
ATOM    130  H33 UNL A   1      18.374  14.751   5.982  1.00  0.00    +0.000 H 
ATOM     36  C29 UNL A   1      19.250  16.034   7.417  1.00  0.00    +0.000 C 
ATOM    141  H44 UNL A   1      20.411  17.039   8.871  1.00  0.00    +0.000 H 
ATOM    142  H45 UNL A   1      22.160  15.362   8.952  1.00  0.00    +0.000 H 
ATOM     94  C68 UNL A   1      20.339  16.191   8.288  1.00  0.00    +0.000 C 
ATOM     95  C69 UNL A   1      21.323  15.206   8.369  1.00  0.00    +0.000 C 
BRANCH   33   31
ATOM     31  C25 UNL A   1      22.180  12.920   7.765  1.00  0.00    +0.000 C 
ATOM     32  O5  UNL A   1      21.807  11.752   7.841  1.00  0.00    +0.000 O 
BRANCH   31   30
ATOM     30  N2  UNL A   1      23.522  13.207   7.763  1.00  0.00    +0.000 N 
ATOM    128  H31 UNL A   1      23.984  13.100   6.900  1.00  0.00    +0.000 H 
BRANCH   30   29
ATOM     29  C24 UNL A   1      24.346  13.648   8.876  1.00  0.00    +0.000 C 
ATOM    126  H29 UNL A   1      23.767  13.604   9.775  1.00  0.00    +0.000 H 
ATOM    127  H30 UNL A   1      25.197  13.003   8.939  1.00  0.00    +0.000 H 
BRANCH   29   28
ATOM    124  H27 UNL A   1      24.003  15.735   8.779  1.00  0.00    +0.000 H 
ATOM     28  C23 UNL A   1      24.839  15.074   8.675  1.00  0.00    +0.000 C 
ATOM    125  H28 UNL A   1      25.598  15.240   9.411  1.00  0.00    +0.000 H 
BRANCH   28   27
ATOM    122  H25 UNL A   1      25.749  14.396   6.882  1.00  0.00    +0.000 H 
ATOM     27  C22 UNL A   1      25.490  15.339   7.316  1.00  0.00    +0.000 C 
ATOM    123  H26 UNL A   1      24.771  15.887   6.742  1.00  0.00    +0.000 H 
BRANCH   27   26
ATOM    121  H24 UNL A   1      27.282  15.915   8.245  1.00  0.00    +0.000 H 
ATOM     26  C21 UNL A   1      26.754  16.206   7.362  1.00  0.00    +0.000 C 
ATOM    120  H23 UNL A   1      26.451  17.233   7.365  1.00  0.00    +0.000 H 
BRANCH   26   25
ATOM     25  C20 UNL A   1      27.726  16.002   6.196  1.00  0.00    +0.000 C 
ATOM    118  H21 UNL A   1      28.679  15.724   6.597  1.00  0.00    +0.000 H 
ATOM    119  H22 UNL A   1      27.306  15.243   5.571  1.00  0.00    +0.000 H 
BRANCH   25   24
ATOM    116  H19 UNL A   1      28.607  17.011   4.542  1.00  0.00    +0.000 H 
ATOM    117  H20 UNL A   1      26.964  17.517   4.922  1.00  0.00    +0.000 H 
ATOM     24  C19 UNL A   1      27.915  17.238   5.325  1.00  0.00    +0.000 C 
BRANCH   24   23
ATOM    115  H18 UNL A   1      29.362  18.268   6.400  1.00  0.00    +0.000 H 
ATOM     23  N1  UNL A   1      28.428  18.350   6.098  1.00  0.00    +0.000 N 
BRANCH   23   21
ATOM     21  C18 UNL A   1      27.785  19.490   6.461  1.00  0.00    +0.000 C 
ATOM     22  O4  UNL A   1      27.495  20.343   5.631  1.00  0.00    +0.000 O 
BRANCH   21   20
ATOM    114  H17 UNL A   1      28.190  19.538   8.604  1.00  0.00    +0.000 H 
ATOM     20  C17 UNL A   1      27.470  19.714   7.886  1.00  0.00    +0.000 C 
BRANCH   20   19
ATOM    113  H16 UNL A   1      25.920  21.055   7.902  1.00  0.00    +0.000 H 
ATOM     19  C16 UNL A   1      26.253  20.143   8.252  1.00  0.00    +0.000 C 
BRANCH   19   18
ATOM      9  C8  UNL A   1      24.193  18.786   8.583  1.00  0.00    +0.000 C 
ATOM     10  C9  UNL A   1      23.293  18.093   9.410  1.00  0.00    +0.000 C 
ATOM     11  C10 UNL A   1      23.528  17.964  10.774  1.00  0.00    +0.000 C 
ATOM    105  H8  UNL A   1      22.444  17.674   8.999  1.00  0.00    +0.000 H 
ATOM    109  H12 UNL A   1      24.886  18.377  12.316  1.00  0.00    +0.000 H 
ATOM     14  C12 UNL A   1      24.693  18.499  11.309  1.00  0.00    +0.000 C 
ATOM     15  C13 UNL A   1      25.619  19.205  10.518  1.00  0.00    +0.000 C 
ATOM     18  C15 UNL A   1      25.376  19.358   9.135  1.00  0.00    +0.000 C 
BRANCH    9    8
ATOM    104  H7  UNL A   1      24.169  19.696   6.613  1.00  0.00    +0.000 H 
ATOM      8  C7  UNL A   1      23.785  18.914   7.167  1.00  0.00    +0.000 C 
BRANCH    8    7
ATOM    103  H6  UNL A   1      22.014  17.931   7.013  1.00  0.00    +0.000 H 
ATOM      7  C6  UNL A   1      22.937  18.060   6.570  1.00  0.00    +0.000 C 
BRANCH    7    6
ATOM     97  C71 UNL A   1      24.600  16.977   3.352  1.00  0.00    +0.000 C 
ATOM      3  C2  UNL A   1      23.814  15.906   2.936  1.00  0.00    +0.000 C 
ATOM      4  C3  UNL A   1      22.732  15.518   3.728  1.00  0.00    +0.000 C 
ATOM    101  H4  UNL A   1      22.144  14.723   3.432  1.00  0.00    +0.000 H 
ATOM      5  C4  UNL A   1      22.432  16.194   4.919  1.00  0.00    +0.000 C 
ATOM    102  H5  UNL A   1      21.634  15.884   5.495  1.00  0.00    +0.000 H 
ATOM      6  C5  UNL A   1      23.203  17.286   5.338  1.00  0.00    +0.000 C 
ATOM    143  H46 UNL A   1      24.888  18.451   4.833  1.00  0.00    +0.000 H 
ATOM    144  H47 UNL A   1      25.411  17.270   2.783  1.00  0.00    +0.000 H 
ATOM     96  C70 UNL A   1      24.296  17.658   4.540  1.00  0.00    +0.000 C 
BRANCH    3    2
ATOM      2  O1  UNL A   1      23.971  15.193   1.779  1.00  0.00    +0.000 O 
BRANCH    2    1
ATOM      1  C1  UNL A   1      24.055  13.779   1.906  1.00  0.00    +0.000 C 
ATOM     98  H1  UNL A   1      25.027  13.451   1.604  1.00  0.00    +0.000 H 
ATOM     99  H2  UNL A   1      23.315  13.320   1.284  1.00  0.00    +0.000 H 
ATOM    100  H3  UNL A   1      23.886  13.501   2.926  1.00  0.00    +0.000 H 
ENDBRANCH    2    1
ENDBRANCH    3    2
ENDBRANCH    7    6
ENDBRANCH    8    7
ENDBRANCH    9    8
BRANCH   11   12
ATOM     12  O2  UNL A   1      22.557  17.310  11.483  1.00  0.00    +0.000 O 
BRANCH   12   13
ATOM    106  H9  UNL A   1      24.049  16.678  12.734  1.00  0.00    +0.000 H 
ATOM    107  H10 UNL A   1      22.839  15.478  12.350  1.00  0.00    +0.000 H 
ATOM    108  H11 UNL A   1      22.461  16.776  13.456  1.00  0.00    +0.000 H 
ATOM     13  C11 UNL A   1      23.004  16.510  12.574  1.00  0.00    +0.000 C 
ENDBRANCH   12   13
ENDBRANCH   11   12
BRANCH   15   16
ATOM     16  O3  UNL A   1      26.626  19.686  11.312  1.00  0.00    +0.000 O 
BRANCH   16   17
ATOM     17  C14 UNL A   1      26.717  19.399  12.694  1.00  0.00    +0.000 C 
ATOM    110  H13 UNL A   1      27.659  19.744  13.068  1.00  0.00    +0.000 H 
ATOM    111  H14 UNL A   1      26.637  18.343  12.845  1.00  0.00    +0.000 H 
ATOM    112  H15 UNL A   1      25.924  19.895  13.214  1.00  0.00    +0.000 H 
ENDBRANCH   16   17
ENDBRANCH   15   16
ENDBRANCH   19   18
ENDBRANCH   20   19
ENDBRANCH   21   20
ENDBRANCH   23   21
ENDBRANCH   24   23
ENDBRANCH   25   24
ENDBRANCH   26   25
ENDBRANCH   27   26
ENDBRANCH   28   27
ENDBRANCH   29   28
ENDBRANCH   30   29
ENDBRANCH   31   30
ENDBRANCH   33   31
ENDBRANCH   37   36
BRANCH   41   42
ATOM     42  C34 UNL A   1      13.223  17.236  10.710  1.00  0.00    +0.000 C 
ATOM     43  C35 UNL A   1      12.294  16.231  10.404  1.00  0.00    +0.000 C 
ATOM     44  F1  UNL A   1      11.996  15.953   9.125  1.00  0.00    +0.000 F 
ATOM     45  C36 UNL A   1      11.647  15.521  11.413  1.00  0.00    +0.000 C 
ATOM     46  F2  UNL A   1      10.737  14.589  11.097  1.00  0.00    +0.000 F 
ATOM     47  C37 UNL A   1      11.939  15.780  12.744  1.00  0.00    +0.000 C 
ATOM     48  F3  UNL A   1      11.329  15.085  13.713  1.00  0.00    +0.000 F 
ATOM     49  C38 UNL A   1      12.863  16.762  13.069  1.00  0.00    +0.000 C 
ATOM     50  F4  UNL A   1      13.157  17.004  14.354  1.00  0.00    +0.000 F 
ATOM     51  C39 UNL A   1      13.490  17.492  12.063  1.00  0.00    +0.000 C 
ATOM     52  F5  UNL A   1      14.374  18.439  12.411  1.00  0.00    +0.000 F 
ENDBRANCH   41   42
BRANCH   58   59
ATOM     65  F8  UNL A   1       9.658  26.272   6.423  1.00  0.00    +0.000 F 
ATOM     66  C49 UNL A   1      11.553  25.309   7.452  1.00  0.00    +0.000 C 
ATOM     67  F9  UNL A   1      11.654  26.357   8.280  1.00  0.00    +0.000 F 
ATOM     68  C50 UNL A   1      12.477  24.270   7.531  1.00  0.00    +0.000 C 
ATOM     69  F10 UNL A   1      13.463  24.353   8.437  1.00  0.00    +0.000 F 
ATOM     59  C45 UNL A   1      12.378  23.150   6.691  1.00  0.00    +0.000 C 
ATOM     60  C46 UNL A   1      11.323  23.112   5.767  1.00  0.00    +0.000 C 
ATOM     61  F6  UNL A   1      11.194  22.070   4.933  1.00  0.00    +0.000 F 
ATOM     62  C47 UNL A   1      10.421  24.168   5.669  1.00  0.00    +0.000 C 
ATOM     63  F7  UNL A   1       9.452  24.133   4.743  1.00  0.00    +0.000 F 
ATOM     64  C48 UNL A   1      10.532  25.261   6.515  1.00  0.00    +0.000 C 
ENDBRANCH   58   59
BRANCH   73   74
ATOM     74  C54 UNL A   1      18.192  21.550   3.203  1.00  0.00    +0.000 C 
ATOM     75  C55 UNL A   1      19.082  22.621   3.365  1.00  0.00    +0.000 C 
ATOM     76  F11 UNL A   1      19.323  23.114   4.589  1.00  0.00    +0.000 F 
ATOM     77  C56 UNL A   1      19.690  23.225   2.266  1.00  0.00    +0.000 C 
ATOM     78  F12 UNL A   1      20.493  24.283   2.444  1.00  0.00    +0.000 F 
ATOM     79  C57 UNL A   1      19.450  22.745   0.988  1.00  0.00    +0.000 C 
ATOM     80  F13 UNL A   1      20.034  23.326  -0.069  1.00  0.00    +0.000 F 
ATOM     81  C58 UNL A   1      18.594  21.669   0.805  1.00  0.00    +0.000 C 
ATOM     82  F14 UNL A   1      18.372  21.192  -0.427  1.00  0.00    +0.000 F 
ATOM     83  C59 UNL A   1      17.961  21.086   1.901  1.00  0.00    +0.000 C 
ATOM     84  F15 UNL A   1      17.125  20.060   1.692  1.00  0.00    +0.000 F 
ENDBRANCH   73   74
TORSDOF 26
ENDMDL
MODEL 5
REMARK VINA RESULT:      -7.2     35.409     38.825
ROOT
ATOM    131  H34 UNL A   1      16.425  47.255   1.973  1.00  0.00    +0.000 H 
ATOM    132  H35 UNL A   1      15.524  47.415   4.415  1.00  0.00    +0.000 H 
ATOM    133  H36 UNL A   1      15.698  51.240   2.838  1.00  0.00    +0.000 H 
ATOM    134  H37 UNL A   1      15.142  57.546   3.606  1.00  0.00    +0.000 H 
ATOM    135  H38 UNL A   1      15.965  57.372   1.210  1.00  0.00    +0.000 H 
ATOM    136  H39 UNL A   1      15.756  53.523   2.760  1.00  0.00    +0.000 H 
ATOM    137  H40 UNL A   1      13.899  53.997   7.407  1.00  0.00    +0.000 H 
ATOM    138  H41 UNL A   1      14.188  51.464   7.635  1.00  0.00    +0.000 H 
ATOM    139  H42 UNL A   1      17.192  50.851  -1.934  1.00  0.00    +0.000 H 
ATOM    140  H43 UNL A   1      17.408  53.401  -2.028  1.00  0.00    +0.000 H 
ATOM     37  C30 UNL A   1      16.487  54.717   0.332  1.00  0.00    +0.000 C 
ATOM     38  C31 UNL A   1      16.622  53.239   0.093  1.00  0.00    +0.000 C 
ATOM     39  N3  UNL A   1      16.355  52.244   0.902  1.00  0.00    +0.000 N 
ATOM     40  C32 UNL A   1      16.603  51.087   0.174  1.00  0.00    +0.000 C 
ATOM     41  C33 UNL A   1      16.522  49.800   0.585  1.00  0.00    +0.000 C 
ATOM     53  C40 UNL A   1      16.165  49.396   1.921  1.00  0.00    +0.000 C 
ATOM     54  C41 UNL A   1      16.145  48.122   2.459  1.00  0.00    +0.000 C 
ATOM     55  C42 UNL A   1      15.679  48.209   3.774  1.00  0.00    +0.000 C 
ATOM     56  C43 UNL A   1      15.462  49.544   4.074  1.00  0.00    +0.000 C 
ATOM     57  N4  UNL A   1      15.762  50.262   2.927  1.00  0.00    +0.000 N 
ATOM     58  C44 UNL A   1      15.013  50.124   5.313  1.00  0.00    +0.000 C 
ATOM     70  C51 UNL A   1      14.842  51.450   5.534  1.00  0.00    +0.000 C 
ATOM     71  N5  UNL A   1      15.046  52.512   4.665  1.00  0.00    +0.000 N 
ATOM     72  C52 UNL A   1      14.722  53.592   5.333  1.00  0.00    +0.000 C 
ATOM     73  C53 UNL A   1      14.774  55.031   4.896  1.00  0.00    +0.000 C 
ATOM     85  C60 UNL A   1      15.242  55.326   3.669  1.00  0.00    +0.000 C 
ATOM     86  C61 UNL A   1      15.364  56.668   3.111  1.00  0.00    +0.000 C 
ATOM     87  C62 UNL A   1      15.810  56.575   1.848  1.00  0.00    +0.000 C 
ATOM     88  C63 UNL A   1      16.043  55.170   1.519  1.00  0.00    +0.000 C 
ATOM     89  N6  UNL A   1      15.692  54.500   2.665  1.00  0.00    +0.000 N 
ATOM     90  C64 UNL A   1      14.247  53.330   6.700  1.00  0.00    +0.000 C 
ATOM     91  C65 UNL A   1      14.384  52.016   6.785  1.00  0.00    +0.000 C 
ATOM     92  C66 UNL A   1      17.003  51.499  -1.153  1.00  0.00    +0.000 C 
ATOM     93  C67 UNL A   1      17.091  52.819  -1.236  1.00  0.00    +0.000 C 
ENDROOT
BRANCH   37   36
ATOM     33  C26 UNL A   1      17.397  57.492  -2.816  1.00  0.00    +0.000 C 
ATOM     34  C27 UNL A   1      16.132  56.902  -2.753  1.00  0.00    +0.000 C 
ATOM     35  C28 UNL A   1      15.824  56.019  -1.715  1.00  0.00    +0.000 C 
ATOM    129  H32 UNL A   1      15.424  57.119  -3.473  1.00  0.00    +0.000 H 
ATOM    130  H33 UNL A   1      14.879  55.609  -1.654  1.00  0.00    +0.000 H 
ATOM     36  C29 UNL A   1      16.792  55.686  -0.754  1.00  0.00    +0.000 C 
ATOM    141  H44 UNL A   1      18.784  56.034  -0.135  1.00  0.00    +0.000 H 
ATOM    142  H45 UNL A   1      19.244  57.719  -1.816  1.00  0.00    +0.000 H 
ATOM     94  C68 UNL A   1      18.057  56.287  -0.824  1.00  0.00    +0.000 C 
ATOM     95  C69 UNL A   1      18.339  57.223  -1.818  1.00  0.00    +0.000 C 
BRANCH   33   31
ATOM     31  C25 UNL A   1      17.683  58.443  -3.917  1.00  0.00    +0.000 C 
ATOM     32  O5  UNL A   1      17.575  59.651  -3.724  1.00  0.00    +0.000 O 
BRANCH   31   30
ATOM     30  N2  UNL A   1      18.083  57.984  -5.147  1.00  0.00    +0.000 N 
ATOM    128  H31 UNL A   1      17.488  57.326  -5.576  1.00  0.00    +0.000 H 
BRANCH   30   29
ATOM     29  C24 UNL A   1      19.275  58.346  -5.894  1.00  0.00    +0.000 C 
ATOM    126  H29 UNL A   1      19.001  58.552  -6.908  1.00  0.00    +0.000 H 
ATOM    127  H30 UNL A   1      19.710  59.209  -5.435  1.00  0.00    +0.000 H 
BRANCH   29   28
ATOM    124  H27 UNL A   1      19.819  56.320  -6.176  1.00  0.00    +0.000 H 
ATOM     28  C23 UNL A   1      20.306  57.225  -5.878  1.00  0.00    +0.000 C 
ATOM    125  H28 UNL A   1      21.087  57.521  -6.548  1.00  0.00    +0.000 H 
BRANCH   28   27
ATOM    122  H25 UNL A   1      21.966  57.370  -4.564  1.00  0.00    +0.000 H 
ATOM     27  C22 UNL A   1      20.969  56.986  -4.520  1.00  0.00    +0.000 C 
ATOM    123  H26 UNL A   1      20.355  57.481  -3.797  1.00  0.00    +0.000 H 
BRANCH   27   26
ATOM    121  H24 UNL A   1      21.314  55.525  -3.052  1.00  0.00    +0.000 H 
ATOM     26  C21 UNL A   1      21.043  55.517  -4.087  1.00  0.00    +0.000 C 
ATOM    120  H23 UNL A   1      21.758  55.023  -4.712  1.00  0.00    +0.000 H 
BRANCH   26   25
ATOM     25  C20 UNL A   1      19.723  54.745  -4.175  1.00  0.00    +0.000 C 
ATOM    118  H21 UNL A   1      19.385  54.540  -3.181  1.00  0.00    +0.000 H 
ATOM    119  H22 UNL A   1      19.040  55.358  -4.723  1.00  0.00    +0.000 H 
BRANCH   25   24
ATOM    116  H19 UNL A   1      19.539  53.575  -5.944  1.00  0.00    +0.000 H 
ATOM    117  H20 UNL A   1      20.843  53.082  -4.869  1.00  0.00    +0.000 H 
ATOM     24  C19 UNL A   1      19.830  53.422  -4.926  1.00  0.00    +0.000 C 
BRANCH   24   23
ATOM    115  H18 UNL A   1      19.283  52.035  -3.482  1.00  0.00    +0.000 H 
ATOM     23  N1  UNL A   1      18.974  52.415  -4.337  1.00  0.00    +0.000 N 
BRANCH   23   21
ATOM     21  C18 UNL A   1      17.799  51.925  -4.813  1.00  0.00    +0.000 C 
ATOM     22  O4  UNL A   1      16.802  52.633  -4.882  1.00  0.00    +0.000 O 
BRANCH   21   20
ATOM    114  H17 UNL A   1      18.148  50.202  -6.104  1.00  0.00    +0.000 H 
ATOM     20  C17 UNL A   1      17.724  50.506  -5.214  1.00  0.00    +0.000 C 
BRANCH   20   19
ATOM    113  H16 UNL A   1      17.517  49.386  -3.510  1.00  0.00    +0.000 H 
ATOM     19  C16 UNL A   1      17.106  49.611  -4.429  1.00  0.00    +0.000 C 
BRANCH   19   18
ATOM      9  C8  UNL A   1      14.637  49.363  -4.238  1.00  0.00    +0.000 C 
ATOM     10  C9  UNL A   1      13.438  48.696  -4.542  1.00  0.00    +0.000 C 
ATOM     11  C10 UNL A   1      13.422  47.610  -5.410  1.00  0.00    +0.000 C 
ATOM    105  H8  UNL A   1      12.555  49.017  -4.113  1.00  0.00    +0.000 H 
ATOM    109  H12 UNL A   1      14.596  46.428  -6.681  1.00  0.00    +0.000 H 
ATOM     14  C12 UNL A   1      14.610  47.213  -6.011  1.00  0.00    +0.000 C 
ATOM     15  C13 UNL A   1      15.834  47.849  -5.731  1.00  0.00    +0.000 C 
ATOM     18  C15 UNL A   1      15.861  48.939  -4.832  1.00  0.00    +0.000 C 
BRANCH    9    8
ATOM    104  H7  UNL A   1      15.387  50.921  -2.926  1.00  0.00    +0.000 H 
ATOM      8  C7  UNL A   1      14.524  50.450  -3.242  1.00  0.00    +0.000 C 
BRANCH    8    7
ATOM    103  H6  UNL A   1      12.497  50.569  -3.235  1.00  0.00    +0.000 H 
ATOM      7  C6  UNL A   1      13.349  50.854  -2.729  1.00  0.00    +0.000 C 
BRANCH    7    6
ATOM     97  C71 UNL A   1      12.805  51.710   0.913  1.00  0.00    +0.000 C 
ATOM      3  C2  UNL A   1      12.776  53.103   0.908  1.00  0.00    +0.000 C 
ATOM      4  C3  UNL A   1      12.956  53.775  -0.302  1.00  0.00    +0.000 C 
ATOM    101  H4  UNL A   1      12.941  54.807  -0.318  1.00  0.00    +0.000 H 
ATOM      5  C4  UNL A   1      13.155  53.068  -1.496  1.00  0.00    +0.000 C 
ATOM    102  H5  UNL A   1      13.296  53.586  -2.378  1.00  0.00    +0.000 H 
ATOM      6  C5  UNL A   1      13.165  51.667  -1.508  1.00  0.00    +0.000 C 
ATOM    143  H46 UNL A   1      13.013  49.971  -0.262  1.00  0.00    +0.000 H 
ATOM    144  H47 UNL A   1      12.685  51.198   1.801  1.00  0.00    +0.000 H 
ATOM     96  C70 UNL A   1      12.997  51.003  -0.283  1.00  0.00    +0.000 C 
BRANCH    3    2
ATOM      2  O1  UNL A   1      12.549  53.907   1.991  1.00  0.00    +0.000 O 
BRANCH    2    1
ATOM      1  C1  UNL A   1      12.181  55.254   1.720  1.00  0.00    +0.000 C 
ATOM     98  H1  UNL A   1      11.877  55.343   0.698  1.00  0.00    +0.000 H 
ATOM     99  H2  UNL A   1      13.018  55.896   1.901  1.00  0.00    +0.000 H 
ATOM    100  H3  UNL A   1      11.369  55.537   2.358  1.00  0.00    +0.000 H 
ENDBRANCH    2    1
ENDBRANCH    3    2
ENDBRANCH    7    6
ENDBRANCH    8    7
ENDBRANCH    9    8
BRANCH   11   12
ATOM     12  O2  UNL A   1      12.204  47.014  -5.591  1.00  0.00    +0.000 O 
BRANCH   12   13
ATOM    106  H9  UNL A   1      12.260  47.205  -7.628  1.00  0.00    +0.000 H 
ATOM    107  H10 UNL A   1      11.134  48.261  -6.810  1.00  0.00    +0.000 H 
ATOM    108  H11 UNL A   1      10.771  46.561  -6.979  1.00  0.00    +0.000 H 
ATOM     13  C11 UNL A   1      11.551  47.277  -6.829  1.00  0.00    +0.000 C 
ENDBRANCH   12   13
ENDBRANCH   11   12
BRANCH   15   16
ATOM     16  O3  UNL A   1      16.845  47.207  -6.394  1.00  0.00    +0.000 O 
BRANCH   16   17
ATOM     17  C14 UNL A   1      17.248  45.887  -6.087  1.00  0.00    +0.000 C 
ATOM    110  H13 UNL A   1      16.518  45.430  -5.450  1.00  0.00    +0.000 H 
ATOM    111  H14 UNL A   1      18.194  45.909  -5.588  1.00  0.00    +0.000 H 
ATOM    112  H15 UNL A   1      17.335  45.321  -6.991  1.00  0.00    +0.000 H 
ENDBRANCH   16   17
ENDBRANCH   15   16
ENDBRANCH   19   18
ENDBRANCH   20   19
ENDBRANCH   21   20
ENDBRANCH   23   21
ENDBRANCH   24   23
ENDBRANCH   25   24
ENDBRANCH   26   25
ENDBRANCH   27   26
ENDBRANCH   28   27
ENDBRANCH   29   28
ENDBRANCH   30   29
ENDBRANCH   31   30
ENDBRANCH   33   31
ENDBRANCH   37   36
BRANCH   41   42
ATOM     42  C34 UNL A   1      16.827  48.721  -0.413  1.00  0.00    +0.000 C 
ATOM     43  C35 UNL A   1      18.144  48.337  -0.705  1.00  0.00    +0.000 C 
ATOM     44  F1  UNL A   1      19.176  48.987  -0.147  1.00  0.00    +0.000 F 
ATOM     45  C36 UNL A   1      18.405  47.295  -1.592  1.00  0.00    +0.000 C 
ATOM     46  F2  UNL A   1      19.673  46.968  -1.882  1.00  0.00    +0.000 F 
ATOM     47  C37 UNL A   1      17.359  46.599  -2.178  1.00  0.00    +0.000 C 
ATOM     48  F3  UNL A   1      17.614  45.586  -3.017  1.00  0.00    +0.000 F 
ATOM     49  C38 UNL A   1      16.050  46.955  -1.895  1.00  0.00    +0.000 C 
ATOM     50  F4  UNL A   1      15.037  46.274  -2.450  1.00  0.00    +0.000 F 
ATOM     51  C39 UNL A   1      15.785  48.013  -1.031  1.00  0.00    +0.000 C 
ATOM     52  F5  UNL A   1      14.506  48.337  -0.782  1.00  0.00    +0.000 F 
ENDBRANCH   41   42
BRANCH   58   59
ATOM     65  F8  UNL A   1      13.906  46.678   9.652  1.00  0.00    +0.000 F 
ATOM     66  C49 UNL A   1      13.168  47.837   7.731  1.00  0.00    +0.000 C 
ATOM     67  F9  UNL A   1      11.927  47.362   7.905  1.00  0.00    +0.000 F 
ATOM     68  C50 UNL A   1      13.449  48.667   6.650  1.00  0.00    +0.000 C 
ATOM     69  F10 UNL A   1      12.461  48.964   5.792  1.00  0.00    +0.000 F 
ATOM     59  C45 UNL A   1      14.735  49.196   6.460  1.00  0.00    +0.000 C 
ATOM     60  C46 UNL A   1      15.729  48.859   7.391  1.00  0.00    +0.000 C 
ATOM     61  F6  UNL A   1      16.977  49.326   7.246  1.00  0.00    +0.000 F 
ATOM     62  C47 UNL A   1      15.452  48.001   8.452  1.00  0.00    +0.000 C 
ATOM     63  F7  UNL A   1      16.430  47.652   9.300  1.00  0.00    +0.000 F 
ATOM     64  C48 UNL A   1      14.171  47.498   8.626  1.00  0.00    +0.000 C 
ENDBRANCH   58   59
BRANCH   73   74
ATOM     74  C54 UNL A   1      14.324  56.119   5.805  1.00  0.00    +0.000 C 
ATOM     75  C55 UNL A   1      12.961  56.406   5.969  1.00  0.00    +0.000 C 
ATOM     76  F11 UNL A   1      12.041  55.694   5.302  1.00  0.00    +0.000 F 
ATOM     77  C56 UNL A   1      12.539  57.459   6.778  1.00  0.00    +0.000 C 
ATOM     78  F12 UNL A   1      11.234  57.747   6.873  1.00  0.00    +0.000 F 
ATOM     79  C57 UNL A   1      13.468  58.221   7.469  1.00  0.00    +0.000 C 
ATOM     80  F13 UNL A   1      13.063  59.233   8.247  1.00  0.00    +0.000 F 
ATOM     81  C58 UNL A   1      14.820  57.939   7.344  1.00  0.00    +0.000 C 
ATOM     82  F14 UNL A   1      15.721  58.662   8.023  1.00  0.00    +0.000 F 
ATOM     83  C59 UNL A   1      15.245  56.907   6.509  1.00  0.00    +0.000 C 
ATOM     84  F15 UNL A   1      16.559  56.669   6.394  1.00  0.00    +0.000 F 
ENDBRANCH   73   74
TORSDOF 26
ENDMDL
MODEL 6
REMARK VINA RESULT:      -7.1     38.959     46.215
ROOT
ATOM    131  H34 UNL A   1      45.580  14.285  42.474  1.00  0.00    +0.000 H 
ATOM    132  H35 UNL A   1      47.240  16.246  42.033  1.00  0.00    +0.000 H 
ATOM    133  H36 UNL A   1      45.421  16.881  45.698  1.00  0.00    +0.000 H 
ATOM    134  H37 UNL A   1      44.421  20.597  50.783  1.00  0.00    +0.000 H 
ATOM    135  H38 UNL A   1      42.851  18.652  51.228  1.00  0.00    +0.000 H 
ATOM    136  H39 UNL A   1      44.698  17.976  47.568  1.00  0.00    +0.000 H 
ATOM    137  H40 UNL A   1      47.935  21.767  46.926  1.00  0.00    +0.000 H 
ATOM    138  H41 UNL A   1      48.478  20.739  44.647  1.00  0.00    +0.000 H 
ATOM    139  H42 UNL A   1      42.434  12.957  46.612  1.00  0.00    +0.000 H 
ATOM    140  H43 UNL A   1      41.489  14.204  48.639  1.00  0.00    +0.000 H 
ATOM     37  C30 UNL A   1      42.810  16.676  49.182  1.00  0.00    +0.000 C 
ATOM     38  C31 UNL A   1      43.019  15.756  48.011  1.00  0.00    +0.000 C 
ATOM     39  N3  UNL A   1      43.837  15.884  46.996  1.00  0.00    +0.000 N 
ATOM     40  C32 UNL A   1      43.673  14.736  46.231  1.00  0.00    +0.000 C 
ATOM     41  C33 UNL A   1      44.260  14.418  45.053  1.00  0.00    +0.000 C 
ATOM     53  C40 UNL A   1      45.187  15.270  44.353  1.00  0.00    +0.000 C 
ATOM     54  C41 UNL A   1      45.764  15.076  43.111  1.00  0.00    +0.000 C 
ATOM     55  C42 UNL A   1      46.641  16.138  42.866  1.00  0.00    +0.000 C 
ATOM     56  C43 UNL A   1      46.568  17.020  43.931  1.00  0.00    +0.000 C 
ATOM     57  N4  UNL A   1      45.674  16.475  44.838  1.00  0.00    +0.000 N 
ATOM     58  C44 UNL A   1      47.263  18.269  44.109  1.00  0.00    +0.000 C 
ATOM     70  C51 UNL A   1      47.122  19.089  45.179  1.00  0.00    +0.000 C 
ATOM     71  N5  UNL A   1      46.319  18.933  46.299  1.00  0.00    +0.000 N 
ATOM     72  C52 UNL A   1      46.550  19.977  47.057  1.00  0.00    +0.000 C 
ATOM     73  C53 UNL A   1      45.936  20.345  48.381  1.00  0.00    +0.000 C 
ATOM     85  C60 UNL A   1      44.982  19.551  48.902  1.00  0.00    +0.000 C 
ATOM     86  C61 UNL A   1      44.288  19.780  50.165  1.00  0.00    +0.000 C 
ATOM     87  C62 UNL A   1      43.450  18.758  50.394  1.00  0.00    +0.000 C 
ATOM     88  C63 UNL A   1      43.518  17.818  49.276  1.00  0.00    +0.000 C 
ATOM     89  N6  UNL A   1      44.443  18.377  48.430  1.00  0.00    +0.000 N 
ATOM     90  C64 UNL A   1      47.552  20.904  46.511  1.00  0.00    +0.000 C 
ATOM     91  C65 UNL A   1      47.833  20.339  45.346  1.00  0.00    +0.000 C 
ATOM     92  C66 UNL A   1      42.709  13.903  46.916  1.00  0.00    +0.000 C 
ATOM     93  C67 UNL A   1      42.228  14.516  47.989  1.00  0.00    +0.000 C 
ENDROOT
BRANCH   37   36
ATOM     33  C26 UNL A   1      40.098  15.633  52.343  1.00  0.00    +0.000 C 
ATOM     34  C27 UNL A   1      39.629  16.325  51.224  1.00  0.00    +0.000 C 
ATOM     35  C28 UNL A   1      40.503  16.643  50.182  1.00  0.00    +0.000 C 
ATOM    129  H32 UNL A   1      38.635  16.601  51.166  1.00  0.00    +0.000 H 
ATOM    130  H33 UNL A   1      40.146  17.126  49.343  1.00  0.00    +0.000 H 
ATOM     36  C29 UNL A   1      41.864  16.309  50.268  1.00  0.00    +0.000 C 
ATOM    141  H44 UNL A   1      43.326  15.377  51.478  1.00  0.00    +0.000 H 
ATOM    142  H45 UNL A   1      41.767  14.650  53.185  1.00  0.00    +0.000 H 
ATOM     94  C68 UNL A   1      42.325  15.610  51.393  1.00  0.00    +0.000 C 
ATOM     95  C69 UNL A   1      41.437  15.230  52.399  1.00  0.00    +0.000 C 
BRANCH   33   31
ATOM     31  C25 UNL A   1      39.139  15.290  53.421  1.00  0.00    +0.000 C 
ATOM     32  O5  UNL A   1      38.658  16.181  54.116  1.00  0.00    +0.000 O 
BRANCH   31   30
ATOM     30  N2  UNL A   1      38.773  13.986  53.637  1.00  0.00    +0.000 N 
ATOM    128  H31 UNL A   1      37.988  13.669  53.134  1.00  0.00    +0.000 H 
BRANCH   30   29
ATOM     29  C24 UNL A   1      39.399  13.014  54.518  1.00  0.00    +0.000 C 
ATOM    126  H29 UNL A   1      39.883  13.533  55.319  1.00  0.00    +0.000 H 
ATOM    127  H30 UNL A   1      38.638  12.361  54.892  1.00  0.00    +0.000 H 
BRANCH   29   28
ATOM    124  H27 UNL A   1      41.344  12.729  53.731  1.00  0.00    +0.000 H 
ATOM     28  C23 UNL A   1      40.431  12.173  53.778  1.00  0.00    +0.000 C 
ATOM    125  H28 UNL A   1      40.526  11.258  54.326  1.00  0.00    +0.000 H 
BRANCH   28   27
ATOM    122  H25 UNL A   1      39.426  10.906  52.403  1.00  0.00    +0.000 H 
ATOM     27  C22 UNL A   1      40.035  11.785  52.352  1.00  0.00    +0.000 C 
ATOM    123  H26 UNL A   1      39.523  12.632  51.943  1.00  0.00    +0.000 H 
BRANCH   27   26
ATOM    121  H24 UNL A   1      41.568  12.451  51.082  1.00  0.00    +0.000 H 
ATOM     26  C21 UNL A   1      41.210  11.498  51.410  1.00  0.00    +0.000 C 
ATOM    120  H23 UNL A   1      40.852  10.878  50.614  1.00  0.00    +0.000 H 
BRANCH   26   25
ATOM     25  C20 UNL A   1      42.406  10.793  52.059  1.00  0.00    +0.000 C 
ATOM    118  H21 UNL A   1      43.226  10.821  51.372  1.00  0.00    +0.000 H 
ATOM    119  H22 UNL A   1      42.615  11.312  52.970  1.00  0.00    +0.000 H 
BRANCH   25   24
ATOM    116  H19 UNL A   1      42.661   9.108  53.333  1.00  0.00    +0.000 H 
ATOM    117  H20 UNL A   1      41.085   9.210  52.556  1.00  0.00    +0.000 H 
ATOM     24  C19 UNL A   1      42.140   9.339  52.429  1.00  0.00    +0.000 C 
BRANCH   24   23
ATOM    115  H18 UNL A   1      42.211   8.604  50.489  1.00  0.00    +0.000 H 
ATOM     23  N1  UNL A   1      42.588   8.442  51.384  1.00  0.00    +0.000 N 
BRANCH   23   21
ATOM     21  C18 UNL A   1      43.461   7.406  51.482  1.00  0.00    +0.000 C 
ATOM     22  O4  UNL A   1      43.733   6.910  52.568  1.00  0.00    +0.000 O 
BRANCH   21   20
ATOM    114  H17 UNL A   1      44.063   5.899  50.024  1.00  0.00    +0.000 H 
ATOM     20  C17 UNL A   1      44.116   6.903  50.258  1.00  0.00    +0.000 C 
BRANCH   20   19
ATOM    113  H16 UNL A   1      44.353   8.009  48.549  1.00  0.00    +0.000 H 
ATOM     19  C16 UNL A   1      44.780   7.742  49.449  1.00  0.00    +0.000 C 
BRANCH   19   18
ATOM      9  C8  UNL A   1      46.519   9.501  49.167  1.00  0.00    +0.000 C 
ATOM     10  C9  UNL A   1      47.799  10.021  49.423  1.00  0.00    +0.000 C 
ATOM     11  C10 UNL A   1      48.677   9.372  50.283  1.00  0.00    +0.000 C 
ATOM    105  H8  UNL A   1      48.091  10.898  48.965  1.00  0.00    +0.000 H 
ATOM    109  H12 UNL A   1      48.895   7.746  51.586  1.00  0.00    +0.000 H 
ATOM     14  C12 UNL A   1      48.257   8.212  50.923  1.00  0.00    +0.000 C 
ATOM     15  C13 UNL A   1      46.986   7.654  50.692  1.00  0.00    +0.000 C 
ATOM     18  C15 UNL A   1      46.096   8.297  49.802  1.00  0.00    +0.000 C 
BRANCH    9    8
ATOM    104  H7  UNL A   1      45.710   9.920  47.197  1.00  0.00    +0.000 H 
ATOM      8  C7  UNL A   1      45.715  10.248  48.175  1.00  0.00    +0.000 C 
BRANCH    8    7
ATOM    103  H6  UNL A   1      43.966  11.226  48.507  1.00  0.00    +0.000 H 
ATOM      7  C6  UNL A   1      44.992  11.336  48.490  1.00  0.00    +0.000 C 
BRANCH    7    6
ATOM     97  C71 UNL A   1      45.603  14.546  50.392  1.00  0.00    +0.000 C 
ATOM      3  C2  UNL A   1      46.462  15.251  49.553  1.00  0.00    +0.000 C 
ATOM      4  C3  UNL A   1      46.864  14.662  48.353  1.00  0.00    +0.000 C 
ATOM    101  H4  UNL A   1      47.503  15.172  47.724  1.00  0.00    +0.000 H 
ATOM      5  C4  UNL A   1      46.409  13.386  47.989  1.00  0.00    +0.000 C 
ATOM    102  H5  UNL A   1      46.728  12.965  47.103  1.00  0.00    +0.000 H 
ATOM      6  C5  UNL A   1      45.529  12.675  48.815  1.00  0.00    +0.000 C 
ATOM    143  H46 UNL A   1      44.504  12.765  50.657  1.00  0.00    +0.000 H 
ATOM    144  H47 UNL A   1      45.304  14.963  51.289  1.00  0.00    +0.000 H 
ATOM     96  C70 UNL A   1      45.142  13.273  50.025  1.00  0.00    +0.000 C 
BRANCH    3    2
ATOM      2  O1  UNL A   1      46.942  16.514  49.768  1.00  0.00    +0.000 O 
BRANCH    2    1
ATOM      1  C1  UNL A   1      47.983  16.958  48.907  1.00  0.00    +0.000 C 
ATOM     98  H1  UNL A   1      48.039  18.026  48.937  1.00  0.00    +0.000 H 
ATOM     99  H2  UNL A   1      47.779  16.639  47.906  1.00  0.00    +0.000 H 
ATOM    100  H3  UNL A   1      48.915  16.543  49.231  1.00  0.00    +0.000 H 
ENDBRANCH    2    1
ENDBRANCH    3    2
ENDBRANCH    7    6
ENDBRANCH    8    7
ENDBRANCH    9    8
BRANCH   11   12
ATOM     12  O2  UNL A   1      49.911   9.948  50.414  1.00  0.00    +0.000 O 
BRANCH   12   13
ATOM    106  H9  UNL A   1      50.955  10.776  48.860  1.00  0.00    +0.000 H 
ATOM    107  H10 UNL A   1      50.513  11.884  50.137  1.00  0.00    +0.000 H 
ATOM    108  H11 UNL A   1      49.300  11.312  49.017  1.00  0.00    +0.000 H 
ATOM     13  C11 UNL A   1      50.187  11.049  49.553  1.00  0.00    +0.000 C 
ENDBRANCH   12   13
ENDBRANCH   11   12
BRANCH   15   16
ATOM     16  O3  UNL A   1      46.868   6.480  51.387  1.00  0.00    +0.000 O 
BRANCH   16   17
ATOM     17  C14 UNL A   1      47.985   5.762  51.875  1.00  0.00    +0.000 C 
ATOM    110  H13 UNL A   1      48.063   5.901  52.933  1.00  0.00    +0.000 H 
ATOM    111  H14 UNL A   1      48.875   6.121  51.401  1.00  0.00    +0.000 H 
ATOM    112  H15 UNL A   1      47.861   4.721  51.660  1.00  0.00    +0.000 H 
ENDBRANCH   16   17
ENDBRANCH   15   16
ENDBRANCH   19   18
ENDBRANCH   20   19
ENDBRANCH   21   20
ENDBRANCH   23   21
ENDBRANCH   24   23
ENDBRANCH   25   24
ENDBRANCH   26   25
ENDBRANCH   27   26
ENDBRANCH   28   27
ENDBRANCH   29   28
ENDBRANCH   30   29
ENDBRANCH   31   30
ENDBRANCH   33   31
ENDBRANCH   37   36
BRANCH   41   42
ATOM     42  C34 UNL A   1      43.923  13.093  44.434  1.00  0.00    +0.000 C 
ATOM     43  C35 UNL A   1      44.777  11.986  44.551  1.00  0.00    +0.000 C 
ATOM     44  F1  UNL A   1      45.965  12.110  45.161  1.00  0.00    +0.000 F 
ATOM     45  C36 UNL A   1      44.422  10.749  44.018  1.00  0.00    +0.000 C 
ATOM     46  F2  UNL A   1      45.269   9.714  44.111  1.00  0.00    +0.000 F 
ATOM     47  C37 UNL A   1      43.197  10.586  43.389  1.00  0.00    +0.000 C 
ATOM     48  F3  UNL A   1      42.850   9.391  42.892  1.00  0.00    +0.000 F 
ATOM     49  C38 UNL A   1      42.333  11.665  43.272  1.00  0.00    +0.000 C 
ATOM     50  F4  UNL A   1      41.143  11.506  42.676  1.00  0.00    +0.000 F 
ATOM     51  C39 UNL A   1      42.697  12.909  43.778  1.00  0.00    +0.000 C 
ATOM     52  F5  UNL A   1      41.841  13.934  43.644  1.00  0.00    +0.000 F 
ENDBRANCH   41   42
BRANCH   58   59
ATOM     65  F8  UNL A   1      50.816  19.988  40.067  1.00  0.00    +0.000 F 
ATOM     66  C49 UNL A   1      50.464  19.087  42.222  1.00  0.00    +0.000 C 
ATOM     67  F9  UNL A   1      51.786  19.032  42.430  1.00  0.00    +0.000 F 
ATOM     68  C50 UNL A   1      49.586  18.643  43.206  1.00  0.00    +0.000 C 
ATOM     69  F10 UNL A   1      50.094  18.153  44.348  1.00  0.00    +0.000 F 
ATOM     59  C45 UNL A   1      48.197  18.713  43.022  1.00  0.00    +0.000 C 
ATOM     60  C46 UNL A   1      47.720  19.240  41.812  1.00  0.00    +0.000 C 
ATOM     61  F6  UNL A   1      46.401  19.314  41.581  1.00  0.00    +0.000 F 
ATOM     62  C47 UNL A   1      48.601  19.653  40.817  1.00  0.00    +0.000 C 
ATOM     63  F7  UNL A   1      48.123  20.105  39.649  1.00  0.00    +0.000 F 
ATOM     64  C48 UNL A   1      49.970  19.583  41.025  1.00  0.00    +0.000 C 
ENDBRANCH   58   59
BRANCH   73   74
ATOM     74  C54 UNL A   1      46.365  21.570  49.105  1.00  0.00    +0.000 C 
ATOM     75  C55 UNL A   1      45.715  22.796  48.900  1.00  0.00    +0.000 C 
ATOM     76  F11 UNL A   1      44.688  22.874  48.041  1.00  0.00    +0.000 F 
ATOM     77  C56 UNL A   1      46.148  23.957  49.538  1.00  0.00    +0.000 C 
ATOM     78  F12 UNL A   1      45.544  25.125  49.281  1.00  0.00    +0.000 F 
ATOM     79  C57 UNL A   1      47.215  23.908  50.422  1.00  0.00    +0.000 C 
ATOM     80  F13 UNL A   1      47.632  25.024  51.034  1.00  0.00    +0.000 F 
ATOM     81  C58 UNL A   1      47.857  22.702  50.662  1.00  0.00    +0.000 C 
ATOM     82  F14 UNL A   1      48.878  22.648  51.527  1.00  0.00    +0.000 F 
ATOM     83  C59 UNL A   1      47.445  21.547  49.999  1.00  0.00    +0.000 C 
ATOM     84  F15 UNL A   1      48.096  20.400  50.237  1.00  0.00    +0.000 F 
ENDBRANCH   73   74
TORSDOF 26
ENDMDL
MODEL 7
REMARK VINA RESULT:      -7.1     39.143     45.036
ROOT
ATOM    131  H34 UNL A   1      20.821  19.048   5.346  1.00  0.00    +0.000 H 
ATOM    132  H35 UNL A   1      18.287  18.902   5.941  1.00  0.00    +0.000 H 
ATOM    133  H36 UNL A   1      18.649  20.662   2.210  1.00  0.00    +0.000 H 
ATOM    134  H37 UNL A   1      15.972  23.580  -2.789  1.00  0.00    +0.000 H 
ATOM    135  H38 UNL A   1      18.440  23.665  -3.381  1.00  0.00    +0.000 H 
ATOM    136  H39 UNL A   1      18.094  21.858   0.344  1.00  0.00    +0.000 H 
ATOM    137  H40 UNL A   1      13.166  21.547   1.283  1.00  0.00    +0.000 H 
ATOM    138  H41 UNL A   1      13.798  20.545   3.551  1.00  0.00    +0.000 H 
ATOM    139  H42 UNL A   1      23.518  20.687   1.008  1.00  0.00    +0.000 H 
ATOM    140  H43 UNL A   1      22.965  22.148  -1.021  1.00  0.00    +0.000 H 
ATOM     37  C30 UNL A   1      20.166  22.557  -1.410  1.00  0.00    +0.000 C 
ATOM     38  C31 UNL A   1      20.846  21.864  -0.262  1.00  0.00    +0.000 C 
ATOM     39  N3  UNL A   1      20.316  21.307   0.798  1.00  0.00    +0.000 N 
ATOM     40  C32 UNL A   1      21.377  20.767   1.514  1.00  0.00    +0.000 C 
ATOM     41  C33 UNL A   1      21.351  20.131   2.708  1.00  0.00    +0.000 C 
ATOM     53  C40 UNL A   1      20.157  19.914   3.485  1.00  0.00    +0.000 C 
ATOM     54  C41 UNL A   1      20.040  19.361   4.748  1.00  0.00    +0.000 C 
ATOM     55  C42 UNL A   1      18.682  19.300   5.075  1.00  0.00    +0.000 C 
ATOM     56  C43 UNL A   1      17.957  19.864   4.039  1.00  0.00    +0.000 C 
ATOM     57  N4  UNL A   1      18.873  20.235   3.068  1.00  0.00    +0.000 N 
ATOM     58  C44 UNL A   1      16.532  20.051   3.939  1.00  0.00    +0.000 C 
ATOM     70  C51 UNL A   1      15.896  20.632   2.893  1.00  0.00    +0.000 C 
ATOM     71  N5  UNL A   1      16.435  21.159   1.727  1.00  0.00    +0.000 N 
ATOM     72  C52 UNL A   1      15.417  21.582   1.019  1.00  0.00    +0.000 C 
ATOM     73  C53 UNL A   1      15.412  22.266  -0.321  1.00  0.00    +0.000 C 
ATOM     85  C60 UNL A   1      16.586  22.545  -0.919  1.00  0.00    +0.000 C 
ATOM     86  C61 UNL A   1      16.742  23.211  -2.207  1.00  0.00    +0.000 C 
ATOM     87  C62 UNL A   1      18.047  23.266  -2.514  1.00  0.00    +0.000 C 
ATOM     88  C63 UNL A   1      18.824  22.672  -1.427  1.00  0.00    +0.000 C 
ATOM     89  N6  UNL A   1      17.874  22.283  -0.516  1.00  0.00    +0.000 N 
ATOM     90  C64 UNL A   1      14.110  21.346   1.648  1.00  0.00    +0.000 C 
ATOM     91  C65 UNL A   1      14.462  20.807   2.806  1.00  0.00    +0.000 C 
ATOM     92  C66 UNL A   1      22.578  21.026   0.751  1.00  0.00    +0.000 C 
ATOM     93  C67 UNL A   1      22.312  21.756  -0.324  1.00  0.00    +0.000 C 
ENDROOT
BRANCH   37   36
ATOM     33  C26 UNL A   1      22.491  24.054  -4.694  1.00  0.00    +0.000 C 
ATOM     34  C27 UNL A   1      21.990  22.750  -4.734  1.00  0.00    +0.000 C 
ATOM     35  C28 UNL A   1      21.212  22.269  -3.678  1.00  0.00    +0.000 C 
ATOM    129  H32 UNL A   1      22.195  22.142  -5.542  1.00  0.00    +0.000 H 
ATOM    130  H33 UNL A   1      20.818  21.316  -3.725  1.00  0.00    +0.000 H 
ATOM     36  C29 UNL A   1      20.961  23.073  -2.555  1.00  0.00    +0.000 C 
ATOM    141  H44 UNL A   1      21.304  24.976  -1.699  1.00  0.00    +0.000 H 
ATOM    142  H45 UNL A   1      22.479  25.872  -3.619  1.00  0.00    +0.000 H 
ATOM     94  C68 UNL A   1      21.464  24.381  -2.527  1.00  0.00    +0.000 C 
ATOM     95  C69 UNL A   1      22.179  24.885  -3.613  1.00  0.00    +0.000 C 
BRANCH   33   31
ATOM     31  C25 UNL A   1      23.294  24.541  -5.842  1.00  0.00    +0.000 C 
ATOM     32  O5  UNL A   1      23.271  23.931  -6.907  1.00  0.00    +0.000 O 
BRANCH   31   30
ATOM     30  N2  UNL A   1      24.053  25.679  -5.726  1.00  0.00    +0.000 N 
ATOM    128  H31 UNL A   1      24.609  25.746  -4.916  1.00  0.00    +0.000 H 
BRANCH   30   29
ATOM     29  C24 UNL A   1      24.136  26.798  -6.649  1.00  0.00    +0.000 C 
ATOM    126  H29 UNL A   1      25.108  26.806  -7.098  1.00  0.00    +0.000 H 
ATOM    127  H30 UNL A   1      23.375  26.677  -7.392  1.00  0.00    +0.000 H 
BRANCH   29   28
ATOM    124  H27 UNL A   1      24.708  28.276  -5.246  1.00  0.00    +0.000 H 
ATOM     28  C23 UNL A   1      23.907  28.126  -5.940  1.00  0.00    +0.000 C 
ATOM    125  H28 UNL A   1      23.869  28.875  -6.704  1.00  0.00    +0.000 H 
BRANCH   28   27
ATOM    122  H25 UNL A   1      22.081  29.109  -5.490  1.00  0.00    +0.000 H 
ATOM     27  C22 UNL A   1      22.587  28.221  -5.173  1.00  0.00    +0.000 C 
ATOM    123  H26 UNL A   1      22.047  27.323  -5.394  1.00  0.00    +0.000 H 
BRANCH   27   26
ATOM    121  H24 UNL A   1      23.731  28.588  -3.451  1.00  0.00    +0.000 H 
ATOM     26  C21 UNL A   1      22.728  28.272  -3.647  1.00  0.00    +0.000 C 
ATOM    120  H23 UNL A   1      22.505  27.298  -3.261  1.00  0.00    +0.000 H 
BRANCH   26   25
ATOM     25  C20 UNL A   1      21.817  29.282  -2.943  1.00  0.00    +0.000 C 
ATOM    118  H21 UNL A   1      21.341  29.883  -3.689  1.00  0.00    +0.000 H 
ATOM    119  H22 UNL A   1      21.119  28.719  -2.361  1.00  0.00    +0.000 H 
BRANCH   25   24
ATOM    116  H19 UNL A   1      23.507  30.453  -2.390  1.00  0.00    +0.000 H 
ATOM    117  H20 UNL A   1      21.960  31.089  -1.840  1.00  0.00    +0.000 H 
ATOM     24  C19 UNL A   1      22.551  30.207  -1.978  1.00  0.00    +0.000 C 
BRANCH   24   23
ATOM    115  H18 UNL A   1      22.097  29.828   0.011  1.00  0.00    +0.000 H 
ATOM     23  N1  UNL A   1      22.742  29.576  -0.690  1.00  0.00    +0.000 N 
BRANCH   23   21
ATOM     21  C18 UNL A   1      23.696  28.681  -0.323  1.00  0.00    +0.000 C 
ATOM     22  O4  UNL A   1      24.860  28.819  -0.679  1.00  0.00    +0.000 O 
BRANCH   21   20
ATOM    114  H17 UNL A   1      23.761  27.340   1.395  1.00  0.00    +0.000 H 
ATOM     20  C17 UNL A   1      23.307  27.508   0.484  1.00  0.00    +0.000 C 
BRANCH   20   19
ATOM    113  H16 UNL A   1      22.126  26.666  -0.965  1.00  0.00    +0.000 H 
ATOM     19  C16 UNL A   1      22.369  26.659   0.038  1.00  0.00    +0.000 C 
BRANCH   19   18
ATOM      9  C8  UNL A   1      20.266  25.557   0.786  1.00  0.00    +0.000 C 
ATOM     10  C9  UNL A   1      19.558  24.723   1.667  1.00  0.00    +0.000 C 
ATOM     11  C10 UNL A   1      20.209  24.049   2.695  1.00  0.00    +0.000 C 
ATOM    105  H8  UNL A   1      18.539  24.607   1.550  1.00  0.00    +0.000 H 
ATOM    109  H12 UNL A   1      22.076  23.658   3.561  1.00  0.00    +0.000 H 
ATOM     14  C12 UNL A   1      21.587  24.182   2.819  1.00  0.00    +0.000 C 
ATOM     15  C13 UNL A   1      22.334  25.012   1.962  1.00  0.00    +0.000 C 
ATOM     18  C15 UNL A   1      21.676  25.716   0.929  1.00  0.00    +0.000 C 
BRANCH    9    8
ATOM    104  H7  UNL A   1      18.565  25.833  -0.532  1.00  0.00    +0.000 H 
ATOM      8  C7  UNL A   1      19.442  26.272  -0.212  1.00  0.00    +0.000 C 
BRANCH    8    7
ATOM    103  H6  UNL A   1      20.399  27.462  -1.552  1.00  0.00    +0.000 H 
ATOM      7  C6  UNL A   1      19.785  27.467  -0.723  1.00  0.00    +0.000 C 
BRANCH    7    6
ATOM     97  C71 UNL A   1      19.527  30.457   1.576  1.00  0.00    +0.000 C 
ATOM      3  C2  UNL A   1      18.628  31.288   0.912  1.00  0.00    +0.000 C 
ATOM      4  C3  UNL A   1      18.111  30.874  -0.316  1.00  0.00    +0.000 C 
ATOM    101  H4  UNL A   1      17.447  31.483  -0.820  1.00  0.00    +0.000 H 
ATOM      5  C4  UNL A   1      18.479  29.642  -0.875  1.00  0.00    +0.000 C 
ATOM    102  H5  UNL A   1      18.092  29.361  -1.789  1.00  0.00    +0.000 H 
ATOM      6  C5  UNL A   1      19.366  28.788  -0.207  1.00  0.00    +0.000 C 
ATOM    143  H46 UNL A   1      20.555  28.616   1.527  1.00  0.00    +0.000 H 
ATOM    144  H47 UNL A   1      19.928  30.753   2.480  1.00  0.00    +0.000 H 
ATOM     96  C70 UNL A   1      19.890  29.221   1.021  1.00  0.00    +0.000 C 
BRANCH    3    2
ATOM      2  O1  UNL A   1      18.156  32.489   1.365  1.00  0.00    +0.000 O 
BRANCH    2    1
ATOM      1  C1  UNL A   1      17.534  32.491   2.644  1.00  0.00    +0.000 C 
ATOM     98  H1  UNL A   1      17.339  31.483   2.947  1.00  0.00    +0.000 H 
ATOM     99  H2  UNL A   1      16.613  33.033   2.593  1.00  0.00    +0.000 H 
ATOM    100  H3  UNL A   1      18.184  32.956   3.356  1.00  0.00    +0.000 H 
ENDBRANCH    2    1
ENDBRANCH    3    2
ENDBRANCH    7    6
ENDBRANCH    8    7
ENDBRANCH    9    8
BRANCH   11   12
ATOM     12  O2  UNL A   1      19.407  23.305   3.516  1.00  0.00    +0.000 O 
BRANCH   12   13
ATOM    106  H9  UNL A   1      17.970  24.761   3.414  1.00  0.00    +0.000 H 
ATOM    107  H10 UNL A   1      17.665  23.490   4.575  1.00  0.00    +0.000 H 
ATOM    108  H11 UNL A   1      17.470  23.178   2.868  1.00  0.00    +0.000 H 
ATOM     13  C11 UNL A   1      18.043  23.709   3.599  1.00  0.00    +0.000 C 
ENDBRANCH   12   13
ENDBRANCH   11   12
BRANCH   15   16
ATOM     16  O3  UNL A   1      23.644  25.016   2.358  1.00  0.00    +0.000 O 
BRANCH   16   17
ATOM     17  C14 UNL A   1      24.259  23.909   2.988  1.00  0.00    +0.000 C 
ATOM    110  H13 UNL A   1      23.929  23.847   4.003  1.00  0.00    +0.000 H 
ATOM    111  H14 UNL A   1      25.322  24.030   2.964  1.00  0.00    +0.000 H 
ATOM    112  H15 UNL A   1      23.991  23.011   2.471  1.00  0.00    +0.000 H 
ENDBRANCH   16   17
ENDBRANCH   15   16
ENDBRANCH   19   18
ENDBRANCH   20   19
ENDBRANCH   21   20
ENDBRANCH   23   21
ENDBRANCH   24   23
ENDBRANCH   25   24
ENDBRANCH   26   25
ENDBRANCH   27   26
ENDBRANCH   28   27
ENDBRANCH   29   28
ENDBRANCH   30   29
ENDBRANCH   31   30
ENDBRANCH   33   31
ENDBRANCH   37   36
BRANCH   41   42
ATOM     42  C34 UNL A   1      22.648  19.621   3.263  1.00  0.00    +0.000 C 
ATOM     43  C35 UNL A   1      23.454  20.409   4.099  1.00  0.00    +0.000 C 
ATOM     44  F1  UNL A   1      23.115  21.680   4.361  1.00  0.00    +0.000 F 
ATOM     45  C36 UNL A   1      24.627  19.899   4.651  1.00  0.00    +0.000 C 
ATOM     46  F2  UNL A   1      25.399  20.681   5.419  1.00  0.00    +0.000 F 
ATOM     47  C37 UNL A   1      25.000  18.586   4.405  1.00  0.00    +0.000 C 
ATOM     48  F3  UNL A   1      26.120  18.093   4.951  1.00  0.00    +0.000 F 
ATOM     49  C38 UNL A   1      24.212  17.786   3.591  1.00  0.00    +0.000 C 
ATOM     50  F4  UNL A   1      24.564  16.513   3.363  1.00  0.00    +0.000 F 
ATOM     51  C39 UNL A   1      23.054  18.301   3.016  1.00  0.00    +0.000 C 
ATOM     52  F5  UNL A   1      22.317  17.503   2.228  1.00  0.00    +0.000 F 
ENDBRANCH   41   42
BRANCH   58   59
ATOM     65  F8  UNL A   1      13.280  18.299   8.214  1.00  0.00    +0.000 F 
ATOM     66  C49 UNL A   1      14.327  17.868   6.141  1.00  0.00    +0.000 C 
ATOM     67  F9  UNL A   1      13.806  16.634   6.120  1.00  0.00    +0.000 F 
ATOM     68  C50 UNL A   1      15.147  18.295   5.101  1.00  0.00    +0.000 C 
ATOM     69  F10 UNL A   1      15.409  17.443   4.097  1.00  0.00    +0.000 F 
ATOM     59  C45 UNL A   1      15.683  19.591   5.089  1.00  0.00    +0.000 C 
ATOM     60  C46 UNL A   1      15.371  20.443   6.159  1.00  0.00    +0.000 C 
ATOM     61  F6  UNL A   1      15.872  21.686   6.201  1.00  0.00    +0.000 F 
ATOM     62  C47 UNL A   1      14.577  20.001   7.214  1.00  0.00    +0.000 C 
ATOM     63  F7  UNL A   1      14.334  20.815   8.252  1.00  0.00    +0.000 F 
ATOM     64  C48 UNL A   1      14.050  18.719   7.201  1.00  0.00    +0.000 C 
ENDBRANCH   58   59
BRANCH   73   74
ATOM     74  C54 UNL A   1      14.132  22.641  -0.980  1.00  0.00    +0.000 C 
ATOM     75  C55 UNL A   1      13.441  21.728  -1.788  1.00  0.00    +0.000 C 
ATOM     76  F11 UNL A   1      13.931  20.493  -1.976  1.00  0.00    +0.000 F 
ATOM     77  C56 UNL A   1      12.269  22.092  -2.448  1.00  0.00    +0.000 C 
ATOM     78  F12 UNL A   1      11.659  21.217  -3.259  1.00  0.00    +0.000 F 
ATOM     79  C57 UNL A   1      11.745  23.365  -2.283  1.00  0.00    +0.000 C 
ATOM     80  F13 UNL A   1      10.619  23.717  -2.918  1.00  0.00    +0.000 F 
ATOM     81  C58 UNL A   1      12.397  24.278  -1.467  1.00  0.00    +0.000 C 
ATOM     82  F14 UNL A   1      11.885  25.504  -1.292  1.00  0.00    +0.000 F 
ATOM     83  C59 UNL A   1      13.586  23.924  -0.832  1.00  0.00    +0.000 C 
ATOM     84  F15 UNL A   1      14.203  24.833  -0.065  1.00  0.00    +0.000 F 
ENDBRANCH   73   74
TORSDOF 26
ENDMDL
MODEL 8
REMARK VINA RESULT:      -7.1     34.621     38.075
ROOT
ATOM    131  H34 UNL A   1      13.928  46.557   3.756  1.00  0.00    +0.000 H 
ATOM    132  H35 UNL A   1      15.329  46.719   1.563  1.00  0.00    +0.000 H 
ATOM    133  H36 UNL A   1      14.910  50.531   3.125  1.00  0.00    +0.000 H 
ATOM    134  H37 UNL A   1      15.757  56.829   2.589  1.00  0.00    +0.000 H 
ATOM    135  H38 UNL A   1      14.441  56.650   4.753  1.00  0.00    +0.000 H 
ATOM    136  H39 UNL A   1      14.888  52.813   3.224  1.00  0.00    +0.000 H 
ATOM    137  H40 UNL A   1      17.697  53.288  -0.917  1.00  0.00    +0.000 H 
ATOM    138  H41 UNL A   1      17.406  50.766  -1.240  1.00  0.00    +0.000 H 
ATOM    139  H42 UNL A   1      12.431  50.130   7.466  1.00  0.00    +0.000 H 
ATOM    140  H43 UNL A   1      12.257  52.684   7.552  1.00  0.00    +0.000 H 
ATOM     37  C30 UNL A   1      13.686  54.001   5.461  1.00  0.00    +0.000 C 
ATOM     38  C31 UNL A   1      13.470  52.524   5.643  1.00  0.00    +0.000 C 
ATOM     39  N3  UNL A   1      13.881  51.531   4.894  1.00  0.00    +0.000 N 
ATOM     40  C32 UNL A   1      13.459  50.374   5.535  1.00  0.00    +0.000 C 
ATOM     41  C33 UNL A   1      13.596  49.089   5.130  1.00  0.00    +0.000 C 
ATOM     53  C40 UNL A   1      14.218  48.690   3.894  1.00  0.00    +0.000 C 
ATOM     54  C41 UNL A   1      14.324  47.421   3.353  1.00  0.00    +0.000 C 
ATOM     55  C42 UNL A   1      15.059  47.510   2.168  1.00  0.00    +0.000 C 
ATOM     56  C43 UNL A   1      15.364  48.842   1.942  1.00  0.00    +0.000 C 
ATOM     57  N4  UNL A   1      14.845  49.555   3.010  1.00  0.00    +0.000 N 
ATOM     58  C44 UNL A   1      16.078  49.423   0.834  1.00  0.00    +0.000 C 
ATOM     70  C51 UNL A   1      16.322  50.746   0.675  1.00  0.00    +0.000 C 
ATOM     71  N5  UNL A   1      15.962  51.805   1.497  1.00  0.00    +0.000 N 
ATOM     72  C52 UNL A   1      16.445  52.883   0.929  1.00  0.00    +0.000 C 
ATOM     73  C53 UNL A   1      16.334  54.318   1.367  1.00  0.00    +0.000 C 
ATOM     85  C60 UNL A   1      15.623  54.612   2.472  1.00  0.00    +0.000 C 
ATOM     86  C61 UNL A   1      15.416  55.951   3.012  1.00  0.00    +0.000 C 
ATOM     87  C62 UNL A   1      14.710  55.857   4.150  1.00  0.00    +0.000 C 
ATOM     88  C63 UNL A   1      14.382  54.454   4.401  1.00  0.00    +0.000 C 
ATOM     89  N6  UNL A   1      14.952  53.788   3.345  1.00  0.00    +0.000 N 
ATOM     90  C64 UNL A   1      17.192  52.623  -0.310  1.00  0.00    +0.000 C 
ATOM     91  C65 UNL A   1      17.047  51.313  -0.442  1.00  0.00    +0.000 C 
ATOM     92  C66 UNL A   1      12.796  50.781   6.754  1.00  0.00    +0.000 C 
ATOM     93  C67 UNL A   1      12.721  52.103   6.836  1.00  0.00    +0.000 C 
ENDROOT
BRANCH   37   36
ATOM     33  C26 UNL A   1      12.196  56.762   8.392  1.00  0.00    +0.000 C 
ATOM     34  C27 UNL A   1      13.512  56.302   8.476  1.00  0.00    +0.000 C 
ATOM     35  C28 UNL A   1      14.008  55.423   7.509  1.00  0.00    +0.000 C 
ATOM    129  H32 UNL A   1      14.119  56.610   9.252  1.00  0.00    +0.000 H 
ATOM    130  H33 UNL A   1      14.990  55.110   7.557  1.00  0.00    +0.000 H 
ATOM     36  C29 UNL A   1      13.180  54.965   6.472  1.00  0.00    +0.000 C 
ATOM    141  H44 UNL A   1      11.236  55.092   5.648  1.00  0.00    +0.000 H 
ATOM    142  H45 UNL A   1      10.446  56.771   7.208  1.00  0.00    +0.000 H 
ATOM     94  C68 UNL A   1      11.862  55.437   6.394  1.00  0.00    +0.000 C 
ATOM     95  C69 UNL A   1      11.391  56.369   7.318  1.00  0.00    +0.000 C 
BRANCH   33   31
ATOM     31  C25 UNL A   1      11.708  57.712   9.421  1.00  0.00    +0.000 C 
ATOM     32  O5  UNL A   1      11.814  58.921   9.235  1.00  0.00    +0.000 O 
BRANCH   31   30
ATOM     30  N2  UNL A   1      11.125  57.249  10.574  1.00  0.00    +0.000 N 
ATOM    128  H31 UNL A   1      11.456  57.644  11.413  1.00  0.00    +0.000 H 
BRANCH   30   29
ATOM     29  C24 UNL A   1      10.082  56.247  10.710  1.00  0.00    +0.000 C 
ATOM    126  H29 UNL A   1       9.338  56.610  11.390  1.00  0.00    +0.000 H 
ATOM    127  H30 UNL A   1       9.658  56.070   9.743  1.00  0.00    +0.000 H 
BRANCH   29   28
ATOM    124  H27 UNL A   1      11.578  55.131  11.707  1.00  0.00    +0.000 H 
ATOM     28  C23 UNL A   1      10.636  54.931  11.239  1.00  0.00    +0.000 C 
ATOM    125  H28 UNL A   1       9.905  54.544  11.918  1.00  0.00    +0.000 H 
BRANCH   28   27
ATOM    122  H25 UNL A   1      10.218  53.024  10.407  1.00  0.00    +0.000 H 
ATOM     27  C22 UNL A   1      10.852  53.855  10.174  1.00  0.00    +0.000 C 
ATOM    123  H26 UNL A   1      10.621  54.313   9.234  1.00  0.00    +0.000 H 
BRANCH   27   26
ATOM    121  H24 UNL A   1      12.651  53.672   9.107  1.00  0.00    +0.000 H 
ATOM     26  C21 UNL A   1      12.291  53.338  10.058  1.00  0.00    +0.000 C 
ATOM    120  H23 UNL A   1      12.269  52.273  10.157  1.00  0.00    +0.000 H 
BRANCH   26   25
ATOM     25  C20 UNL A   1      13.267  53.892  11.101  1.00  0.00    +0.000 C 
ATOM    118  H21 UNL A   1      13.359  54.947  10.950  1.00  0.00    +0.000 H 
ATOM    119  H22 UNL A   1      12.866  53.648  12.062  1.00  0.00    +0.000 H 
BRANCH   25   24
ATOM    116  H19 UNL A   1      15.328  53.972  10.576  1.00  0.00    +0.000 H 
ATOM    117  H20 UNL A   1      14.976  53.043  12.029  1.00  0.00    +0.000 H 
ATOM     24  C19 UNL A   1      14.659  53.275  11.033  1.00  0.00    +0.000 C 
BRANCH   24   23
ATOM    115  H18 UNL A   1      14.274  52.121   9.351  1.00  0.00    +0.000 H 
ATOM     23  N1  UNL A   1      14.652  52.052  10.259  1.00  0.00    +0.000 N 
BRANCH   23   21
ATOM     21  C18 UNL A   1      15.099  50.822  10.623  1.00  0.00    +0.000 C 
ATOM     22  O4  UNL A   1      16.253  50.655  10.999  1.00  0.00    +0.000 O 
BRANCH   21   20
ATOM    114  H17 UNL A   1      14.505  48.795  10.079  1.00  0.00    +0.000 H 
ATOM     20  C17 UNL A   1      14.184  49.668  10.525  1.00  0.00    +0.000 C 
BRANCH   20   19
ATOM    113  H16 UNL A   1      12.215  50.234  10.454  1.00  0.00    +0.000 H 
ATOM     19  C16 UNL A   1      12.936  49.748  11.011  1.00  0.00    +0.000 C 
BRANCH   19   18
ATOM      9  C8  UNL A   1      11.843  47.936  12.320  1.00  0.00    +0.000 C 
ATOM     10  C9  UNL A   1      11.401  47.388  13.536  1.00  0.00    +0.000 C 
ATOM     11  C10 UNL A   1      11.639  48.037  14.743  1.00  0.00    +0.000 C 
ATOM    105  H8  UNL A   1      10.892  46.490  13.534  1.00  0.00    +0.000 H 
ATOM    109  H12 UNL A   1      12.565  49.692  15.633  1.00  0.00    +0.000 H 
ATOM     14  C12 UNL A   1      12.360  49.225  14.735  1.00  0.00    +0.000 C 
ATOM     15  C13 UNL A   1      12.816  49.811  13.540  1.00  0.00    +0.000 C 
ATOM     18  C15 UNL A   1      12.559  49.168  12.309  1.00  0.00    +0.000 C 
BRANCH    9    8
ATOM    104  H7  UNL A   1      12.203  46.848  10.476  1.00  0.00    +0.000 H 
ATOM      8  C7  UNL A   1      11.457  47.183  11.107  1.00  0.00    +0.000 C 
BRANCH    8    7
ATOM    103  H6  UNL A   1       9.618  46.412  11.492  1.00  0.00    +0.000 H 
ATOM      7  C6  UNL A   1      10.180  46.915  10.787  1.00  0.00    +0.000 C 
BRANCH    7    6
ATOM     97  C71 UNL A   1       7.866  46.659   7.808  1.00  0.00    +0.000 C 
ATOM      3  C2  UNL A   1       8.149  47.817   7.089  1.00  0.00    +0.000 C 
ATOM      4  C3  UNL A   1       9.099  48.707   7.594  1.00  0.00    +0.000 C 
ATOM    101  H4  UNL A   1       9.314  49.571   7.073  1.00  0.00    +0.000 H 
ATOM      5  C4  UNL A   1       9.765  48.443   8.799  1.00  0.00    +0.000 C 
ATOM    102  H5  UNL A   1      10.456  49.120   9.159  1.00  0.00    +0.000 H 
ATOM      6  C5  UNL A   1       9.505  47.271   9.521  1.00  0.00    +0.000 C 
ATOM    143  H46 UNL A   1       8.318  45.526   9.529  1.00  0.00    +0.000 H 
ATOM    144  H47 UNL A   1       7.159  45.995   7.454  1.00  0.00    +0.000 H 
ATOM     96  C70 UNL A   1       8.538  46.391   9.010  1.00  0.00    +0.000 C 
BRANCH    3    2
ATOM      2  O1  UNL A   1       7.605  48.171   5.885  1.00  0.00    +0.000 O 
BRANCH    2    1
ATOM      1  C1  UNL A   1       8.369  49.053   5.072  1.00  0.00    +0.000 C 
ATOM     98  H1  UNL A   1       9.178  49.456   5.645  1.00  0.00    +0.000 H 
ATOM     99  H2  UNL A   1       7.745  49.851   4.726  1.00  0.00    +0.000 H 
ATOM    100  H3  UNL A   1       8.760  48.516   4.233  1.00  0.00    +0.000 H 
ENDBRANCH    2    1
ENDBRANCH    3    2
ENDBRANCH    7    6
ENDBRANCH    8    7
ENDBRANCH    9    8
BRANCH   11   12
ATOM     12  O2  UNL A   1      11.119  47.431  15.853  1.00  0.00    +0.000 O 
BRANCH   12   13
ATOM    106  H9  UNL A   1      10.785  49.316  16.581  1.00  0.00    +0.000 H 
ATOM    107  H10 UNL A   1      11.129  48.100  17.788  1.00  0.00    +0.000 H 
ATOM    108  H11 UNL A   1       9.572  48.130  16.996  1.00  0.00    +0.000 H 
ATOM     13  C11 UNL A   1      10.620  48.298  16.868  1.00  0.00    +0.000 C 
ENDBRANCH   12   13
ENDBRANCH   11   12
BRANCH   15   16
ATOM     16  O3  UNL A   1      13.422  51.007  13.819  1.00  0.00    +0.000 O 
BRANCH   16   17
ATOM     17  C14 UNL A   1      14.688  51.099  14.443  1.00  0.00    +0.000 C 
ATOM    110  H13 UNL A   1      14.574  50.978  15.500  1.00  0.00    +0.000 H 
ATOM    111  H14 UNL A   1      15.119  52.056  14.237  1.00  0.00    +0.000 H 
ATOM    112  H15 UNL A   1      15.328  50.330  14.063  1.00  0.00    +0.000 H 
ENDBRANCH   16   17
ENDBRANCH   15   16
ENDBRANCH   19   18
ENDBRANCH   20   19
ENDBRANCH   21   20
ENDBRANCH   23   21
ENDBRANCH   24   23
ENDBRANCH   25   24
ENDBRANCH   26   25
ENDBRANCH   27   26
ENDBRANCH   28   27
ENDBRANCH   29   28
ENDBRANCH   30   29
ENDBRANCH   31   30
ENDBRANCH   33   31
ENDBRANCH   37   36
BRANCH   41   42
ATOM     42  C34 UNL A   1      13.063  48.008   6.025  1.00  0.00    +0.000 C 
ATOM     43  C35 UNL A   1      11.938  47.247   5.674  1.00  0.00    +0.000 C 
ATOM     44  F1  UNL A   1      11.259  47.525   4.550  1.00  0.00    +0.000 F 
ATOM     45  C36 UNL A   1      11.491  46.210   6.490  1.00  0.00    +0.000 C 
ATOM     46  F2  UNL A   1      10.393  45.519   6.150  1.00  0.00    +0.000 F 
ATOM     47  C37 UNL A   1      12.176  45.894   7.653  1.00  0.00    +0.000 C 
ATOM     48  F3  UNL A   1      11.755  44.885   8.427  1.00  0.00    +0.000 F 
ATOM     49  C38 UNL A   1      13.297  46.626   8.014  1.00  0.00    +0.000 C 
ATOM     50  F4  UNL A   1      13.969  46.313   9.131  1.00  0.00    +0.000 F 
ATOM     51  C39 UNL A   1      13.730  47.680   7.215  1.00  0.00    +0.000 C 
ATOM     52  F5  UNL A   1      14.815  48.373   7.595  1.00  0.00    +0.000 F 
ENDBRANCH   41   42
BRANCH   58   59
ATOM     65  F8  UNL A   1      17.879  45.898  -3.198  1.00  0.00    +0.000 F 
ATOM     66  C49 UNL A   1      16.127  47.131  -2.203  1.00  0.00    +0.000 C 
ATOM     67  F9  UNL A   1      15.264  46.665  -3.115  1.00  0.00    +0.000 F 
ATOM     68  C50 UNL A   1      15.692  48.018  -1.223  1.00  0.00    +0.000 C 
ATOM     69  F10 UNL A   1      14.405  48.397  -1.224  1.00  0.00    +0.000 F 
ATOM     59  C45 UNL A   1      16.572  48.500  -0.242  1.00  0.00    +0.000 C 
ATOM     60  C46 UNL A   1      17.905  48.065  -0.283  1.00  0.00    +0.000 C 
ATOM     61  F6  UNL A   1      18.789  48.509   0.622  1.00  0.00    +0.000 F 
ATOM     62  C47 UNL A   1      18.345  47.204  -1.285  1.00  0.00    +0.000 C 
ATOM     63  F7  UNL A   1      19.635  46.842  -1.335  1.00  0.00    +0.000 F 
ATOM     64  C48 UNL A   1      17.455  46.732  -2.239  1.00  0.00    +0.000 C 
ENDBRANCH   58   59
BRANCH   73   74
ATOM     74  C54 UNL A   1      16.990  55.404   0.591  1.00  0.00    +0.000 C 
ATOM     75  C55 UNL A   1      16.339  56.015  -0.489  1.00  0.00    +0.000 C 
ATOM     76  F11 UNL A   1      15.103  55.624  -0.836  1.00  0.00    +0.000 F 
ATOM     77  C56 UNL A   1      16.971  56.996  -1.251  1.00  0.00    +0.000 C 
ATOM     78  F12 UNL A   1      16.347  57.524  -2.312  1.00  0.00    +0.000 F 
ATOM     79  C57 UNL A   1      18.253  57.412  -0.923  1.00  0.00    +0.000 C 
ATOM     80  F13 UNL A   1      18.861  58.355  -1.655  1.00  0.00    +0.000 F 
ATOM     81  C58 UNL A   1      18.907  56.841   0.158  1.00  0.00    +0.000 C 
ATOM     82  F14 UNL A   1      20.139  57.252   0.487  1.00  0.00    +0.000 F 
ATOM     83  C59 UNL A   1      18.287  55.837   0.900  1.00  0.00    +0.000 C 
ATOM     84  F15 UNL A   1      18.952  55.291   1.927  1.00  0.00    +0.000 F 
ENDBRANCH   73   74
TORSDOF 26
ENDMDL
MODEL 9
REMARK VINA RESULT:      -7.1     22.070     27.361
ROOT
ATOM    131  H34 UNL A   1      39.921  28.101  26.829  1.00  0.00    +0.000 H 
ATOM    132  H35 UNL A   1      38.036  29.836  27.314  1.00  0.00    +0.000 H 
ATOM    133  H36 UNL A   1      40.312  29.395  30.745  1.00  0.00    +0.000 H 
ATOM    134  H37 UNL A   1      41.279  30.673  36.917  1.00  0.00    +0.000 H 
ATOM    135  H38 UNL A   1      43.145  29.025  36.415  1.00  0.00    +0.000 H 
ATOM    136  H39 UNL A   1      40.899  29.488  32.951  1.00  0.00    +0.000 H 
ATOM    137  H40 UNL A   1      37.400  32.935  34.014  1.00  0.00    +0.000 H 
ATOM    138  H41 UNL A   1      36.500  32.555  31.649  1.00  0.00    +0.000 H 
ATOM    139  H42 UNL A   1      44.068  26.245  29.682  1.00  0.00    +0.000 H 
ATOM    140  H43 UNL A   1      44.680  26.205  32.169  1.00  0.00    +0.000 H 
ATOM     37  C30 UNL A   1      43.147  28.018  33.755  1.00  0.00    +0.000 C 
ATOM     38  C31 UNL A   1      42.972  27.693  32.298  1.00  0.00    +0.000 C 
ATOM     39  N3  UNL A   1      42.092  28.159  31.447  1.00  0.00    +0.000 N 
ATOM     40  C32 UNL A   1      42.400  27.576  30.225  1.00  0.00    +0.000 C 
ATOM     41  C33 UNL A   1      41.750  27.701  29.044  1.00  0.00    +0.000 C 
ATOM     53  C40 UNL A   1      40.558  28.487  28.854  1.00  0.00    +0.000 C 
ATOM     54  C41 UNL A   1      39.776  28.603  27.719  1.00  0.00    +0.000 C 
ATOM     55  C42 UNL A   1      38.754  29.520  27.985  1.00  0.00    +0.000 C 
ATOM     56  C43 UNL A   1      38.867  29.932  29.302  1.00  0.00    +0.000 C 
ATOM     57  N4  UNL A   1      39.980  29.293  29.824  1.00  0.00    +0.000 N 
ATOM     58  C44 UNL A   1      38.024  30.843  30.032  1.00  0.00    +0.000 C 
ATOM     70  C51 UNL A   1      38.192  31.184  31.333  1.00  0.00    +0.000 C 
ATOM     71  N5  UNL A   1      39.165  30.760  32.227  1.00  0.00    +0.000 N 
ATOM     72  C52 UNL A   1      38.918  31.387  33.352  1.00  0.00    +0.000 C 
ATOM     73  C53 UNL A   1      39.636  31.291  34.670  1.00  0.00    +0.000 C 
ATOM     85  C60 UNL A   1      40.667  30.432  34.793  1.00  0.00    +0.000 C 
ATOM     86  C61 UNL A   1      41.450  30.220  36.005  1.00  0.00    +0.000 C 
ATOM     87  C62 UNL A   1      42.429  29.340  35.742  1.00  0.00    +0.000 C 
ATOM     88  C63 UNL A   1      42.321  28.897  34.353  1.00  0.00    +0.000 C 
ATOM     89  N6  UNL A   1      41.237  29.587  33.870  1.00  0.00    +0.000 N 
ATOM     90  C64 UNL A   1      37.770  32.304  33.287  1.00  0.00    +0.000 C 
ATOM     91  C65 UNL A   1      37.338  32.107  32.051  1.00  0.00    +0.000 C 
ATOM     92  C66 UNL A   1      43.573  26.754  30.431  1.00  0.00    +0.000 C 
ATOM     93  C67 UNL A   1      43.928  26.743  31.708  1.00  0.00    +0.000 C 
ENDROOT
BRANCH   37   36
ATOM     33  C26 UNL A   1      46.363  26.244  35.980  1.00  0.00    +0.000 C 
ATOM     34  C27 UNL A   1      46.586  27.411  35.245  1.00  0.00    +0.000 C 
ATOM     35  C28 UNL A   1      45.536  28.005  34.541  1.00  0.00    +0.000 C 
ATOM    129  H32 UNL A   1      47.527  27.835  35.223  1.00  0.00    +0.000 H 
ATOM    130  H33 UNL A   1      45.697  28.884  34.025  1.00  0.00    +0.000 H 
ATOM     36  C29 UNL A   1      44.262  27.415  34.532  1.00  0.00    +0.000 C 
ATOM    141  H44 UNL A   1      43.120  25.792  35.261  1.00  0.00    +0.000 H 
ATOM    142  H45 UNL A   1      44.891  24.881  36.642  1.00  0.00    +0.000 H 
ATOM     94  C68 UNL A   1      44.047  26.246  35.276  1.00  0.00    +0.000 C 
ATOM     95  C69 UNL A   1      45.077  25.695  36.036  1.00  0.00    +0.000 C 
BRANCH   33   31
ATOM     31  C25 UNL A   1      47.493  25.652  36.735  1.00  0.00    +0.000 C 
ATOM     32  O5  UNL A   1      47.976  26.259  37.687  1.00  0.00    +0.000 O 
BRANCH   31   30
ATOM     30  N2  UNL A   1      47.995  24.423  36.386  1.00  0.00    +0.000 N 
ATOM    128  H31 UNL A   1      48.167  23.801  37.129  1.00  0.00    +0.000 H 
BRANCH   30   29
ATOM     29  C24 UNL A   1      48.304  23.926  35.056  1.00  0.00    +0.000 C 
ATOM    126  H29 UNL A   1      48.664  22.921  35.135  1.00  0.00    +0.000 H 
ATOM    127  H30 UNL A   1      47.411  23.966  34.467  1.00  0.00    +0.000 H 
BRANCH   29   28
ATOM    124  H27 UNL A   1      49.524  25.654  34.970  1.00  0.00    +0.000 H 
ATOM     28  C23 UNL A   1      49.366  24.780  34.374  1.00  0.00    +0.000 C 
ATOM    125  H28 UNL A   1      50.239  24.167  34.290  1.00  0.00    +0.000 H 
BRANCH   28   27
ATOM    122  H25 UNL A   1      49.592  24.648  32.268  1.00  0.00    +0.000 H 
ATOM     27  C22 UNL A   1      49.011  25.227  32.955  1.00  0.00    +0.000 C 
ATOM    123  H26 UNL A   1      47.956  25.079  32.849  1.00  0.00    +0.000 H 
BRANCH   27   26
ATOM    121  H24 UNL A   1      50.121  26.986  33.244  1.00  0.00    +0.000 H 
ATOM     26  C21 UNL A   1      49.267  26.711  32.662  1.00  0.00    +0.000 C 
ATOM    120  H23 UNL A   1      48.382  27.256  32.919  1.00  0.00    +0.000 H 
BRANCH   26   25
ATOM     25  C20 UNL A   1      49.620  27.035  31.207  1.00  0.00    +0.000 C 
ATOM    118  H21 UNL A   1      50.664  27.261  31.157  1.00  0.00    +0.000 H 
ATOM    119  H22 UNL A   1      49.355  26.179  30.625  1.00  0.00    +0.000 H 
BRANCH   25   24
ATOM    116  H19 UNL A   1      48.927  29.045  31.304  1.00  0.00    +0.000 H 
ATOM    117  H20 UNL A   1      49.261  28.461  29.678  1.00  0.00    +0.000 H 
ATOM     24  C19 UNL A   1      48.846  28.217  30.633  1.00  0.00    +0.000 C 
BRANCH   24   23
ATOM    115  H18 UNL A   1      47.029  27.382  31.188  1.00  0.00    +0.000 H 
ATOM     23  N1  UNL A   1      47.447  27.890  30.455  1.00  0.00    +0.000 N 
BRANCH   23   21
ATOM     21  C18 UNL A   1      46.639  28.194  29.407  1.00  0.00    +0.000 C 
ATOM     22  O4  UNL A   1      45.811  29.093  29.488  1.00  0.00    +0.000 O 
BRANCH   21   20
ATOM    114  H17 UNL A   1      46.354  27.768  27.286  1.00  0.00    +0.000 H 
ATOM     20  C17 UNL A   1      46.741  27.397  28.168  1.00  0.00    +0.000 C 
BRANCH   20   19
ATOM    113  H16 UNL A   1      48.180  26.061  28.758  1.00  0.00    +0.000 H 
ATOM     19  C16 UNL A   1      47.333  26.193  28.182  1.00  0.00    +0.000 C 
BRANCH   19   18
ATOM      9  C8  UNL A   1      47.250  24.898  26.059  1.00  0.00    +0.000 C 
ATOM     10  C9  UNL A   1      46.723  23.866  25.264  1.00  0.00    +0.000 C 
ATOM     11  C10 UNL A   1      45.767  22.991  25.768  1.00  0.00    +0.000 C 
ATOM    105  H8  UNL A   1      47.050  23.756  24.291  1.00  0.00    +0.000 H 
ATOM    109  H12 UNL A   1      44.678  22.458  27.477  1.00  0.00    +0.000 H 
ATOM     14  C12 UNL A   1      45.364  23.126  27.091  1.00  0.00    +0.000 C 
ATOM     15  C13 UNL A   1      45.862  24.148  27.920  1.00  0.00    +0.000 C 
ATOM     18  C15 UNL A   1      46.818  25.054  27.407  1.00  0.00    +0.000 C 
BRANCH    9    8
ATOM    104  H7  UNL A   1      48.965  26.223  25.930  1.00  0.00    +0.000 H 
ATOM      8  C7  UNL A   1      48.201  25.803  25.376  1.00  0.00    +0.000 C 
BRANCH    8    7
ATOM    103  H6  UNL A   1      47.306  25.722  23.555  1.00  0.00    +0.000 H 
ATOM      7  C6  UNL A   1      48.115  26.104  24.070  1.00  0.00    +0.000 C 
BRANCH    7    6
ATOM     97  C71 UNL A   1      51.307  27.915  23.162  1.00  0.00    +0.000 C 
ATOM      3  C2  UNL A   1      50.995  28.513  21.944  1.00  0.00    +0.000 C 
ATOM      4  C3  UNL A   1      49.726  28.308  21.400  1.00  0.00    +0.000 C 
ATOM    101  H4  UNL A   1      49.484  28.742  20.496  1.00  0.00    +0.000 H 
ATOM      5  C4  UNL A   1      48.775  27.520  22.065  1.00  0.00    +0.000 C 
ATOM    102  H5  UNL A   1      47.847  27.373  21.639  1.00  0.00    +0.000 H 
ATOM      6  C5  UNL A   1      49.070  26.930  23.301  1.00  0.00    +0.000 C 
ATOM    143  H46 UNL A   1      50.601  26.698  24.734  1.00  0.00    +0.000 H 
ATOM    144  H47 UNL A   1      52.245  28.047  23.574  1.00  0.00    +0.000 H 
ATOM     96  C70 UNL A   1      50.354  27.133  23.831  1.00  0.00    +0.000 C 
BRANCH    3    2
ATOM      2  O1  UNL A   1      51.811  29.335  21.218  1.00  0.00    +0.000 O 
BRANCH    2    1
ATOM      1  C1  UNL A   1      51.175  30.292  20.380  1.00  0.00    +0.000 C 
ATOM     98  H1  UNL A   1      51.876  31.055  20.113  1.00  0.00    +0.000 H 
ATOM     99  H2  UNL A   1      50.351  30.732  20.903  1.00  0.00    +0.000 H 
ATOM    100  H3  UNL A   1      50.819  29.810  19.494  1.00  0.00    +0.000 H 
ENDBRANCH    2    1
ENDBRANCH    3    2
ENDBRANCH    7    6
ENDBRANCH    8    7
ENDBRANCH    9    8
BRANCH   11   12
ATOM     12  O2  UNL A   1      45.294  22.059  24.886  1.00  0.00    +0.000 O 
BRANCH   12   13
ATOM    106  H9  UNL A   1      44.647  20.199  25.445  1.00  0.00    +0.000 H 
ATOM    107  H10 UNL A   1      46.226  20.651  26.043  1.00  0.00    +0.000 H 
ATOM    108  H11 UNL A   1      46.019  20.218  24.363  1.00  0.00    +0.000 H 
ATOM     13  C11 UNL A   1      45.564  20.697  25.204  1.00  0.00    +0.000 C 
ENDBRANCH   12   13
ENDBRANCH   11   12
BRANCH   15   16
ATOM     16  O3  UNL A   1      45.239  24.094  29.138  1.00  0.00    +0.000 O 
BRANCH   16   17
ATOM     17  C14 UNL A   1      44.203  23.176  29.430  1.00  0.00    +0.000 C 
ATOM    110  H13 UNL A   1      44.607  22.341  29.965  1.00  0.00    +0.000 H 
ATOM    111  H14 UNL A   1      43.760  22.836  28.518  1.00  0.00    +0.000 H 
ATOM    112  H15 UNL A   1      43.460  23.658  30.030  1.00  0.00    +0.000 H 
ENDBRANCH   16   17
ENDBRANCH   15   16
ENDBRANCH   19   18
ENDBRANCH   20   19
ENDBRANCH   21   20
ENDBRANCH   23   21
ENDBRANCH   24   23
ENDBRANCH   25   24
ENDBRANCH   26   25
ENDBRANCH   27   26
ENDBRANCH   28   27
ENDBRANCH   29   28
ENDBRANCH   30   29
ENDBRANCH   31   30
ENDBRANCH   33   31
ENDBRANCH   37   36
BRANCH   41   42
ATOM     42  C34 UNL A   1      42.305  26.974  27.854  1.00  0.00    +0.000 C 
ATOM     43  C35 UNL A   1      41.863  25.689  27.503  1.00  0.00    +0.000 C 
ATOM     44  F1  UNL A   1      40.979  25.044  28.278  1.00  0.00    +0.000 F 
ATOM     45  C36 UNL A   1      42.348  25.052  26.363  1.00  0.00    +0.000 C 
ATOM     46  F2  UNL A   1      41.937  23.811  26.066  1.00  0.00    +0.000 F 
ATOM     47  C37 UNL A   1      43.256  25.697  25.537  1.00  0.00    +0.000 C 
ATOM     48  F3  UNL A   1      43.708  25.088  24.432  1.00  0.00    +0.000 F 
ATOM     49  C38 UNL A   1      43.698  26.971  25.860  1.00  0.00    +0.000 C 
ATOM     50  F4  UNL A   1      44.566  27.601  25.055  1.00  0.00    +0.000 F 
ATOM     51  C39 UNL A   1      43.237  27.599  27.012  1.00  0.00    +0.000 C 
ATOM     52  F5  UNL A   1      43.689  28.830  27.299  1.00  0.00    +0.000 F 
ENDBRANCH   41   42
BRANCH   58   59
ATOM     65  F8  UNL A   1      33.619  33.173  27.370  1.00  0.00    +0.000 F 
ATOM     66  C49 UNL A   1      35.781  33.380  28.297  1.00  0.00    +0.000 C 
ATOM     67  F9  UNL A   1      35.813  34.678  27.966  1.00  0.00    +0.000 F 
ATOM     68  C50 UNL A   1      36.874  32.798  28.932  1.00  0.00    +0.000 C 
ATOM     69  F10 UNL A   1      37.950  33.558  29.188  1.00  0.00    +0.000 F 
ATOM     59  C45 UNL A   1      36.854  31.447  29.310  1.00  0.00    +0.000 C 
ATOM     60  C46 UNL A   1      35.702  30.701  29.025  1.00  0.00    +0.000 C 
ATOM     61  F6  UNL A   1      35.639  29.402  29.352  1.00  0.00    +0.000 F 
ATOM     62  C47 UNL A   1      34.623  31.278  28.360  1.00  0.00    +0.000 C 
ATOM     63  F7  UNL A   1      33.553  30.533  28.051  1.00  0.00    +0.000 F 
ATOM     64  C48 UNL A   1      34.661  32.618  28.004  1.00  0.00    +0.000 C 
ENDBRANCH   58   59
BRANCH   73   74
ATOM     74  C54 UNL A   1      39.215  32.121  35.830  1.00  0.00    +0.000 C 
ATOM     75  C55 UNL A   1      39.728  33.413  36.017  1.00  0.00    +0.000 C 
ATOM     76  F11 UNL A   1      40.612  33.917  35.142  1.00  0.00    +0.000 F 
ATOM     77  C56 UNL A   1      39.376  34.174  37.130  1.00  0.00    +0.000 C 
ATOM     78  F12 UNL A   1      39.924  35.382  37.314  1.00  0.00    +0.000 F 
ATOM     79  C57 UNL A   1      38.475  33.673  38.058  1.00  0.00    +0.000 C 
ATOM     80  F13 UNL A   1      38.136  34.403  39.128  1.00  0.00    +0.000 F 
ATOM     81  C58 UNL A   1      37.933  32.409  37.879  1.00  0.00    +0.000 C 
ATOM     82  F14 UNL A   1      37.050  31.928  38.764  1.00  0.00    +0.000 F 
ATOM     83  C59 UNL A   1      38.311  31.635  36.783  1.00  0.00    +0.000 C 
ATOM     84  F15 UNL A   1      37.785  30.409  36.647  1.00  0.00    +0.000 F 
ENDBRANCH   73   74
TORSDOF 26
ENDMDL
MODEL 10
REMARK VINA RESULT:      -6.9     27.639     34.293
ROOT
ATOM    131  H34 UNL A   1      60.984  16.886  13.720  1.00  0.00    +0.000 H 
ATOM    132  H35 UNL A   1      61.070  18.336  15.886  1.00  0.00    +0.000 H 
ATOM    133  H36 UNL A   1      57.357  18.847  14.123  1.00  0.00    +0.000 H 
ATOM    134  H37 UNL A   1      51.707  21.796  13.934  1.00  0.00    +0.000 H 
ATOM    135  H38 UNL A   1      51.616  20.336  11.858  1.00  0.00    +0.000 H 
ATOM    136  H39 UNL A   1      55.329  19.777  13.636  1.00  0.00    +0.000 H 
ATOM    137  H40 UNL A   1      55.284  22.535  17.838  1.00  0.00    +0.000 H 
ATOM    138  H41 UNL A   1      57.706  21.788  18.193  1.00  0.00    +0.000 H 
ATOM    139  H42 UNL A   1      57.156  15.847  10.108  1.00  0.00    +0.000 H 
ATOM    140  H43 UNL A   1      54.947  16.958   9.444  1.00  0.00    +0.000 H 
ATOM     37  C30 UNL A   1      53.974  18.822  11.375  1.00  0.00    +0.000 C 
ATOM     38  C31 UNL A   1      55.287  18.089  11.380  1.00  0.00    +0.000 C 
ATOM     39  N3  UNL A   1      56.261  18.144  12.255  1.00  0.00    +0.000 N 
ATOM     40  C32 UNL A   1      57.215  17.235  11.817  1.00  0.00    +0.000 C 
ATOM     41  C33 UNL A   1      58.428  16.962  12.353  1.00  0.00    +0.000 C 
ATOM     53  C40 UNL A   1      58.964  17.617  13.519  1.00  0.00    +0.000 C 
ATOM     54  C41 UNL A   1      60.219  17.475  14.085  1.00  0.00    +0.000 C 
ATOM     55  C42 UNL A   1      60.271  18.267  15.236  1.00  0.00    +0.000 C 
ATOM     56  C43 UNL A   1      59.069  18.944  15.356  1.00  0.00    +0.000 C 
ATOM     57  N4  UNL A   1      58.275  18.534  14.298  1.00  0.00    +0.000 N 
ATOM     58  C44 UNL A   1      58.671  19.894  16.363  1.00  0.00    +0.000 C 
ATOM     70  C51 UNL A   1      57.476  20.531  16.402  1.00  0.00    +0.000 C 
ATOM     71  N5  UNL A   1      56.403  20.427  15.527  1.00  0.00    +0.000 N 
ATOM     72  C52 UNL A   1      55.474  21.220  16.001  1.00  0.00    +0.000 C 
ATOM     73  C53 UNL A   1      54.109  21.523  15.444  1.00  0.00    +0.000 C 
ATOM     85  C60 UNL A   1      53.739  20.960  14.278  1.00  0.00    +0.000 C 
ATOM     86  C61 UNL A   1      52.458  21.166  13.610  1.00  0.00    +0.000 C 
ATOM     87  C62 UNL A   1      52.415  20.403  12.507  1.00  0.00    +0.000 C 
ATOM     88  C63 UNL A   1      53.679  19.681  12.369  1.00  0.00    +0.000 C 
ATOM     89  N6  UNL A   1      54.411  20.085  13.458  1.00  0.00    +0.000 N 
ATOM     90  C64 UNL A   1      55.846  21.899  17.251  1.00  0.00    +0.000 C 
ATOM     91  C65 UNL A   1      57.090  21.479  17.425  1.00  0.00    +0.000 C 
ATOM     92  C66 UNL A   1      56.690  16.610  10.622  1.00  0.00    +0.000 C 
ATOM     93  C67 UNL A   1      55.529  17.149  10.275  1.00  0.00    +0.000 C 
ENDROOT
BRANCH   37   36
ATOM     33  C26 UNL A   1      51.056  18.087   8.313  1.00  0.00    +0.000 C 
ATOM     34  C27 UNL A   1      51.993  19.110   8.150  1.00  0.00    +0.000 C 
ATOM     35  C28 UNL A   1      52.960  19.336   9.132  1.00  0.00    +0.000 C 
ATOM    129  H32 UNL A   1      51.971  19.701   7.303  1.00  0.00    +0.000 H 
ATOM    130  H33 UNL A   1      53.670  20.072   8.994  1.00  0.00    +0.000 H 
ATOM     36  C29 UNL A   1      52.974  18.566  10.306  1.00  0.00    +0.000 C 
ATOM    141  H44 UNL A   1      52.019  16.978  11.326  1.00  0.00    +0.000 H 
ATOM    142  H45 UNL A   1      50.476  16.461   9.530  1.00  0.00    +0.000 H 
ATOM     94  C68 UNL A   1      52.032  17.538  10.459  1.00  0.00    +0.000 C 
ATOM     95  C69 UNL A   1      51.114  17.267   9.445  1.00  0.00    +0.000 C 
BRANCH   33   31
ATOM     31  C25 UNL A   1      50.058  17.859   7.240  1.00  0.00    +0.000 C 
ATOM     32  O5  UNL A   1      48.995  18.475   7.254  1.00  0.00    +0.000 O 
BRANCH   31   30
ATOM     30  N2  UNL A   1      50.319  16.976   6.223  1.00  0.00    +0.000 N 
ATOM    128  H31 UNL A   1      51.134  16.433   6.323  1.00  0.00    +0.000 H 
BRANCH   30   29
ATOM     29  C24 UNL A   1      49.542  16.743   5.017  1.00  0.00    +0.000 C 
ATOM    126  H29 UNL A   1      48.606  17.256   5.102  1.00  0.00    +0.000 H 
ATOM    127  H30 UNL A   1      50.102  17.110   4.182  1.00  0.00    +0.000 H 
BRANCH   29   28
ATOM    124  H27 UNL A   1      49.921  14.916   4.019  1.00  0.00    +0.000 H 
ATOM     28  C23 UNL A   1      49.277  15.260   4.801  1.00  0.00    +0.000 C 
ATOM    125  H28 UNL A   1      49.463  14.778   5.739  1.00  0.00    +0.000 H 
BRANCH   28   27
ATOM    122  H25 UNL A   1      47.621  15.388   3.480  1.00  0.00    +0.000 H 
ATOM     27  C22 UNL A   1      47.836  14.918   4.417  1.00  0.00    +0.000 C 
ATOM    123  H26 UNL A   1      47.782  13.850   4.378  1.00  0.00    +0.000 H 
BRANCH   27   26
ATOM    121  H24 UNL A   1      47.008  16.379   5.678  1.00  0.00    +0.000 H 
ATOM     26  C21 UNL A   1      46.774  15.365   5.429  1.00  0.00    +0.000 C 
ATOM    120  H23 UNL A   1      46.813  14.699   6.266  1.00  0.00    +0.000 H 
BRANCH   26   25
ATOM     25  C20 UNL A   1      45.336  15.378   4.900  1.00  0.00    +0.000 C 
ATOM    118  H21 UNL A   1      45.364  15.602   3.854  1.00  0.00    +0.000 H 
ATOM    119  H22 UNL A   1      44.922  14.414   5.103  1.00  0.00    +0.000 H 
BRANCH   25   24
ATOM    116  H19 UNL A   1      44.780  16.552   6.586  1.00  0.00    +0.000 H 
ATOM    117  H20 UNL A   1      44.475  17.313   5.028  1.00  0.00    +0.000 H 
ATOM     24  C19 UNL A   1      44.436  16.400   5.585  1.00  0.00    +0.000 C 
BRANCH   24   23
ATOM    115  H18 UNL A   1      42.919  14.993   5.414  1.00  0.00    +0.000 H 
ATOM     23  N1  UNL A   1      43.062  15.945   5.623  1.00  0.00    +0.000 N 
BRANCH   23   21
ATOM     21  C18 UNL A   1      41.945  16.663   5.910  1.00  0.00    +0.000 C 
ATOM     22  O4  UNL A   1      41.146  16.277   6.755  1.00  0.00    +0.000 O 
BRANCH   21   20
ATOM    114  H17 UNL A   1      42.100  18.794   5.474  1.00  0.00    +0.000 H 
ATOM     20  C17 UNL A   1      41.679  17.907   5.160  1.00  0.00    +0.000 C 
BRANCH   20   19
ATOM    113  H16 UNL A   1      40.158  17.166   4.002  1.00  0.00    +0.000 H 
ATOM     19  C16 UNL A   1      40.892  17.888   4.074  1.00  0.00    +0.000 C 
BRANCH   19   18
ATOM      9  C8  UNL A   1      39.932  19.709   2.674  1.00  0.00    +0.000 C 
ATOM     10  C9  UNL A   1      40.006  20.600   1.591  1.00  0.00    +0.000 C 
ATOM     11  C10 UNL A   1      41.144  20.666   0.794  1.00  0.00    +0.000 C 
ATOM    105  H8  UNL A   1      39.204  21.214   1.382  1.00  0.00    +0.000 H 
ATOM    109  H12 UNL A   1      43.090  19.932   0.539  1.00  0.00    +0.000 H 
ATOM     14  C12 UNL A   1      42.232  19.861   1.109  1.00  0.00    +0.000 C 
ATOM     15  C13 UNL A   1      42.198  18.951   2.182  1.00  0.00    +0.000 C 
ATOM     18  C15 UNL A   1      41.037  18.863   2.982  1.00  0.00    +0.000 C 
BRANCH    9    8
ATOM    104  H7  UNL A   1      38.633  19.868   4.406  1.00  0.00    +0.000 H 
ATOM      8  C7  UNL A   1      38.637  19.685   3.390  1.00  0.00    +0.000 C 
BRANCH    8    7
ATOM    103  H6  UNL A   1      37.033  18.517   2.958  1.00  0.00    +0.000 H 
ATOM      7  C6  UNL A   1      37.468  19.436   2.778  1.00  0.00    +0.000 C 
BRANCH    7    6
ATOM     97  C71 UNL A   1      36.146  20.937  -0.430  1.00  0.00    +0.000 C 
ATOM      3  C2  UNL A   1      35.429  22.046   0.013  1.00  0.00    +0.000 C 
ATOM      4  C3  UNL A   1      35.360  22.298   1.384  1.00  0.00    +0.000 C 
ATOM    101  H4  UNL A   1      34.828  23.114   1.725  1.00  0.00    +0.000 H 
ATOM      5  C4  UNL A   1      36.004  21.459   2.305  1.00  0.00    +0.000 C 
ATOM    102  H5  UNL A   1      35.931  21.659   3.314  1.00  0.00    +0.000 H 
ATOM      6  C5  UNL A   1      36.746  20.353   1.870  1.00  0.00    +0.000 C 
ATOM    143  H46 UNL A   1      37.326  19.286   0.145  1.00  0.00    +0.000 H 
ATOM    144  H47 UNL A   1      36.197  20.729  -1.440  1.00  0.00    +0.000 H 
ATOM     96  C70 UNL A   1      36.797  20.102   0.490  1.00  0.00    +0.000 C 
BRANCH    3    2
ATOM      2  O1  UNL A   1      34.793  22.963  -0.778  1.00  0.00    +0.000 O 
BRANCH    2    1
ATOM      1  C1  UNL A   1      35.601  23.672  -1.710  1.00  0.00    +0.000 C 
ATOM     98  H1  UNL A   1      36.393  23.039  -2.050  1.00  0.00    +0.000 H 
ATOM     99  H2  UNL A   1      36.015  24.538  -1.236  1.00  0.00    +0.000 H 
ATOM    100  H3  UNL A   1      35.002  23.973  -2.544  1.00  0.00    +0.000 H 
ENDBRANCH    2    1
ENDBRANCH    3    2
ENDBRANCH    7    6
ENDBRANCH    8    7
ENDBRANCH    9    8
BRANCH   11   12
ATOM     12  O2  UNL A   1      41.080  21.537  -0.258  1.00  0.00    +0.000 O 
BRANCH   12   13
ATOM    106  H9  UNL A   1      39.587  21.560  -1.660  1.00  0.00    +0.000 H 
ATOM    107  H10 UNL A   1      39.706  22.997  -0.671  1.00  0.00    +0.000 H 
ATOM    108  H11 UNL A   1      39.050  21.525   0.003  1.00  0.00    +0.000 H 
ATOM     13  C11 UNL A   1      39.774  21.930  -0.672  1.00  0.00    +0.000 C 
ENDBRANCH   12   13
ENDBRANCH   11   12
BRANCH   15   16
ATOM     16  O3  UNL A   1      43.366  18.237   2.213  1.00  0.00    +0.000 O 
BRANCH   16   17
ATOM     17  C14 UNL A   1      44.591  18.788   2.658  1.00  0.00    +0.000 C 
ATOM    110  H13 UNL A   1      45.250  18.913   1.824  1.00  0.00    +0.000 H 
ATOM    111  H14 UNL A   1      45.039  18.131   3.374  1.00  0.00    +0.000 H 
ATOM    112  H15 UNL A   1      44.409  19.740   3.113  1.00  0.00    +0.000 H 
ENDBRANCH   16   17
ENDBRANCH   15   16
ENDBRANCH   19   18
ENDBRANCH   20   19
ENDBRANCH   21   20
ENDBRANCH   23   21
ENDBRANCH   24   23
ENDBRANCH   25   24
ENDBRANCH   26   25
ENDBRANCH   27   26
ENDBRANCH   28   27
ENDBRANCH   29   28
ENDBRANCH   30   29
ENDBRANCH   31   30
ENDBRANCH   33   31
ENDBRANCH   37   36
BRANCH   41   42
ATOM     42  C34 UNL A   1      59.270  15.911  11.692  1.00  0.00    +0.000 C 
ATOM     43  C35 UNL A   1      59.277  14.581  12.140  1.00  0.00    +0.000 C 
ATOM     44  F1  UNL A   1      58.580  14.233  13.231  1.00  0.00    +0.000 F 
ATOM     45  C36 UNL A   1      60.021  13.607  11.479  1.00  0.00    +0.000 C 
ATOM     46  F2  UNL A   1      60.040  12.350  11.945  1.00  0.00    +0.000 F 
ATOM     47  C37 UNL A   1      60.745  13.934  10.343  1.00  0.00    +0.000 C 
ATOM     48  F3  UNL A   1      61.447  12.991   9.698  1.00  0.00    +0.000 F 
ATOM     49  C38 UNL A   1      60.744  15.240   9.876  1.00  0.00    +0.000 C 
ATOM     50  F4  UNL A   1      61.432  15.555   8.770  1.00  0.00    +0.000 F 
ATOM     51  C39 UNL A   1      60.024  16.221  10.550  1.00  0.00    +0.000 C 
ATOM     52  F5  UNL A   1      60.048  17.477  10.077  1.00  0.00    +0.000 F 
ENDBRANCH   41   42
BRANCH   58   59
ATOM     65  F8  UNL A   1      62.336  21.147  20.477  1.00  0.00    +0.000 F 
ATOM     66  C49 UNL A   1      60.593  19.787  19.646  1.00  0.00    +0.000 C 
ATOM     67  F9  UNL A   1      60.603  19.062  20.773  1.00  0.00    +0.000 F 
ATOM     68  C50 UNL A   1      59.707  19.466  18.621  1.00  0.00    +0.000 C 
ATOM     69  F10 UNL A   1      58.885  18.419  18.785  1.00  0.00    +0.000 F 
ATOM     59  C45 UNL A   1      59.661  20.226  17.442  1.00  0.00    +0.000 C 
ATOM     60  C46 UNL A   1      60.537  21.315  17.326  1.00  0.00    +0.000 C 
ATOM     61  F6  UNL A   1      60.542  22.062  16.213  1.00  0.00    +0.000 F 
ATOM     62  C47 UNL A   1      61.445  21.612  18.339  1.00  0.00    +0.000 C 
ATOM     63  F7  UNL A   1      62.308  22.626  18.185  1.00  0.00    +0.000 F 
ATOM     64  C48 UNL A   1      61.467  20.854  19.500  1.00  0.00    +0.000 C 
ENDBRANCH   58   59
BRANCH   73   74
ATOM     74  C54 UNL A   1      53.180  22.437  16.161  1.00  0.00    +0.000 C 
ATOM     75  C55 UNL A   1      53.058  23.782  15.786  1.00  0.00    +0.000 C 
ATOM     76  F11 UNL A   1      53.785  24.263  14.766  1.00  0.00    +0.000 F 
ATOM     77  C56 UNL A   1      52.228  24.654  16.488  1.00  0.00    +0.000 C 
ATOM     78  F12 UNL A   1      52.173  25.948  16.144  1.00  0.00    +0.000 F 
ATOM     79  C57 UNL A   1      51.474  24.188  17.555  1.00  0.00    +0.000 C 
ATOM     80  F13 UNL A   1      50.677  25.025  18.231  1.00  0.00    +0.000 F 
ATOM     81  C58 UNL A   1      51.557  22.855  17.927  1.00  0.00    +0.000 C 
ATOM     82  F14 UNL A   1      50.819  22.397  18.947  1.00  0.00    +0.000 F 
ATOM     83  C59 UNL A   1      52.413  21.990  17.245  1.00  0.00    +0.000 C 
ATOM     84  F15 UNL A   1      52.486  20.712  17.640  1.00  0.00    +0.000 F 
ENDBRANCH   73   74
TORSDOF 26
ENDMDL
