MODEL 1
REMARK VINA RESULT:      -9.0      0.000      0.000
ROOT
ATOM     28  C20 UNL A   1      13.157  49.437   3.488  1.00  0.00    +0.000 C 
ATOM     29  C21 UNL A   1      13.221  50.833   4.050  1.00  0.00    +0.000 C 
ATOM     30  N4  UNL A   1      13.908  51.864   3.626  1.00  0.00    +0.000 N 
ATOM     31  C22 UNL A   1      13.600  52.908   4.487  1.00  0.00    +0.000 C 
ATOM     32  C23 UNL A   1      14.082  54.173   4.488  1.00  0.00    +0.000 C 
ATOM     44  C30 UNL A   1      15.054  54.677   3.553  1.00  0.00    +0.000 C 
ATOM     45  C31 UNL A   1      15.616  55.941   3.491  1.00  0.00    +0.000 C 
ATOM     46  C32 UNL A   1      16.492  55.977   2.401  1.00  0.00    +0.000 C 
ATOM     47  C33 UNL A   1      16.503  54.726   1.807  1.00  0.00    +0.000 C 
ATOM     48  N5  UNL A   1      15.614  53.939   2.521  1.00  0.00    +0.000 N 
ATOM     49  C34 UNL A   1      17.262  54.281   0.668  1.00  0.00    +0.000 C 
ATOM     61  C41 UNL A   1      17.249  53.022   0.169  1.00  0.00    +0.000 C 
ATOM     62  N6  UNL A   1      16.526  51.921   0.606  1.00  0.00    +0.000 N 
ATOM     63  C42 UNL A   1      16.828  50.945  -0.213  1.00  0.00    +0.000 C 
ATOM     64  C43 UNL A   1      16.339  49.525  -0.214  1.00  0.00    +0.000 C 
ATOM     76  C50 UNL A   1      15.409  49.146   0.683  1.00  0.00    +0.000 C 
ATOM     77  C51 UNL A   1      14.840  47.805   0.792  1.00  0.00    +0.000 C 
ATOM     78  C52 UNL A   1      13.933  47.793   1.781  1.00  0.00    +0.000 C 
ATOM     79  C53 UNL A   1      13.896  49.114   2.409  1.00  0.00    +0.000 C 
ATOM     80  N7  UNL A   1      14.778  49.862   1.670  1.00  0.00    +0.000 N 
ATOM     81  C54 UNL A   1      17.780  51.318  -1.270  1.00  0.00    +0.000 C 
ATOM     82  C55 UNL A   1      18.025  52.587  -0.974  1.00  0.00    +0.000 C 
ATOM     83  C56 UNL A   1      12.645  52.398   5.446  1.00  0.00    +0.000 C 
ATOM     84  C57 UNL A   1      12.408  51.108   5.246  1.00  0.00    +0.000 C 
ATOM    109  H23 UNL A   1      15.422  56.722   4.137  1.00  0.00    +0.000 H 
ATOM    110  H24 UNL A   1      17.037  56.797   2.091  1.00  0.00    +0.000 H 
ATOM    111  H25 UNL A   1      15.410  52.996   2.326  1.00  0.00    +0.000 H 
ATOM    112  H26 UNL A   1      15.094  46.997   0.204  1.00  0.00    +0.000 H 
ATOM    113  H27 UNL A   1      13.355  46.983   2.055  1.00  0.00    +0.000 H 
ATOM    114  H28 UNL A   1      14.942  50.819   1.831  1.00  0.00    +0.000 H 
ATOM    115  H29 UNL A   1      18.158  50.743  -2.039  1.00  0.00    +0.000 H 
ATOM    116  H30 UNL A   1      18.684  53.188  -1.493  1.00  0.00    +0.000 H 
ATOM    117  H31 UNL A   1      12.205  52.963   6.188  1.00  0.00    +0.000 H 
ATOM    118  H32 UNL A   1      11.810  50.465   5.788  1.00  0.00    +0.000 H 
ENDROOT
BRANCH   28   27
ATOM     27  C19 UNL A   1      12.342  48.389   4.156  1.00  0.00    +0.000 C 
ATOM    107  H21 UNL A   1      12.600  46.054   6.560  1.00  0.00    +0.000 H 
ATOM    108  H22 UNL A   1      13.912  47.739   5.416  1.00  0.00    +0.000 H 
ATOM     85  C58 UNL A   1      10.997  48.178   3.813  1.00  0.00    +0.000 C 
ATOM     86  C59 UNL A   1      10.214  47.288   4.553  1.00  0.00    +0.000 C 
ATOM    120  H34 UNL A   1       9.217  47.159   4.320  1.00  0.00    +0.000 H 
ATOM     24  C16 UNL A   1      10.786  46.574   5.611  1.00  0.00    +0.000 C 
ATOM     25  C17 UNL A   1      12.155  46.673   5.865  1.00  0.00    +0.000 C 
ATOM     26  C18 UNL A   1      12.916  47.612   5.175  1.00  0.00    +0.000 C 
ATOM    119  H33 UNL A   1      10.586  48.682   3.012  1.00  0.00    +0.000 H 
BRANCH   24   22
ATOM     22  C15 UNL A   1       9.912  45.753   6.478  1.00  0.00    +0.000 C 
ATOM     23  O3  UNL A   1       8.829  45.357   6.055  1.00  0.00    +0.000 O 
BRANCH   22   21
ATOM    106  H20 UNL A   1      10.849  44.671   7.886  1.00  0.00    +0.000 H 
ATOM     21  N3  UNL A   1      10.299  45.478   7.770  1.00  0.00    +0.000 N 
BRANCH   21   20
ATOM    105  H19 UNL A   1       9.860  45.501   9.767  1.00  0.00    +0.000 H 
ATOM     20  C14 UNL A   1      10.008  46.219   8.988  1.00  0.00    +0.000 C 
ATOM    104  H18 UNL A   1       9.138  46.819   8.820  1.00  0.00    +0.000 H 
BRANCH   20   19
ATOM     19  C13 UNL A   1      11.148  47.132   9.427  1.00  0.00    +0.000 C 
ATOM    102  H16 UNL A   1      11.391  47.774   8.607  1.00  0.00    +0.000 H 
ATOM    103  H17 UNL A   1      10.792  47.652  10.291  1.00  0.00    +0.000 H 
BRANCH   19   18
ATOM     18  C12 UNL A   1      12.429  46.420   9.863  1.00  0.00    +0.000 C 
ATOM    100  H14 UNL A   1      12.498  46.488  10.928  1.00  0.00    +0.000 H 
ATOM    101  H15 UNL A   1      12.345  45.416   9.499  1.00  0.00    +0.000 H 
BRANCH   18   17
ATOM     17  C11 UNL A   1      13.727  46.972   9.269  1.00  0.00    +0.000 C 
ATOM     98  H12 UNL A   1      14.341  46.142   8.990  1.00  0.00    +0.000 H 
ATOM     99  H13 UNL A   1      13.431  47.590   8.447  1.00  0.00    +0.000 H 
BRANCH   17   16
ATOM     97  H11 UNL A   1      15.480  48.054   9.689  1.00  0.00    +0.000 H 
ATOM     96  H10 UNL A   1      14.667  47.377  11.133  1.00  0.00    +0.000 H 
ATOM     16  C10 UNL A   1      14.553  47.878  10.194  1.00  0.00    +0.000 C 
BRANCH   16   15
ATOM     95  H9  UNL A   1      13.667  49.305  11.494  1.00  0.00    +0.000 H 
ATOM     94  H8  UNL A   1      13.095  49.390   9.832  1.00  0.00    +0.000 H 
ATOM     15  C9  UNL A   1      13.947  49.255  10.463  1.00  0.00    +0.000 C 
BRANCH   15   14
ATOM     93  H7  UNL A   1      15.564  50.530  10.893  1.00  0.00    +0.000 H 
ATOM     14  N2  UNL A   1      14.903  50.310  10.198  1.00  0.00    +0.000 N 
BRANCH   14    2
ATOM      1  O1  UNL A   1      13.934  51.488   8.477  1.00  0.00    +0.000 O 
ATOM      2  C1  UNL A   1      14.931  51.018   9.016  1.00  0.00    +0.000 C 
BRANCH    2    3
ATOM      3  C2  UNL A   1      16.319  51.148   8.399  1.00  0.00    +0.000 C 
ATOM     87  H1  UNL A   1      17.048  50.805   9.103  1.00  0.00    +0.000 H 
ATOM     88  H2  UNL A   1      16.488  52.176   8.154  1.00  0.00    +0.000 H 
BRANCH    3    4
ATOM      4  C3  UNL A   1      16.429  50.331   7.139  1.00  0.00    +0.000 C 
ATOM      5  C4  UNL A   1      16.071  48.927   7.190  1.00  0.00    +0.000 C 
ATOM      6  C5  UNL A   1      16.193  48.150   6.106  1.00  0.00    +0.000 C 
ATOM      7  C6  UNL A   1      16.684  48.718   4.820  1.00  0.00    +0.000 C 
ATOM      8  O2  UNL A   1      16.810  47.966   3.860  1.00  0.00    +0.000 O 
ATOM      9  N1  UNL A   1      16.955  50.078   4.831  1.00  0.00    +0.000 N 
ATOM     13  C8  UNL A   1      16.836  50.855   5.971  1.00  0.00    +0.000 C 
ATOM     89  H3  UNL A   1      15.718  48.522   8.070  1.00  0.00    +0.000 H 
ATOM     90  H4  UNL A   1      15.945  47.151   6.162  1.00  0.00    +0.000 H 
ATOM     92  H6  UNL A   1      17.067  51.860   5.922  1.00  0.00    +0.000 H 
BRANCH    9   10
ATOM     10  C7  UNL A   1      17.428  50.656   3.600  1.00  0.00    +0.000 C 
ATOM     11  F1  UNL A   1      17.611  51.993   3.733  1.00  0.00    +0.000 F 
ATOM     12  F2  UNL A   1      18.608  50.107   3.223  1.00  0.00    +0.000 F 
ATOM     91  H5  UNL A   1      16.683  50.459   2.857  1.00  0.00    +0.000 H 
ENDBRANCH    9   10
ENDBRANCH    3    4
ENDBRANCH    2    3
ENDBRANCH   14    2
ENDBRANCH   15   14
ENDBRANCH   16   15
ENDBRANCH   17   16
ENDBRANCH   18   17
ENDBRANCH   19   18
ENDBRANCH   20   19
ENDBRANCH   21   20
ENDBRANCH   22   21
ENDBRANCH   24   22
ENDBRANCH   28   27
BRANCH   32   33
ATOM     33  C24 UNL A   1      13.569  55.117   5.534  1.00  0.00    +0.000 C 
ATOM     34  C25 UNL A   1      12.554  56.043   5.250  1.00  0.00    +0.000 C 
ATOM     35  F3  UNL A   1      12.073  56.154   4.003  1.00  0.00    +0.000 F 
ATOM     36  C26 UNL A   1      12.044  56.873   6.245  1.00  0.00    +0.000 C 
ATOM     37  F4  UNL A   1      11.092  57.768   5.946  1.00  0.00    +0.000 F 
ATOM     38  C27 UNL A   1      12.521  56.777   7.544  1.00  0.00    +0.000 C 
ATOM     39  F5  UNL A   1      12.019  57.568   8.503  1.00  0.00    +0.000 F 
ATOM     40  C28 UNL A   1      13.520  55.865   7.849  1.00  0.00    +0.000 C 
ATOM     41  F6  UNL A   1      13.974  55.764   9.105  1.00  0.00    +0.000 F 
ATOM     42  C29 UNL A   1      14.048  55.049   6.851  1.00  0.00    +0.000 C 
ATOM     43  F7  UNL A   1      15.013  54.176   7.175  1.00  0.00    +0.000 F 
ENDBRANCH   32   33
BRANCH   49   50
ATOM     50  C35 UNL A   1      18.143  55.283  -0.015  1.00  0.00    +0.000 C 
ATOM     51  C36 UNL A   1      19.380  55.654   0.532  1.00  0.00    +0.000 C 
ATOM     52  F8  UNL A   1      19.765  55.168   1.722  1.00  0.00    +0.000 F 
ATOM     53  C37 UNL A   1      20.215  56.547  -0.133  1.00  0.00    +0.000 C 
ATOM     54  F9  UNL A   1      21.380  56.912   0.420  1.00  0.00    +0.000 F 
ATOM     55  C38 UNL A   1      19.841  57.065  -1.364  1.00  0.00    +0.000 C 
ATOM     56  F10 UNL A   1      20.651  57.917  -2.008  1.00  0.00    +0.000 F 
ATOM     57  C39 UNL A   1      18.625  56.705  -1.926  1.00  0.00    +0.000 C 
ATOM     58  F11 UNL A   1      18.268  57.198  -3.120  1.00  0.00    +0.000 F 
ATOM     59  C40 UNL A   1      17.778  55.829  -1.253  1.00  0.00    +0.000 C 
ATOM     60  F12 UNL A   1      16.607  55.499  -1.819  1.00  0.00    +0.000 F 
ENDBRANCH   49   50
BRANCH   64   65
ATOM     65  C44 UNL A   1      16.868  48.534  -1.183  1.00  0.00    +0.000 C 
ATOM     66  C45 UNL A   1      18.046  47.826  -0.913  1.00  0.00    +0.000 C 
ATOM     67  F13 UNL A   1      18.738  48.078   0.207  1.00  0.00    +0.000 F 
ATOM     68  C46 UNL A   1      18.531  46.874  -1.807  1.00  0.00    +0.000 C 
ATOM     69  F14 UNL A   1      19.674  46.227  -1.540  1.00  0.00    +0.000 F 
ATOM     70  C47 UNL A   1      17.835  46.596  -2.974  1.00  0.00    +0.000 C 
ATOM     71  F15 UNL A   1      18.293  45.668  -3.825  1.00  0.00    +0.000 F 
ATOM     72  C48 UNL A   1      16.663  47.282  -3.259  1.00  0.00    +0.000 C 
ATOM     73  F16 UNL A   1      15.980  47.008  -4.379  1.00  0.00    +0.000 F 
ATOM     74  C49 UNL A   1      16.191  48.252  -2.379  1.00  0.00    +0.000 C 
ATOM     75  F17 UNL A   1      15.058  48.904  -2.678  1.00  0.00    +0.000 F 
ENDBRANCH   64   65
TORSDOF 17
ENDMDL
MODEL 2
REMARK VINA RESULT:      -9.0     38.150     43.565
ROOT
ATOM     28  C20 UNL A   1      38.058  30.054  30.000  1.00  0.00    +0.000 C 
ATOM     29  C21 UNL A   1      39.096  29.148  29.391  1.00  0.00    +0.000 C 
ATOM     30  N4  UNL A   1      40.192  28.670  29.928  1.00  0.00    +0.000 N 
ATOM     31  C22 UNL A   1      40.781  27.880  28.949  1.00  0.00    +0.000 C 
ATOM     32  C23 UNL A   1      41.949  27.196  29.006  1.00  0.00    +0.000 C 
ATOM     44  C30 UNL A   1      42.829  27.176  30.145  1.00  0.00    +0.000 C 
ATOM     45  C31 UNL A   1      44.044  26.526  30.284  1.00  0.00    +0.000 C 
ATOM     46  C32 UNL A   1      44.527  26.773  31.573  1.00  0.00    +0.000 C 
ATOM     47  C33 UNL A   1      43.631  27.604  32.224  1.00  0.00    +0.000 C 
ATOM     48  N5  UNL A   1      42.593  27.841  31.337  1.00  0.00    +0.000 N 
ATOM     49  C34 UNL A   1      43.711  28.141  33.557  1.00  0.00    +0.000 C 
ATOM     61  C41 UNL A   1      42.809  28.986  34.111  1.00  0.00    +0.000 C 
ATOM     62  N6  UNL A   1      41.645  29.500  33.557  1.00  0.00    +0.000 N 
ATOM     63  C42 UNL A   1      41.102  30.243  34.488  1.00  0.00    +0.000 C 
ATOM     64  C43 UNL A   1      39.831  31.042  34.440  1.00  0.00    +0.000 C 
ATOM     76  C50 UNL A   1      39.054  30.982  33.342  1.00  0.00    +0.000 C 
ATOM     77  C51 UNL A   1      37.794  31.697  33.161  1.00  0.00    +0.000 C 
ATOM     78  C52 UNL A   1      37.285  31.391  31.957  1.00  0.00    +0.000 C 
ATOM     79  C53 UNL A   1      38.212  30.497  31.262  1.00  0.00    +0.000 C 
ATOM     80  N7  UNL A   1      39.216  30.280  32.173  1.00  0.00    +0.000 N 
ATOM     81  C54 UNL A   1      41.862  30.284  35.746  1.00  0.00    +0.000 C 
ATOM     82  C55 UNL A   1      42.907  29.522  35.452  1.00  0.00    +0.000 C 
ATOM     83  C56 UNL A   1      39.913  27.920  27.793  1.00  0.00    +0.000 C 
ATOM     84  C57 UNL A   1      38.879  28.725  27.999  1.00  0.00    +0.000 C 
ATOM    109  H23 UNL A   1      44.512  25.958  29.561  1.00  0.00    +0.000 H 
ATOM    110  H24 UNL A   1      45.401  26.397  31.972  1.00  0.00    +0.000 H 
ATOM    111  H25 UNL A   1      41.804  28.399  31.526  1.00  0.00    +0.000 H 
ATOM    112  H26 UNL A   1      37.363  32.336  33.847  1.00  0.00    +0.000 H 
ATOM    113  H27 UNL A   1      36.386  31.730  31.583  1.00  0.00    +0.000 H 
ATOM    114  H28 UNL A   1      39.978  29.680  32.004  1.00  0.00    +0.000 H 
ATOM    115  H29 UNL A   1      41.640  30.776  36.626  1.00  0.00    +0.000 H 
ATOM    116  H30 UNL A   1      43.690  29.335  36.098  1.00  0.00    +0.000 H 
ATOM    117  H31 UNL A   1      40.077  27.392  26.922  1.00  0.00    +0.000 H 
ATOM    118  H32 UNL A   1      38.119  28.985  27.351  1.00  0.00    +0.000 H 
ENDROOT
BRANCH   28   27
ATOM     27  C19 UNL A   1      36.900  30.525  29.195  1.00  0.00    +0.000 C 
ATOM    107  H21 UNL A   1      33.999  29.392  27.932  1.00  0.00    +0.000 H 
ATOM    108  H22 UNL A   1      35.924  28.648  29.200  1.00  0.00    +0.000 H 
ATOM     85  C58 UNL A   1      36.811  31.853  28.750  1.00  0.00    +0.000 C 
ATOM     86  C59 UNL A   1      35.647  32.306  28.121  1.00  0.00    +0.000 C 
ATOM    120  H34 UNL A   1      35.571  33.291  27.823  1.00  0.00    +0.000 H 
ATOM     24  C16 UNL A   1      34.588  31.420  27.898  1.00  0.00    +0.000 C 
ATOM     25  C17 UNL A   1      34.728  30.067  28.211  1.00  0.00    +0.000 C 
ATOM     26  C18 UNL A   1      35.856  29.633  28.901  1.00  0.00    +0.000 C 
ATOM    119  H33 UNL A   1      37.606  32.495  28.886  1.00  0.00    +0.000 H 
BRANCH   24   22
ATOM     22  C15 UNL A   1      33.311  31.948  27.370  1.00  0.00    +0.000 C 
ATOM     23  O3  UNL A   1      33.104  33.159  27.368  1.00  0.00    +0.000 O 
BRANCH   22   21
ATOM    106  H20 UNL A   1      31.534  31.020  27.489  1.00  0.00    +0.000 H 
ATOM     21  N3  UNL A   1      32.343  31.074  26.931  1.00  0.00    +0.000 N 
BRANCH   21   20
ATOM    105  H19 UNL A   1      33.364  30.150  25.419  1.00  0.00    +0.000 H 
ATOM     20  C14 UNL A   1      32.350  30.218  25.754  1.00  0.00    +0.000 C 
ATOM    104  H18 UNL A   1      31.710  30.652  25.015  1.00  0.00    +0.000 H 
BRANCH   20   19
ATOM     19  C13 UNL A   1      31.872  28.798  26.036  1.00  0.00    +0.000 C 
ATOM    102  H16 UNL A   1      31.142  28.845  26.816  1.00  0.00    +0.000 H 
ATOM    103  H17 UNL A   1      31.489  28.427  25.109  1.00  0.00    +0.000 H 
BRANCH   19   18
ATOM     18  C12 UNL A   1      32.959  27.813  26.468  1.00  0.00    +0.000 C 
ATOM    100  H14 UNL A   1      33.632  28.330  27.118  1.00  0.00    +0.000 H 
ATOM    101  H15 UNL A   1      32.446  26.998  26.937  1.00  0.00    +0.000 H 
BRANCH   18   17
ATOM     17  C11 UNL A   1      33.779  27.194  25.333  1.00  0.00    +0.000 C 
ATOM     98  H12 UNL A   1      33.361  27.526  24.406  1.00  0.00    +0.000 H 
ATOM     99  H13 UNL A   1      34.787  27.512  25.495  1.00  0.00    +0.000 H 
BRANCH   17   16
ATOM     97  H11 UNL A   1      34.800  25.385  25.653  1.00  0.00    +0.000 H 
ATOM     96  H10 UNL A   1      33.629  25.340  24.301  1.00  0.00    +0.000 H 
ATOM     16  C10 UNL A   1      33.827  25.659  25.303  1.00  0.00    +0.000 C 
BRANCH   16   15
ATOM     95  H9  UNL A   1      32.501  25.665  26.963  1.00  0.00    +0.000 H 
ATOM     94  H8  UNL A   1      33.311  24.126  26.691  1.00  0.00    +0.000 H 
ATOM     15  C9  UNL A   1      32.830  24.961  26.228  1.00  0.00    +0.000 C 
BRANCH   15   14
ATOM     93  H7  UNL A   1      31.675  23.569  25.153  1.00  0.00    +0.000 H 
ATOM     14  N2  UNL A   1      31.673  24.493  25.494  1.00  0.00    +0.000 N 
BRANCH   14    2
ATOM      1  O1  UNL A   1      29.957  25.887  26.128  1.00  0.00    +0.000 O 
ATOM      2  C1  UNL A   1      30.568  25.280  25.253  1.00  0.00    +0.000 C 
BRANCH    2    3
ATOM      3  C2  UNL A   1      30.131  25.312  23.793  1.00  0.00    +0.000 C 
ATOM     87  H1  UNL A   1      29.203  24.788  23.694  1.00  0.00    +0.000 H 
ATOM     88  H2  UNL A   1      30.891  24.846  23.201  1.00  0.00    +0.000 H 
BRANCH    3    4
ATOM      4  C3  UNL A   1      29.951  26.728  23.314  1.00  0.00    +0.000 C 
ATOM      5  C4  UNL A   1      31.100  27.429  22.776  1.00  0.00    +0.000 C 
ATOM      6  C5  UNL A   1      30.999  28.704  22.378  1.00  0.00    +0.000 C 
ATOM      7  C6  UNL A   1      29.697  29.422  22.464  1.00  0.00    +0.000 C 
ATOM      8  O2  UNL A   1      29.655  30.597  22.118  1.00  0.00    +0.000 O 
ATOM      9  N1  UNL A   1      28.631  28.672  22.937  1.00  0.00    +0.000 N 
ATOM     13  C8  UNL A   1      28.767  27.361  23.358  1.00  0.00    +0.000 C 
ATOM     89  H3  UNL A   1      32.005  26.942  22.698  1.00  0.00    +0.000 H 
ATOM     90  H4  UNL A   1      31.829  29.192  22.008  1.00  0.00    +0.000 H 
ATOM     92  H6  UNL A   1      27.939  26.858  23.716  1.00  0.00    +0.000 H 
BRANCH    9   10
ATOM     10  C7  UNL A   1      27.358  29.340  23.028  1.00  0.00    +0.000 C 
ATOM     11  F1  UNL A   1      26.386  28.476  23.411  1.00  0.00    +0.000 F 
ATOM     12  F2  UNL A   1      27.399  30.351  23.929  1.00  0.00    +0.000 F 
ATOM     91  H5  UNL A   1      27.140  29.731  22.056  1.00  0.00    +0.000 H 
ENDBRANCH    9   10
ENDBRANCH    3    4
ENDBRANCH    2    3
ENDBRANCH   14    2
ENDBRANCH   15   14
ENDBRANCH   16   15
ENDBRANCH   17   16
ENDBRANCH   18   17
ENDBRANCH   19   18
ENDBRANCH   20   19
ENDBRANCH   21   20
ENDBRANCH   22   21
ENDBRANCH   24   22
ENDBRANCH   28   27
BRANCH   32   33
ATOM     33  C24 UNL A   1      42.354  26.403  27.799  1.00  0.00    +0.000 C 
ATOM     34  C25 UNL A   1      43.234  26.927  26.841  1.00  0.00    +0.000 C 
ATOM     35  F3  UNL A   1      43.674  28.189  26.948  1.00  0.00    +0.000 F 
ATOM     36  C26 UNL A   1      43.650  26.159  25.756  1.00  0.00    +0.000 C 
ATOM     37  F4  UNL A   1      44.471  26.688  24.838  1.00  0.00    +0.000 F 
ATOM     38  C27 UNL A   1      43.214  24.849  25.622  1.00  0.00    +0.000 C 
ATOM     39  F5  UNL A   1      43.627  24.107  24.584  1.00  0.00    +0.000 F 
ATOM     40  C28 UNL A   1      42.348  24.309  26.561  1.00  0.00    +0.000 C 
ATOM     41  F6  UNL A   1      41.935  23.040  26.438  1.00  0.00    +0.000 F 
ATOM     42  C29 UNL A   1      41.913  25.081  27.635  1.00  0.00    +0.000 C 
ATOM     43  F7  UNL A   1      41.075  24.533  28.527  1.00  0.00    +0.000 F 
ENDBRANCH   32   33
BRANCH   49   50
ATOM     50  C35 UNL A   1      44.886  27.741  34.397  1.00  0.00    +0.000 C 
ATOM     51  C36 UNL A   1      44.852  26.584  35.189  1.00  0.00    +0.000 C 
ATOM     52  F8  UNL A   1      43.731  25.850  35.265  1.00  0.00    +0.000 F 
ATOM     53  C37 UNL A   1      45.965  26.191  35.927  1.00  0.00    +0.000 C 
ATOM     54  F9  UNL A   1      45.903  25.098  36.701  1.00  0.00    +0.000 F 
ATOM     55  C38 UNL A   1      47.137  26.931  35.867  1.00  0.00    +0.000 C 
ATOM     56  F10 UNL A   1      48.211  26.545  36.569  1.00  0.00    +0.000 F 
ATOM     57  C39 UNL A   1      47.194  28.074  35.084  1.00  0.00    +0.000 C 
ATOM     58  F11 UNL A   1      48.328  28.784  35.018  1.00  0.00    +0.000 F 
ATOM     59  C40 UNL A   1      46.076  28.482  34.361  1.00  0.00    +0.000 C 
ATOM     60  F12 UNL A   1      46.158  29.593  33.613  1.00  0.00    +0.000 F 
ENDBRANCH   49   50
BRANCH   64   65
ATOM     65  C44 UNL A   1      39.421  31.898  35.580  1.00  0.00    +0.000 C 
ATOM     66  C45 UNL A   1      39.905  33.206  35.704  1.00  0.00    +0.000 C 
ATOM     67  F13 UNL A   1      40.790  33.681  34.815  1.00  0.00    +0.000 F 
ATOM     68  C46 UNL A   1      39.501  34.024  36.758  1.00  0.00    +0.000 C 
ATOM     69  F14 UNL A   1      39.996  35.264  36.870  1.00  0.00    +0.000 F 
ATOM     70  C47 UNL A   1      38.588  33.556  37.692  1.00  0.00    +0.000 C 
ATOM     71  F15 UNL A   1      38.188  34.348  38.695  1.00  0.00    +0.000 F 
ATOM     72  C48 UNL A   1      38.093  32.264  37.585  1.00  0.00    +0.000 C 
ATOM     73  F16 UNL A   1      37.202  31.812  38.478  1.00  0.00    +0.000 F 
ATOM     74  C49 UNL A   1      38.516  31.438  36.548  1.00  0.00    +0.000 C 
ATOM     75  F17 UNL A   1      38.025  30.193  36.469  1.00  0.00    +0.000 F 
ENDBRANCH   64   65
TORSDOF 17
ENDMDL
MODEL 3
REMARK VINA RESULT:      -8.9     37.941     43.377
ROOT
ATOM     28  C20 UNL A   1      37.910  30.160  30.000  1.00  0.00    +0.000 C 
ATOM     29  C21 UNL A   1      38.975  29.281  29.398  1.00  0.00    +0.000 C 
ATOM     30  N4  UNL A   1      40.072  28.818  29.946  1.00  0.00    +0.000 N 
ATOM     31  C22 UNL A   1      40.691  28.050  28.968  1.00  0.00    +0.000 C 
ATOM     32  C23 UNL A   1      41.870  27.388  29.035  1.00  0.00    +0.000 C 
ATOM     44  C30 UNL A   1      42.734  27.374  30.187  1.00  0.00    +0.000 C 
ATOM     45  C31 UNL A   1      43.959  26.746  30.338  1.00  0.00    +0.000 C 
ATOM     46  C32 UNL A   1      44.418  26.989  31.636  1.00  0.00    +0.000 C 
ATOM     47  C33 UNL A   1      43.497  27.797  32.282  1.00  0.00    +0.000 C 
ATOM     48  N5  UNL A   1      42.467  28.023  31.382  1.00  0.00    +0.000 N 
ATOM     49  C34 UNL A   1      43.547  28.321  33.622  1.00  0.00    +0.000 C 
ATOM     61  C41 UNL A   1      42.621  29.143  34.170  1.00  0.00    +0.000 C 
ATOM     62  N6  UNL A   1      41.455  29.640  33.604  1.00  0.00    +0.000 N 
ATOM     63  C42 UNL A   1      40.884  30.363  34.534  1.00  0.00    +0.000 C 
ATOM     64  C43 UNL A   1      39.598  31.137  34.475  1.00  0.00    +0.000 C 
ATOM     76  C50 UNL A   1      38.839  31.074  33.365  1.00  0.00    +0.000 C 
ATOM     77  C51 UNL A   1      37.568  31.766  33.172  1.00  0.00    +0.000 C 
ATOM     78  C52 UNL A   1      37.083  31.462  31.958  1.00  0.00    +0.000 C 
ATOM     79  C53 UNL A   1      38.037  30.593  31.268  1.00  0.00    +0.000 C 
ATOM     80  N7  UNL A   1      39.032  30.387  32.192  1.00  0.00    +0.000 N 
ATOM     81  C54 UNL A   1      41.624  30.406  35.804  1.00  0.00    +0.000 C 
ATOM     82  C55 UNL A   1      42.689  29.668  35.518  1.00  0.00    +0.000 C 
ATOM     83  C56 UNL A   1      39.839  28.085  27.800  1.00  0.00    +0.000 C 
ATOM     84  C57 UNL A   1      38.786  28.867  27.998  1.00  0.00    +0.000 C 
ATOM    109  H23 UNL A   1      44.449  26.195  29.616  1.00  0.00    +0.000 H 
ATOM    110  H24 UNL A   1      45.294  26.627  32.045  1.00  0.00    +0.000 H 
ATOM    111  H25 UNL A   1      41.665  28.563  31.565  1.00  0.00    +0.000 H 
ATOM    112  H26 UNL A   1      37.115  32.389  33.858  1.00  0.00    +0.000 H 
ATOM    113  H27 UNL A   1      36.183  31.788  31.574  1.00  0.00    +0.000 H 
ATOM    114  H28 UNL A   1      39.807  29.803  32.029  1.00  0.00    +0.000 H 
ATOM    115  H29 UNL A   1      41.380  30.884  36.685  1.00  0.00    +0.000 H 
ATOM    116  H30 UNL A   1      43.466  29.489  36.173  1.00  0.00    +0.000 H 
ATOM    117  H31 UNL A   1      40.026  27.569  26.927  1.00  0.00    +0.000 H 
ATOM    118  H32 UNL A   1      38.031  29.119  27.342  1.00  0.00    +0.000 H 
ENDROOT
BRANCH   28   27
ATOM     27  C19 UNL A   1      36.756  30.616  29.183  1.00  0.00    +0.000 C 
ATOM    107  H21 UNL A   1      33.861  29.460  27.925  1.00  0.00    +0.000 H 
ATOM    108  H22 UNL A   1      35.781  28.739  29.213  1.00  0.00    +0.000 H 
ATOM     85  C58 UNL A   1      36.666  31.937  28.715  1.00  0.00    +0.000 C 
ATOM     86  C59 UNL A   1      35.505  32.379  28.074  1.00  0.00    +0.000 C 
ATOM    120  H34 UNL A   1      35.428  33.359  27.760  1.00  0.00    +0.000 H 
ATOM     24  C16 UNL A   1      34.448  31.488  27.861  1.00  0.00    +0.000 C 
ATOM     25  C17 UNL A   1      34.588  30.141  28.196  1.00  0.00    +0.000 C 
ATOM     26  C18 UNL A   1      35.713  29.719  28.898  1.00  0.00    +0.000 C 
ATOM    119  H33 UNL A   1      37.460  32.583  28.845  1.00  0.00    +0.000 H 
BRANCH   24   22
ATOM     22  C15 UNL A   1      33.172  32.006  27.320  1.00  0.00    +0.000 C 
ATOM     23  O3  UNL A   1      32.981  33.217  27.258  1.00  0.00    +0.000 O 
BRANCH   22   21
ATOM    106  H20 UNL A   1      31.333  31.206  27.413  1.00  0.00    +0.000 H 
ATOM     21  N3  UNL A   1      32.188  31.124  26.934  1.00  0.00    +0.000 N 
BRANCH   21   20
ATOM    105  H19 UNL A   1      33.224  30.102  25.497  1.00  0.00    +0.000 H 
ATOM     20  C14 UNL A   1      32.240  30.087  25.915  1.00  0.00    +0.000 C 
ATOM    104  H18 UNL A   1      31.486  30.292  25.183  1.00  0.00    +0.000 H 
BRANCH   20   19
ATOM     19  C13 UNL A   1      32.007  28.684  26.467  1.00  0.00    +0.000 C 
ATOM    102  H16 UNL A   1      32.093  28.732  27.533  1.00  0.00    +0.000 H 
ATOM    103  H17 UNL A   1      31.038  28.390  26.126  1.00  0.00    +0.000 H 
BRANCH   19   18
ATOM     18  C12 UNL A   1      32.974  27.612  25.965  1.00  0.00    +0.000 C 
ATOM    100  H14 UNL A   1      33.123  27.767  24.918  1.00  0.00    +0.000 H 
ATOM    101  H15 UNL A   1      33.865  27.723  26.550  1.00  0.00    +0.000 H 
BRANCH   18   17
ATOM     17  C11 UNL A   1      32.519  26.164  26.168  1.00  0.00    +0.000 C 
ATOM     98  H12 UNL A   1      32.902  25.827  27.109  1.00  0.00    +0.000 H 
ATOM     99  H13 UNL A   1      31.450  26.185  26.116  1.00  0.00    +0.000 H 
BRANCH   17   16
ATOM     97  H11 UNL A   1      32.074  24.773  24.656  1.00  0.00    +0.000 H 
ATOM     96  H10 UNL A   1      33.575  24.420  25.564  1.00  0.00    +0.000 H 
ATOM     16  C10 UNL A   1      32.969  25.165  25.093  1.00  0.00    +0.000 C 
BRANCH   16   15
ATOM     95  H9  UNL A   1      34.780  25.414  24.010  1.00  0.00    +0.000 H 
ATOM     94  H8  UNL A   1      33.741  26.836  24.017  1.00  0.00    +0.000 H 
ATOM     15  C9  UNL A   1      33.773  25.769  23.942  1.00  0.00    +0.000 C 
BRANCH   15   14
ATOM     93  H7  UNL A   1      33.413  24.456  22.338  1.00  0.00    +0.000 H 
ATOM     14  N2  UNL A   1      33.234  25.370  22.658  1.00  0.00    +0.000 N 
BRANCH   14    2
ATOM      1  O1  UNL A   1      32.027  25.890  20.772  1.00  0.00    +0.000 O 
ATOM      2  C1  UNL A   1      32.482  26.209  21.866  1.00  0.00    +0.000 C 
BRANCH    2    3
ATOM      3  C2  UNL A   1      32.284  27.605  22.447  1.00  0.00    +0.000 C 
ATOM     87  H1  UNL A   1      32.660  28.329  21.754  1.00  0.00    +0.000 H 
ATOM     88  H2  UNL A   1      32.813  27.665  23.376  1.00  0.00    +0.000 H 
BRANCH    3    4
ATOM      4  C3  UNL A   1      30.827  27.880  22.707  1.00  0.00    +0.000 C 
ATOM      5  C4  UNL A   1      30.059  26.903  23.452  1.00  0.00    +0.000 C 
ATOM      6  C5  UNL A   1      28.750  27.084  23.670  1.00  0.00    +0.000 C 
ATOM      7  C6  UNL A   1      28.060  28.303  23.165  1.00  0.00    +0.000 C 
ATOM      8  O2  UNL A   1      26.855  28.415  23.360  1.00  0.00    +0.000 O 
ATOM      9  N1  UNL A   1      28.869  29.219  22.509  1.00  0.00    +0.000 N 
ATOM     13  C8  UNL A   1      30.216  28.999  22.282  1.00  0.00    +0.000 C 
ATOM     89  H3  UNL A   1      30.525  26.060  23.819  1.00  0.00    +0.000 H 
ATOM     90  H4  UNL A   1      28.216  26.373  24.193  1.00  0.00    +0.000 H 
ATOM     92  H6  UNL A   1      30.764  29.711  21.774  1.00  0.00    +0.000 H 
BRANCH    9   10
ATOM     10  C7  UNL A   1      28.230  30.410  22.012  1.00  0.00    +0.000 C 
ATOM     11  F1  UNL A   1      29.030  31.492  22.176  1.00  0.00    +0.000 F 
ATOM     12  F2  UNL A   1      27.942  30.297  20.693  1.00  0.00    +0.000 F 
ATOM     91  H5  UNL A   1      27.324  30.534  22.570  1.00  0.00    +0.000 H 
ENDBRANCH    9   10
ENDBRANCH    3    4
ENDBRANCH    2    3
ENDBRANCH   14    2
ENDBRANCH   15   14
ENDBRANCH   16   15
ENDBRANCH   17   16
ENDBRANCH   18   17
ENDBRANCH   19   18
ENDBRANCH   20   19
ENDBRANCH   21   20
ENDBRANCH   22   21
ENDBRANCH   24   22
ENDBRANCH   28   27
BRANCH   32   33
ATOM     33  C24 UNL A   1      42.308  26.615  27.827  1.00  0.00    +0.000 C 
ATOM     34  C25 UNL A   1      43.181  27.171  26.880  1.00  0.00    +0.000 C 
ATOM     35  F3  UNL A   1      43.583  28.445  26.999  1.00  0.00    +0.000 F 
ATOM     36  C26 UNL A   1      43.628  26.423  25.794  1.00  0.00    +0.000 C 
ATOM     37  F4  UNL A   1      44.442  26.981  24.887  1.00  0.00    +0.000 F 
ATOM     38  C27 UNL A   1      43.231  25.102  25.647  1.00  0.00    +0.000 C 
ATOM     39  F5  UNL A   1      43.674  24.379  24.609  1.00  0.00    +0.000 F 
ATOM     40  C28 UNL A   1      42.374  24.530  26.575  1.00  0.00    +0.000 C 
ATOM     41  F6  UNL A   1      41.998  23.251  26.441  1.00  0.00    +0.000 F 
ATOM     42  C29 UNL A   1      41.907  25.283  27.650  1.00  0.00    +0.000 C 
ATOM     43  F7  UNL A   1      41.078  24.704  28.532  1.00  0.00    +0.000 F 
ENDBRANCH   32   33
BRANCH   49   50
ATOM     50  C35 UNL A   1      44.717  27.935  34.475  1.00  0.00    +0.000 C 
ATOM     51  C36 UNL A   1      45.865  28.739  34.539  1.00  0.00    +0.000 C 
ATOM     52  F8  UNL A   1      45.963  29.837  33.775  1.00  0.00    +0.000 F 
ATOM     53  C37 UNL A   1      46.927  28.400  35.372  1.00  0.00    +0.000 C 
ATOM     54  F9  UNL A   1      48.027  29.165  35.398  1.00  0.00    +0.000 F 
ATOM     55  C38 UNL A   1      46.851  27.269  36.173  1.00  0.00    +0.000 C 
ATOM     56  F10 UNL A   1      47.870  26.951  36.983  1.00  0.00    +0.000 F 
ATOM     57  C39 UNL A   1      45.722  26.466  36.130  1.00  0.00    +0.000 C 
ATOM     58  F11 UNL A   1      45.644  25.379  36.910  1.00  0.00    +0.000 F 
ATOM     59  C40 UNL A   1      44.667  26.790  35.282  1.00  0.00    +0.000 C 
ATOM     60  F12 UNL A   1      43.587  25.993  35.259  1.00  0.00    +0.000 F 
ENDBRANCH   49   50
BRANCH   64   65
ATOM     65  C44 UNL A   1      39.155  31.974  35.618  1.00  0.00    +0.000 C 
ATOM     66  C45 UNL A   1      38.307  31.452  36.602  1.00  0.00    +0.000 C 
ATOM     67  F13 UNL A   1      37.843  30.199  36.491  1.00  0.00    +0.000 F 
ATOM     68  C46 UNL A   1      37.913  32.225  37.692  1.00  0.00    +0.000 C 
ATOM     69  F14 UNL A   1      37.080  31.712  38.609  1.00  0.00    +0.000 F 
ATOM     70  C47 UNL A   1      38.377  33.524  37.829  1.00  0.00    +0.000 C 
ATOM     71  F15 UNL A   1      38.011  34.261  38.886  1.00  0.00    +0.000 F 
ATOM     72  C48 UNL A   1      39.222  34.060  36.868  1.00  0.00    +0.000 C 
ATOM     73  F16 UNL A   1      39.684  35.311  37.002  1.00  0.00    +0.000 F 
ATOM     74  C49 UNL A   1      39.597  33.297  35.765  1.00  0.00    +0.000 C 
ATOM     75  F17 UNL A   1      40.411  33.839  34.848  1.00  0.00    +0.000 F 
ENDBRANCH   64   65
TORSDOF 17
ENDMDL
MODEL 4
REMARK VINA RESULT:      -8.8     21.734     27.564
ROOT
ATOM     28  C20 UNL A   1      19.763  23.881  -2.261  1.00  0.00    +0.000 C 
ATOM     29  C21 UNL A   1      20.367  25.186  -1.813  1.00  0.00    +0.000 C 
ATOM     30  N4  UNL A   1      19.779  26.337  -1.596  1.00  0.00    +0.000 N 
ATOM     31  C22 UNL A   1      20.782  27.205  -1.185  1.00  0.00    +0.000 C 
ATOM     32  C23 UNL A   1      20.687  28.519  -0.874  1.00  0.00    +0.000 C 
ATOM     44  C30 UNL A   1      19.469  29.285  -0.928  1.00  0.00    +0.000 C 
ATOM     45  C31 UNL A   1      19.282  30.629  -0.650  1.00  0.00    +0.000 C 
ATOM     46  C32 UNL A   1      17.925  30.925  -0.813  1.00  0.00    +0.000 C 
ATOM     47  C33 UNL A   1      17.274  29.775  -1.228  1.00  0.00    +0.000 C 
ATOM     48  N5  UNL A   1      18.232  28.776  -1.291  1.00  0.00    +0.000 N 
ATOM     49  C34 UNL A   1      15.879  29.597  -1.538  1.00  0.00    +0.000 C 
ATOM     61  C41 UNL A   1      15.322  28.444  -1.980  1.00  0.00    +0.000 C 
ATOM     62  N6  UNL A   1      15.930  27.218  -2.212  1.00  0.00    +0.000 N 
ATOM     63  C42 UNL A   1      14.974  26.412  -2.600  1.00  0.00    +0.000 C 
ATOM     64  C43 UNL A   1      15.058  24.962  -2.987  1.00  0.00    +0.000 C 
ATOM     76  C50 UNL A   1      16.235  24.317  -2.883  1.00  0.00    +0.000 C 
ATOM     77  C51 UNL A   1      16.459  22.913  -3.215  1.00  0.00    +0.000 C 
ATOM     78  C52 UNL A   1      17.743  22.605  -2.974  1.00  0.00    +0.000 C 
ATOM     79  C53 UNL A   1      18.443  23.806  -2.518  1.00  0.00    +0.000 C 
ATOM     80  N7  UNL A   1      17.462  24.765  -2.460  1.00  0.00    +0.000 N 
ATOM     81  C54 UNL A   1      13.644  27.036  -2.656  1.00  0.00    +0.000 C 
ATOM     82  C55 UNL A   1      13.918  28.282  -2.294  1.00  0.00    +0.000 C 
ATOM     83  C56 UNL A   1      22.013  26.446  -1.157  1.00  0.00    +0.000 C 
ATOM     84  C57 UNL A   1      21.819  25.203  -1.577  1.00  0.00    +0.000 C 
ATOM    109  H23 UNL A   1      20.018  31.296  -0.370  1.00  0.00    +0.000 H 
ATOM    110  H24 UNL A   1      17.484  31.843  -0.651  1.00  0.00    +0.000 H 
ATOM    111  H25 UNL A   1      18.060  27.843  -1.553  1.00  0.00    +0.000 H 
ATOM    112  H26 UNL A   1      15.746  22.262  -3.578  1.00  0.00    +0.000 H 
ATOM    113  H27 UNL A   1      18.168  21.672  -3.091  1.00  0.00    +0.000 H 
ATOM    114  H28 UNL A   1      17.623  25.684  -2.146  1.00  0.00    +0.000 H 
ATOM    115  H29 UNL A   1      12.737  26.615  -2.911  1.00  0.00    +0.000 H 
ATOM    116  H30 UNL A   1      13.219  29.039  -2.243  1.00  0.00    +0.000 H 
ATOM    117  H31 UNL A   1      22.923  26.823  -0.850  1.00  0.00    +0.000 H 
ATOM    118  H32 UNL A   1      22.508  24.445  -1.704  1.00  0.00    +0.000 H 
ENDROOT
BRANCH   28   27
ATOM     27  C19 UNL A   1      20.622  22.691  -2.496  1.00  0.00    +0.000 C 
ATOM    107  H21 UNL A   1      21.984  20.945  -5.025  1.00  0.00    +0.000 H 
ATOM    108  H22 UNL A   1      20.547  22.849  -4.605  1.00  0.00    +0.000 H 
ATOM     85  C58 UNL A   1      21.144  21.943  -1.429  1.00  0.00    +0.000 C 
ATOM     86  C59 UNL A   1      22.064  20.919  -1.672  1.00  0.00    +0.000 C 
ATOM    120  H34 UNL A   1      22.471  20.392  -0.884  1.00  0.00    +0.000 H 
ATOM     24  C16 UNL A   1      22.430  20.612  -2.987  1.00  0.00    +0.000 C 
ATOM     25  C17 UNL A   1      21.808  21.257  -4.057  1.00  0.00    +0.000 C 
ATOM     26  C18 UNL A   1      20.948  22.324  -3.812  1.00  0.00    +0.000 C 
ATOM    119  H33 UNL A   1      20.848  22.151  -0.463  1.00  0.00    +0.000 H 
BRANCH   24   22
ATOM     22  C15 UNL A   1      23.514  19.633  -3.219  1.00  0.00    +0.000 C 
ATOM     23  O3  UNL A   1      23.430  18.504  -2.743  1.00  0.00    +0.000 O 
BRANCH   22   21
ATOM    106  H20 UNL A   1      24.526  20.037  -4.906  1.00  0.00    +0.000 H 
ATOM     21  N3  UNL A   1      24.632  20.009  -3.928  1.00  0.00    +0.000 N 
BRANCH   21   20
ATOM    105  H19 UNL A   1      26.634  19.626  -3.771  1.00  0.00    +0.000 H 
ATOM     20  C14 UNL A   1      25.950  20.373  -3.430  1.00  0.00    +0.000 C 
ATOM    104  H18 UNL A   1      25.907  20.425  -2.362  1.00  0.00    +0.000 H 
BRANCH   20   19
ATOM     19  C13 UNL A   1      26.447  21.714  -3.960  1.00  0.00    +0.000 C 
ATOM    102  H16 UNL A   1      26.298  21.726  -5.019  1.00  0.00    +0.000 H 
ATOM    103  H17 UNL A   1      25.888  22.462  -3.438  1.00  0.00    +0.000 H 
BRANCH   19   18
ATOM     18  C12 UNL A   1      27.919  22.023  -3.688  1.00  0.00    +0.000 C 
ATOM    100  H14 UNL A   1      28.037  22.162  -2.634  1.00  0.00    +0.000 H 
ATOM    101  H15 UNL A   1      28.470  21.193  -4.079  1.00  0.00    +0.000 H 
BRANCH   18   17
ATOM     17  C11 UNL A   1      28.475  23.263  -4.393  1.00  0.00    +0.000 C 
ATOM     98  H12 UNL A   1      27.665  23.747  -4.896  1.00  0.00    +0.000 H 
ATOM     99  H13 UNL A   1      28.927  23.857  -3.625  1.00  0.00    +0.000 H 
BRANCH   17   16
ATOM     97  H11 UNL A   1      29.977  22.036  -5.203  1.00  0.00    +0.000 H 
ATOM     96  H10 UNL A   1      30.306  23.789  -5.339  1.00  0.00    +0.000 H 
ATOM     16  C10 UNL A   1      29.583  23.005  -5.424  1.00  0.00    +0.000 C 
BRANCH   16   15
ATOM     95  H9  UNL A   1      28.212  22.379  -6.921  1.00  0.00    +0.000 H 
ATOM     94  H8  UNL A   1      29.879  22.498  -7.474  1.00  0.00    +0.000 H 
ATOM     15  C9  UNL A   1      29.115  22.951  -6.878  1.00  0.00    +0.000 C 
BRANCH   15   14
ATOM     93  H7  UNL A   1      29.547  24.960  -7.331  1.00  0.00    +0.000 H 
ATOM     14  N2  UNL A   1      28.840  24.277  -7.392  1.00  0.00    +0.000 N 
BRANCH   14    2
ATOM      1  O1  UNL A   1      27.017  23.912  -8.744  1.00  0.00    +0.000 O 
ATOM      2  C1  UNL A   1      27.636  24.627  -7.962  1.00  0.00    +0.000 C 
BRANCH    2    3
ATOM      3  C2  UNL A   1      27.137  26.012  -7.566  1.00  0.00    +0.000 C 
ATOM     87  H1  UNL A   1      27.002  26.601  -8.450  1.00  0.00    +0.000 H 
ATOM     88  H2  UNL A   1      27.862  26.463  -6.921  1.00  0.00    +0.000 H 
BRANCH    3    4
ATOM      4  C3  UNL A   1      25.828  25.924  -6.828  1.00  0.00    +0.000 C 
ATOM      5  C4  UNL A   1      25.694  24.945  -5.768  1.00  0.00    +0.000 C 
ATOM      6  C5  UNL A   1      24.535  24.800  -5.112  1.00  0.00    +0.000 C 
ATOM      7  C6  UNL A   1      23.364  25.656  -5.448  1.00  0.00    +0.000 C 
ATOM      8  O2  UNL A   1      22.313  25.470  -4.845  1.00  0.00    +0.000 O 
ATOM      9  N1  UNL A   1      23.582  26.607  -6.434  1.00  0.00    +0.000 N 
ATOM     13  C8  UNL A   1      24.785  26.724  -7.108  1.00  0.00    +0.000 C 
ATOM     89  H3  UNL A   1      26.500  24.353  -5.515  1.00  0.00    +0.000 H 
ATOM     90  H4  UNL A   1      24.454  24.090  -4.369  1.00  0.00    +0.000 H 
ATOM     92  H6  UNL A   1      24.883  27.441  -7.844  1.00  0.00    +0.000 H 
BRANCH    9   10
ATOM     10  C7  UNL A   1      22.468  27.452  -6.778  1.00  0.00    +0.000 C 
ATOM     11  F1  UNL A   1      22.397  28.520  -5.947  1.00  0.00    +0.000 F 
ATOM     12  F2  UNL A   1      22.578  27.914  -8.047  1.00  0.00    +0.000 F 
ATOM     91  H5  UNL A   1      21.584  26.855  -6.686  1.00  0.00    +0.000 H 
ENDBRANCH    9   10
ENDBRANCH    3    4
ENDBRANCH    2    3
ENDBRANCH   14    2
ENDBRANCH   15   14
ENDBRANCH   16   15
ENDBRANCH   17   16
ENDBRANCH   18   17
ENDBRANCH   19   18
ENDBRANCH   20   19
ENDBRANCH   21   20
ENDBRANCH   22   21
ENDBRANCH   24   22
ENDBRANCH   28   27
BRANCH   32   33
ATOM     33  C24 UNL A   1      21.936  29.229  -0.443  1.00  0.00    +0.000 C 
ATOM     34  C25 UNL A   1      22.246  29.407   0.913  1.00  0.00    +0.000 C 
ATOM     35  F3  UNL A   1      21.383  29.008   1.860  1.00  0.00    +0.000 F 
ATOM     36  C26 UNL A   1      23.438  30.014   1.301  1.00  0.00    +0.000 C 
ATOM     37  F4  UNL A   1      23.702  30.196   2.602  1.00  0.00    +0.000 F 
ATOM     38  C27 UNL A   1      24.350  30.432   0.344  1.00  0.00    +0.000 C 
ATOM     39  F5  UNL A   1      25.503  31.003   0.720  1.00  0.00    +0.000 F 
ATOM     40  C28 UNL A   1      24.067  30.261  -1.003  1.00  0.00    +0.000 C 
ATOM     41  F6  UNL A   1      24.952  30.654  -1.928  1.00  0.00    +0.000 F 
ATOM     42  C29 UNL A   1      22.866  29.674  -1.394  1.00  0.00    +0.000 C 
ATOM     43  F7  UNL A   1      22.619  29.521  -2.704  1.00  0.00    +0.000 F 
ENDBRANCH   32   33
BRANCH   49   50
ATOM     50  C35 UNL A   1      14.974  30.779  -1.369  1.00  0.00    +0.000 C 
ATOM     51  C36 UNL A   1      14.343  31.373  -2.472  1.00  0.00    +0.000 C 
ATOM     52  F8  UNL A   1      14.599  30.935  -3.714  1.00  0.00    +0.000 F 
ATOM     53  C37 UNL A   1      13.463  32.438  -2.302  1.00  0.00    +0.000 C 
ATOM     54  F9  UNL A   1      12.893  33.012  -3.370  1.00  0.00    +0.000 F 
ATOM     55  C38 UNL A   1      13.181  32.912  -1.028  1.00  0.00    +0.000 C 
ATOM     56  F10 UNL A   1      12.325  33.930  -0.866  1.00  0.00    +0.000 F 
ATOM     57  C39 UNL A   1      13.788  32.333   0.075  1.00  0.00    +0.000 C 
ATOM     58  F11 UNL A   1      13.508  32.783   1.307  1.00  0.00    +0.000 F 
ATOM     59  C40 UNL A   1      14.685  31.281  -0.093  1.00  0.00    +0.000 C 
ATOM     60  F12 UNL A   1      15.259  30.741   0.993  1.00  0.00    +0.000 F 
ENDBRANCH   49   50
BRANCH   64   65
ATOM     65  C44 UNL A   1      13.866  24.234  -3.488  1.00  0.00    +0.000 C 
ATOM     66  C45 UNL A   1      13.351  24.493  -4.764  1.00  0.00    +0.000 C 
ATOM     67  F13 UNL A   1      13.904  25.445  -5.529  1.00  0.00    +0.000 F 
ATOM     68  C46 UNL A   1      12.250  23.791  -5.249  1.00  0.00    +0.000 C 
ATOM     69  F14 UNL A   1      11.759  24.073  -6.464  1.00  0.00    +0.000 F 
ATOM     70  C47 UNL A   1      11.659  22.802  -4.476  1.00  0.00    +0.000 C 
ATOM     71  F15 UNL A   1      10.610  22.116  -4.949  1.00  0.00    +0.000 F 
ATOM     72  C48 UNL A   1      12.155  22.526  -3.211  1.00  0.00    +0.000 C 
ATOM     73  F16 UNL A   1      11.596  21.563  -2.466  1.00  0.00    +0.000 F 
ATOM     74  C49 UNL A   1      13.240  23.245  -2.715  1.00  0.00    +0.000 C 
ATOM     75  F17 UNL A   1      13.700  22.961  -1.487  1.00  0.00    +0.000 F 
ENDBRANCH   64   65
TORSDOF 17
ENDMDL
MODEL 5
REMARK VINA RESULT:      -8.8     38.423     43.198
ROOT
ATOM     28  C20 UNL A   1      41.377  26.142  27.870  1.00  0.00    +0.000 C 
ATOM     29  C21 UNL A   1      42.774  26.419  27.381  1.00  0.00    +0.000 C 
ATOM     30  N4  UNL A   1      43.514  27.486  27.555  1.00  0.00    +0.000 N 
ATOM     31  C22 UNL A   1      44.717  27.224  26.915  1.00  0.00    +0.000 C 
ATOM     32  C23 UNL A   1      45.797  28.030  26.782  1.00  0.00    +0.000 C 
ATOM     44  C30 UNL A   1      45.884  29.370  27.301  1.00  0.00    +0.000 C 
ATOM     45  C31 UNL A   1      46.933  30.269  27.196  1.00  0.00    +0.000 C 
ATOM     46  C32 UNL A   1      46.576  31.438  27.875  1.00  0.00    +0.000 C 
ATOM     47  C33 UNL A   1      45.293  31.281  28.372  1.00  0.00    +0.000 C 
ATOM     48  N5  UNL A   1      44.882  30.007  28.015  1.00  0.00    +0.000 N 
ATOM     49  C34 UNL A   1      44.500  32.220  29.121  1.00  0.00    +0.000 C 
ATOM     61  C41 UNL A   1      43.229  32.007  29.538  1.00  0.00    +0.000 C 
ATOM     62  N6  UNL A   1      42.434  30.883  29.363  1.00  0.00    +0.000 N 
ATOM     63  C42 UNL A   1      41.304  31.146  29.969  1.00  0.00    +0.000 C 
ATOM     64  C43 UNL A   1      40.078  30.287  30.098  1.00  0.00    +0.000 C 
ATOM     76  C50 UNL A   1      40.093  29.034  29.604  1.00  0.00    +0.000 C 
ATOM     77  C51 UNL A   1      38.980  28.091  29.665  1.00  0.00    +0.000 C 
ATOM     78  C52 UNL A   1      39.353  26.936  29.091  1.00  0.00    +0.000 C 
ATOM     79  C53 UNL A   1      40.715  27.078  28.576  1.00  0.00    +0.000 C 
ATOM     80  N7  UNL A   1      41.088  28.344  28.957  1.00  0.00    +0.000 N 
ATOM     81  C54 UNL A   1      41.253  32.471  30.602  1.00  0.00    +0.000 C 
ATOM     82  C55 UNL A   1      42.442  32.965  30.286  1.00  0.00    +0.000 C 
ATOM     83  C56 UNL A   1      44.623  25.888  26.368  1.00  0.00    +0.000 C 
ATOM     84  C57 UNL A   1      43.426  25.362  26.592  1.00  0.00    +0.000 C 
ATOM    109  H23 UNL A   1      47.824  30.104  26.702  1.00  0.00    +0.000 H 
ATOM    110  H24 UNL A   1      47.169  32.275  27.989  1.00  0.00    +0.000 H 
ATOM    111  H25 UNL A   1      44.007  29.612  28.236  1.00  0.00    +0.000 H 
ATOM    112  H26 UNL A   1      38.056  28.280  30.082  1.00  0.00    +0.000 H 
ATOM    113  H27 UNL A   1      38.773  26.086  29.024  1.00  0.00    +0.000 H 
ATOM    114  H28 UNL A   1      41.981  28.719  28.784  1.00  0.00    +0.000 H 
ATOM    115  H29 UNL A   1      40.491  32.904  31.149  1.00  0.00    +0.000 H 
ATOM    116  H30 UNL A   1      42.766  33.911  30.541  1.00  0.00    +0.000 H 
ATOM    117  H31 UNL A   1      45.388  25.406  25.870  1.00  0.00    +0.000 H 
ATOM    118  H32 UNL A   1      43.051  24.449  26.291  1.00  0.00    +0.000 H 
ENDROOT
BRANCH   28   27
ATOM     27  C19 UNL A   1      40.690  24.871  27.518  1.00  0.00    +0.000 C 
ATOM    107  H21 UNL A   1      38.108  23.751  25.681  1.00  0.00    +0.000 H 
ATOM    108  H22 UNL A   1      39.223  25.806  26.315  1.00  0.00    +0.000 H 
ATOM     85  C58 UNL A   1      41.145  23.635  28.004  1.00  0.00    +0.000 C 
ATOM     86  C59 UNL A   1      40.572  22.446  27.544  1.00  0.00    +0.000 C 
ATOM    120  H34 UNL A   1      40.929  21.537  27.877  1.00  0.00    +0.000 H 
ATOM     24  C16 UNL A   1      39.514  22.492  26.630  1.00  0.00    +0.000 C 
ATOM     25  C17 UNL A   1      38.966  23.720  26.254  1.00  0.00    +0.000 C 
ATOM     26  C18 UNL A   1      39.582  24.901  26.655  1.00  0.00    +0.000 C 
ATOM    119  H33 UNL A   1      41.903  23.605  28.702  1.00  0.00    +0.000 H 
BRANCH   24   22
ATOM     22  C15 UNL A   1      39.020  21.229  26.040  1.00  0.00    +0.000 C 
ATOM     23  O3  UNL A   1      39.797  20.296  25.855  1.00  0.00    +0.000 O 
BRANCH   22   21
ATOM    106  H20 UNL A   1      37.068  20.894  26.372  1.00  0.00    +0.000 H 
ATOM     21  N3  UNL A   1      37.702  21.126  25.656  1.00  0.00    +0.000 N 
BRANCH   21   20
ATOM    105  H19 UNL A   1      36.958  20.343  23.920  1.00  0.00    +0.000 H 
ATOM     20  C14 UNL A   1      37.117  21.315  24.337  1.00  0.00    +0.000 C 
ATOM    104  H18 UNL A   1      37.789  21.903  23.748  1.00  0.00    +0.000 H 
BRANCH   20   19
ATOM     19  C13 UNL A   1      35.763  22.016  24.372  1.00  0.00    +0.000 C 
ATOM    102  H16 UNL A   1      35.139  21.566  23.628  1.00  0.00    +0.000 H 
ATOM    103  H17 UNL A   1      35.397  21.901  25.370  1.00  0.00    +0.000 H 
BRANCH   19   18
ATOM     18  C12 UNL A   1      35.797  23.522  24.107  1.00  0.00    +0.000 C 
ATOM    100  H14 UNL A   1      36.807  23.854  24.223  1.00  0.00    +0.000 H 
ATOM    101  H15 UNL A   1      35.409  23.655  23.118  1.00  0.00    +0.000 H 
BRANCH   18   17
ATOM     17  C11 UNL A   1      34.912  24.373  25.022  1.00  0.00    +0.000 C 
ATOM     98  H12 UNL A   1      34.156  23.738  25.433  1.00  0.00    +0.000 H 
ATOM     99  H13 UNL A   1      35.570  24.797  25.752  1.00  0.00    +0.000 H 
BRANCH   17   16
ATOM     97  H11 UNL A   1      33.388  25.157  23.804  1.00  0.00    +0.000 H 
ATOM     96  H10 UNL A   1      34.927  26.068  23.737  1.00  0.00    +0.000 H 
ATOM     16  C10 UNL A   1      34.211  25.565  24.353  1.00  0.00    +0.000 C 
BRANCH   16   15
ATOM     95  H9  UNL A   1      34.279  27.426  25.376  1.00  0.00    +0.000 H 
ATOM     94  H8  UNL A   1      33.490  26.135  26.277  1.00  0.00    +0.000 H 
ATOM     15  C9  UNL A   1      33.613  26.590  25.317  1.00  0.00    +0.000 C 
BRANCH   15   14
ATOM     93  H7  UNL A   1      32.300  27.633  24.048  1.00  0.00    +0.000 H 
ATOM     14  N2  UNL A   1      32.327  27.062  24.849  1.00  0.00    +0.000 N 
BRANCH   14    2
ATOM      1  O1  UNL A   1      30.808  27.185  26.571  1.00  0.00    +0.000 O 
ATOM      2  C1  UNL A   1      31.140  26.748  25.473  1.00  0.00    +0.000 C 
BRANCH    2    3
ATOM      3  C2  UNL A   1      30.266  25.769  24.697  1.00  0.00    +0.000 C 
ATOM     87  H1  UNL A   1      30.230  26.071  23.671  1.00  0.00    +0.000 H 
ATOM     88  H2  UNL A   1      29.286  25.774  25.125  1.00  0.00    +0.000 H 
BRANCH    3    4
ATOM      4  C3  UNL A   1      30.817  24.371  24.779  1.00  0.00    +0.000 C 
ATOM      5  C4  UNL A   1      30.781  23.685  26.056  1.00  0.00    +0.000 C 
ATOM      6  C5  UNL A   1      31.299  22.457  26.188  1.00  0.00    +0.000 C 
ATOM      7  C6  UNL A   1      31.907  21.763  25.020  1.00  0.00    +0.000 C 
ATOM      8  O2  UNL A   1      32.397  20.652  25.191  1.00  0.00    +0.000 O 
ATOM      9  N1  UNL A   1      31.858  22.456  23.820  1.00  0.00    +0.000 N 
ATOM     13  C8  UNL A   1      31.332  23.733  23.714  1.00  0.00    +0.000 C 
ATOM     89  H3  UNL A   1      30.351  24.147  26.871  1.00  0.00    +0.000 H 
ATOM     90  H4  UNL A   1      31.275  21.988  27.106  1.00  0.00    +0.000 H 
ATOM     92  H6  UNL A   1      31.337  24.206  22.797  1.00  0.00    +0.000 H 
BRANCH    9   10
ATOM     10  C7  UNL A   1      32.436  21.809  22.671  1.00  0.00    +0.000 C 
ATOM     11  F1  UNL A   1      31.493  21.131  21.972  1.00  0.00    +0.000 F 
ATOM     12  F2  UNL A   1      33.009  22.711  21.837  1.00  0.00    +0.000 F 
ATOM     91  H5  UNL A   1      33.180  21.131  23.036  1.00  0.00    +0.000 H 
ENDBRANCH    9   10
ENDBRANCH    3    4
ENDBRANCH    2    3
ENDBRANCH   14    2
ENDBRANCH   15   14
ENDBRANCH   16   15
ENDBRANCH   17   16
ENDBRANCH   18   17
ENDBRANCH   19   18
ENDBRANCH   20   19
ENDBRANCH   21   20
ENDBRANCH   22   21
ENDBRANCH   24   22
ENDBRANCH   28   27
BRANCH   32   33
ATOM     33  C24 UNL A   1      46.987  27.490  26.045  1.00  0.00    +0.000 C 
ATOM     34  C25 UNL A   1      47.145  27.689  24.666  1.00  0.00    +0.000 C 
ATOM     35  F3  UNL A   1      46.186  28.305  23.959  1.00  0.00    +0.000 F 
ATOM     36  C26 UNL A   1      48.283  27.235  24.004  1.00  0.00    +0.000 C 
ATOM     37  F4  UNL A   1      48.402  27.413  22.680  1.00  0.00    +0.000 F 
ATOM     38  C27 UNL A   1      49.292  26.597  24.710  1.00  0.00    +0.000 C 
ATOM     39  F5  UNL A   1      50.393  26.174  24.072  1.00  0.00    +0.000 F 
ATOM     40  C28 UNL A   1      49.160  26.396  26.075  1.00  0.00    +0.000 C 
ATOM     41  F6  UNL A   1      50.138  25.790  26.760  1.00  0.00    +0.000 F 
ATOM     42  C29 UNL A   1      48.013  26.829  26.737  1.00  0.00    +0.000 C 
ATOM     43  F7  UNL A   1      47.912  26.620  28.058  1.00  0.00    +0.000 F 
ENDBRANCH   32   33
BRANCH   49   50
ATOM     50  C35 UNL A   1      45.124  33.540  29.460  1.00  0.00    +0.000 C 
ATOM     51  C36 UNL A   1      45.897  33.702  30.619  1.00  0.00    +0.000 C 
ATOM     52  F8  UNL A   1      46.031  32.688  31.488  1.00  0.00    +0.000 F 
ATOM     53  C37 UNL A   1      46.515  34.916  30.901  1.00  0.00    +0.000 C 
ATOM     54  F9  UNL A   1      47.226  35.059  32.028  1.00  0.00    +0.000 F 
ATOM     55  C38 UNL A   1      46.392  35.981  30.020  1.00  0.00    +0.000 C 
ATOM     56  F10 UNL A   1      46.997  37.147  30.288  1.00  0.00    +0.000 F 
ATOM     57  C39 UNL A   1      45.639  35.840  28.865  1.00  0.00    +0.000 C 
ATOM     58  F11 UNL A   1      45.528  36.865  28.008  1.00  0.00    +0.000 F 
ATOM     59  C40 UNL A   1      45.002  34.633  28.590  1.00  0.00    +0.000 C 
ATOM     60  F12 UNL A   1      44.277  34.525  27.466  1.00  0.00    +0.000 F 
ENDBRANCH   49   50
BRANCH   64   65
ATOM     65  C44 UNL A   1      38.850  30.799  30.756  1.00  0.00    +0.000 C 
ATOM     66  C45 UNL A   1      37.820  31.374  30.002  1.00  0.00    +0.000 C 
ATOM     67  F13 UNL A   1      37.957  31.514  28.675  1.00  0.00    +0.000 F 
ATOM     68  C46 UNL A   1      36.653  31.830  30.613  1.00  0.00    +0.000 C 
ATOM     69  F14 UNL A   1      35.691  32.399  29.874  1.00  0.00    +0.000 F 
ATOM     70  C47 UNL A   1      36.487  31.699  31.983  1.00  0.00    +0.000 C 
ATOM     71  F15 UNL A   1      35.359  32.123  32.568  1.00  0.00    +0.000 F 
ATOM     72  C48 UNL A   1      37.494  31.128  32.749  1.00  0.00    +0.000 C 
ATOM     73  F16 UNL A   1      37.333  30.987  34.071  1.00  0.00    +0.000 F 
ATOM     74  C49 UNL A   1      38.671  30.695  32.143  1.00  0.00    +0.000 C 
ATOM     75  F17 UNL A   1      39.630  30.151  32.905  1.00  0.00    +0.000 F 
ENDBRANCH   64   65
TORSDOF 17
ENDMDL
MODEL 6
REMARK VINA RESULT:      -8.7     38.097     42.884
ROOT
ATOM     28  C20 UNL A   1      41.161  25.955  27.779  1.00  0.00    +0.000 C 
ATOM     29  C21 UNL A   1      42.576  26.233  27.343  1.00  0.00    +0.000 C 
ATOM     30  N4  UNL A   1      43.313  27.295  27.557  1.00  0.00    +0.000 N 
ATOM     31  C22 UNL A   1      44.538  27.035  26.956  1.00  0.00    +0.000 C 
ATOM     32  C23 UNL A   1      45.624  27.839  26.872  1.00  0.00    +0.000 C 
ATOM     44  C30 UNL A   1      45.697  29.172  27.411  1.00  0.00    +0.000 C 
ATOM     45  C31 UNL A   1      46.752  30.068  27.355  1.00  0.00    +0.000 C 
ATOM     46  C32 UNL A   1      46.376  31.230  28.036  1.00  0.00    +0.000 C 
ATOM     47  C33 UNL A   1      45.075  31.071  28.485  1.00  0.00    +0.000 C 
ATOM     48  N5  UNL A   1      44.672  29.804  28.097  1.00  0.00    +0.000 N 
ATOM     49  C34 UNL A   1      44.260  32.004  29.218  1.00  0.00    +0.000 C 
ATOM     61  C41 UNL A   1      42.975  31.791  29.587  1.00  0.00    +0.000 C 
ATOM     62  N6  UNL A   1      42.182  30.672  29.370  1.00  0.00    +0.000 N 
ATOM     63  C42 UNL A   1      41.032  30.931  29.939  1.00  0.00    +0.000 C 
ATOM     64  C43 UNL A   1      39.799  30.076  30.013  1.00  0.00    +0.000 C 
ATOM     76  C50 UNL A   1      39.827  28.830  29.504  1.00  0.00    +0.000 C 
ATOM     77  C51 UNL A   1      38.710  27.890  29.514  1.00  0.00    +0.000 C 
ATOM     78  C52 UNL A   1      39.099  26.741  28.939  1.00  0.00    +0.000 C 
ATOM     79  C53 UNL A   1      40.479  26.885  28.474  1.00  0.00    +0.000 C 
ATOM     80  N7  UNL A   1      40.842  28.143  28.884  1.00  0.00    +0.000 N 
ATOM     81  C54 UNL A   1      40.963  32.249  30.587  1.00  0.00    +0.000 C 
ATOM     82  C55 UNL A   1      42.165  32.742  30.319  1.00  0.00    +0.000 C 
ATOM     83  C56 UNL A   1      44.458  25.707  26.390  1.00  0.00    +0.000 C 
ATOM     84  C57 UNL A   1      43.252  25.183  26.564  1.00  0.00    +0.000 C 
ATOM    109  H23 UNL A   1      47.659  29.906  26.890  1.00  0.00    +0.000 H 
ATOM    110  H24 UNL A   1      46.967  32.063  28.181  1.00  0.00    +0.000 H 
ATOM    111  H25 UNL A   1      43.789  29.409  28.282  1.00  0.00    +0.000 H 
ATOM    112  H26 UNL A   1      37.772  28.077  29.900  1.00  0.00    +0.000 H 
ATOM    113  H27 UNL A   1      38.519  25.894  28.840  1.00  0.00    +0.000 H 
ATOM    114  H28 UNL A   1      41.742  28.518  28.747  1.00  0.00    +0.000 H 
ATOM    115  H29 UNL A   1      40.184  32.677  31.112  1.00  0.00    +0.000 H 
ATOM    116  H30 UNL A   1      42.482  33.683  30.598  1.00  0.00    +0.000 H 
ATOM    117  H31 UNL A   1      45.238  25.229  25.913  1.00  0.00    +0.000 H 
ATOM    118  H32 UNL A   1      42.884  24.276  26.238  1.00  0.00    +0.000 H 
ENDROOT
BRANCH   28   27
ATOM     27  C19 UNL A   1      40.483  24.691  27.387  1.00  0.00    +0.000 C 
ATOM    107  H21 UNL A   1      37.868  23.618  25.568  1.00  0.00    +0.000 H 
ATOM    108  H22 UNL A   1      38.971  25.658  26.267  1.00  0.00    +0.000 H 
ATOM     85  C58 UNL A   1      40.968  23.441  27.803  1.00  0.00    +0.000 C 
ATOM     86  C59 UNL A   1      40.399  22.266  27.304  1.00  0.00    +0.000 C 
ATOM    120  H34 UNL A   1      40.778  21.348  27.585  1.00  0.00    +0.000 H 
ATOM     24  C16 UNL A   1      39.317  22.338  26.421  1.00  0.00    +0.000 C 
ATOM     25  C17 UNL A   1      38.742  23.573  26.116  1.00  0.00    +0.000 C 
ATOM     26  C18 UNL A   1      39.353  24.744  26.555  1.00  0.00    +0.000 C 
ATOM    119  H33 UNL A   1      41.745  23.390  28.479  1.00  0.00    +0.000 H 
BRANCH   24   22
ATOM     22  C15 UNL A   1      38.825  21.096  25.785  1.00  0.00    +0.000 C 
ATOM     23  O3  UNL A   1      39.439  20.044  25.943  1.00  0.00    +0.000 O 
BRANCH   22   21
ATOM    106  H20 UNL A   1      37.856  21.471  24.067  1.00  0.00    +0.000 H 
ATOM     21  N3  UNL A   1      37.709  21.139  24.981  1.00  0.00    +0.000 N 
BRANCH   21   20
ATOM    105  H19 UNL A   1      36.204  20.911  26.347  1.00  0.00    +0.000 H 
ATOM     20  C14 UNL A   1      36.340  20.759  25.297  1.00  0.00    +0.000 C 
ATOM    104  H18 UNL A   1      36.198  19.736  25.016  1.00  0.00    +0.000 H 
BRANCH   20   19
ATOM     19  C13 UNL A   1      35.296  21.608  24.579  1.00  0.00    +0.000 C 
ATOM    102  H16 UNL A   1      34.812  20.990  23.852  1.00  0.00    +0.000 H 
ATOM    103  H17 UNL A   1      34.640  21.973  25.340  1.00  0.00    +0.000 H 
BRANCH   19   18
ATOM     18  C12 UNL A   1      35.836  22.844  23.861  1.00  0.00    +0.000 C 
ATOM    100  H14 UNL A   1      36.903  22.774  23.842  1.00  0.00    +0.000 H 
ATOM    101  H15 UNL A   1      35.386  22.839  22.889  1.00  0.00    +0.000 H 
BRANCH   18   17
ATOM     17  C11 UNL A   1      35.463  24.190  24.489  1.00  0.00    +0.000 C 
ATOM     98  H12 UNL A   1      36.103  24.349  25.330  1.00  0.00    +0.000 H 
ATOM     99  H13 UNL A   1      35.577  24.916  23.711  1.00  0.00    +0.000 H 
BRANCH   17   16
ATOM     97  H11 UNL A   1      33.969  25.223  25.547  1.00  0.00    +0.000 H 
ATOM     96  H10 UNL A   1      33.767  23.445  25.533  1.00  0.00    +0.000 H 
ATOM     16  C10 UNL A   1      34.011  24.322  24.971  1.00  0.00    +0.000 C 
BRANCH   16   15
ATOM     95  H9  UNL A   1      32.118  24.980  24.267  1.00  0.00    +0.000 H 
ATOM     94  H8  UNL A   1      32.702  23.508  23.498  1.00  0.00    +0.000 H 
ATOM     15  C9  UNL A   1      32.971  24.477  23.862  1.00  0.00    +0.000 C 
BRANCH   15   14
ATOM     93  H7  UNL A   1      34.312  24.968  22.318  1.00  0.00    +0.000 H 
ATOM     14  N2  UNL A   1      33.488  25.267  22.765  1.00  0.00    +0.000 N 
BRANCH   14    2
ATOM      1  O1  UNL A   1      31.800  26.436  21.728  1.00  0.00    +0.000 O 
ATOM      2  C1  UNL A   1      32.877  26.418  22.315  1.00  0.00    +0.000 C 
BRANCH    2    3
ATOM      3  C2  UNL A   1      33.675  27.691  22.578  1.00  0.00    +0.000 C 
ATOM     87  H1  UNL A   1      33.588  28.339  21.731  1.00  0.00    +0.000 H 
ATOM     88  H2  UNL A   1      34.698  27.423  22.743  1.00  0.00    +0.000 H 
BRANCH    3    4
ATOM      4  C3  UNL A   1      33.164  28.406  23.800  1.00  0.00    +0.000 C 
ATOM      5  C4  UNL A   1      31.800  28.898  23.796  1.00  0.00    +0.000 C 
ATOM      6  C5  UNL A   1      31.315  29.578  24.843  1.00  0.00    +0.000 C 
ATOM      7  C6  UNL A   1      32.162  29.828  26.041  1.00  0.00    +0.000 C 
ATOM      8  O2  UNL A   1      31.690  30.481  26.964  1.00  0.00    +0.000 O 
ATOM      9  N1  UNL A   1      33.436  29.282  25.996  1.00  0.00    +0.000 N 
ATOM     13  C8  UNL A   1      33.919  28.598  24.894  1.00  0.00    +0.000 C 
ATOM     89  H3  UNL A   1      31.196  28.722  22.978  1.00  0.00    +0.000 H 
ATOM     90  H4  UNL A   1      30.346  29.931  24.818  1.00  0.00    +0.000 H 
ATOM     92  H6  UNL A   1      34.882  28.227  24.914  1.00  0.00    +0.000 H 
BRANCH    9   10
ATOM     10  C7  UNL A   1      34.279  29.505  27.143  1.00  0.00    +0.000 C 
ATOM     11  F1  UNL A   1      35.342  28.665  27.132  1.00  0.00    +0.000 F 
ATOM     12  F2  UNL A   1      34.748  30.776  27.166  1.00  0.00    +0.000 F 
ATOM     91  H5  UNL A   1      33.678  29.326  28.011  1.00  0.00    +0.000 H 
ENDBRANCH    9   10
ENDBRANCH    3    4
ENDBRANCH    2    3
ENDBRANCH   14    2
ENDBRANCH   15   14
ENDBRANCH   16   15
ENDBRANCH   17   16
ENDBRANCH   18   17
ENDBRANCH   19   18
ENDBRANCH   20   19
ENDBRANCH   21   20
ENDBRANCH   22   21
ENDBRANCH   24   22
ENDBRANCH   28   27
BRANCH   32   33
ATOM     33  C24 UNL A   1      46.837  27.304  26.170  1.00  0.00    +0.000 C 
ATOM     34  C25 UNL A   1      47.062  27.551  24.808  1.00  0.00    +0.000 C 
ATOM     35  F3  UNL A   1      46.148  28.212  24.082  1.00  0.00    +0.000 F 
ATOM     36  C26 UNL A   1      48.222  27.100  24.182  1.00  0.00    +0.000 C 
ATOM     37  F4  UNL A   1      48.405  27.325  22.873  1.00  0.00    +0.000 F 
ATOM     38  C27 UNL A   1      49.186  26.417  24.909  1.00  0.00    +0.000 C 
ATOM     39  F5  UNL A   1      50.308  25.997  24.307  1.00  0.00    +0.000 F 
ATOM     40  C28 UNL A   1      48.987  26.168  26.258  1.00  0.00    +0.000 C 
ATOM     41  F6  UNL A   1      49.922  25.518  26.965  1.00  0.00    +0.000 F 
ATOM     42  C29 UNL A   1      47.818  26.598  26.883  1.00  0.00    +0.000 C 
ATOM     43  F7  UNL A   1      47.652  26.343  28.189  1.00  0.00    +0.000 F 
ENDBRANCH   32   33
BRANCH   49   50
ATOM     50  C35 UNL A   1      44.876  33.317  29.596  1.00  0.00    +0.000 C 
ATOM     51  C36 UNL A   1      45.600  33.463  30.788  1.00  0.00    +0.000 C 
ATOM     52  F8  UNL A   1      45.693  32.440  31.651  1.00  0.00    +0.000 F 
ATOM     53  C37 UNL A   1      46.213  34.671  31.107  1.00  0.00    +0.000 C 
ATOM     54  F9  UNL A   1      46.876  34.800  32.265  1.00  0.00    +0.000 F 
ATOM     55  C38 UNL A   1      46.133  35.746  30.232  1.00  0.00    +0.000 C 
ATOM     56  F10 UNL A   1      46.732  36.905  30.537  1.00  0.00    +0.000 F 
ATOM     57  C39 UNL A   1      45.427  35.620  29.045  1.00  0.00    +0.000 C 
ATOM     58  F11 UNL A   1      45.358  36.654  28.195  1.00  0.00    +0.000 F 
ATOM     59  C40 UNL A   1      44.796  34.419  28.732  1.00  0.00    +0.000 C 
ATOM     60  F12 UNL A   1      44.118  34.326  27.578  1.00  0.00    +0.000 F 
ENDBRANCH   49   50
BRANCH   64   65
ATOM     65  C44 UNL A   1      38.551  30.585  30.634  1.00  0.00    +0.000 C 
ATOM     66  C45 UNL A   1      38.395  30.593  32.026  1.00  0.00    +0.000 C 
ATOM     67  F13 UNL A   1      39.358  30.090  32.812  1.00  0.00    +0.000 F 
ATOM     68  C46 UNL A   1      37.237  31.097  32.614  1.00  0.00    +0.000 C 
ATOM     69  F14 UNL A   1      37.100  31.073  33.948  1.00  0.00    +0.000 F 
ATOM     70  C47 UNL A   1      36.225  31.622  31.824  1.00  0.00    +0.000 C 
ATOM     71  F15 UNL A   1      35.119  32.121  32.391  1.00  0.00    +0.000 F 
ATOM     72  C48 UNL A   1      36.361  31.627  30.443  1.00  0.00    +0.000 C 
ATOM     73  F16 UNL A   1      35.392  32.144  29.676  1.00  0.00    +0.000 F 
ATOM     74  C49 UNL A   1      37.507  31.100  29.853  1.00  0.00    +0.000 C 
ATOM     75  F17 UNL A   1      37.613  31.114  28.516  1.00  0.00    +0.000 F 
ENDBRANCH   64   65
TORSDOF 17
ENDMDL
MODEL 7
REMARK VINA RESULT:      -8.7     43.686     47.548
ROOT
ATOM     28  C20 UNL A   1      21.393  38.112  49.358  1.00  0.00    +0.000 C 
ATOM     29  C21 UNL A   1      21.948  36.987  48.525  1.00  0.00    +0.000 C 
ATOM     30  N4  UNL A   1      23.110  36.897  47.926  1.00  0.00    +0.000 N 
ATOM     31  C22 UNL A   1      23.125  35.653  47.310  1.00  0.00    +0.000 C 
ATOM     32  C23 UNL A   1      24.094  35.105  46.538  1.00  0.00    +0.000 C 
ATOM     44  C30 UNL A   1      25.332  35.755  46.198  1.00  0.00    +0.000 C 
ATOM     45  C31 UNL A   1      26.364  35.282  45.404  1.00  0.00    +0.000 C 
ATOM     46  C32 UNL A   1      27.375  36.249  45.379  1.00  0.00    +0.000 C 
ATOM     47  C33 UNL A   1      26.957  37.337  46.127  1.00  0.00    +0.000 C 
ATOM     48  N5  UNL A   1      25.704  37.019  46.626  1.00  0.00    +0.000 N 
ATOM     49  C34 UNL A   1      27.650  38.575  46.374  1.00  0.00    +0.000 C 
ATOM     61  C41 UNL A   1      27.155  39.614  47.087  1.00  0.00    +0.000 C 
ATOM     62  N6  UNL A   1      25.929  39.723  47.728  1.00  0.00    +0.000 N 
ATOM     63  C42 UNL A   1      25.927  40.900  48.301  1.00  0.00    +0.000 C 
ATOM     64  C43 UNL A   1      24.854  41.548  49.129  1.00  0.00    +0.000 C 
ATOM     76  C50 UNL A   1      23.736  40.856  49.420  1.00  0.00    +0.000 C 
ATOM     77  C51 UNL A   1      22.619  41.356  50.217  1.00  0.00    +0.000 C 
ATOM     78  C52 UNL A   1      21.687  40.396  50.315  1.00  0.00    +0.000 C 
ATOM     79  C53 UNL A   1      22.120  39.230  49.544  1.00  0.00    +0.000 C 
ATOM     80  N7  UNL A   1      23.363  39.580  49.077  1.00  0.00    +0.000 N 
ATOM     81  C54 UNL A   1      27.159  41.675  48.091  1.00  0.00    +0.000 C 
ATOM     82  C55 UNL A   1      27.862  40.856  47.321  1.00  0.00    +0.000 C 
ATOM     83  C56 UNL A   1      21.870  35.009  47.626  1.00  0.00    +0.000 C 
ATOM     84  C57 UNL A   1      21.088  35.807  48.340  1.00  0.00    +0.000 C 
ATOM    109  H23 UNL A   1      26.384  34.374  44.915  1.00  0.00    +0.000 H 
ATOM    110  H24 UNL A   1      28.278  36.165  44.887  1.00  0.00    +0.000 H 
ATOM    111  H25 UNL A   1      25.159  37.604  47.201  1.00  0.00    +0.000 H 
ATOM    112  H26 UNL A   1      22.555  42.296  50.636  1.00  0.00    +0.000 H 
ATOM    113  H27 UNL A   1      20.807  40.467  50.849  1.00  0.00    +0.000 H 
ATOM    114  H28 UNL A   1      23.931  38.975  48.548  1.00  0.00    +0.000 H 
ATOM    115  H29 UNL A   1      27.409  42.611  48.448  1.00  0.00    +0.000 H 
ATOM    116  H30 UNL A   1      28.795  41.075  46.939  1.00  0.00    +0.000 H 
ATOM    117  H31 UNL A   1      21.616  34.052  47.334  1.00  0.00    +0.000 H 
ATOM    118  H32 UNL A   1      20.127  35.643  48.677  1.00  0.00    +0.000 H 
ENDROOT
BRANCH   28   27
ATOM     27  C19 UNL A   1      20.017  38.034  49.915  1.00  0.00    +0.000 C 
ATOM    107  H21 UNL A   1      18.420  37.180  52.747  1.00  0.00    +0.000 H 
ATOM    108  H22 UNL A   1      20.643  37.277  51.789  1.00  0.00    +0.000 H 
ATOM     85  C58 UNL A   1      18.899  38.423  49.161  1.00  0.00    +0.000 C 
ATOM     86  C59 UNL A   1      17.635  38.476  49.755  1.00  0.00    +0.000 C 
ATOM    120  H34 UNL A   1      16.819  38.794  49.209  1.00  0.00    +0.000 H 
ATOM     24  C16 UNL A   1      17.480  38.098  51.093  1.00  0.00    +0.000 C 
ATOM     25  C17 UNL A   1      18.561  37.576  51.804  1.00  0.00    +0.000 C 
ATOM     26  C18 UNL A   1      19.831  37.592  51.235  1.00  0.00    +0.000 C 
ATOM    119  H33 UNL A   1      19.011  38.671  48.166  1.00  0.00    +0.000 H 
BRANCH   24   22
ATOM     22  C15 UNL A   1      16.169  38.303  51.749  1.00  0.00    +0.000 C 
ATOM     23  O3  UNL A   1      16.046  39.168  52.612  1.00  0.00    +0.000 O 
BRANCH   22   21
ATOM    106  H20 UNL A   1      15.207  36.542  51.668  1.00  0.00    +0.000 H 
ATOM     21  N3  UNL A   1      15.109  37.489  51.420  1.00  0.00    +0.000 N 
BRANCH   21   20
ATOM    105  H19 UNL A   1      13.849  38.901  50.645  1.00  0.00    +0.000 H 
ATOM     20  C14 UNL A   1      13.862  37.837  50.756  1.00  0.00    +0.000 C 
ATOM    104  H18 UNL A   1      13.049  37.483  51.354  1.00  0.00    +0.000 H 
BRANCH   20   19
ATOM     19  C13 UNL A   1      13.733  37.237  49.360  1.00  0.00    +0.000 C 
ATOM    102  H16 UNL A   1      12.844  36.642  49.337  1.00  0.00    +0.000 H 
ATOM    103  H17 UNL A   1      13.715  38.065  48.683  1.00  0.00    +0.000 H 
BRANCH   19   18
ATOM     18  C12 UNL A   1      14.900  36.356  48.913  1.00  0.00    +0.000 C 
ATOM    100  H14 UNL A   1      15.804  36.796  49.277  1.00  0.00    +0.000 H 
ATOM    101  H15 UNL A   1      14.702  35.382  49.314  1.00  0.00    +0.000 H 
BRANCH   18   17
ATOM     17  C11 UNL A   1      15.044  36.165  47.401  1.00  0.00    +0.000 C 
ATOM     98  H12 UNL A   1      15.106  35.115  47.206  1.00  0.00    +0.000 H 
ATOM     99  H13 UNL A   1      14.189  36.639  46.965  1.00  0.00    +0.000 H 
BRANCH   17   16
ATOM     97  H11 UNL A   1      17.028  36.851  47.506  1.00  0.00    +0.000 H 
ATOM     96  H10 UNL A   1      15.973  37.810  46.426  1.00  0.00    +0.000 H 
ATOM     16  C10 UNL A   1      16.265  36.836  46.756  1.00  0.00    +0.000 C 
BRANCH   16   15
ATOM     95  H9  UNL A   1      17.405  36.790  44.964  1.00  0.00    +0.000 H 
ATOM     94  H8  UNL A   1      16.065  35.649  44.996  1.00  0.00    +0.000 H 
ATOM     15  C9  UNL A   1      16.859  36.090  45.561  1.00  0.00    +0.000 C 
BRANCH   15   14
ATOM     93  H7  UNL A   1      17.486  34.450  46.719  1.00  0.00    +0.000 H 
ATOM     14  N2  UNL A   1      17.769  35.049  45.991  1.00  0.00    +0.000 N 
BRANCH   14    2
ATOM      1  O1  UNL A   1      19.718  35.768  45.005  1.00  0.00    +0.000 O 
ATOM      2  C1  UNL A   1      19.011  34.858  45.427  1.00  0.00    +0.000 C 
BRANCH    2    3
ATOM      3  C2  UNL A   1      19.435  33.396  45.332  1.00  0.00    +0.000 C 
ATOM     87  H1  UNL A   1      19.285  32.927  46.282  1.00  0.00    +0.000 H 
ATOM     88  H2  UNL A   1      20.467  33.359  45.053  1.00  0.00    +0.000 H 
BRANCH    3    4
ATOM      4  C3  UNL A   1      18.630  32.667  44.290  1.00  0.00    +0.000 C 
ATOM      5  C4  UNL A   1      18.206  33.391  43.108  1.00  0.00    +0.000 C 
ATOM      6  C5  UNL A   1      17.452  32.796  42.175  1.00  0.00    +0.000 C 
ATOM      7  C6  UNL A   1      17.048  31.372  42.324  1.00  0.00    +0.000 C 
ATOM      8  O2  UNL A   1      16.331  30.874  41.462  1.00  0.00    +0.000 O 
ATOM      9  N1  UNL A   1      17.534  30.727  43.452  1.00  0.00    +0.000 N 
ATOM     13  C8  UNL A   1      18.298  31.370  44.411  1.00  0.00    +0.000 C 
ATOM     89  H3  UNL A   1      18.490  34.375  42.984  1.00  0.00    +0.000 H 
ATOM     90  H4  UNL A   1      17.150  33.330  41.346  1.00  0.00    +0.000 H 
ATOM     92  H6  UNL A   1      18.619  30.842  45.237  1.00  0.00    +0.000 H 
BRANCH    9   10
ATOM     10  C7  UNL A   1      17.161  29.346  43.622  1.00  0.00    +0.000 C 
ATOM     11  F1  UNL A   1      18.223  28.605  44.021  1.00  0.00    +0.000 F 
ATOM     12  F2  UNL A   1      16.184  29.214  44.551  1.00  0.00    +0.000 F 
ATOM     91  H5  UNL A   1      16.807  28.999  42.673  1.00  0.00    +0.000 H 
ENDBRANCH    9   10
ENDBRANCH    3    4
ENDBRANCH    2    3
ENDBRANCH   14    2
ENDBRANCH   15   14
ENDBRANCH   16   15
ENDBRANCH   17   16
ENDBRANCH   18   17
ENDBRANCH   19   18
ENDBRANCH   20   19
ENDBRANCH   21   20
ENDBRANCH   22   21
ENDBRANCH   24   22
ENDBRANCH   28   27
BRANCH   32   33
ATOM     33  C24 UNL A   1      23.861  33.724  45.999  1.00  0.00    +0.000 C 
ATOM     34  C25 UNL A   1      23.086  33.508  44.851  1.00  0.00    +0.000 C 
ATOM     35  F3  UNL A   1      22.468  34.537  44.250  1.00  0.00    +0.000 F 
ATOM     36  C26 UNL A   1      22.927  32.228  44.325  1.00  0.00    +0.000 C 
ATOM     37  F4  UNL A   1      22.161  32.041  43.242  1.00  0.00    +0.000 F 
ATOM     38  C27 UNL A   1      23.557  31.147  44.924  1.00  0.00    +0.000 C 
ATOM     39  F5  UNL A   1      23.414  29.918  44.408  1.00  0.00    +0.000 F 
ATOM     40  C28 UNL A   1      24.333  31.339  46.056  1.00  0.00    +0.000 C 
ATOM     41  F6  UNL A   1      24.951  30.297  46.629  1.00  0.00    +0.000 F 
ATOM     42  C29 UNL A   1      24.476  32.614  46.597  1.00  0.00    +0.000 C 
ATOM     43  F7  UNL A   1      25.233  32.770  47.694  1.00  0.00    +0.000 F 
ENDBRANCH   32   33
BRANCH   49   50
ATOM     50  C35 UNL A   1      29.022  38.730  45.791  1.00  0.00    +0.000 C 
ATOM     51  C36 UNL A   1      30.136  38.120  46.385  1.00  0.00    +0.000 C 
ATOM     52  F8  UNL A   1      30.002  37.441  47.535  1.00  0.00    +0.000 F 
ATOM     53  C37 UNL A   1      31.399  38.226  45.810  1.00  0.00    +0.000 C 
ATOM     54  F9  UNL A   1      32.457  37.660  46.409  1.00  0.00    +0.000 F 
ATOM     55  C38 UNL A   1      31.567  38.922  44.622  1.00  0.00    +0.000 C 
ATOM     56  F10 UNL A   1      32.782  39.015  44.064  1.00  0.00    +0.000 F 
ATOM     57  C39 UNL A   1      30.477  39.527  44.015  1.00  0.00    +0.000 C 
ATOM     58  F11 UNL A   1      30.636  40.191  42.861  1.00  0.00    +0.000 F 
ATOM     59  C40 UNL A   1      29.216  39.440  44.598  1.00  0.00    +0.000 C 
ATOM     60  F12 UNL A   1      28.179  40.037  43.990  1.00  0.00    +0.000 F 
ENDBRANCH   49   50
BRANCH   64   65
ATOM     65  C44 UNL A   1      25.005  42.937  49.627  1.00  0.00    +0.000 C 
ATOM     66  C45 UNL A   1      25.556  43.191  50.889  1.00  0.00    +0.000 C 
ATOM     67  F13 UNL A   1      25.906  42.170  51.685  1.00  0.00    +0.000 F 
ATOM     68  C46 UNL A   1      25.727  44.496  51.347  1.00  0.00    +0.000 C 
ATOM     69  F14 UNL A   1      26.234  44.713  52.569  1.00  0.00    +0.000 F 
ATOM     70  C47 UNL A   1      25.372  45.569  50.544  1.00  0.00    +0.000 C 
ATOM     71  F15 UNL A   1      25.551  46.823  50.979  1.00  0.00    +0.000 F 
ATOM     72  C48 UNL A   1      24.828  45.340  49.288  1.00  0.00    +0.000 C 
ATOM     73  F16 UNL A   1      24.495  46.374  48.504  1.00  0.00    +0.000 F 
ATOM     74  C49 UNL A   1      24.633  44.037  48.839  1.00  0.00    +0.000 C 
ATOM     75  F17 UNL A   1      24.102  43.843  47.623  1.00  0.00    +0.000 F 
ENDBRANCH   64   65
TORSDOF 17
ENDMDL
MODEL 8
REMARK VINA RESULT:      -8.7     44.194     46.877
ROOT
ATOM     28  C20 UNL A   1      25.722  34.983  45.220  1.00  0.00    +0.000 C 
ATOM     29  C21 UNL A   1      25.428  36.052  46.239  1.00  0.00    +0.000 C 
ATOM     30  N4  UNL A   1      26.176  37.058  46.621  1.00  0.00    +0.000 N 
ATOM     31  C22 UNL A   1      25.432  37.747  47.569  1.00  0.00    +0.000 C 
ATOM     32  C23 UNL A   1      25.782  38.842  48.285  1.00  0.00    +0.000 C 
ATOM     44  C30 UNL A   1      27.054  39.509  48.186  1.00  0.00    +0.000 C 
ATOM     45  C31 UNL A   1      27.504  40.615  48.888  1.00  0.00    +0.000 C 
ATOM     46  C32 UNL A   1      28.793  40.922  48.440  1.00  0.00    +0.000 C 
ATOM     47  C33 UNL A   1      29.159  39.987  47.486  1.00  0.00    +0.000 C 
ATOM     48  N5  UNL A   1      28.082  39.129  47.338  1.00  0.00    +0.000 N 
ATOM     49  C34 UNL A   1      30.397  39.886  46.758  1.00  0.00    +0.000 C 
ATOM     61  C41 UNL A   1      30.697  38.912  45.866  1.00  0.00    +0.000 C 
ATOM     62  N6  UNL A   1      29.916  37.843  45.452  1.00  0.00    +0.000 N 
ATOM     63  C42 UNL A   1      30.630  37.202  44.560  1.00  0.00    +0.000 C 
ATOM     64  C43 UNL A   1      30.282  35.965  43.781  1.00  0.00    +0.000 C 
ATOM     76  C50 UNL A   1      29.058  35.421  43.917  1.00  0.00    +0.000 C 
ATOM     77  C51 UNL A   1      28.584  34.229  43.220  1.00  0.00    +0.000 C 
ATOM     78  C52 UNL A   1      27.315  33.985  43.583  1.00  0.00    +0.000 C 
ATOM     79  C53 UNL A   1      26.905  34.975  44.578  1.00  0.00    +0.000 C 
ATOM     80  N7  UNL A   1      27.991  35.808  44.689  1.00  0.00    +0.000 N 
ATOM     81  C54 UNL A   1      31.950  37.796  44.304  1.00  0.00    +0.000 C 
ATOM     82  C55 UNL A   1      31.950  38.820  45.147  1.00  0.00    +0.000 C 
ATOM     83  C56 UNL A   1      24.164  37.063  47.692  1.00  0.00    +0.000 C 
ATOM     84  C57 UNL A   1      24.126  35.983  46.922  1.00  0.00    +0.000 C 
ATOM    109  H23 UNL A   1      26.979  41.124  49.616  1.00  0.00    +0.000 H 
ATOM    110  H24 UNL A   1      29.373  41.712  48.765  1.00  0.00    +0.000 H 
ATOM    111  H25 UNL A   1      28.051  38.362  46.721  1.00  0.00    +0.000 H 
ATOM    112  H26 UNL A   1      29.135  33.664  42.555  1.00  0.00    +0.000 H 
ATOM    113  H27 UNL A   1      26.724  33.222  43.218  1.00  0.00    +0.000 H 
ATOM    114  H28 UNL A   1      28.003  36.606  45.265  1.00  0.00    +0.000 H 
ATOM    115  H29 UNL A   1      32.683  37.494  43.644  1.00  0.00    +0.000 H 
ATOM    116  H30 UNL A   1      32.742  39.470  45.272  1.00  0.00    +0.000 H 
ATOM    117  H31 UNL A   1      23.389  37.374  48.298  1.00  0.00    +0.000 H 
ATOM    118  H32 UNL A   1      23.378  35.279  46.827  1.00  0.00    +0.000 H 
ENDROOT
BRANCH   28   27
ATOM     27  C19 UNL A   1      24.746  33.890  44.967  1.00  0.00    +0.000 C 
ATOM    107  H21 UNL A   1      24.000  30.792  46.036  1.00  0.00    +0.000 H 
ATOM    108  H22 UNL A   1      25.601  32.576  46.387  1.00  0.00    +0.000 H 
ATOM     85  C58 UNL A   1      23.717  34.032  44.023  1.00  0.00    +0.000 C 
ATOM     86  C59 UNL A   1      22.729  33.050  43.907  1.00  0.00    +0.000 C 
ATOM    120  H34 UNL A   1      21.955  33.171  43.235  1.00  0.00    +0.000 H 
ATOM     24  C16 UNL A   1      22.793  31.903  44.706  1.00  0.00    +0.000 C 
ATOM     25  C17 UNL A   1      23.889  31.692  45.543  1.00  0.00    +0.000 C 
ATOM     26  C18 UNL A   1      24.832  32.702  45.710  1.00  0.00    +0.000 C 
ATOM    119  H33 UNL A   1      23.691  34.863  43.412  1.00  0.00    +0.000 H 
BRANCH   24   22
ATOM     22  C15 UNL A   1      21.663  30.948  44.680  1.00  0.00    +0.000 C 
ATOM     23  O3  UNL A   1      21.833  29.790  45.053  1.00  0.00    +0.000 O 
BRANCH   22   21
ATOM    106  H20 UNL A   1      20.459  32.135  43.597  1.00  0.00    +0.000 H 
ATOM     21  N3  UNL A   1      20.441  31.352  44.193  1.00  0.00    +0.000 N 
BRANCH   21   20
ATOM    105  H19 UNL A   1      18.751  31.223  45.338  1.00  0.00    +0.000 H 
ATOM     20  C14 UNL A   1      19.125  30.781  44.438  1.00  0.00    +0.000 C 
ATOM    104  H18 UNL A   1      19.227  29.719  44.521  1.00  0.00    +0.000 H 
BRANCH   20   19
ATOM     19  C13 UNL A   1      18.119  31.087  43.334  1.00  0.00    +0.000 C 
ATOM    102  H16 UNL A   1      17.829  32.113  43.427  1.00  0.00    +0.000 H 
ATOM    103  H17 UNL A   1      18.614  30.860  42.413  1.00  0.00    +0.000 H 
BRANCH   19   18
ATOM     18  C12 UNL A   1      16.848  30.237  43.349  1.00  0.00    +0.000 C 
ATOM    100  H14 UNL A   1      16.209  30.614  44.119  1.00  0.00    +0.000 H 
ATOM    101  H15 UNL A   1      16.432  30.313  42.366  1.00  0.00    +0.000 H 
BRANCH   18   17
ATOM     17  C11 UNL A   1      17.057  28.741  43.599  1.00  0.00    +0.000 C 
ATOM     98  H12 UNL A   1      18.083  28.513  43.399  1.00  0.00    +0.000 H 
ATOM     99  H13 UNL A   1      16.764  28.572  44.615  1.00  0.00    +0.000 H 
BRANCH   17   16
ATOM     97  H11 UNL A   1      16.810  27.469  41.944  1.00  0.00    +0.000 H 
ATOM     96  H10 UNL A   1      15.323  28.333  42.438  1.00  0.00    +0.000 H 
ATOM     16  C10 UNL A   1      16.192  27.794  42.754  1.00  0.00    +0.000 C 
BRANCH   16   15
ATOM     95  H9  UNL A   1      15.995  26.606  44.504  1.00  0.00    +0.000 H 
ATOM     94  H8  UNL A   1      16.200  25.679  43.021  1.00  0.00    +0.000 H 
ATOM     15  C9  UNL A   1      15.728  26.527  43.471  1.00  0.00    +0.000 C 
BRANCH   15   14
ATOM     93  H7  UNL A   1      13.720  27.144  43.586  1.00  0.00    +0.000 H 
ATOM     14  N2  UNL A   1      14.291  26.369  43.381  1.00  0.00    +0.000 N 
BRANCH   14    2
ATOM      1  O1  UNL A   1      12.479  25.059  42.842  1.00  0.00    +0.000 O 
ATOM      2  C1  UNL A   1      13.687  25.184  43.022  1.00  0.00    +0.000 C 
BRANCH    2    3
ATOM      3  C2  UNL A   1      14.648  24.007  42.895  1.00  0.00    +0.000 C 
ATOM     87  H1  UNL A   1      14.655  23.462  43.816  1.00  0.00    +0.000 H 
ATOM     88  H2  UNL A   1      15.624  24.387  42.676  1.00  0.00    +0.000 H 
BRANCH    3    4
ATOM      4  C3  UNL A   1      14.230  23.086  41.780  1.00  0.00    +0.000 C 
ATOM      5  C4  UNL A   1      13.455  21.907  42.109  1.00  0.00    +0.000 C 
ATOM      6  C5  UNL A   1      13.097  21.035  41.156  1.00  0.00    +0.000 C 
ATOM      7  C6  UNL A   1      13.476  21.271  39.736  1.00  0.00    +0.000 C 
ATOM      8  O2  UNL A   1      13.155  20.433  38.900  1.00  0.00    +0.000 O 
ATOM      9  N1  UNL A   1      14.170  22.445  39.489  1.00  0.00    +0.000 N 
ATOM     13  C8  UNL A   1      14.542  23.321  40.494  1.00  0.00    +0.000 C 
ATOM     89  H3  UNL A   1      13.174  21.736  43.086  1.00  0.00    +0.000 H 
ATOM     90  H4  UNL A   1      12.555  20.196  41.409  1.00  0.00    +0.000 H 
ATOM     92  H6  UNL A   1      15.071  24.173  40.251  1.00  0.00    +0.000 H 
BRANCH    9   10
ATOM     10  C7  UNL A   1      14.547  22.702  38.122  1.00  0.00    +0.000 C 
ATOM     11  F1  UNL A   1      14.023  23.874  37.688  1.00  0.00    +0.000 F 
ATOM     12  F2  UNL A   1      15.894  22.770  37.991  1.00  0.00    +0.000 F 
ATOM     91  H5  UNL A   1      14.167  21.890  37.537  1.00  0.00    +0.000 H 
ENDBRANCH    9   10
ENDBRANCH    3    4
ENDBRANCH    2    3
ENDBRANCH   14    2
ENDBRANCH   15   14
ENDBRANCH   16   15
ENDBRANCH   17   16
ENDBRANCH   18   17
ENDBRANCH   19   18
ENDBRANCH   20   19
ENDBRANCH   21   20
ENDBRANCH   22   21
ENDBRANCH   24   22
ENDBRANCH   28   27
BRANCH   32   33
ATOM     33  C24 UNL A   1      24.776  39.401  49.246  1.00  0.00    +0.000 C 
ATOM     34  C25 UNL A   1      23.838  40.364  48.847  1.00  0.00    +0.000 C 
ATOM     35  F3  UNL A   1      23.873  40.864  47.603  1.00  0.00    +0.000 F 
ATOM     36  C26 UNL A   1      22.870  40.830  49.733  1.00  0.00    +0.000 C 
ATOM     37  F4  UNL A   1      21.999  41.769  49.338  1.00  0.00    +0.000 F 
ATOM     38  C27 UNL A   1      22.808  40.328  51.024  1.00  0.00    +0.000 C 
ATOM     39  F5  UNL A   1      21.867  40.769  51.871  1.00  0.00    +0.000 F 
ATOM     40  C28 UNL A   1      23.722  39.371  51.439  1.00  0.00    +0.000 C 
ATOM     41  F6  UNL A   1      23.657  38.877  52.682  1.00  0.00    +0.000 F 
ATOM     42  C29 UNL A   1      24.705  38.919  50.562  1.00  0.00    +0.000 C 
ATOM     43  F7  UNL A   1      25.576  37.993  50.990  1.00  0.00    +0.000 F 
ENDBRANCH   32   33
BRANCH   49   50
ATOM     50  C35 UNL A   1      31.439  40.933  47.012  1.00  0.00    +0.000 C 
ATOM     51  C36 UNL A   1      31.319  42.223  46.475  1.00  0.00    +0.000 C 
ATOM     52  F8  UNL A   1      30.296  42.521  45.659  1.00  0.00    +0.000 F 
ATOM     53  C37 UNL A   1      32.264  43.204  46.757  1.00  0.00    +0.000 C 
ATOM     54  F9  UNL A   1      32.147  44.423  46.211  1.00  0.00    +0.000 F 
ATOM     55  C38 UNL A   1      33.331  42.922  47.598  1.00  0.00    +0.000 C 
ATOM     56  F10 UNL A   1      34.235  43.872  47.877  1.00  0.00    +0.000 F 
ATOM     57  C39 UNL A   1      33.465  41.655  48.145  1.00  0.00    +0.000 C 
ATOM     58  F11 UNL A   1      34.490  41.385  48.965  1.00  0.00    +0.000 F 
ATOM     59  C40 UNL A   1      32.533  40.665  47.848  1.00  0.00    +0.000 C 
ATOM     60  F12 UNL A   1      32.687  39.447  48.390  1.00  0.00    +0.000 F 
ENDBRANCH   49   50
BRANCH   64   65
ATOM     65  C44 UNL A   1      31.268  35.333  42.870  1.00  0.00    +0.000 C 
ATOM     66  C45 UNL A   1      32.084  34.285  43.313  1.00  0.00    +0.000 C 
ATOM     67  F13 UNL A   1      32.017  33.876  44.589  1.00  0.00    +0.000 F 
ATOM     68  C46 UNL A   1      32.990  33.669  42.452  1.00  0.00    +0.000 C 
ATOM     69  F14 UNL A   1      33.779  32.684  42.905  1.00  0.00    +0.000 F 
ATOM     70  C47 UNL A   1      33.080  34.074  41.129  1.00  0.00    +0.000 C 
ATOM     71  F15 UNL A   1      33.940  33.470  40.298  1.00  0.00    +0.000 F 
ATOM     72  C48 UNL A   1      32.277  35.107  40.668  1.00  0.00    +0.000 C 
ATOM     73  F16 UNL A   1      32.351  35.494  39.387  1.00  0.00    +0.000 F 
ATOM     74  C49 UNL A   1      31.389  35.741  41.534  1.00  0.00    +0.000 C 
ATOM     75  F17 UNL A   1      30.627  36.739  41.065  1.00  0.00    +0.000 F 
ENDBRANCH   64   65
TORSDOF 17
ENDMDL
MODEL 9
REMARK VINA RESULT:      -8.7      1.935      7.912
ROOT
ATOM     28  C20 UNL A   1      14.427  49.983   4.467  1.00  0.00    +0.000 C 
ATOM     29  C21 UNL A   1      14.998  49.567   3.137  1.00  0.00    +0.000 C 
ATOM     30  N4  UNL A   1      15.579  50.301   2.220  1.00  0.00    +0.000 N 
ATOM     31  C22 UNL A   1      15.931  49.428   1.200  1.00  0.00    +0.000 C 
ATOM     32  C23 UNL A   1      16.528  49.708   0.017  1.00  0.00    +0.000 C 
ATOM     44  C30 UNL A   1      16.909  51.028  -0.413  1.00  0.00    +0.000 C 
ATOM     45  C31 UNL A   1      17.500  51.409  -1.606  1.00  0.00    +0.000 C 
ATOM     46  C32 UNL A   1      17.709  52.792  -1.568  1.00  0.00    +0.000 C 
ATOM     47  C33 UNL A   1      17.215  53.276  -0.369  1.00  0.00    +0.000 C 
ATOM     48  N5  UNL A   1      16.730  52.183   0.332  1.00  0.00    +0.000 N 
ATOM     49  C34 UNL A   1      17.191  54.634   0.108  1.00  0.00    +0.000 C 
ATOM     61  C41 UNL A   1      16.649  55.036   1.282  1.00  0.00    +0.000 C 
ATOM     62  N6  UNL A   1      16.033  54.272   2.262  1.00  0.00    +0.000 N 
ATOM     63  C42 UNL A   1      15.704  55.107   3.216  1.00  0.00    +0.000 C 
ATOM     64  C43 UNL A   1      15.009  54.830   4.519  1.00  0.00    +0.000 C 
ATOM     76  C50 UNL A   1      14.711  53.560   4.852  1.00  0.00    +0.000 C 
ATOM     77  C51 UNL A   1      14.046  53.146   6.084  1.00  0.00    +0.000 C 
ATOM     78  C52 UNL A   1      13.926  51.809   6.089  1.00  0.00    +0.000 C 
ATOM     79  C53 UNL A   1      14.460  51.278   4.835  1.00  0.00    +0.000 C 
ATOM     80  N7  UNL A   1      14.936  52.385   4.177  1.00  0.00    +0.000 N 
ATOM     81  C54 UNL A   1      16.078  56.503   2.949  1.00  0.00    +0.000 C 
ATOM     82  C55 UNL A   1      16.627  56.408   1.745  1.00  0.00    +0.000 C 
ATOM     83  C56 UNL A   1      15.524  48.104   1.616  1.00  0.00    +0.000 C 
ATOM     84  C57 UNL A   1      14.903  48.140   2.788  1.00  0.00    +0.000 C 
ATOM    109  H23 UNL A   1      17.745  50.781  -2.387  1.00  0.00    +0.000 H 
ATOM    110  H24 UNL A   1      18.156  53.355  -2.309  1.00  0.00    +0.000 H 
ATOM    111  H25 UNL A   1      16.320  52.221   1.226  1.00  0.00    +0.000 H 
ATOM    112  H26 UNL A   1      13.721  53.778   6.831  1.00  0.00    +0.000 H 
ATOM    113  H27 UNL A   1      13.523  51.246   6.854  1.00  0.00    +0.000 H 
ATOM    114  H28 UNL A   1      15.395  52.342   3.308  1.00  0.00    +0.000 H 
ATOM    115  H29 UNL A   1      15.948  57.338   3.543  1.00  0.00    +0.000 H 
ATOM    116  H30 UNL A   1      16.992  57.210   1.208  1.00  0.00    +0.000 H 
ATOM    117  H31 UNL A   1      15.695  47.244   1.073  1.00  0.00    +0.000 H 
ATOM    118  H32 UNL A   1      14.468  47.368   3.317  1.00  0.00    +0.000 H 
ENDROOT
BRANCH   28   27
ATOM     27  C19 UNL A   1      13.761  48.990   5.349  1.00  0.00    +0.000 C 
ATOM    107  H21 UNL A   1      14.502  46.744   7.737  1.00  0.00    +0.000 H 
ATOM    108  H22 UNL A   1      15.560  48.339   6.252  1.00  0.00    +0.000 H 
ATOM     85  C58 UNL A   1      12.368  48.810   5.327  1.00  0.00    +0.000 C 
ATOM     86  C59 UNL A   1      11.753  47.976   6.265  1.00  0.00    +0.000 C 
ATOM    120  H34 UNL A   1      10.726  47.870   6.268  1.00  0.00    +0.000 H 
ATOM     24  C16 UNL A   1      12.533  47.285   7.198  1.00  0.00    +0.000 C 
ATOM     25  C17 UNL A   1      13.926  47.350   7.133  1.00  0.00    +0.000 C 
ATOM     26  C18 UNL A   1      14.533  48.235   6.247  1.00  0.00    +0.000 C 
ATOM    119  H33 UNL A   1      11.799  49.295   4.617  1.00  0.00    +0.000 H 
BRANCH   24   22
ATOM     22  C15 UNL A   1      11.859  46.528   8.276  1.00  0.00    +0.000 C 
ATOM     23  O3  UNL A   1      10.647  46.338   8.224  1.00  0.00    +0.000 O 
BRANCH   22   21
ATOM    106  H20 UNL A   1      13.054  45.225   9.228  1.00  0.00    +0.000 H 
ATOM     21  N3  UNL A   1      12.590  46.083   9.354  1.00  0.00    +0.000 N 
BRANCH   21   20
ATOM    105  H19 UNL A   1      13.160  45.962  11.314  1.00  0.00    +0.000 H 
ATOM     20  C14 UNL A   1      12.770  46.709  10.656  1.00  0.00    +0.000 C 
ATOM    104  H18 UNL A   1      11.824  47.084  10.986  1.00  0.00    +0.000 H 
BRANCH   20   19
ATOM     19  C13 UNL A   1      13.769  47.861  10.640  1.00  0.00    +0.000 C 
ATOM    102  H16 UNL A   1      14.568  47.614  11.308  1.00  0.00    +0.000 H 
ATOM    103  H17 UNL A   1      14.076  47.969   9.621  1.00  0.00    +0.000 H 
BRANCH   19   18
ATOM     18  C12 UNL A   1      13.210  49.221  11.058  1.00  0.00    +0.000 C 
ATOM    100  H14 UNL A   1      13.036  49.195  12.113  1.00  0.00    +0.000 H 
ATOM    101  H15 UNL A   1      13.941  49.943  10.758  1.00  0.00    +0.000 H 
BRANCH   18   17
ATOM     17  C11 UNL A   1      11.905  49.638  10.375  1.00  0.00    +0.000 C 
ATOM     98  H12 UNL A   1      11.347  48.750  10.161  1.00  0.00    +0.000 H 
ATOM     99  H13 UNL A   1      11.419  50.304  11.057  1.00  0.00    +0.000 H 
BRANCH   17   16
ATOM     97  H11 UNL A   1      11.387  49.970   8.365  1.00  0.00    +0.000 H 
ATOM     96  H10 UNL A   1      13.084  50.375   8.766  1.00  0.00    +0.000 H 
ATOM     16  C10 UNL A   1      12.058  50.424   9.065  1.00  0.00    +0.000 C 
BRANCH   16   15
ATOM     95  H9  UNL A   1      10.615  51.976   8.914  1.00  0.00    +0.000 H 
ATOM     94  H8  UNL A   1      12.242  52.454   8.441  1.00  0.00    +0.000 H 
ATOM     15  C9  UNL A   1      11.657  51.897   9.142  1.00  0.00    +0.000 C 
BRANCH   15   14
ATOM     93  H7  UNL A   1      11.379  52.037  11.222  1.00  0.00    +0.000 H 
ATOM     14  N2  UNL A   1      11.876  52.432  10.470  1.00  0.00    +0.000 N 
BRANCH   14    2
ATOM      1  O1  UNL A   1      12.556  54.325  11.584  1.00  0.00    +0.000 O 
ATOM      2  C1  UNL A   1      12.748  53.467  10.728  1.00  0.00    +0.000 C 
BRANCH    2    3
ATOM      3  C2  UNL A   1      13.978  53.485   9.828  1.00  0.00    +0.000 C 
ATOM     87  H1  UNL A   1      14.454  54.441   9.906  1.00  0.00    +0.000 H 
ATOM     88  H2  UNL A   1      13.665  53.303   8.821  1.00  0.00    +0.000 H 
BRANCH    3    4
ATOM      4  C3  UNL A   1      14.956  52.413  10.227  1.00  0.00    +0.000 C 
ATOM      5  C4  UNL A   1      15.283  52.260  11.631  1.00  0.00    +0.000 C 
ATOM      6  C5  UNL A   1      16.180  51.349  12.030  1.00  0.00    +0.000 C 
ATOM      7  C6  UNL A   1      16.848  50.462  11.039  1.00  0.00    +0.000 C 
ATOM      8  O2  UNL A   1      17.686  49.662  11.442  1.00  0.00    +0.000 O 
ATOM      9  N1  UNL A   1      16.447  50.627   9.722  1.00  0.00    +0.000 N 
ATOM     13  C8  UNL A   1      15.530  51.589   9.334  1.00  0.00    +0.000 C 
ATOM     89  H3  UNL A   1      14.819  52.859  12.331  1.00  0.00    +0.000 H 
ATOM     90  H4  UNL A   1      16.409  51.262  13.031  1.00  0.00    +0.000 H 
ATOM     92  H6  UNL A   1      15.281  51.675   8.336  1.00  0.00    +0.000 H 
BRANCH    9   10
ATOM     10  C7  UNL A   1      17.074  49.780   8.740  1.00  0.00    +0.000 C 
ATOM     11  F1  UNL A   1      16.603  48.512   8.825  1.00  0.00    +0.000 F 
ATOM     12  F2  UNL A   1      16.841  50.231   7.484  1.00  0.00    +0.000 F 
ATOM     91  H5  UNL A   1      18.126  49.796   8.941  1.00  0.00    +0.000 H 
ENDBRANCH    9   10
ENDBRANCH    3    4
ENDBRANCH    2    3
ENDBRANCH   14    2
ENDBRANCH   15   14
ENDBRANCH   16   15
ENDBRANCH   17   16
ENDBRANCH   18   17
ENDBRANCH   19   18
ENDBRANCH   20   19
ENDBRANCH   21   20
ENDBRANCH   22   21
ENDBRANCH   24   22
ENDBRANCH   28   27
BRANCH   32   33
ATOM     33  C24 UNL A   1      16.811  48.565  -0.912  1.00  0.00    +0.000 C 
ATOM     34  C25 UNL A   1      15.973  48.281  -2.000  1.00  0.00    +0.000 C 
ATOM     35  F3  UNL A   1      14.849  48.987  -2.187  1.00  0.00    +0.000 F 
ATOM     36  C26 UNL A   1      16.280  47.255  -2.890  1.00  0.00    +0.000 C 
ATOM     37  F4  UNL A   1      15.452  46.984  -3.909  1.00  0.00    +0.000 F 
ATOM     38  C27 UNL A   1      17.439  46.510  -2.722  1.00  0.00    +0.000 C 
ATOM     39  F5  UNL A   1      17.739  45.532  -3.588  1.00  0.00    +0.000 F 
ATOM     40  C28 UNL A   1      18.284  46.778  -1.657  1.00  0.00    +0.000 C 
ATOM     41  F6  UNL A   1      19.409  46.067  -1.500  1.00  0.00    +0.000 F 
ATOM     42  C29 UNL A   1      17.969  47.789  -0.753  1.00  0.00    +0.000 C 
ATOM     43  F7  UNL A   1      18.806  48.026   0.269  1.00  0.00    +0.000 F 
ENDBRANCH   32   33
BRANCH   49   50
ATOM     50  C35 UNL A   1      17.803  55.688  -0.765  1.00  0.00    +0.000 C 
ATOM     51  C36 UNL A   1      17.032  56.397  -1.696  1.00  0.00    +0.000 C 
ATOM     52  F8  UNL A   1      15.738  56.092  -1.874  1.00  0.00    +0.000 F 
ATOM     53  C37 UNL A   1      17.597  57.409  -2.467  1.00  0.00    +0.000 C 
ATOM     54  F9  UNL A   1      16.850  58.056  -3.373  1.00  0.00    +0.000 F 
ATOM     55  C38 UNL A   1      18.933  57.745  -2.304  1.00  0.00    +0.000 C 
ATOM     56  F10 UNL A   1      19.473  58.727  -3.040  1.00  0.00    +0.000 F 
ATOM     57  C39 UNL A   1      19.711  57.061  -1.383  1.00  0.00    +0.000 C 
ATOM     58  F11 UNL A   1      20.999  57.392  -1.218  1.00  0.00    +0.000 F 
ATOM     59  C40 UNL A   1      19.155  56.034  -0.625  1.00  0.00    +0.000 C 
ATOM     60  F12 UNL A   1      19.931  55.387   0.258  1.00  0.00    +0.000 F 
ENDBRANCH   49   50
BRANCH   64   65
ATOM     65  C44 UNL A   1      14.643  55.934   5.440  1.00  0.00    +0.000 C 
ATOM     66  C45 UNL A   1      13.313  56.353   5.563  1.00  0.00    +0.000 C 
ATOM     67  F13 UNL A   1      12.360  55.792   4.805  1.00  0.00    +0.000 F 
ATOM     68  C46 UNL A   1      12.960  57.370   6.448  1.00  0.00    +0.000 C 
ATOM     69  F14 UNL A   1      11.684  57.772   6.531  1.00  0.00    +0.000 F 
ATOM     70  C47 UNL A   1      13.927  57.968   7.243  1.00  0.00    +0.000 C 
ATOM     71  F15 UNL A   1      13.585  58.934   8.105  1.00  0.00    +0.000 F 
ATOM     72  C48 UNL A   1      15.250  57.564   7.141  1.00  0.00    +0.000 C 
ATOM     73  F16 UNL A   1      16.186  58.131   7.915  1.00  0.00    +0.000 F 
ATOM     74  C49 UNL A   1      15.608  56.567   6.238  1.00  0.00    +0.000 C 
ATOM     75  F17 UNL A   1      16.894  56.197   6.155  1.00  0.00    +0.000 F 
ENDBRANCH   64   65
TORSDOF 17
ENDMDL
MODEL 10
REMARK VINA RESULT:      -8.7     44.181     47.009
ROOT
ATOM     28  C20 UNL A   1      25.782  35.461  45.176  1.00  0.00    +0.000 C 
ATOM     29  C21 UNL A   1      25.573  36.529  46.218  1.00  0.00    +0.000 C 
ATOM     30  N4  UNL A   1      26.395  37.471  46.611  1.00  0.00    +0.000 N 
ATOM     31  C22 UNL A   1      25.710  38.193  47.579  1.00  0.00    +0.000 C 
ATOM     32  C23 UNL A   1      26.143  39.247  48.311  1.00  0.00    +0.000 C 
ATOM     44  C30 UNL A   1      27.459  39.822  48.214  1.00  0.00    +0.000 C 
ATOM     45  C31 UNL A   1      27.993  40.879  48.932  1.00  0.00    +0.000 C 
ATOM     46  C32 UNL A   1      29.297  41.102  48.478  1.00  0.00    +0.000 C 
ATOM     47  C33 UNL A   1      29.588  40.162  47.504  1.00  0.00    +0.000 C 
ATOM     48  N5  UNL A   1      28.450  39.385  47.349  1.00  0.00    +0.000 N 
ATOM     49  C34 UNL A   1      30.810  39.986  46.763  1.00  0.00    +0.000 C 
ATOM     61  C41 UNL A   1      31.032  39.010  45.850  1.00  0.00    +0.000 C 
ATOM     62  N6  UNL A   1      30.173  38.008  45.423  1.00  0.00    +0.000 N 
ATOM     63  C42 UNL A   1      30.831  37.335  44.513  1.00  0.00    +0.000 C 
ATOM     64  C43 UNL A   1      30.390  36.141  43.715  1.00  0.00    +0.000 C 
ATOM     76  C50 UNL A   1      29.131  35.684  43.851  1.00  0.00    +0.000 C 
ATOM     77  C51 UNL A   1      28.567  34.542  43.136  1.00  0.00    +0.000 C 
ATOM     78  C52 UNL A   1      27.287  34.383  43.506  1.00  0.00    +0.000 C 
ATOM     79  C53 UNL A   1      26.957  35.381  44.524  1.00  0.00    +0.000 C 
ATOM     80  N7  UNL A   1      28.100  36.132  44.640  1.00  0.00    +0.000 N 
ATOM     81  C54 UNL A   1      32.189  37.837  44.257  1.00  0.00    +0.000 C 
ATOM     82  C55 UNL A   1      32.269  38.842  45.118  1.00  0.00    +0.000 C 
ATOM     83  C56 UNL A   1      24.397  37.600  47.700  1.00  0.00    +0.000 C 
ATOM     84  C57 UNL A   1      24.275  36.541  46.910  1.00  0.00    +0.000 C 
ATOM    109  H23 UNL A   1      27.512  41.411  49.674  1.00  0.00    +0.000 H 
ATOM    110  H24 UNL A   1      29.935  41.842  48.812  1.00  0.00    +0.000 H 
ATOM    111  H25 UNL A   1      28.359  38.635  46.719  1.00  0.00    +0.000 H 
ATOM    112  H26 UNL A   1      29.071  33.953  42.456  1.00  0.00    +0.000 H 
ATOM    113  H27 UNL A   1      26.639  33.672  43.132  1.00  0.00    +0.000 H 
ATOM    114  H28 UNL A   1      28.174  36.916  45.231  1.00  0.00    +0.000 H 
ATOM    115  H29 UNL A   1      32.894  37.496  43.584  1.00  0.00    +0.000 H 
ATOM    116  H30 UNL A   1      33.107  39.431  45.248  1.00  0.00    +0.000 H 
ATOM    117  H31 UNL A   1      23.651  37.954  48.319  1.00  0.00    +0.000 H 
ATOM    118  H32 UNL A   1      23.478  35.894  46.809  1.00  0.00    +0.000 H 
ENDROOT
BRANCH   28   27
ATOM     27  C19 UNL A   1      24.728  34.447  44.911  1.00  0.00    +0.000 C 
ATOM    107  H21 UNL A   1      23.831  31.346  45.849  1.00  0.00    +0.000 H 
ATOM    108  H22 UNL A   1      25.557  33.005  46.219  1.00  0.00    +0.000 H 
ATOM     85  C58 UNL A   1      23.671  34.704  44.025  1.00  0.00    +0.000 C 
ATOM     86  C59 UNL A   1      22.618  33.792  43.903  1.00  0.00    +0.000 C 
ATOM    120  H34 UNL A   1      21.825  33.998  43.275  1.00  0.00    +0.000 H 
ATOM     24  C16 UNL A   1      22.642  32.602  44.637  1.00  0.00    +0.000 C 
ATOM     25  C17 UNL A   1      23.757  32.277  45.410  1.00  0.00    +0.000 C 
ATOM     26  C18 UNL A   1      24.770  33.216  45.586  1.00  0.00    +0.000 C 
ATOM    119  H33 UNL A   1      23.671  35.568  43.461  1.00  0.00    +0.000 H 
BRANCH   24   22
ATOM     22  C15 UNL A   1      21.454  31.721  44.614  1.00  0.00    +0.000 C 
ATOM     23  O3  UNL A   1      21.561  30.540  44.932  1.00  0.00    +0.000 O 
BRANCH   22   21
ATOM    106  H20 UNL A   1      20.096  33.179  44.362  1.00  0.00    +0.000 H 
ATOM     21  N3  UNL A   1      20.244  32.221  44.189  1.00  0.00    +0.000 N 
BRANCH   21   20
ATOM    105  H19 UNL A   1      19.585  30.727  42.958  1.00  0.00    +0.000 H 
ATOM     20  C14 UNL A   1      19.153  31.529  43.518  1.00  0.00    +0.000 C 
ATOM    104  H18 UNL A   1      18.640  32.230  42.893  1.00  0.00    +0.000 H 
BRANCH   20   19
ATOM     19  C13 UNL A   1      18.146  30.913  44.483  1.00  0.00    +0.000 C 
ATOM    102  H16 UNL A   1      18.689  30.339  45.205  1.00  0.00    +0.000 H 
ATOM    103  H17 UNL A   1      17.601  31.732  44.903  1.00  0.00    +0.000 H 
BRANCH   19   18
ATOM     18  C12 UNL A   1      17.101  29.997  43.844  1.00  0.00    +0.000 C 
ATOM    100  H14 UNL A   1      16.189  30.105  44.393  1.00  0.00    +0.000 H 
ATOM    101  H15 UNL A   1      17.028  30.304  42.821  1.00  0.00    +0.000 H 
BRANCH   18   17
ATOM     17  C11 UNL A   1      17.458  28.509  43.811  1.00  0.00    +0.000 C 
ATOM     98  H12 UNL A   1      18.471  28.421  43.477  1.00  0.00    +0.000 H 
ATOM     99  H13 UNL A   1      17.294  28.147  44.804  1.00  0.00    +0.000 H 
BRANCH   17   16
ATOM     97  H11 UNL A   1      17.259  26.992  42.369  1.00  0.00    +0.000 H 
ATOM     96  H10 UNL A   1      16.018  28.277  42.264  1.00  0.00    +0.000 H 
ATOM     16  C10 UNL A   1      16.586  27.632  42.900  1.00  0.00    +0.000 C 
BRANCH   16   15
ATOM     95  H9  UNL A   1      15.282  27.202  44.522  1.00  0.00    +0.000 H 
ATOM     94  H8  UNL A   1      16.107  25.792  43.865  1.00  0.00    +0.000 H 
ATOM     15  C9  UNL A   1      15.610  26.710  43.630  1.00  0.00    +0.000 C 
BRANCH   15   14
ATOM     93  H7  UNL A   1      14.171  27.086  42.143  1.00  0.00    +0.000 H 
ATOM     14  N2  UNL A   1      14.449  26.422  42.814  1.00  0.00    +0.000 N 
BRANCH   14    2
ATOM      1  O1  UNL A   1      12.493  25.231  43.022  1.00  0.00    +0.000 O 
ATOM      2  C1  UNL A   1      13.717  25.261  42.933  1.00  0.00    +0.000 C 
BRANCH    2    3
ATOM      3  C2  UNL A   1      14.562  23.993  42.981  1.00  0.00    +0.000 C 
ATOM     87  H1  UNL A   1      14.355  23.469  43.891  1.00  0.00    +0.000 H 
ATOM     88  H2  UNL A   1      15.594  24.270  42.933  1.00  0.00    +0.000 H 
BRANCH    3    4
ATOM      4  C3  UNL A   1      14.253  23.093  41.814  1.00  0.00    +0.000 C 
ATOM      5  C4  UNL A   1      14.578  23.553  40.479  1.00  0.00    +0.000 C 
ATOM      6  C5  UNL A   1      14.282  22.807  39.407  1.00  0.00    +0.000 C 
ATOM      7  C6  UNL A   1      13.628  21.479  39.567  1.00  0.00    +0.000 C 
ATOM      8  O2  UNL A   1      13.346  20.842  38.558  1.00  0.00    +0.000 O 
ATOM      9  N1  UNL A   1      13.396  21.081  40.875  1.00  0.00    +0.000 N 
ATOM     13  C8  UNL A   1      13.696  21.880  41.965  1.00  0.00    +0.000 C 
ATOM     89  H3  UNL A   1      15.042  24.465  40.352  1.00  0.00    +0.000 H 
ATOM     90  H4  UNL A   1      14.510  23.155  38.463  1.00  0.00    +0.000 H 
ATOM     92  H6  UNL A   1      13.487  21.535  42.915  1.00  0.00    +0.000 H 
BRANCH    9   10
ATOM     10  C7  UNL A   1      12.767  19.798  41.061  1.00  0.00    +0.000 C 
ATOM     11  F1  UNL A   1      13.651  18.892  41.544  1.00  0.00    +0.000 F 
ATOM     12  F2  UNL A   1      11.733  19.883  41.933  1.00  0.00    +0.000 F 
ATOM     91  H5  UNL A   1      12.407  19.486  40.103  1.00  0.00    +0.000 H 
ENDBRANCH    9   10
ENDBRANCH    3    4
ENDBRANCH    2    3
ENDBRANCH   14    2
ENDBRANCH   15   14
ENDBRANCH   16   15
ENDBRANCH   17   16
ENDBRANCH   18   17
ENDBRANCH   19   18
ENDBRANCH   20   19
ENDBRANCH   21   20
ENDBRANCH   22   21
ENDBRANCH   24   22
ENDBRANCH   28   27
BRANCH   32   33
ATOM     33  C24 UNL A   1      25.187  39.858  49.293  1.00  0.00    +0.000 C 
ATOM     34  C25 UNL A   1      25.149  39.443  50.632  1.00  0.00    +0.000 C 
ATOM     35  F3  UNL A   1      25.922  38.428  51.046  1.00  0.00    +0.000 F 
ATOM     36  C26 UNL A   1      24.300  40.059  51.547  1.00  0.00    +0.000 C 
ATOM     37  F4  UNL A   1      24.260  39.630  52.817  1.00  0.00    +0.000 F 
ATOM     38  C27 UNL A   1      23.492  41.113  51.147  1.00  0.00    +0.000 C 
ATOM     39  F5  UNL A   1      22.685  41.714  52.034  1.00  0.00    +0.000 F 
ATOM     40  C28 UNL A   1      23.518  41.543  49.830  1.00  0.00    +0.000 C 
ATOM     41  F6  UNL A   1      22.746  42.569  49.444  1.00  0.00    +0.000 F 
ATOM     42  C29 UNL A   1      24.350  40.915  48.907  1.00  0.00    +0.000 C 
ATOM     43  F7  UNL A   1      24.355  41.352  47.638  1.00  0.00    +0.000 F 
ENDBRANCH   32   33
BRANCH   49   50
ATOM     50  C35 UNL A   1      31.926  40.950  47.027  1.00  0.00    +0.000 C 
ATOM     51  C36 UNL A   1      33.016  40.594  47.835  1.00  0.00    +0.000 C 
ATOM     52  F8  UNL A   1      33.041  39.401  48.449  1.00  0.00    +0.000 F 
ATOM     53  C37 UNL A   1      34.074  41.476  48.034  1.00  0.00    +0.000 C 
ATOM     54  F9  UNL A   1      35.093  41.129  48.833  1.00  0.00    +0.000 F 
ATOM     55  C38 UNL A   1      34.074  42.717  47.412  1.00  0.00    +0.000 C 
ATOM     56  F10 UNL A   1      35.098  43.560  47.597  1.00  0.00    +0.000 F 
ATOM     57  C39 UNL A   1      33.009  43.084  46.603  1.00  0.00    +0.000 C 
ATOM     58  F11 UNL A   1      33.012  44.278  45.994  1.00  0.00    +0.000 F 
ATOM     59  C40 UNL A   1      31.939  42.213  46.419  1.00  0.00    +0.000 C 
ATOM     60  F12 UNL A   1      30.921  42.595  45.632  1.00  0.00    +0.000 F 
ENDBRANCH   49   50
BRANCH   64   65
ATOM     65  C44 UNL A   1      31.320  35.457  42.783  1.00  0.00    +0.000 C 
ATOM     66  C45 UNL A   1      32.080  34.360  43.206  1.00  0.00    +0.000 C 
ATOM     67  F13 UNL A   1      32.011  33.948  44.480  1.00  0.00    +0.000 F 
ATOM     68  C46 UNL A   1      32.933  33.697  42.326  1.00  0.00    +0.000 C 
ATOM     69  F14 UNL A   1      33.670  32.664  42.760  1.00  0.00    +0.000 F 
ATOM     70  C47 UNL A   1      33.024  34.104  41.004  1.00  0.00    +0.000 C 
ATOM     71  F15 UNL A   1      33.832  33.456  40.154  1.00  0.00    +0.000 F 
ATOM     72  C48 UNL A   1      32.277  35.187  40.562  1.00  0.00    +0.000 C 
ATOM     73  F16 UNL A   1      32.351  35.576  39.282  1.00  0.00    +0.000 F 
ATOM     74  C49 UNL A   1      31.443  35.866  41.447  1.00  0.00    +0.000 C 
ATOM     75  F17 UNL A   1      30.734  36.911  40.996  1.00  0.00    +0.000 F 
ENDBRANCH   64   65
TORSDOF 17
ENDMDL
