MODEL 1
REMARK VINA RESULT:     -10.2      0.000      0.000
ROOT
ATOM    129  H38 UNL A   1      50.828  22.620  14.872  1.00  0.00    +0.000 H 
ATOM    130  H39 UNL A   1      50.452  21.513  12.594  1.00  0.00    +0.000 H 
ATOM     33  C24 UNL A   1      52.787  20.284  11.518  1.00  0.00    +0.000 C 
ATOM     34  C25 UNL A   1      52.620  20.907  12.876  1.00  0.00    +0.000 C 
ATOM     35  N5  UNL A   1      53.488  21.020  13.850  1.00  0.00    +0.000 N 
ATOM     36  C26 UNL A   1      52.836  21.719  14.858  1.00  0.00    +0.000 C 
ATOM     37  C27 UNL A   1      53.290  22.039  16.093  1.00  0.00    +0.000 C 
ATOM     49  C34 UNL A   1      54.591  21.685  16.597  1.00  0.00    +0.000 C 
ATOM     50  C35 UNL A   1      55.121  21.913  17.855  1.00  0.00    +0.000 C 
ATOM     51  C36 UNL A   1      56.432  21.428  17.874  1.00  0.00    +0.000 C 
ATOM     52  C37 UNL A   1      56.702  20.852  16.643  1.00  0.00    +0.000 C 
ATOM     53  N6  UNL A   1      55.566  21.023  15.867  1.00  0.00    +0.000 N 
ATOM     54  C38 UNL A   1      57.907  20.196  16.206  1.00  0.00    +0.000 C 
ATOM     66  C45 UNL A   1      58.095  19.658  14.976  1.00  0.00    +0.000 C 
ATOM     67  N7  UNL A   1      57.213  19.597  13.907  1.00  0.00    +0.000 N 
ATOM     68  C46 UNL A   1      57.859  18.989  12.941  1.00  0.00    +0.000 C 
ATOM     69  C47 UNL A   1      57.379  18.621  11.562  1.00  0.00    +0.000 C 
ATOM     81  C54 UNL A   1      56.111  18.904  11.207  1.00  0.00    +0.000 C 
ATOM     82  C55 UNL A   1      55.509  18.610   9.910  1.00  0.00    +0.000 C 
ATOM     83  C56 UNL A   1      54.256  19.090   9.889  1.00  0.00    +0.000 C 
ATOM     84  C57 UNL A   1      53.952  19.695  11.187  1.00  0.00    +0.000 C 
ATOM     85  N8  UNL A   1      55.106  19.521  11.911  1.00  0.00    +0.000 N 
ATOM     86  C58 UNL A   1      59.242  18.626  13.281  1.00  0.00    +0.000 C 
ATOM     87  C59 UNL A   1      59.320  19.017  14.545  1.00  0.00    +0.000 C 
ATOM     88  C60 UNL A   1      51.516  22.045  14.363  1.00  0.00    +0.000 C 
ATOM     89  C61 UNL A   1      51.309  21.508  13.168  1.00  0.00    +0.000 C 
ATOM    121  H30 UNL A   1      54.633  22.367  18.644  1.00  0.00    +0.000 H 
ATOM    122  H31 UNL A   1      57.087  21.487  18.669  1.00  0.00    +0.000 H 
ATOM    123  H32 UNL A   1      55.467  20.719  14.936  1.00  0.00    +0.000 H 
ATOM    124  H33 UNL A   1      55.973  18.111   9.135  1.00  0.00    +0.000 H 
ATOM    125  H34 UNL A   1      53.610  19.042   9.086  1.00  0.00    +0.000 H 
ATOM    126  H35 UNL A   1      55.204  19.811  12.847  1.00  0.00    +0.000 H 
ATOM    127  H36 UNL A   1      59.962  18.183  12.691  1.00  0.00    +0.000 H 
ATOM    128  H37 UNL A   1      60.149  18.883  15.146  1.00  0.00    +0.000 H 
ENDROOT
BRANCH   33   32
ATOM    131  H40 UNL A   1      52.258  22.320   9.861  1.00  0.00    +0.000 H 
ATOM    132  H41 UNL A   1      50.445  22.551   8.268  1.00  0.00    +0.000 H 
ATOM    119  H28 UNL A   1      49.142  18.657   9.177  1.00  0.00    +0.000 H 
ATOM    120  H29 UNL A   1      50.815  18.509  10.929  1.00  0.00    +0.000 H 
ATOM     90  C62 UNL A   1      51.584  21.548   9.731  1.00  0.00    +0.000 C 
ATOM     91  C63 UNL A   1      50.570  21.665   8.783  1.00  0.00    +0.000 C 
ATOM     29  C20 UNL A   1      49.722  20.584   8.533  1.00  0.00    +0.000 C 
ATOM     30  C21 UNL A   1      49.801  19.436   9.327  1.00  0.00    +0.000 C 
ATOM     31  C22 UNL A   1      50.775  19.346  10.326  1.00  0.00    +0.000 C 
ATOM     32  C23 UNL A   1      51.699  20.387  10.512  1.00  0.00    +0.000 C 
BRANCH   29   27
ATOM     27  C19 UNL A   1      48.722  20.631   7.443  1.00  0.00    +0.000 C 
ATOM     28  O5  UNL A   1      48.477  21.701   6.891  1.00  0.00    +0.000 O 
BRANCH   27   26
ATOM     26  N4  UNL A   1      48.052  19.492   7.067  1.00  0.00    +0.000 N 
ATOM    118  H27 UNL A   1      47.370  19.179   7.703  1.00  0.00    +0.000 H 
BRANCH   26   25
ATOM     25  C18 UNL A   1      48.200  18.680   5.868  1.00  0.00    +0.000 C 
ATOM    116  H25 UNL A   1      47.523  19.044   5.123  1.00  0.00    +0.000 H 
ATOM    117  H26 UNL A   1      49.219  18.758   5.551  1.00  0.00    +0.000 H 
BRANCH   25   24
ATOM    114  H23 UNL A   1      48.422  16.908   7.004  1.00  0.00    +0.000 H 
ATOM    115  H24 UNL A   1      46.842  17.123   6.190  1.00  0.00    +0.000 H 
ATOM     24  C17 UNL A   1      47.906  17.204   6.115  1.00  0.00    +0.000 C 
BRANCH   24   23
ATOM    113  H22 UNL A   1      48.859  15.462   5.463  1.00  0.00    +0.000 H 
ATOM     23  C16 UNL A   1      48.324  16.259   4.990  1.00  0.00    +0.000 C 
ATOM    112  H21 UNL A   1      48.909  16.820   4.290  1.00  0.00    +0.000 H 
BRANCH   23   22
ATOM    110  H19 UNL A   1      47.534  14.652   3.860  1.00  0.00    +0.000 H 
ATOM     22  C15 UNL A   1      47.180  15.596   4.222  1.00  0.00    +0.000 C 
ATOM    111  H20 UNL A   1      46.372  15.525   4.919  1.00  0.00    +0.000 H 
BRANCH   22   21
ATOM    109  H18 UNL A   1      46.155  15.653   2.389  1.00  0.00    +0.000 H 
ATOM    108  H17 UNL A   1      47.433  16.893   2.558  1.00  0.00    +0.000 H 
ATOM     21  C14 UNL A   1      46.621  16.376   3.025  1.00  0.00    +0.000 C 
BRANCH   21   20
ATOM    106  H15 UNL A   1      44.586  16.983   3.129  1.00  0.00    +0.000 H 
ATOM    107  H16 UNL A   1      45.631  17.620   4.414  1.00  0.00    +0.000 H 
ATOM     20  C13 UNL A   1      45.541  17.401   3.370  1.00  0.00    +0.000 C 
BRANCH   20   19
ATOM    105  H14 UNL A   1      46.596  18.934   2.383  1.00  0.00    +0.000 H 
ATOM     19  N3  UNL A   1      45.692  18.652   2.652  1.00  0.00    +0.000 N 
BRANCH   19    2
ATOM      1  O1  UNL A   1      44.653  20.296   1.432  1.00  0.00    +0.000 O 
ATOM      2  C1  UNL A   1      44.625  19.461   2.333  1.00  0.00    +0.000 C 
BRANCH    2    3
ATOM      3  C2  UNL A   1      43.394  19.308   3.237  1.00  0.00    +0.000 C 
ATOM     92  H1  UNL A   1      43.133  20.276   3.616  1.00  0.00    +0.000 H 
ATOM     93  H2  UNL A   1      43.663  18.620   4.010  1.00  0.00    +0.000 H 
BRANCH    3    4
ATOM      4  N1  UNL A   1      42.223  18.750   2.569  1.00  0.00    +0.000 N 
ATOM     94  H3  UNL A   1      42.386  18.373   1.674  1.00  0.00    +0.000 H 
BRANCH    4    5
ATOM      5  C3  UNL A   1      40.933  18.677   3.010  1.00  0.00    +0.000 C 
ATOM      6  O2  UNL A   1      40.706  18.037   4.037  1.00  0.00    +0.000 O 
BRANCH    5    7
ATOM     95  H4  UNL A   1      39.789  20.435   2.577  1.00  0.00    +0.000 H 
ATOM      7  C4  UNL A   1      39.819  19.412   2.265  1.00  0.00    +0.000 C 
ATOM     96  H5  UNL A   1      38.874  18.958   2.478  1.00  0.00    +0.000 H 
BRANCH    7    8
ATOM     97  H6  UNL A   1      39.890  18.492   0.396  1.00  0.00    +0.000 H 
ATOM      8  N2  UNL A   1      40.094  19.344   0.844  1.00  0.00    +0.000 N 
BRANCH    8    9
ATOM      9  C5  UNL A   1      40.603  20.334   0.065  1.00  0.00    +0.000 C 
ATOM     10  O3  UNL A   1      41.560  20.116  -0.663  1.00  0.00    +0.000 O 
BRANCH    9   11
ATOM     11  O4  UNL A   1      39.939  21.507   0.174  1.00  0.00    +0.000 O 
BRANCH   11   12
ATOM     98  H7  UNL A   1      39.212  21.095  -1.698  1.00  0.00    +0.000 H 
ATOM     99  H8  UNL A   1      39.663  22.776  -1.399  1.00  0.00    +0.000 H 
ATOM     12  C6  UNL A   1      39.200  21.900  -0.994  1.00  0.00    +0.000 C 
BRANCH   12   13
ATOM    100  H9  UNL A   1      37.554  20.752   0.819  1.00  0.00    +0.000 H 
ATOM    101  H10 UNL A   1      35.216  21.188   1.262  1.00  0.00    +0.000 H 
ATOM    102  H11 UNL A   1      34.070  22.968   0.077  1.00  0.00    +0.000 H 
ATOM    103  H12 UNL A   1      35.266  24.299  -1.560  1.00  0.00    +0.000 H 
ATOM    104  H13 UNL A   1      37.592  23.823  -2.054  1.00  0.00    +0.000 H 
ATOM     13  C7  UNL A   1      37.766  22.240  -0.666  1.00  0.00    +0.000 C 
ATOM     14  C8  UNL A   1      37.067  21.497   0.299  1.00  0.00    +0.000 C 
ATOM     15  C9  UNL A   1      35.722  21.754   0.562  1.00  0.00    +0.000 C 
ATOM     16  C10 UNL A   1      35.065  22.773  -0.118  1.00  0.00    +0.000 C 
ATOM     17  C11 UNL A   1      35.752  23.534  -1.065  1.00  0.00    +0.000 C 
ATOM     18  C12 UNL A   1      37.094  23.265  -1.344  1.00  0.00    +0.000 C 
ENDBRANCH   12   13
ENDBRANCH   11   12
ENDBRANCH    9   11
ENDBRANCH    8    9
ENDBRANCH    7    8
ENDBRANCH    5    7
ENDBRANCH    4    5
ENDBRANCH    3    4
ENDBRANCH    2    3
ENDBRANCH   19    2
ENDBRANCH   20   19
ENDBRANCH   21   20
ENDBRANCH   22   21
ENDBRANCH   23   22
ENDBRANCH   24   23
ENDBRANCH   25   24
ENDBRANCH   26   25
ENDBRANCH   27   26
ENDBRANCH   29   27
ENDBRANCH   33   32
BRANCH   37   38
ATOM     38  C28 UNL A   1      52.371  22.812  16.994  1.00  0.00    +0.000 C 
ATOM     39  C29 UNL A   1      51.579  22.172  17.959  1.00  0.00    +0.000 C 
ATOM     40  F1  UNL A   1      51.588  20.833  18.060  1.00  0.00    +0.000 F 
ATOM     41  C30 UNL A   1      50.748  22.902  18.804  1.00  0.00    +0.000 C 
ATOM     42  F2  UNL A   1      49.968  22.265  19.688  1.00  0.00    +0.000 F 
ATOM     43  C31 UNL A   1      50.718  24.286  18.724  1.00  0.00    +0.000 C 
ATOM     44  F3  UNL A   1      49.924  24.989  19.545  1.00  0.00    +0.000 F 
ATOM     45  C32 UNL A   1      51.506  24.942  17.790  1.00  0.00    +0.000 C 
ATOM     46  F4  UNL A   1      51.488  26.280  17.722  1.00  0.00    +0.000 F 
ATOM     47  C33 UNL A   1      52.317  24.212  16.924  1.00  0.00    +0.000 C 
ATOM     48  F5  UNL A   1      53.058  24.875  16.024  1.00  0.00    +0.000 F 
ENDBRANCH   37   38
BRANCH   54   55
ATOM     65  F10 UNL A   1      59.611  22.364  16.884  1.00  0.00    +0.000 F 
ATOM     55  C39 UNL A   1      59.032  20.075  17.192  1.00  0.00    +0.000 C 
ATOM     56  C40 UNL A   1      59.331  18.860  17.826  1.00  0.00    +0.000 C 
ATOM     57  F6  UNL A   1      58.568  17.778  17.605  1.00  0.00    +0.000 F 
ATOM     58  C41 UNL A   1      60.394  18.763  18.719  1.00  0.00    +0.000 C 
ATOM     59  F7  UNL A   1      60.635  17.604  19.347  1.00  0.00    +0.000 F 
ATOM     60  C42 UNL A   1      61.198  19.866  18.969  1.00  0.00    +0.000 C 
ATOM     61  F8  UNL A   1      62.226  19.767  19.823  1.00  0.00    +0.000 F 
ATOM     62  C43 UNL A   1      60.930  21.073  18.340  1.00  0.00    +0.000 C 
ATOM     63  F9  UNL A   1      61.713  22.136  18.572  1.00  0.00    +0.000 F 
ATOM     64  C44 UNL A   1      59.850  21.181  17.470  1.00  0.00    +0.000 C 
ENDBRANCH   54   55
BRANCH   69   70
ATOM     70  C48 UNL A   1      58.283  17.928  10.607  1.00  0.00    +0.000 C 
ATOM     71  C49 UNL A   1      58.355  16.528  10.573  1.00  0.00    +0.000 C 
ATOM     72  F11 UNL A   1      57.606  15.800  11.414  1.00  0.00    +0.000 F 
ATOM     73  C50 UNL A   1      59.228  15.872   9.708  1.00  0.00    +0.000 C 
ATOM     74  F12 UNL A   1      59.312  14.536   9.731  1.00  0.00    +0.000 F 
ATOM     75  C51 UNL A   1      60.025  16.602   8.839  1.00  0.00    +0.000 C 
ATOM     76  F13 UNL A   1      60.865  15.972   8.007  1.00  0.00    +0.000 F 
ATOM     77  C52 UNL A   1      59.955  17.987   8.839  1.00  0.00    +0.000 C 
ATOM     78  F14 UNL A   1      60.714  18.696   7.992  1.00  0.00    +0.000 F 
ATOM     79  C53 UNL A   1      59.102  18.645   9.724  1.00  0.00    +0.000 C 
ATOM     80  F15 UNL A   1      59.069  19.986   9.714  1.00  0.00    +0.000 F 
ENDBRANCH   69   70
TORSDOF 23
ENDMDL
MODEL 2
REMARK VINA RESULT:     -10.1     20.498     26.265
ROOT
ATOM    129  H38 UNL A   1      39.715  27.532  26.958  1.00  0.00    +0.000 H 
ATOM    130  H39 UNL A   1      37.878  29.280  27.309  1.00  0.00    +0.000 H 
ATOM     33  C24 UNL A   1      37.856  30.408  29.927  1.00  0.00    +0.000 C 
ATOM     34  C25 UNL A   1      38.865  29.458  29.344  1.00  0.00    +0.000 C 
ATOM     35  N5  UNL A   1      39.939  28.949  29.894  1.00  0.00    +0.000 N 
ATOM     36  C26 UNL A   1      40.484  28.096  28.942  1.00  0.00    +0.000 C 
ATOM     37  C27 UNL A   1      41.629  27.377  29.009  1.00  0.00    +0.000 C 
ATOM     49  C34 UNL A   1      42.525  27.380  30.135  1.00  0.00    +0.000 C 
ATOM     50  C35 UNL A   1      43.740  26.730  30.273  1.00  0.00    +0.000 C 
ATOM     51  C36 UNL A   1      44.234  26.993  31.554  1.00  0.00    +0.000 C 
ATOM     52  C37 UNL A   1      43.352  27.847  32.196  1.00  0.00    +0.000 C 
ATOM     53  N6  UNL A   1      42.305  28.071  31.316  1.00  0.00    +0.000 N 
ATOM     54  C38 UNL A   1      43.456  28.417  33.515  1.00  0.00    +0.000 C 
ATOM     66  C45 UNL A   1      42.542  29.246  34.076  1.00  0.00    +0.000 C 
ATOM     67  N7  UNL A   1      41.362  29.736  33.536  1.00  0.00    +0.000 N 
ATOM     68  C46 UNL A   1      40.826  30.490  34.465  1.00  0.00    +0.000 C 
ATOM     69  C47 UNL A   1      39.557  31.300  34.417  1.00  0.00    +0.000 C 
ATOM     81  C54 UNL A   1      38.828  31.317  33.285  1.00  0.00    +0.000 C 
ATOM     82  C55 UNL A   1      37.581  32.051  33.093  1.00  0.00    +0.000 C 
ATOM     83  C56 UNL A   1      37.100  31.785  31.868  1.00  0.00    +0.000 C 
ATOM     84  C57 UNL A   1      38.026  30.889  31.173  1.00  0.00    +0.000 C 
ATOM     85  N8  UNL A   1      39.031  30.680  32.085  1.00  0.00    +0.000 N 
ATOM     86  C58 UNL A   1      41.596  30.536  35.716  1.00  0.00    +0.000 C 
ATOM     87  C59 UNL A   1      42.652  29.796  35.411  1.00  0.00    +0.000 C 
ATOM     88  C60 UNL A   1      39.599  28.120  27.797  1.00  0.00    +0.000 C 
ATOM     89  C61 UNL A   1      38.620  28.997  27.969  1.00  0.00    +0.000 C 
ATOM    121  H30 UNL A   1      44.200  26.149  29.554  1.00  0.00    +0.000 H 
ATOM    122  H31 UNL A   1      45.108  26.616  31.953  1.00  0.00    +0.000 H 
ATOM    123  H32 UNL A   1      41.521  28.637  31.503  1.00  0.00    +0.000 H 
ATOM    124  H33 UNL A   1      37.141  32.675  33.787  1.00  0.00    +0.000 H 
ATOM    125  H34 UNL A   1      36.218  32.152  31.479  1.00  0.00    +0.000 H 
ATOM    126  H35 UNL A   1      39.823  30.127  31.896  1.00  0.00    +0.000 H 
ATOM    127  H36 UNL A   1      41.371  31.017  36.601  1.00  0.00    +0.000 H 
ATOM    128  H37 UNL A   1      43.450  29.632  36.044  1.00  0.00    +0.000 H 
ENDROOT
BRANCH   33   32
ATOM    131  H40 UNL A   1      35.773  28.829  29.342  1.00  0.00    +0.000 H 
ATOM    132  H41 UNL A   1      33.801  29.340  28.029  1.00  0.00    +0.000 H 
ATOM    119  H28 UNL A   1      35.102  33.317  27.609  1.00  0.00    +0.000 H 
ATOM    120  H29 UNL A   1      37.180  32.752  28.729  1.00  0.00    +0.000 H 
ATOM     90  C62 UNL A   1      35.642  29.778  28.958  1.00  0.00    +0.000 C 
ATOM     91  C63 UNL A   1      34.486  30.082  28.241  1.00  0.00    +0.000 C 
ATOM     29  C20 UNL A   1      34.257  31.390  27.809  1.00  0.00    +0.000 C 
ATOM     30  C21 UNL A   1      35.248  32.363  27.973  1.00  0.00    +0.000 C 
ATOM     31  C22 UNL A   1      36.439  32.040  28.631  1.00  0.00    +0.000 C 
ATOM     32  C23 UNL A   1      36.630  30.754  29.161  1.00  0.00    +0.000 C 
BRANCH   29   27
ATOM     27  C19 UNL A   1      32.982  31.772  27.162  1.00  0.00    +0.000 C 
ATOM     28  O5  UNL A   1      32.653  32.954  27.125  1.00  0.00    +0.000 O 
BRANCH   27   26
ATOM     26  N4  UNL A   1      32.160  30.809  26.629  1.00  0.00    +0.000 N 
ATOM    118  H27 UNL A   1      31.196  30.973  26.741  1.00  0.00    +0.000 H 
BRANCH   26   25
ATOM     25  C18 UNL A   1      32.501  29.583  25.922  1.00  0.00    +0.000 C 
ATOM    116  H25 UNL A   1      32.361  29.743  24.873  1.00  0.00    +0.000 H 
ATOM    117  H26 UNL A   1      33.518  29.349  26.156  1.00  0.00    +0.000 H 
BRANCH   25   24
ATOM    114  H23 UNL A   1      31.150  28.658  27.263  1.00  0.00    +0.000 H 
ATOM    115  H24 UNL A   1      30.975  28.204  25.540  1.00  0.00    +0.000 H 
ATOM     24  C17 UNL A   1      31.646  28.396  26.352  1.00  0.00    +0.000 C 
BRANCH   24   23
ATOM    113  H22 UNL A   1      31.839  26.330  26.101  1.00  0.00    +0.000 H 
ATOM     23  C16 UNL A   1      32.408  27.094  26.588  1.00  0.00    +0.000 C 
ATOM    112  H21 UNL A   1      32.505  26.956  27.646  1.00  0.00    +0.000 H 
BRANCH   23   22
ATOM    110  H19 UNL A   1      34.019  27.978  25.537  1.00  0.00    +0.000 H 
ATOM     22  C15 UNL A   1      33.808  27.025  25.975  1.00  0.00    +0.000 C 
ATOM    111  H20 UNL A   1      34.458  26.755  26.780  1.00  0.00    +0.000 H 
BRANCH   22   21
ATOM    109  H18 UNL A   1      34.527  26.446  24.087  1.00  0.00    +0.000 H 
ATOM    108  H17 UNL A   1      33.071  25.559  24.625  1.00  0.00    +0.000 H 
ATOM     21  C14 UNL A   1      34.026  25.956  24.896  1.00  0.00    +0.000 C 
BRANCH   21   20
ATOM    106  H15 UNL A   1      35.766  24.758  24.653  1.00  0.00    +0.000 H 
ATOM    107  H16 UNL A   1      35.216  24.962  26.328  1.00  0.00    +0.000 H 
ATOM     20  C13 UNL A   1      34.924  24.792  25.313  1.00  0.00    +0.000 C 
BRANCH   20   19
ATOM    105  H14 UNL A   1      34.011  23.071  26.115  1.00  0.00    +0.000 H 
ATOM     19  N3  UNL A   1      34.251  23.508  25.267  1.00  0.00    +0.000 N 
BRANCH   19    2
ATOM      1  O1  UNL A   1      34.558  23.040  23.040  1.00  0.00    +0.000 O 
ATOM      2  C1  UNL A   1      33.936  22.873  24.086  1.00  0.00    +0.000 C 
BRANCH    2    3
ATOM      3  C2  UNL A   1      32.687  21.982  24.135  1.00  0.00    +0.000 C 
ATOM     92  H1  UNL A   1      32.579  21.611  25.134  1.00  0.00    +0.000 H 
ATOM     93  H2  UNL A   1      32.837  21.202  23.419  1.00  0.00    +0.000 H 
BRANCH    3    4
ATOM      4  N1  UNL A   1      31.450  22.659  23.764  1.00  0.00    +0.000 N 
ATOM     94  H3  UNL A   1      30.838  22.142  23.192  1.00  0.00    +0.000 H 
BRANCH    4    5
ATOM      5  C3  UNL A   1      31.022  23.912  24.097  1.00  0.00    +0.000 C 
ATOM      6  O2  UNL A   1      30.804  24.155  25.284  1.00  0.00    +0.000 O 
BRANCH    5    7
ATOM     95  H4  UNL A   1      30.062  24.726  22.364  1.00  0.00    +0.000 H 
ATOM      7  C4  UNL A   1      30.865  24.987  23.021  1.00  0.00    +0.000 C 
ATOM     96  H5  UNL A   1      31.766  25.068  22.449  1.00  0.00    +0.000 H 
BRANCH    7    8
ATOM     97  H6  UNL A   1      31.329  26.703  24.110  1.00  0.00    +0.000 H 
ATOM      8  N2  UNL A   1      30.575  26.249  23.670  1.00  0.00    +0.000 N 
BRANCH    8    9
ATOM      9  C5  UNL A   1      29.369  26.872  23.734  1.00  0.00    +0.000 C 
ATOM     10  O3  UNL A   1      28.388  26.278  24.158  1.00  0.00    +0.000 O 
BRANCH    9   11
ATOM     11  O4  UNL A   1      29.400  28.159  23.319  1.00  0.00    +0.000 O 
BRANCH   11   12
ATOM     98  H7  UNL A   1      27.377  28.460  23.471  1.00  0.00    +0.000 H 
ATOM     99  H8  UNL A   1      27.990  28.155  21.845  1.00  0.00    +0.000 H 
ATOM     12  C6  UNL A   1      28.165  28.654  22.775  1.00  0.00    +0.000 C 
BRANCH   12   13
ATOM    100  H9  UNL A   1      27.794  29.971  20.442  1.00  0.00    +0.000 H 
ATOM    101  H10 UNL A   1      28.019  32.331  19.960  1.00  0.00    +0.000 H 
ATOM    102  H11 UNL A   1      28.527  33.890  21.748  1.00  0.00    +0.000 H 
ATOM    103  H12 UNL A   1      28.820  33.079  24.014  1.00  0.00    +0.000 H 
ATOM    104  H13 UNL A   1      28.659  30.707  24.492  1.00  0.00    +0.000 H 
ATOM     13  C7  UNL A   1      28.222  30.138  22.504  1.00  0.00    +0.000 C 
ATOM     14  C8  UNL A   1      28.028  30.627  21.203  1.00  0.00    +0.000 C 
ATOM     15  C9  UNL A   1      28.148  31.988  20.925  1.00  0.00    +0.000 C 
ATOM     16  C10 UNL A   1      28.441  32.881  21.950  1.00  0.00    +0.000 C 
ATOM     17  C11 UNL A   1      28.616  32.413  23.253  1.00  0.00    +0.000 C 
ATOM     18  C12 UNL A   1      28.516  31.047  23.528  1.00  0.00    +0.000 C 
ENDBRANCH   12   13
ENDBRANCH   11   12
ENDBRANCH    9   11
ENDBRANCH    8    9
ENDBRANCH    7    8
ENDBRANCH    5    7
ENDBRANCH    4    5
ENDBRANCH    3    4
ENDBRANCH    2    3
ENDBRANCH   19    2
ENDBRANCH   20   19
ENDBRANCH   21   20
ENDBRANCH   22   21
ENDBRANCH   23   22
ENDBRANCH   24   23
ENDBRANCH   25   24
ENDBRANCH   26   25
ENDBRANCH   27   26
ENDBRANCH   29   27
ENDBRANCH   33   32
BRANCH   37   38
ATOM     38  C28 UNL A   1      41.985  26.525  27.826  1.00  0.00    +0.000 C 
ATOM     39  C29 UNL A   1      42.899  26.961  26.854  1.00  0.00    +0.000 C 
ATOM     40  F1  UNL A   1      43.438  28.188  26.937  1.00  0.00    +0.000 F 
ATOM     41  C30 UNL A   1      43.239  26.151  25.774  1.00  0.00    +0.000 C 
ATOM     42  F2  UNL A   1      44.080  26.606  24.836  1.00  0.00    +0.000 F 
ATOM     43  C31 UNL A   1      42.699  24.879  25.662  1.00  0.00    +0.000 C 
ATOM     44  F3  UNL A   1      43.034  24.096  24.626  1.00  0.00    +0.000 F 
ATOM     45  C32 UNL A   1      41.808  24.419  26.620  1.00  0.00    +0.000 C 
ATOM     46  F4  UNL A   1      41.297  23.184  26.520  1.00  0.00    +0.000 F 
ATOM     47  C33 UNL A   1      41.444  25.237  27.686  1.00  0.00    +0.000 C 
ATOM     48  F5  UNL A   1      40.571  24.769  28.590  1.00  0.00    +0.000 F 
ENDBRANCH   37   38
BRANCH   54   55
ATOM     65  F10 UNL A   1      43.606  26.176  35.252  1.00  0.00    +0.000 F 
ATOM     55  C39 UNL A   1      44.678  28.088  34.322  1.00  0.00    +0.000 C 
ATOM     56  C40 UNL A   1      45.824  28.894  34.288  1.00  0.00    +0.000 C 
ATOM     57  F6  UNL A   1      45.875  29.960  33.474  1.00  0.00    +0.000 F 
ATOM     58  C41 UNL A   1      46.939  28.585  35.063  1.00  0.00    +0.000 C 
ATOM     59  F7  UNL A   1      48.040  29.345  34.981  1.00  0.00    +0.000 F 
ATOM     60  C42 UNL A   1      46.916  27.487  35.910  1.00  0.00    +0.000 C 
ATOM     61  F8  UNL A   1      47.986  27.197  36.662  1.00  0.00    +0.000 F 
ATOM     62  C43 UNL A   1      45.785  26.686  35.972  1.00  0.00    +0.000 C 
ATOM     63  F9  UNL A   1      45.757  25.632  36.800  1.00  0.00    +0.000 F 
ATOM     64  C44 UNL A   1      44.681  26.975  35.177  1.00  0.00    +0.000 C 
ENDBRANCH   54   55
BRANCH   69   70
ATOM     70  C48 UNL A   1      39.122  32.094  35.596  1.00  0.00    +0.000 C 
ATOM     71  C49 UNL A   1      39.520  33.430  35.748  1.00  0.00    +0.000 C 
ATOM     72  F11 UNL A   1      40.307  34.002  34.825  1.00  0.00    +0.000 F 
ATOM     73  C50 UNL A   1      39.148  34.169  36.868  1.00  0.00    +0.000 C 
ATOM     74  F12 UNL A   1      39.584  35.427  37.012  1.00  0.00    +0.000 F 
ATOM     75  C51 UNL A   1      38.348  33.597  37.845  1.00  0.00    +0.000 C 
ATOM     76  F13 UNL A   1      37.991  34.307  38.923  1.00  0.00    +0.000 F 
ATOM     77  C52 UNL A   1      37.924  32.283  37.707  1.00  0.00    +0.000 C 
ATOM     78  F14 UNL A   1      37.139  31.731  38.641  1.00  0.00    +0.000 F 
ATOM     79  C53 UNL A   1      38.319  31.534  36.599  1.00  0.00    +0.000 C 
ATOM     80  F15 UNL A   1      37.908  30.261  36.500  1.00  0.00    +0.000 F 
ENDBRANCH   69   70
TORSDOF 23
ENDMDL
MODEL 3
REMARK VINA RESULT:     -10.1      1.428      2.498
ROOT
ATOM    129  H38 UNL A   1      51.080  22.297  15.025  1.00  0.00    +0.000 H 
ATOM    130  H39 UNL A   1      50.828  21.188  12.732  1.00  0.00    +0.000 H 
ATOM     33  C24 UNL A   1      53.244  20.047  11.739  1.00  0.00    +0.000 C 
ATOM     34  C25 UNL A   1      53.004  20.658  13.092  1.00  0.00    +0.000 C 
ATOM     35  N5  UNL A   1      53.831  20.796  14.098  1.00  0.00    +0.000 N 
ATOM     36  C26 UNL A   1      53.118  21.467  15.084  1.00  0.00    +0.000 C 
ATOM     37  C27 UNL A   1      53.514  21.798  16.335  1.00  0.00    +0.000 C 
ATOM     49  C34 UNL A   1      54.807  21.488  16.887  1.00  0.00    +0.000 C 
ATOM     50  C35 UNL A   1      55.281  21.729  18.165  1.00  0.00    +0.000 C 
ATOM     51  C36 UNL A   1      56.607  21.290  18.230  1.00  0.00    +0.000 C 
ATOM     52  C37 UNL A   1      56.943  20.730  17.009  1.00  0.00    +0.000 C 
ATOM     53  N6  UNL A   1      55.832  20.864  16.192  1.00  0.00    +0.000 N 
ATOM     54  C38 UNL A   1      58.186  20.118  16.614  1.00  0.00    +0.000 C 
ATOM     66  C45 UNL A   1      58.439  19.593  15.391  1.00  0.00    +0.000 C 
ATOM     67  N7  UNL A   1      57.600  19.506  14.289  1.00  0.00    +0.000 N 
ATOM     68  C46 UNL A   1      58.302  18.926  13.346  1.00  0.00    +0.000 C 
ATOM     69  C47 UNL A   1      57.887  18.547  11.949  1.00  0.00    +0.000 C 
ATOM     81  C54 UNL A   1      56.624  18.787  11.548  1.00  0.00    +0.000 C 
ATOM     82  C55 UNL A   1      56.081  18.477  10.228  1.00  0.00    +0.000 C 
ATOM     83  C56 UNL A   1      54.814  18.914  10.162  1.00  0.00    +0.000 C 
ATOM     84  C57 UNL A   1      54.441  19.501  11.450  1.00  0.00    +0.000 C 
ATOM     85  N8  UNL A   1      55.572  19.364  12.216  1.00  0.00    +0.000 N 
ATOM     86  C58 UNL A   1      59.683  18.610  13.737  1.00  0.00    +0.000 C 
ATOM     87  C59 UNL A   1      59.701  18.998  15.004  1.00  0.00    +0.000 C 
ATOM     88  C60 UNL A   1      51.807  21.749  14.540  1.00  0.00    +0.000 C 
ATOM     89  C61 UNL A   1      51.663  21.211  13.337  1.00  0.00    +0.000 C 
ATOM    121  H30 UNL A   1      54.748  22.161  18.936  1.00  0.00    +0.000 H 
ATOM    122  H31 UNL A   1      57.229  21.369  19.050  1.00  0.00    +0.000 H 
ATOM    123  H32 UNL A   1      55.778  20.561  15.256  1.00  0.00    +0.000 H 
ATOM    124  H33 UNL A   1      56.591  17.999   9.469  1.00  0.00    +0.000 H 
ATOM    125  H34 UNL A   1      54.200  18.846   9.335  1.00  0.00    +0.000 H 
ATOM    126  H35 UNL A   1      55.625  19.653  13.156  1.00  0.00    +0.000 H 
ATOM    127  H36 UNL A   1      60.440  18.196  13.172  1.00  0.00    +0.000 H 
ATOM    128  H37 UNL A   1      60.511  18.891  15.634  1.00  0.00    +0.000 H 
ENDROOT
BRANCH   33   32
ATOM    131  H40 UNL A   1      51.371  18.222  11.160  1.00  0.00    +0.000 H 
ATOM    132  H41 UNL A   1      49.694  18.269   9.412  1.00  0.00    +0.000 H 
ATOM    119  H28 UNL A   1      50.936  22.134   8.313  1.00  0.00    +0.000 H 
ATOM    120  H29 UNL A   1      52.759  21.998   9.911  1.00  0.00    +0.000 H 
ATOM     90  C62 UNL A   1      51.294  19.046  10.543  1.00  0.00    +0.000 C 
ATOM     91  C63 UNL A   1      50.300  19.090   9.568  1.00  0.00    +0.000 C 
ATOM     29  C20 UNL A   1      50.125  20.244   8.801  1.00  0.00    +0.000 C 
ATOM     30  C21 UNL A   1      51.033  21.302   8.915  1.00  0.00    +0.000 C 
ATOM     31  C22 UNL A   1      52.074  21.229   9.846  1.00  0.00    +0.000 C 
ATOM     32  C23 UNL A   1      52.191  20.116  10.693  1.00  0.00    +0.000 C 
BRANCH   29   27
ATOM     27  C19 UNL A   1      48.998  20.370   7.851  1.00  0.00    +0.000 C 
ATOM     28  O5  UNL A   1      48.444  21.456   7.709  1.00  0.00    +0.000 O 
BRANCH   27   26
ATOM     26  N4  UNL A   1      48.557  19.274   7.149  1.00  0.00    +0.000 N 
ATOM    118  H27 UNL A   1      49.149  18.489   7.184  1.00  0.00    +0.000 H 
BRANCH   26   25
ATOM     25  C18 UNL A   1      47.344  19.100   6.363  1.00  0.00    +0.000 C 
ATOM    116  H25 UNL A   1      46.500  19.331   6.981  1.00  0.00    +0.000 H 
ATOM    117  H26 UNL A   1      47.410  19.755   5.520  1.00  0.00    +0.000 H 
BRANCH   25   24
ATOM    114  H23 UNL A   1      48.069  17.429   5.285  1.00  0.00    +0.000 H 
ATOM    115  H24 UNL A   1      47.020  17.059   6.688  1.00  0.00    +0.000 H 
ATOM     24  C17 UNL A   1      47.184  17.679   5.831  1.00  0.00    +0.000 C 
BRANCH   24   23
ATOM    113  H22 UNL A   1      45.158  17.940   5.391  1.00  0.00    +0.000 H 
ATOM     23  C16 UNL A   1      45.985  17.458   4.912  1.00  0.00    +0.000 C 
ATOM    112  H21 UNL A   1      45.858  16.403   4.785  1.00  0.00    +0.000 H 
BRANCH   23   22
ATOM    110  H19 UNL A   1      47.031  18.595   3.464  1.00  0.00    +0.000 H 
ATOM     22  C15 UNL A   1      46.088  18.090   3.523  1.00  0.00    +0.000 C 
ATOM    111  H20 UNL A   1      45.977  17.281   2.833  1.00  0.00    +0.000 H 
BRANCH   22   21
ATOM    109  H18 UNL A   1      45.468  19.844   2.547  1.00  0.00    +0.000 H 
ATOM    108  H17 UNL A   1      44.579  19.488   4.057  1.00  0.00    +0.000 H 
ATOM     21  C14 UNL A   1      44.994  19.099   3.151  1.00  0.00    +0.000 C 
BRANCH   21   20
ATOM    106  H15 UNL A   1      43.976  18.856   1.300  1.00  0.00    +0.000 H 
ATOM    107  H16 UNL A   1      43.890  17.465   2.399  1.00  0.00    +0.000 H 
ATOM     20  C13 UNL A   1      43.850  18.531   2.312  1.00  0.00    +0.000 C 
BRANCH   20   19
ATOM    105  H14 UNL A   1      42.373  18.995   3.740  1.00  0.00    +0.000 H 
ATOM     19  N3  UNL A   1      42.541  18.952   2.771  1.00  0.00    +0.000 N 
BRANCH   19    2
ATOM      1  O1  UNL A   1      40.363  18.914   2.046  1.00  0.00    +0.000 O 
ATOM      2  C1  UNL A   1      41.523  19.294   1.909  1.00  0.00    +0.000 C 
BRANCH    2    3
ATOM      3  C2  UNL A   1      41.946  20.137   0.698  1.00  0.00    +0.000 C 
ATOM     92  H1  UNL A   1      42.364  19.481  -0.038  1.00  0.00    +0.000 H 
ATOM     93  H2  UNL A   1      42.649  20.859   1.057  1.00  0.00    +0.000 H 
BRANCH    3    4
ATOM      4  N1  UNL A   1      40.857  20.885   0.078  1.00  0.00    +0.000 N 
ATOM     94  H3  UNL A   1      40.663  21.763   0.479  1.00  0.00    +0.000 H 
BRANCH    4    5
ATOM      5  C3  UNL A   1      40.070  20.537  -0.982  1.00  0.00    +0.000 C 
ATOM      6  O2  UNL A   1      40.195  19.407  -1.453  1.00  0.00    +0.000 O 
BRANCH    5    7
ATOM     95  H4  UNL A   1      38.371  21.010  -2.198  1.00  0.00    +0.000 H 
ATOM      7  C4  UNL A   1      39.033  21.519  -1.529  1.00  0.00    +0.000 C 
ATOM     96  H5  UNL A   1      39.521  22.309  -2.061  1.00  0.00    +0.000 H 
BRANCH    7    8
ATOM     97  H6  UNL A   1      38.802  22.470   0.311  1.00  0.00    +0.000 H 
ATOM      8  N2  UNL A   1      38.281  22.061  -0.417  1.00  0.00    +0.000 N 
BRANCH    8    9
ATOM      9  C5  UNL A   1      36.929  22.065  -0.273  1.00  0.00    +0.000 C 
ATOM     10  O3  UNL A   1      36.254  22.934  -0.805  1.00  0.00    +0.000 O 
BRANCH    9   11
ATOM     11  O4  UNL A   1      36.458  21.033   0.464  1.00  0.00    +0.000 O 
BRANCH   11   12
ATOM     98  H7  UNL A   1      38.284  21.072   1.396  1.00  0.00    +0.000 H 
ATOM     99  H8  UNL A   1      37.586  19.472   1.137  1.00  0.00    +0.000 H 
ATOM     12  C6  UNL A   1      37.390  20.487   1.413  1.00  0.00    +0.000 C 
BRANCH   12   13
ATOM    100  H9  UNL A   1      36.641  18.389   2.947  1.00  0.00    +0.000 H 
ATOM    101  H10 UNL A   1      35.616  18.379   5.138  1.00  0.00    +0.000 H 
ATOM    102  H11 UNL A   1      35.254  20.468   6.316  1.00  0.00    +0.000 H 
ATOM    103  H12 UNL A   1      35.908  22.565   5.290  1.00  0.00    +0.000 H 
ATOM    104  H13 UNL A   1      36.877  22.586   3.067  1.00  0.00    +0.000 H 
ATOM     13  C7  UNL A   1      36.831  20.489   2.815  1.00  0.00    +0.000 C 
ATOM     14  C8  UNL A   1      36.472  19.281   3.435  1.00  0.00    +0.000 C 
ATOM     15  C9  UNL A   1      35.891  19.273   4.702  1.00  0.00    +0.000 C 
ATOM     16  C10 UNL A   1      35.682  20.471   5.377  1.00  0.00    +0.000 C 
ATOM     17  C11 UNL A   1      36.052  21.678   4.783  1.00  0.00    +0.000 C 
ATOM     18  C12 UNL A   1      36.617  21.689   3.505  1.00  0.00    +0.000 C 
ENDBRANCH   12   13
ENDBRANCH   11   12
ENDBRANCH    9   11
ENDBRANCH    8    9
ENDBRANCH    7    8
ENDBRANCH    5    7
ENDBRANCH    4    5
ENDBRANCH    3    4
ENDBRANCH    2    3
ENDBRANCH   19    2
ENDBRANCH   20   19
ENDBRANCH   21   20
ENDBRANCH   22   21
ENDBRANCH   23   22
ENDBRANCH   24   23
ENDBRANCH   25   24
ENDBRANCH   26   25
ENDBRANCH   27   26
ENDBRANCH   29   27
ENDBRANCH   33   32
BRANCH   37   38
ATOM     38  C28 UNL A   1      52.535  22.533  17.204  1.00  0.00    +0.000 C 
ATOM     39  C29 UNL A   1      52.374  23.924  17.115  1.00  0.00    +0.000 C 
ATOM     40  F1  UNL A   1      53.142  24.641  16.279  1.00  0.00    +0.000 F 
ATOM     41  C30 UNL A   1      51.446  24.591  17.910  1.00  0.00    +0.000 C 
ATOM     42  F2  UNL A   1      51.341  25.925  17.838  1.00  0.00    +0.000 F 
ATOM     43  C31 UNL A   1      50.638  23.879  18.782  1.00  0.00    +0.000 C 
ATOM     44  F3  UNL A   1      49.737  24.521  19.540  1.00  0.00    +0.000 F 
ATOM     45  C32 UNL A   1      50.766  22.500  18.873  1.00  0.00    +0.000 C 
ATOM     46  F4  UNL A   1      49.976  21.809  19.706  1.00  0.00    +0.000 F 
ATOM     47  C33 UNL A   1      51.713  21.834  18.101  1.00  0.00    +0.000 C 
ATOM     48  F5  UNL A   1      51.822  20.502  18.221  1.00  0.00    +0.000 F 
ENDBRANCH   37   38
BRANCH   54   55
ATOM     65  F10 UNL A   1      59.795  22.339  17.352  1.00  0.00    +0.000 F 
ATOM     55  C39 UNL A   1      59.277  20.033  17.641  1.00  0.00    +0.000 C 
ATOM     56  C40 UNL A   1      59.590  18.828  18.287  1.00  0.00    +0.000 C 
ATOM     57  F6  UNL A   1      58.870  17.723  18.039  1.00  0.00    +0.000 F 
ATOM     58  C41 UNL A   1      60.623  18.764  19.219  1.00  0.00    +0.000 C 
ATOM     59  F7  UNL A   1      60.877  17.613  19.856  1.00  0.00    +0.000 F 
ATOM     60  C42 UNL A   1      61.381  19.892  19.497  1.00  0.00    +0.000 C 
ATOM     61  F8  UNL A   1      62.380  19.826  20.388  1.00  0.00    +0.000 F 
ATOM     62  C43 UNL A   1      61.099  21.090  18.858  1.00  0.00    +0.000 C 
ATOM     63  F9  UNL A   1      61.839  22.177  19.117  1.00  0.00    +0.000 F 
ATOM     64  C44 UNL A   1      60.049  21.164  17.948  1.00  0.00    +0.000 C 
ENDBRANCH   54   55
BRANCH   69   70
ATOM     70  C48 UNL A   1      58.850  17.891  11.026  1.00  0.00    +0.000 C 
ATOM     71  C49 UNL A   1      58.994  16.497  11.011  1.00  0.00    +0.000 C 
ATOM     72  F11 UNL A   1      58.261  15.740  11.841  1.00  0.00    +0.000 F 
ATOM     73  C50 UNL A   1      59.921  15.877  10.177  1.00  0.00    +0.000 C 
ATOM     74  F12 UNL A   1      60.073  14.547  10.219  1.00  0.00    +0.000 F 
ATOM     75  C51 UNL A   1      60.703  16.637   9.320  1.00  0.00    +0.000 C 
ATOM     76  F13 UNL A   1      61.595  16.041   8.518  1.00  0.00    +0.000 F 
ATOM     77  C52 UNL A   1      60.563  18.016   9.301  1.00  0.00    +0.000 C 
ATOM     78  F14 UNL A   1      61.306  18.753   8.465  1.00  0.00    +0.000 F 
ATOM     79  C53 UNL A   1      59.655  18.639  10.156  1.00  0.00    +0.000 C 
ATOM     80  F15 UNL A   1      59.553  19.976  10.128  1.00  0.00    +0.000 F 
ENDBRANCH   69   70
TORSDOF 23
ENDMDL
MODEL 4
REMARK VINA RESULT:     -10.1     40.684     46.914
ROOT
ATOM    129  H38 UNL A   1      24.530  40.122  48.628  1.00  0.00    +0.000 H 
ATOM    130  H39 UNL A   1      23.972  37.905  47.474  1.00  0.00    +0.000 H 
ATOM     33  C24 UNL A   1      26.071  36.914  45.821  1.00  0.00    +0.000 C 
ATOM     34  C25 UNL A   1      26.106  38.109  46.733  1.00  0.00    +0.000 C 
ATOM     35  N5  UNL A   1      27.088  38.942  46.971  1.00  0.00    +0.000 N 
ATOM     36  C26 UNL A   1      26.576  39.889  47.850  1.00  0.00    +0.000 C 
ATOM     37  C27 UNL A   1      27.214  40.928  48.438  1.00  0.00    +0.000 C 
ATOM     49  C34 UNL A   1      28.606  41.240  48.247  1.00  0.00    +0.000 C 
ATOM     50  C35 UNL A   1      29.358  42.236  48.844  1.00  0.00    +0.000 C 
ATOM     51  C36 UNL A   1      30.653  42.181  48.321  1.00  0.00    +0.000 C 
ATOM     52  C37 UNL A   1      30.722  41.119  47.435  1.00  0.00    +0.000 C 
ATOM     53  N6  UNL A   1      29.457  40.554  47.394  1.00  0.00    +0.000 N 
ATOM     54  C38 UNL A   1      31.857  40.654  46.680  1.00  0.00    +0.000 C 
ATOM     66  C45 UNL A   1      31.842  39.603  45.825  1.00  0.00    +0.000 C 
ATOM     67  N7  UNL A   1      30.791  38.755  45.503  1.00  0.00    +0.000 N 
ATOM     68  C46 UNL A   1      31.269  37.904  44.628  1.00  0.00    +0.000 C 
ATOM     69  C47 UNL A   1      30.584  36.742  43.961  1.00  0.00    +0.000 C 
ATOM     81  C54 UNL A   1      29.304  36.462  44.273  1.00  0.00    +0.000 C 
ATOM     82  C55 UNL A   1      28.512  35.373  43.708  1.00  0.00    +0.000 C 
ATOM     83  C56 UNL A   1      27.265  35.437  44.199  1.00  0.00    +0.000 C 
ATOM     84  C57 UNL A   1      27.178  36.550  45.145  1.00  0.00    +0.000 C 
ATOM     85  N8  UNL A   1      28.441  37.090  45.139  1.00  0.00    +0.000 N 
ATOM     86  C58 UNL A   1      32.676  38.140  44.270  1.00  0.00    +0.000 C 
ATOM     87  C59 UNL A   1      32.987  39.158  45.059  1.00  0.00    +0.000 C 
ATOM     88  C60 UNL A   1      25.184  39.555  48.068  1.00  0.00    +0.000 C 
ATOM     89  C61 UNL A   1      24.863  38.425  47.453  1.00  0.00    +0.000 C 
ATOM    121  H30 UNL A   1      29.019  42.906  49.553  1.00  0.00    +0.000 H 
ATOM    122  H31 UNL A   1      31.427  42.823  48.556  1.00  0.00    +0.000 H 
ATOM    123  H32 UNL A   1      29.202  39.781  46.840  1.00  0.00    +0.000 H 
ATOM    124  H33 UNL A   1      28.858  34.668  43.038  1.00  0.00    +0.000 H 
ATOM    125  H34 UNL A   1      26.491  34.803  43.950  1.00  0.00    +0.000 H 
ATOM    126  H35 UNL A   1      28.704  37.854  45.701  1.00  0.00    +0.000 H 
ATOM    127  H36 UNL A   1      33.264  37.643  43.585  1.00  0.00    +0.000 H 
ATOM    128  H37 UNL A   1      33.927  39.582  45.118  1.00  0.00    +0.000 H 
ENDROOT
BRANCH   33   32
ATOM    131  H40 UNL A   1      25.149  34.775  47.143  1.00  0.00    +0.000 H 
ATOM    132  H41 UNL A   1      23.118  33.511  46.757  1.00  0.00    +0.000 H 
ATOM    119  H28 UNL A   1      21.997  36.218  43.740  1.00  0.00    +0.000 H 
ATOM    120  H29 UNL A   1      24.130  37.352  43.970  1.00  0.00    +0.000 H 
ATOM     90  C62 UNL A   1      24.490  35.072  46.406  1.00  0.00    +0.000 C 
ATOM     91  C63 UNL A   1      23.302  34.370  46.216  1.00  0.00    +0.000 C 
ATOM     29  C20 UNL A   1      22.361  34.829  45.291  1.00  0.00    +0.000 C 
ATOM     30  C21 UNL A   1      22.669  35.910  44.459  1.00  0.00    +0.000 C 
ATOM     31  C22 UNL A   1      23.892  36.571  44.602  1.00  0.00    +0.000 C 
ATOM     32  C23 UNL A   1      24.798  36.181  45.602  1.00  0.00    +0.000 C 
BRANCH   29   27
ATOM     27  C19 UNL A   1      21.036  34.182  45.160  1.00  0.00    +0.000 C 
ATOM     28  O5  UNL A   1      20.347  34.410  44.170  1.00  0.00    +0.000 O 
BRANCH   27   26
ATOM     26  N4  UNL A   1      20.569  33.352  46.150  1.00  0.00    +0.000 N 
ATOM    118  H27 UNL A   1      19.863  33.735  46.718  1.00  0.00    +0.000 H 
BRANCH   26   25
ATOM     25  C18 UNL A   1      20.961  31.991  46.483  1.00  0.00    +0.000 C 
ATOM    116  H25 UNL A   1      21.745  32.029  47.212  1.00  0.00    +0.000 H 
ATOM    117  H26 UNL A   1      20.094  31.489  46.859  1.00  0.00    +0.000 H 
BRANCH   25   24
ATOM    114  H23 UNL A   1      21.386  31.842  44.415  1.00  0.00    +0.000 H 
ATOM    115  H24 UNL A   1      22.461  30.910  45.503  1.00  0.00    +0.000 H 
ATOM     24  C17 UNL A   1      21.458  31.206  45.273  1.00  0.00    +0.000 C 
BRANCH   24   23
ATOM    113  H22 UNL A   1      20.746  29.334  45.866  1.00  0.00    +0.000 H 
ATOM     23  C16 UNL A   1      20.695  29.919  44.972  1.00  0.00    +0.000 C 
ATOM    112  H21 UNL A   1      21.155  29.455  44.123  1.00  0.00    +0.000 H 
BRANCH   23   22
ATOM    110  H19 UNL A   1      18.856  29.171  44.235  1.00  0.00    +0.000 H 
ATOM     22  C15 UNL A   1      19.206  30.086  44.667  1.00  0.00    +0.000 C 
ATOM    111  H20 UNL A   1      18.750  30.334  45.602  1.00  0.00    +0.000 H 
BRANCH   22   21
ATOM    109  H18 UNL A   1      18.449  30.762  42.828  1.00  0.00    +0.000 H 
ATOM    108  H17 UNL A   1      19.706  31.816  43.540  1.00  0.00    +0.000 H 
ATOM     21  C14 UNL A   1      18.830  31.227  43.713  1.00  0.00    +0.000 C 
BRANCH   21   20
ATOM    106  H15 UNL A   1      17.977  32.477  45.208  1.00  0.00    +0.000 H 
ATOM    107  H16 UNL A   1      17.660  32.975  43.534  1.00  0.00    +0.000 H 
ATOM     20  C13 UNL A   1      17.726  32.155  44.219  1.00  0.00    +0.000 C 
BRANCH   20   19
ATOM    105  H14 UNL A   1      16.051  31.262  45.132  1.00  0.00    +0.000 H 
ATOM     19  N3  UNL A   1      16.422  31.521  44.258  1.00  0.00    +0.000 N 
BRANCH   19    2
ATOM      1  O1  UNL A   1      15.149  32.139  42.450  1.00  0.00    +0.000 O 
ATOM      2  C1  UNL A   1      15.684  31.263  43.125  1.00  0.00    +0.000 C 
BRANCH    2    3
ATOM      3  C2  UNL A   1      15.502  29.776  42.787  1.00  0.00    +0.000 C 
ATOM     92  H1  UNL A   1      16.126  29.545  41.947  1.00  0.00    +0.000 H 
ATOM     93  H2  UNL A   1      14.462  29.633  42.582  1.00  0.00    +0.000 H 
BRANCH    3    4
ATOM      4  N1  UNL A   1      15.844  28.867  43.875  1.00  0.00    +0.000 N 
ATOM     94  H3  UNL A   1      15.608  29.178  44.778  1.00  0.00    +0.000 H 
BRANCH    4    5
ATOM      5  C3  UNL A   1      16.447  27.643  43.816  1.00  0.00    +0.000 C 
ATOM      6  O2  UNL A   1      17.567  27.571  43.308  1.00  0.00    +0.000 O 
BRANCH    5    7
ATOM     95  H4  UNL A   1      15.659  26.528  45.466  1.00  0.00    +0.000 H 
ATOM      7  C4  UNL A   1      15.758  26.413  44.406  1.00  0.00    +0.000 C 
ATOM     96  H5  UNL A   1      16.338  25.536  44.208  1.00  0.00    +0.000 H 
BRANCH    7    8
ATOM     97  H6  UNL A   1      13.695  26.690  44.296  1.00  0.00    +0.000 H 
ATOM      8  N2  UNL A   1      14.447  26.287  43.805  1.00  0.00    +0.000 N 
BRANCH    8    9
ATOM      9  C5  UNL A   1      14.145  25.671  42.631  1.00  0.00    +0.000 C 
ATOM     10  O3  UNL A   1      14.364  26.230  41.566  1.00  0.00    +0.000 O 
BRANCH    9   11
ATOM     11  O4  UNL A   1      13.631  24.430  42.785  1.00  0.00    +0.000 O 
BRANCH   11   12
ATOM     98  H7  UNL A   1      14.717  22.769  43.302  1.00  0.00    +0.000 H 
ATOM     99  H8  UNL A   1      15.415  23.783  42.037  1.00  0.00    +0.000 H 
ATOM     12  C6  UNL A   1      14.517  23.355  42.430  1.00  0.00    +0.000 C 
BRANCH   12   13
ATOM    100  H9  UNL A   1      13.130  21.052  42.728  1.00  0.00    +0.000 H 
ATOM    101  H10 UNL A   1      12.291  19.537  41.039  1.00  0.00    +0.000 H 
ATOM    102  H11 UNL A   1      12.541  20.083  38.689  1.00  0.00    +0.000 H 
ATOM    103  H12 UNL A   1      13.645  22.141  38.035  1.00  0.00    +0.000 H 
ATOM    104  H13 UNL A   1      14.545  23.632  39.723  1.00  0.00    +0.000 H 
ATOM     13  C7  UNL A   1      13.922  22.462  41.368  1.00  0.00    +0.000 C 
ATOM     14  C8  UNL A   1      13.256  21.280  41.730  1.00  0.00    +0.000 C 
ATOM     15  C9  UNL A   1      12.763  20.411  40.758  1.00  0.00    +0.000 C 
ATOM     16  C10 UNL A   1      12.908  20.723  39.411  1.00  0.00    +0.000 C 
ATOM     17  C11 UNL A   1      13.549  21.905  39.035  1.00  0.00    +0.000 C 
ATOM     18  C12 UNL A   1      14.061  22.767  40.008  1.00  0.00    +0.000 C 
ENDBRANCH   12   13
ENDBRANCH   11   12
ENDBRANCH    9   11
ENDBRANCH    8    9
ENDBRANCH    7    8
ENDBRANCH    5    7
ENDBRANCH    4    5
ENDBRANCH    3    4
ENDBRANCH    2    3
ENDBRANCH   19    2
ENDBRANCH   20   19
ENDBRANCH   21   20
ENDBRANCH   22   21
ENDBRANCH   23   22
ENDBRANCH   24   23
ENDBRANCH   25   24
ENDBRANCH   26   25
ENDBRANCH   27   26
ENDBRANCH   29   27
ENDBRANCH   33   32
BRANCH   37   38
ATOM     38  C28 UNL A   1      26.414  41.808  49.353  1.00  0.00    +0.000 C 
ATOM     39  C29 UNL A   1      26.345  41.565  50.733  1.00  0.00    +0.000 C 
ATOM     40  F1  UNL A   1      26.958  40.493  51.261  1.00  0.00    +0.000 F 
ATOM     41  C30 UNL A   1      25.618  42.403  51.575  1.00  0.00    +0.000 C 
ATOM     42  F2  UNL A   1      25.532  42.125  52.882  1.00  0.00    +0.000 F 
ATOM     43  C31 UNL A   1      24.975  43.518  51.059  1.00  0.00    +0.000 C 
ATOM     44  F3  UNL A   1      24.283  44.329  51.872  1.00  0.00    +0.000 F 
ATOM     45  C32 UNL A   1      25.044  43.789  49.701  1.00  0.00    +0.000 C 
ATOM     46  F4  UNL A   1      24.434  44.874  49.204  1.00  0.00    +0.000 F 
ATOM     47  C33 UNL A   1      25.746  42.937  48.853  1.00  0.00    +0.000 C 
ATOM     48  F5  UNL A   1      25.784  43.219  47.542  1.00  0.00    +0.000 F 
ENDBRANCH   37   38
BRANCH   54   55
ATOM     65  F10 UNL A   1      33.934  39.670  48.347  1.00  0.00    +0.000 F 
ATOM     55  C39 UNL A   1      33.162  41.371  46.870  1.00  0.00    +0.000 C 
ATOM     56  C40 UNL A   1      33.427  42.599  46.249  1.00  0.00    +0.000 C 
ATOM     57  F6  UNL A   1      32.527  43.140  45.412  1.00  0.00    +0.000 F 
ATOM     58  C41 UNL A   1      34.634  43.261  46.458  1.00  0.00    +0.000 C 
ATOM     59  F7  UNL A   1      34.884  44.412  45.820  1.00  0.00    +0.000 F 
ATOM     60  C42 UNL A   1      35.583  42.723  47.315  1.00  0.00    +0.000 C 
ATOM     61  F8  UNL A   1      36.741  43.366  47.521  1.00  0.00    +0.000 F 
ATOM     62  C43 UNL A   1      35.335  41.517  47.952  1.00  0.00    +0.000 C 
ATOM     63  F9  UNL A   1      36.246  41.004  48.791  1.00  0.00    +0.000 F 
ATOM     64  C44 UNL A   1      34.141  40.840  47.723  1.00  0.00    +0.000 C 
ENDBRANCH   54   55
BRANCH   69   70
ATOM     70  C48 UNL A   1      31.315  35.892  42.984  1.00  0.00    +0.000 C 
ATOM     71  C49 UNL A   1      31.396  36.260  41.633  1.00  0.00    +0.000 C 
ATOM     72  F11 UNL A   1      30.805  37.387  41.210  1.00  0.00    +0.000 F 
ATOM     73  C50 UNL A   1      32.046  35.450  40.704  1.00  0.00    +0.000 C 
ATOM     74  F12 UNL A   1      32.065  35.800  39.412  1.00  0.00    +0.000 F 
ATOM     75  C51 UNL A   1      32.652  34.271  41.112  1.00  0.00    +0.000 C 
ATOM     76  F13 UNL A   1      33.276  33.492  40.219  1.00  0.00    +0.000 F 
ATOM     77  C52 UNL A   1      32.603  33.898  42.447  1.00  0.00    +0.000 C 
ATOM     78  F14 UNL A   1      33.199  32.767  42.848  1.00  0.00    +0.000 F 
ATOM     79  C53 UNL A   1      31.929  34.694  43.372  1.00  0.00    +0.000 C 
ATOM     80  F15 UNL A   1      31.883  34.299  44.653  1.00  0.00    +0.000 F 
ENDBRANCH   69   70
TORSDOF 23
ENDMDL
MODEL 5
REMARK VINA RESULT:     -10.0      0.449      2.042
ROOT
ATOM    129  H38 UNL A   1      51.002  22.655  15.004  1.00  0.00    +0.000 H 
ATOM    130  H39 UNL A   1      50.587  21.582  12.717  1.00  0.00    +0.000 H 
ATOM     33  C24 UNL A   1      52.897  20.346  11.595  1.00  0.00    +0.000 C 
ATOM     34  C25 UNL A   1      52.752  20.953  12.963  1.00  0.00    +0.000 C 
ATOM     35  N5  UNL A   1      53.634  21.045  13.927  1.00  0.00    +0.000 N 
ATOM     36  C26 UNL A   1      53.002  21.737  14.953  1.00  0.00    +0.000 C 
ATOM     37  C27 UNL A   1      53.475  22.037  16.185  1.00  0.00    +0.000 C 
ATOM     49  C34 UNL A   1      54.779  21.664  16.668  1.00  0.00    +0.000 C 
ATOM     50  C35 UNL A   1      55.326  21.871  17.922  1.00  0.00    +0.000 C 
ATOM     51  C36 UNL A   1      56.633  21.374  17.917  1.00  0.00    +0.000 C 
ATOM     52  C37 UNL A   1      56.882  20.812  16.676  1.00  0.00    +0.000 C 
ATOM     53  N6  UNL A   1      55.738  21.003  15.917  1.00  0.00    +0.000 N 
ATOM     54  C38 UNL A   1      58.075  20.151  16.214  1.00  0.00    +0.000 C 
ATOM     66  C45 UNL A   1      58.243  19.628  14.975  1.00  0.00    +0.000 C 
ATOM     67  N7  UNL A   1      57.347  19.589  13.917  1.00  0.00    +0.000 N 
ATOM     68  C46 UNL A   1      57.974  18.988  12.934  1.00  0.00    +0.000 C 
ATOM     69  C47 UNL A   1      57.474  18.642  11.558  1.00  0.00    +0.000 C 
ATOM     81  C54 UNL A   1      56.204  18.942  11.223  1.00  0.00    +0.000 C 
ATOM     82  C55 UNL A   1      55.583  18.669   9.930  1.00  0.00    +0.000 C 
ATOM     83  C56 UNL A   1      54.334  19.162   9.931  1.00  0.00    +0.000 C 
ATOM     84  C57 UNL A   1      54.052  19.751  11.241  1.00  0.00    +0.000 C 
ATOM     85  N8  UNL A   1      55.213  19.558  11.948  1.00  0.00    +0.000 N 
ATOM     86  C58 UNL A   1      59.358  18.608  13.252  1.00  0.00    +0.000 C 
ATOM     87  C59 UNL A   1      59.456  18.982  14.520  1.00  0.00    +0.000 C 
ATOM     88  C60 UNL A   1      51.678  22.081  14.478  1.00  0.00    +0.000 C 
ATOM     89  C61 UNL A   1      51.451  21.562  13.280  1.00  0.00    +0.000 C 
ATOM    121  H30 UNL A   1      54.852  22.318  18.723  1.00  0.00    +0.000 H 
ATOM    122  H31 UNL A   1      57.298  21.417  18.705  1.00  0.00    +0.000 H 
ATOM    123  H32 UNL A   1      55.625  20.713  14.983  1.00  0.00    +0.000 H 
ATOM    124  H33 UNL A   1      56.032  18.177   9.142  1.00  0.00    +0.000 H 
ATOM    125  H34 UNL A   1      53.677  19.129   9.136  1.00  0.00    +0.000 H 
ATOM    126  H35 UNL A   1      55.326  19.834  12.886  1.00  0.00    +0.000 H 
ATOM    127  H36 UNL A   1      60.067  18.167  12.647  1.00  0.00    +0.000 H 
ATOM    128  H37 UNL A   1      60.292  18.833  15.108  1.00  0.00    +0.000 H 
ENDROOT
BRANCH   33   32
ATOM    131  H40 UNL A   1      52.441  22.352   9.879  1.00  0.00    +0.000 H 
ATOM    132  H41 UNL A   1      50.613  22.623   8.311  1.00  0.00    +0.000 H 
ATOM    119  H28 UNL A   1      49.131  18.833   9.371  1.00  0.00    +0.000 H 
ATOM    120  H29 UNL A   1      50.827  18.657  11.099  1.00  0.00    +0.000 H 
ATOM     90  C62 UNL A   1      51.727  21.611   9.787  1.00  0.00    +0.000 C 
ATOM     91  C63 UNL A   1      50.702  21.750   8.853  1.00  0.00    +0.000 C 
ATOM     29  C20 UNL A   1      49.796  20.706   8.653  1.00  0.00    +0.000 C 
ATOM     30  C21 UNL A   1      49.831  19.581   9.484  1.00  0.00    +0.000 C 
ATOM     31  C22 UNL A   1      50.818  19.474  10.469  1.00  0.00    +0.000 C 
ATOM     32  C23 UNL A   1      51.796  20.472  10.604  1.00  0.00    +0.000 C 
BRANCH   29   27
ATOM     27  C19 UNL A   1      48.779  20.769   7.579  1.00  0.00    +0.000 C 
ATOM     28  O5  UNL A   1      48.607  21.820   6.969  1.00  0.00    +0.000 O 
BRANCH   27   26
ATOM     26  N4  UNL A   1      48.015  19.667   7.283  1.00  0.00    +0.000 N 
ATOM    118  H27 UNL A   1      47.203  19.561   7.830  1.00  0.00    +0.000 H 
BRANCH   26   25
ATOM     25  C18 UNL A   1      48.225  18.632   6.281  1.00  0.00    +0.000 C 
ATOM    116  H25 UNL A   1      48.425  19.102   5.341  1.00  0.00    +0.000 H 
ATOM    117  H26 UNL A   1      49.047  18.030   6.608  1.00  0.00    +0.000 H 
BRANCH   25   24
ATOM    114  H23 UNL A   1      46.573  17.579   7.083  1.00  0.00    +0.000 H 
ATOM    115  H24 UNL A   1      46.373  18.193   5.414  1.00  0.00    +0.000 H 
ATOM     24  C17 UNL A   1      47.018  17.713   6.119  1.00  0.00    +0.000 C 
BRANCH   24   23
ATOM    113  H22 UNL A   1      46.829  15.633   6.185  1.00  0.00    +0.000 H 
ATOM     23  C16 UNL A   1      47.322  16.332   5.543  1.00  0.00    +0.000 C 
ATOM    112  H21 UNL A   1      48.387  16.216   5.512  1.00  0.00    +0.000 H 
BRANCH   23   22
ATOM    110  H19 UNL A   1      47.457  15.399   3.647  1.00  0.00    +0.000 H 
ATOM     22  C15 UNL A   1      46.778  16.065   4.139  1.00  0.00    +0.000 C 
ATOM    111  H20 UNL A   1      45.797  15.665   4.285  1.00  0.00    +0.000 H 
BRANCH   22   21
ATOM    109  H18 UNL A   1      46.929  17.000   2.264  1.00  0.00    +0.000 H 
ATOM    108  H17 UNL A   1      47.153  18.100   3.656  1.00  0.00    +0.000 H 
ATOM     21  C14 UNL A   1      46.592  17.291   3.237  1.00  0.00    +0.000 C 
BRANCH   21   20
ATOM    106  H15 UNL A   1      44.596  16.983   2.569  1.00  0.00    +0.000 H 
ATOM    107  H16 UNL A   1      44.758  17.955   4.045  1.00  0.00    +0.000 H 
ATOM     20  C13 UNL A   1      45.145  17.755   3.068  1.00  0.00    +0.000 C 
BRANCH   20   19
ATOM    105  H14 UNL A   1      45.818  19.317   1.825  1.00  0.00    +0.000 H 
ATOM     19  N3  UNL A   1      45.024  18.977   2.296  1.00  0.00    +0.000 N 
BRANCH   19    2
ATOM      1  O1  UNL A   1      43.639  20.541   1.344  1.00  0.00    +0.000 O 
ATOM      2  C1  UNL A   1      43.846  19.682   2.198  1.00  0.00    +0.000 C 
BRANCH    2    3
ATOM      3  C2  UNL A   1      42.808  19.379   3.288  1.00  0.00    +0.000 C 
ATOM     92  H1  UNL A   1      42.445  20.310   3.673  1.00  0.00    +0.000 H 
ATOM     93  H2  UNL A   1      43.304  18.789   4.029  1.00  0.00    +0.000 H 
BRANCH    3    4
ATOM      4  N1  UNL A   1      41.665  18.598   2.828  1.00  0.00    +0.000 N 
ATOM     94  H3  UNL A   1      41.873  17.694   2.501  1.00  0.00    +0.000 H 
BRANCH    4    5
ATOM      5  C3  UNL A   1      40.345  18.948   2.787  1.00  0.00    +0.000 C 
ATOM      6  O2  UNL A   1      39.799  19.280   3.839  1.00  0.00    +0.000 O 
BRANCH    5    7
ATOM     95  H4  UNL A   1      38.749  19.620   1.526  1.00  0.00    +0.000 H 
ATOM      7  C4  UNL A   1      39.592  18.964   1.457  1.00  0.00    +0.000 C 
ATOM     96  H5  UNL A   1      39.243  17.980   1.220  1.00  0.00    +0.000 H 
BRANCH    7    8
ATOM     97  H6  UNL A   1      41.426  19.129   0.481  1.00  0.00    +0.000 H 
ATOM      8  N2  UNL A   1      40.492  19.433   0.424  1.00  0.00    +0.000 N 
BRANCH    8    9
ATOM      9  C5  UNL A   1      40.181  20.250  -0.617  1.00  0.00    +0.000 C 
ATOM     10  O3  UNL A   1      40.136  19.808  -1.756  1.00  0.00    +0.000 O 
BRANCH    9   11
ATOM     11  O4  UNL A   1      39.920  21.524  -0.249  1.00  0.00    +0.000 O 
BRANCH   11   12
ATOM     98  H7  UNL A   1      39.202  21.814  -2.148  1.00  0.00    +0.000 H 
ATOM     99  H8  UNL A   1      39.533  23.277  -1.218  1.00  0.00    +0.000 H 
ATOM     12  C6  UNL A   1      39.140  22.283  -1.188  1.00  0.00    +0.000 C 
BRANCH   12   13
ATOM    100  H9  UNL A   1      37.192  23.892  -2.154  1.00  0.00    +0.000 H 
ATOM    101  H10 UNL A   1      34.901  24.139  -1.417  1.00  0.00    +0.000 H 
ATOM    102  H11 UNL A   1      34.037  22.723   0.352  1.00  0.00    +0.000 H 
ATOM    103  H12 UNL A   1      35.476  21.069   1.390  1.00  0.00    +0.000 H 
ATOM    104  H13 UNL A   1      37.791  20.861   0.700  1.00  0.00    +0.000 H 
ATOM     13  C7  UNL A   1      37.689  22.367  -0.779  1.00  0.00    +0.000 C 
ATOM     14  C8  UNL A   1      36.836  23.300  -1.388  1.00  0.00    +0.000 C 
ATOM     15  C9  UNL A   1      35.512  23.437  -0.972  1.00  0.00    +0.000 C 
ATOM     16  C10 UNL A   1      35.018  22.626   0.044  1.00  0.00    +0.000 C 
ATOM     17  C11 UNL A   1      35.848  21.679   0.645  1.00  0.00    +0.000 C 
ATOM     18  C12 UNL A   1      37.179  21.555   0.242  1.00  0.00    +0.000 C 
ENDBRANCH   12   13
ENDBRANCH   11   12
ENDBRANCH    9   11
ENDBRANCH    8    9
ENDBRANCH    7    8
ENDBRANCH    5    7
ENDBRANCH    4    5
ENDBRANCH    3    4
ENDBRANCH    2    3
ENDBRANCH   19    2
ENDBRANCH   20   19
ENDBRANCH   21   20
ENDBRANCH   22   21
ENDBRANCH   23   22
ENDBRANCH   24   23
ENDBRANCH   25   24
ENDBRANCH   26   25
ENDBRANCH   27   26
ENDBRANCH   29   27
ENDBRANCH   33   32
BRANCH   37   38
ATOM     38  C28 UNL A   1      52.574  22.805  17.108  1.00  0.00    +0.000 C 
ATOM     39  C29 UNL A   1      52.545  24.208  17.107  1.00  0.00    +0.000 C 
ATOM     40  F1  UNL A   1      53.374  24.900  16.309  1.00  0.00    +0.000 F 
ATOM     41  C30 UNL A   1      51.688  24.908  17.952  1.00  0.00    +0.000 C 
ATOM     42  F2  UNL A   1      51.710  26.248  17.964  1.00  0.00    +0.000 F 
ATOM     43  C31 UNL A   1      50.820  24.222  18.787  1.00  0.00    +0.000 C 
ATOM     44  F3  UNL A   1      49.988  24.897  19.592  1.00  0.00    +0.000 F 
ATOM     45  C32 UNL A   1      50.817  22.835  18.791  1.00  0.00    +0.000 C 
ATOM     46  F4  UNL A   1      49.969  22.170  19.588  1.00  0.00    +0.000 F 
ATOM     47  C33 UNL A   1      51.694  22.132  17.969  1.00  0.00    +0.000 C 
ATOM     48  F5  UNL A   1      51.676  20.791  18.005  1.00  0.00    +0.000 F 
ENDBRANCH   37   38
BRANCH   54   55
ATOM     65  F10 UNL A   1      58.629  17.737  17.604  1.00  0.00    +0.000 F 
ATOM     55  C39 UNL A   1      59.212  20.007  17.184  1.00  0.00    +0.000 C 
ATOM     56  C40 UNL A   1      60.064  21.079  17.487  1.00  0.00    +0.000 C 
ATOM     57  F6  UNL A   1      59.914  22.258  16.862  1.00  0.00    +0.000 F 
ATOM     58  C41 UNL A   1      61.098  20.933  18.408  1.00  0.00    +0.000 C 
ATOM     59  F7  UNL A   1      61.927  21.957  18.649  1.00  0.00    +0.000 F 
ATOM     60  C42 UNL A   1      61.278  19.725  19.066  1.00  0.00    +0.000 C 
ATOM     61  F8  UNL A   1      62.269  19.589  19.959  1.00  0.00    +0.000 F 
ATOM     62  C43 UNL A   1      60.437  18.657  18.794  1.00  0.00    +0.000 C 
ATOM     63  F9  UNL A   1      60.603  17.494  19.439  1.00  0.00    +0.000 F 
ATOM     64  C44 UNL A   1      59.421  18.792  17.852  1.00  0.00    +0.000 C 
ENDBRANCH   54   55
BRANCH   69   70
ATOM     70  C48 UNL A   1      58.359  17.954  10.581  1.00  0.00    +0.000 C 
ATOM     71  C49 UNL A   1      59.156  18.691   9.693  1.00  0.00    +0.000 C 
ATOM     72  F11 UNL A   1      59.118  20.031   9.714  1.00  0.00    +0.000 F 
ATOM     73  C50 UNL A   1      59.959  18.054   8.749  1.00  0.00    +0.000 C 
ATOM     74  F12 UNL A   1      60.671  18.782   7.879  1.00  0.00    +0.000 F 
ATOM     75  C51 UNL A   1      60.004  16.669   8.695  1.00  0.00    +0.000 C 
ATOM     76  F13 UNL A   1      60.776  16.057   7.787  1.00  0.00    +0.000 F 
ATOM     77  C52 UNL A   1      59.242  15.920   9.578  1.00  0.00    +0.000 C 
ATOM     78  F14 UNL A   1      59.293  14.582   9.538  1.00  0.00    +0.000 F 
ATOM     79  C53 UNL A   1      58.417  16.556  10.504  1.00  0.00    +0.000 C 
ATOM     80  F15 UNL A   1      57.677  15.806  11.335  1.00  0.00    +0.000 F 
ENDBRANCH   69   70
TORSDOF 23
ENDMDL
MODEL 6
REMARK VINA RESULT:     -10.0     21.815     31.186
ROOT
ATOM    129  H38 UNL A   1      43.946  26.133  29.594  1.00  0.00    +0.000 H 
ATOM    130  H39 UNL A   1      44.582  26.093  32.074  1.00  0.00    +0.000 H 
ATOM     33  C24 UNL A   1      43.123  27.956  33.662  1.00  0.00    +0.000 C 
ATOM     34  C25 UNL A   1      42.918  27.628  32.209  1.00  0.00    +0.000 C 
ATOM     35  N5  UNL A   1      42.040  28.110  31.366  1.00  0.00    +0.000 N 
ATOM     36  C26 UNL A   1      42.317  27.507  30.145  1.00  0.00    +0.000 C 
ATOM     37  C27 UNL A   1      41.654  27.633  28.971  1.00  0.00    +0.000 C 
ATOM     49  C34 UNL A   1      40.485  28.452  28.782  1.00  0.00    +0.000 C 
ATOM     50  C35 UNL A   1      39.709  28.598  27.646  1.00  0.00    +0.000 C 
ATOM     51  C36 UNL A   1      38.701  29.528  27.921  1.00  0.00    +0.000 C 
ATOM     52  C37 UNL A   1      38.819  29.923  29.243  1.00  0.00    +0.000 C 
ATOM     53  N6  UNL A   1      39.922  29.260  29.758  1.00  0.00    +0.000 N 
ATOM     54  C38 UNL A   1      37.989  30.838  29.983  1.00  0.00    +0.000 C 
ATOM     66  C45 UNL A   1      38.175  31.177  31.282  1.00  0.00    +0.000 C 
ATOM     67  N7  UNL A   1      39.145  30.733  32.169  1.00  0.00    +0.000 N 
ATOM     68  C46 UNL A   1      38.911  31.354  33.300  1.00  0.00    +0.000 C 
ATOM     69  C47 UNL A   1      39.630  31.233  34.617  1.00  0.00    +0.000 C 
ATOM     81  C54 UNL A   1      40.655  30.367  34.732  1.00  0.00    +0.000 C 
ATOM     82  C55 UNL A   1      41.444  30.144  35.940  1.00  0.00    +0.000 C 
ATOM     83  C56 UNL A   1      42.420  29.263  35.670  1.00  0.00    +0.000 C 
ATOM     84  C57 UNL A   1      42.303  28.830  34.277  1.00  0.00    +0.000 C 
ATOM     85  N8  UNL A   1      41.216  29.523  33.805  1.00  0.00    +0.000 N 
ATOM     86  C58 UNL A   1      37.780  32.292  33.245  1.00  0.00    +0.000 C 
ATOM     87  C59 UNL A   1      37.342  32.113  32.007  1.00  0.00    +0.000 C 
ATOM     88  C60 UNL A   1      43.472  26.658  30.345  1.00  0.00    +0.000 C 
ATOM     89  C61 UNL A   1      43.841  26.646  31.618  1.00  0.00    +0.000 C 
ATOM    121  H30 UNL A   1      39.851  28.108  26.749  1.00  0.00    +0.000 H 
ATOM    122  H31 UNL A   1      37.989  29.862  27.252  1.00  0.00    +0.000 H 
ATOM    123  H32 UNL A   1      40.256  29.350  30.680  1.00  0.00    +0.000 H 
ATOM    124  H33 UNL A   1      41.276  30.592  36.855  1.00  0.00    +0.000 H 
ATOM    125  H34 UNL A   1      43.139  28.943  36.338  1.00  0.00    +0.000 H 
ATOM    126  H35 UNL A   1      40.871  29.425  32.887  1.00  0.00    +0.000 H 
ATOM    127  H36 UNL A   1      37.423  32.923  33.978  1.00  0.00    +0.000 H 
ATOM    128  H37 UNL A   1      36.513  32.582  31.610  1.00  0.00    +0.000 H 
ENDROOT
BRANCH   33   32
ATOM    131  H40 UNL A   1      45.634  28.880  33.782  1.00  0.00    +0.000 H 
ATOM    132  H41 UNL A   1      47.554  27.920  34.909  1.00  0.00    +0.000 H 
ATOM    119  H28 UNL A   1      45.118  24.870  36.476  1.00  0.00    +0.000 H 
ATOM    120  H29 UNL A   1      43.247  25.698  35.170  1.00  0.00    +0.000 H 
ATOM     90  C62 UNL A   1      45.526  28.016  34.338  1.00  0.00    +0.000 C 
ATOM     91  C63 UNL A   1      46.621  27.491  35.021  1.00  0.00    +0.000 C 
ATOM     29  C20 UNL A   1      46.457  26.384  35.856  1.00  0.00    +0.000 C 
ATOM     30  C21 UNL A   1      45.228  25.719  35.899  1.00  0.00    +0.000 C 
ATOM     31  C22 UNL A   1      44.146  26.205  35.158  1.00  0.00    +0.000 C 
ATOM     32  C23 UNL A   1      44.277  27.379  34.400  1.00  0.00    +0.000 C 
BRANCH   29   27
ATOM     27  C19 UNL A   1      47.569  25.884  36.695  1.00  0.00    +0.000 C 
ATOM     28  O5  UNL A   1      47.777  26.396  37.792  1.00  0.00    +0.000 O 
BRANCH   27   26
ATOM     26  N4  UNL A   1      48.379  24.872  36.241  1.00  0.00    +0.000 N 
ATOM    118  H27 UNL A   1      48.987  24.489  36.913  1.00  0.00    +0.000 H 
BRANCH   26   25
ATOM     25  C18 UNL A   1      48.473  24.281  34.914  1.00  0.00    +0.000 C 
ATOM    116  H25 UNL A   1      47.888  24.869  34.236  1.00  0.00    +0.000 H 
ATOM    117  H26 UNL A   1      49.506  24.269  34.639  1.00  0.00    +0.000 H 
BRANCH   25   24
ATOM    114  H23 UNL A   1      48.521  22.321  34.118  1.00  0.00    +0.000 H 
ATOM    115  H24 UNL A   1      48.113  22.449  35.857  1.00  0.00    +0.000 H 
ATOM     24  C17 UNL A   1      47.969  22.842  34.872  1.00  0.00    +0.000 C 
BRANCH   24   23
ATOM    113  H22 UNL A   1      46.431  22.164  33.629  1.00  0.00    +0.000 H 
ATOM     23  C16 UNL A   1      46.482  22.680  34.565  1.00  0.00    +0.000 C 
ATOM    112  H21 UNL A   1      46.042  23.656  34.547  1.00  0.00    +0.000 H 
BRANCH   23   22
ATOM    110  H19 UNL A   1      44.663  21.840  35.251  1.00  0.00    +0.000 H 
ATOM     22  C15 UNL A   1      45.689  21.826  35.556  1.00  0.00    +0.000 C 
ATOM    111  H20 UNL A   1      46.145  20.859  35.526  1.00  0.00    +0.000 H 
BRANCH   22   21
ATOM    109  H18 UNL A   1      44.736  22.249  37.379  1.00  0.00    +0.000 H 
ATOM    108  H17 UNL A   1      46.199  23.228  37.069  1.00  0.00    +0.000 H 
ATOM     21  C14 UNL A   1      45.746  22.260  37.026  1.00  0.00    +0.000 C 
BRANCH   21   20
ATOM    106  H15 UNL A   1      47.477  21.780  38.164  1.00  0.00    +0.000 H 
ATOM    107  H16 UNL A   1      45.944  21.179  38.828  1.00  0.00    +0.000 H 
ATOM     20  C13 UNL A   1      46.532  21.327  37.946  1.00  0.00    +0.000 C 
BRANCH   20   19
ATOM    105  H14 UNL A   1      47.580  19.889  36.817  1.00  0.00    +0.000 H 
ATOM     19  N3  UNL A   1      46.771  20.021  37.363  1.00  0.00    +0.000 N 
BRANCH   19    2
ATOM      1  O1  UNL A   1      45.230  18.482  36.637  1.00  0.00    +0.000 O 
ATOM      2  C1  UNL A   1      45.914  18.958  37.539  1.00  0.00    +0.000 C 
BRANCH    2    3
ATOM      3  C2  UNL A   1      45.805  18.436  38.979  1.00  0.00    +0.000 C 
ATOM     92  H1  UNL A   1      45.048  19.001  39.483  1.00  0.00    +0.000 H 
ATOM     93  H2  UNL A   1      46.772  18.551  39.421  1.00  0.00    +0.000 H 
BRANCH    3    4
ATOM      4  N1  UNL A   1      45.464  17.021  39.081  1.00  0.00    +0.000 N 
ATOM     94  H3  UNL A   1      46.218  16.415  39.259  1.00  0.00    +0.000 H 
BRANCH    4    5
ATOM      5  C3  UNL A   1      44.243  16.420  38.962  1.00  0.00    +0.000 C 
ATOM      6  O2  UNL A   1      43.946  15.917  37.879  1.00  0.00    +0.000 O 
BRANCH    5    7
ATOM     95  H4  UNL A   1      42.792  17.278  40.284  1.00  0.00    +0.000 H 
ATOM      7  C4  UNL A   1      43.300  16.344  40.163  1.00  0.00    +0.000 C 
ATOM     96  H5  UNL A   1      43.856  16.136  41.054  1.00  0.00    +0.000 H 
BRANCH    7    8
ATOM     97  H6  UNL A   1      41.948  15.244  39.020  1.00  0.00    +0.000 H 
ATOM      8  N2  UNL A   1      42.335  15.291  39.924  1.00  0.00    +0.000 N 
BRANCH    8    9
ATOM      9  C5  UNL A   1      41.908  14.360  40.817  1.00  0.00    +0.000 C 
ATOM     10  O3  UNL A   1      40.993  13.601  40.528  1.00  0.00    +0.000 O 
BRANCH    9   11
ATOM     11  O4  UNL A   1      42.600  14.363  41.978  1.00  0.00    +0.000 O 
BRANCH   11   12
ATOM     98  H7  UNL A   1      40.848  13.734  42.839  1.00  0.00    +0.000 H 
ATOM     99  H8  UNL A   1      41.913  14.690  43.872  1.00  0.00    +0.000 H 
ATOM     12  C6  UNL A   1      41.860  13.922  43.129  1.00  0.00    +0.000 C 
BRANCH   12   13
ATOM    100  H9  UNL A   1      41.708  11.384  42.205  1.00  0.00    +0.000 H 
ATOM    101  H10 UNL A   1      42.510   9.335  43.210  1.00  0.00    +0.000 H 
ATOM    102  H11 UNL A   1      43.759   9.412  45.288  1.00  0.00    +0.000 H 
ATOM    103  H12 UNL A   1      44.192  11.543  46.362  1.00  0.00    +0.000 H 
ATOM    104  H13 UNL A   1      43.335  13.594  45.393  1.00  0.00    +0.000 H 
ATOM     13  C7  UNL A   1      42.441  12.660  43.722  1.00  0.00    +0.000 C 
ATOM     14  C8  UNL A   1      42.223  11.422  43.098  1.00  0.00    +0.000 C 
ATOM     15  C9  UNL A   1      42.693  10.240  43.671  1.00  0.00    +0.000 C 
ATOM     16  C10 UNL A   1      43.408  10.285  44.863  1.00  0.00    +0.000 C 
ATOM     17  C11 UNL A   1      43.650  11.510  45.484  1.00  0.00    +0.000 C 
ATOM     18  C12 UNL A   1      43.162  12.692  44.921  1.00  0.00    +0.000 C 
ENDBRANCH   12   13
ENDBRANCH   11   12
ENDBRANCH    9   11
ENDBRANCH    8    9
ENDBRANCH    7    8
ENDBRANCH    5    7
ENDBRANCH    4    5
ENDBRANCH    3    4
ENDBRANCH    2    3
ENDBRANCH   19    2
ENDBRANCH   20   19
ENDBRANCH   21   20
ENDBRANCH   22   21
ENDBRANCH   23   22
ENDBRANCH   24   23
ENDBRANCH   25   24
ENDBRANCH   26   25
ENDBRANCH   27   26
ENDBRANCH   29   27
ENDBRANCH   33   32
BRANCH   37   38
ATOM     38  C28 UNL A   1      42.174  26.863  27.793  1.00  0.00    +0.000 C 
ATOM     39  C29 UNL A   1      41.717  25.569  27.501  1.00  0.00    +0.000 C 
ATOM     40  F1  UNL A   1      40.834  24.965  28.313  1.00  0.00    +0.000 F 
ATOM     41  C30 UNL A   1      42.190  24.874  26.391  1.00  0.00    +0.000 C 
ATOM     42  F2  UNL A   1      41.771  23.622  26.158  1.00  0.00    +0.000 F 
ATOM     43  C31 UNL A   1      43.101  25.471  25.533  1.00  0.00    +0.000 C 
ATOM     44  F3  UNL A   1      43.549  24.805  24.460  1.00  0.00    +0.000 F 
ATOM     45  C32 UNL A   1      43.553  26.757  25.791  1.00  0.00    +0.000 C 
ATOM     46  F4  UNL A   1      44.424  27.339  24.956  1.00  0.00    +0.000 F 
ATOM     47  C33 UNL A   1      43.104  27.442  26.916  1.00  0.00    +0.000 C 
ATOM     48  F5  UNL A   1      43.569  28.680  27.145  1.00  0.00    +0.000 F 
ENDBRANCH   37   38
BRANCH   54   55
ATOM     65  F10 UNL A   1      37.872  33.578  29.249  1.00  0.00    +0.000 F 
ATOM     55  C39 UNL A   1      36.815  31.445  29.272  1.00  0.00    +0.000 C 
ATOM     56  C40 UNL A   1      35.678  30.691  28.947  1.00  0.00    +0.000 C 
ATOM     57  F6  UNL A   1      35.641  29.377  29.218  1.00  0.00    +0.000 F 
ATOM     58  C41 UNL A   1      34.589  31.278  28.309  1.00  0.00    +0.000 C 
ATOM     59  F7  UNL A   1      33.531  30.530  27.969  1.00  0.00    +0.000 F 
ATOM     60  C42 UNL A   1      34.602  32.634  28.014  1.00  0.00    +0.000 C 
ATOM     61  F8  UNL A   1      33.549  33.199  27.408  1.00  0.00    +0.000 F 
ATOM     62  C43 UNL A   1      35.710  33.402  28.342  1.00  0.00    +0.000 C 
ATOM     63  F9  UNL A   1      35.718  34.714  28.069  1.00  0.00    +0.000 F 
ATOM     64  C44 UNL A   1      36.812  32.811  28.953  1.00  0.00    +0.000 C 
ENDBRANCH   54   55
BRANCH   69   70
ATOM     70  C48 UNL A   1      39.201  32.039  35.790  1.00  0.00    +0.000 C 
ATOM     71  C49 UNL A   1      38.333  31.502  36.751  1.00  0.00    +0.000 C 
ATOM     72  F11 UNL A   1      37.876  30.249  36.614  1.00  0.00    +0.000 F 
ATOM     73  C50 UNL A   1      37.896  32.264  37.833  1.00  0.00    +0.000 C 
ATOM     74  F12 UNL A   1      37.027  31.743  38.708  1.00  0.00    +0.000 F 
ATOM     75  C51 UNL A   1      38.341  33.568  37.990  1.00  0.00    +0.000 C 
ATOM     76  F13 UNL A   1      37.920  34.301  39.029  1.00  0.00    +0.000 F 
ATOM     77  C52 UNL A   1      39.217  34.113  37.064  1.00  0.00    +0.000 C 
ATOM     78  F14 UNL A   1      39.660  35.368  37.220  1.00  0.00    +0.000 F 
ATOM     79  C53 UNL A   1      39.633  33.361  35.967  1.00  0.00    +0.000 C 
ATOM     80  F15 UNL A   1      40.467  33.920  35.077  1.00  0.00    +0.000 F 
ENDBRANCH   69   70
TORSDOF 23
ENDMDL
MODEL 7
REMARK VINA RESULT:      -9.9     40.116     46.910
ROOT
ATOM    129  H38 UNL A   1      29.063  34.167  42.755  1.00  0.00    +0.000 H 
ATOM    130  H39 UNL A   1      26.591  34.010  43.403  1.00  0.00    +0.000 H 
ATOM     33  C24 UNL A   1      25.824  35.838  45.451  1.00  0.00    +0.000 C 
ATOM     34  C25 UNL A   1      27.152  35.748  44.749  1.00  0.00    +0.000 C 
ATOM     35  N5  UNL A   1      28.228  36.474  44.914  1.00  0.00    +0.000 N 
ATOM     36  C26 UNL A   1      29.180  35.940  44.055  1.00  0.00    +0.000 C 
ATOM     37  C27 UNL A   1      30.440  36.375  43.815  1.00  0.00    +0.000 C 
ATOM     49  C34 UNL A   1      31.034  37.528  44.440  1.00  0.00    +0.000 C 
ATOM     50  C35 UNL A   1      32.283  38.081  44.218  1.00  0.00    +0.000 C 
ATOM     51  C36 UNL A   1      32.439  39.169  45.082  1.00  0.00    +0.000 C 
ATOM     52  C37 UNL A   1      31.269  39.324  45.806  1.00  0.00    +0.000 C 
ATOM     53  N6  UNL A   1      30.417  38.306  45.407  1.00  0.00    +0.000 N 
ATOM     54  C38 UNL A   1      30.949  40.325  46.791  1.00  0.00    +0.000 C 
ATOM     66  C45 UNL A   1      29.775  40.407  47.462  1.00  0.00    +0.000 C 
ATOM     67  N7  UNL A   1      28.651  39.600  47.354  1.00  0.00    +0.000 N 
ATOM     68  C46 UNL A   1      27.782  40.076  48.213  1.00  0.00    +0.000 C 
ATOM     69  C47 UNL A   1      26.378  39.614  48.498  1.00  0.00    +0.000 C 
ATOM     81  C54 UNL A   1      25.866  38.586  47.796  1.00  0.00    +0.000 C 
ATOM     82  C55 UNL A   1      24.526  38.029  47.963  1.00  0.00    +0.000 C 
ATOM     83  C56 UNL A   1      24.384  36.975  47.144  1.00  0.00    +0.000 C 
ATOM     84  C57 UNL A   1      25.611  36.804  46.365  1.00  0.00    +0.000 C 
ATOM     85  N8  UNL A   1      26.427  37.816  46.806  1.00  0.00    +0.000 N 
ATOM     86  C58 UNL A   1      28.274  41.223  48.990  1.00  0.00    +0.000 C 
ATOM     87  C59 UNL A   1      29.476  41.410  48.463  1.00  0.00    +0.000 C 
ATOM     88  C60 UNL A   1      28.570  34.801  43.402  1.00  0.00    +0.000 C 
ATOM     89  C61 UNL A   1      27.296  34.680  43.747  1.00  0.00    +0.000 C 
ATOM    121  H30 UNL A   1      32.981  37.747  43.534  1.00  0.00    +0.000 H 
ATOM    122  H31 UNL A   1      33.283  39.758  45.165  1.00  0.00    +0.000 H 
ATOM    123  H32 UNL A   1      29.510  38.158  45.758  1.00  0.00    +0.000 H 
ATOM    124  H33 UNL A   1      23.805  38.390  48.607  1.00  0.00    +0.000 H 
ATOM    125  H34 UNL A   1      23.544  36.380  47.075  1.00  0.00    +0.000 H 
ATOM    126  H35 UNL A   1      27.330  37.976  46.447  1.00  0.00    +0.000 H 
ATOM    127  H36 UNL A   1      27.806  41.745  49.746  1.00  0.00    +0.000 H 
ATOM    128  H37 UNL A   1      30.117  42.172  48.733  1.00  0.00    +0.000 H 
ENDROOT
BRANCH   33   32
ATOM    131  H40 UNL A   1      25.652  33.363  46.459  1.00  0.00    +0.000 H 
ATOM    132  H41 UNL A   1      24.001  31.648  46.001  1.00  0.00    +0.000 H 
ATOM    119  H28 UNL A   1      21.884  34.330  43.549  1.00  0.00    +0.000 H 
ATOM    120  H29 UNL A   1      23.651  35.972  43.825  1.00  0.00    +0.000 H 
ATOM     90  C62 UNL A   1      24.862  33.564  45.824  1.00  0.00    +0.000 C 
ATOM     91  C63 UNL A   1      23.891  32.592  45.597  1.00  0.00    +0.000 C 
ATOM     29  C20 UNL A   1      22.769  32.895  44.823  1.00  0.00    +0.000 C 
ATOM     30  C21 UNL A   1      22.687  34.125  44.162  1.00  0.00    +0.000 C 
ATOM     31  C22 UNL A   1      23.698  35.075  44.334  1.00  0.00    +0.000 C 
ATOM     32  C23 UNL A   1      24.776  34.817  45.196  1.00  0.00    +0.000 C 
BRANCH   29   27
ATOM     27  C19 UNL A   1      21.658  31.928  44.672  1.00  0.00    +0.000 C 
ATOM     28  O5  UNL A   1      21.893  30.724  44.712  1.00  0.00    +0.000 O 
BRANCH   27   26
ATOM     26  N4  UNL A   1      20.375  32.374  44.464  1.00  0.00    +0.000 N 
ATOM    118  H27 UNL A   1      20.099  33.133  45.027  1.00  0.00    +0.000 H 
BRANCH   26   25
ATOM     25  C18 UNL A   1      19.363  31.894  43.534  1.00  0.00    +0.000 C 
ATOM    116  H25 UNL A   1      18.661  32.682  43.356  1.00  0.00    +0.000 H 
ATOM    117  H26 UNL A   1      19.866  31.598  42.637  1.00  0.00    +0.000 H 
BRANCH   25   24
ATOM    114  H23 UNL A   1      18.692  29.896  43.334  1.00  0.00    +0.000 H 
ATOM    115  H24 UNL A   1      19.056  30.435  45.002  1.00  0.00    +0.000 H 
ATOM     24  C17 UNL A   1      18.608  30.677  44.060  1.00  0.00    +0.000 C 
BRANCH   24   23
ATOM    113  H22 UNL A   1      16.893  31.864  43.936  1.00  0.00    +0.000 H 
ATOM     23  C16 UNL A   1      17.125  30.902  44.342  1.00  0.00    +0.000 C 
ATOM    112  H21 UNL A   1      16.977  30.830  45.400  1.00  0.00    +0.000 H 
BRANCH   23   22
ATOM    110  H19 UNL A   1      15.174  30.313  43.767  1.00  0.00    +0.000 H 
ATOM     22  C15 UNL A   1      16.165  29.922  43.666  1.00  0.00    +0.000 C 
ATOM    111  H20 UNL A   1      16.506  29.841  42.655  1.00  0.00    +0.000 H 
BRANCH   22   21
ATOM    109  H18 UNL A   1      15.266  28.395  44.795  1.00  0.00    +0.000 H 
ATOM    108  H17 UNL A   1      17.054  28.347  44.782  1.00  0.00    +0.000 H 
ATOM     21  C14 UNL A   1      16.159  28.488  44.212  1.00  0.00    +0.000 C 
BRANCH   21   20
ATOM    106  H15 UNL A   1      17.010  27.399  42.596  1.00  0.00    +0.000 H 
ATOM    107  H16 UNL A   1      15.940  26.463  43.659  1.00  0.00    +0.000 H 
ATOM     20  C13 UNL A   1      16.094  27.392  43.150  1.00  0.00    +0.000 C 
BRANCH   20   19
ATOM    105  H14 UNL A   1      14.133  27.895  42.567  1.00  0.00    +0.000 H 
ATOM     19  N3  UNL A   1      14.993  27.562  42.222  1.00  0.00    +0.000 N 
BRANCH   19    2
ATOM      1  O1  UNL A   1      15.462  28.096  40.038  1.00  0.00    +0.000 O 
ATOM      2  C1  UNL A   1      15.099  27.277  40.879  1.00  0.00    +0.000 C 
BRANCH    2    3
ATOM      3  C2  UNL A   1      14.657  25.864  40.473  1.00  0.00    +0.000 C 
ATOM     92  H1  UNL A   1      15.484  25.199  40.617  1.00  0.00    +0.000 H 
ATOM     93  H2  UNL A   1      14.343  25.921  39.452  1.00  0.00    +0.000 H 
BRANCH    3    4
ATOM      4  N1  UNL A   1      13.521  25.349  41.231  1.00  0.00    +0.000 N 
ATOM     94  H3  UNL A   1      12.666  25.812  41.079  1.00  0.00    +0.000 H 
BRANCH    4    5
ATOM      5  C3  UNL A   1      13.479  24.316  42.123  1.00  0.00    +0.000 C 
ATOM      6  O2  UNL A   1      14.170  24.397  43.139  1.00  0.00    +0.000 O 
BRANCH    5    7
ATOM     95  H4  UNL A   1      11.677  23.440  41.367  1.00  0.00    +0.000 H 
ATOM      7  C4  UNL A   1      12.562  23.118  41.875  1.00  0.00    +0.000 C 
ATOM     96  H5  UNL A   1      12.283  22.671  42.806  1.00  0.00    +0.000 H 
BRANCH    7    8
ATOM     97  H6  UNL A   1      14.046  21.711  41.470  1.00  0.00    +0.000 H 
ATOM      8  N2  UNL A   1      13.272  22.157  41.056  1.00  0.00    +0.000 N 
BRANCH    8    9
ATOM      9  C5  UNL A   1      12.982  21.806  39.776  1.00  0.00    +0.000 C 
ATOM     10  O3  UNL A   1      11.819  21.704  39.413  1.00  0.00    +0.000 O 
BRANCH    9   11
ATOM     11  O4  UNL A   1      14.074  21.624  39.001  1.00  0.00    +0.000 O 
BRANCH   11   12
ATOM     98  H7  UNL A   1      15.870  22.425  39.583  1.00  0.00    +0.000 H 
ATOM     99  H8  UNL A   1      14.531  23.565  39.434  1.00  0.00    +0.000 H 
ATOM     12  C6  UNL A   1      15.015  22.711  39.008  1.00  0.00    +0.000 C 
BRANCH   12   13
ATOM    100  H9  UNL A   1      17.079  21.715  37.572  1.00  0.00    +0.000 H 
ATOM    101  H10 UNL A   1      17.899  22.384  35.397  1.00  0.00    +0.000 H 
ATOM    102  H11 UNL A   1      16.735  24.100  34.138  1.00  0.00    +0.000 H 
ATOM    103  H12 UNL A   1      14.758  25.152  35.068  1.00  0.00    +0.000 H 
ATOM    104  H13 UNL A   1      13.969  24.531  37.276  1.00  0.00    +0.000 H 
ATOM     13  C7  UNL A   1      15.464  23.077  37.614  1.00  0.00    +0.000 C 
ATOM     14  C8  UNL A   1      16.591  22.458  37.050  1.00  0.00    +0.000 C 
ATOM     15  C9  UNL A   1      17.059  22.836  35.792  1.00  0.00    +0.000 C 
ATOM     16  C10 UNL A   1      16.393  23.821  35.071  1.00  0.00    +0.000 C 
ATOM     17  C11 UNL A   1      15.259  24.430  35.610  1.00  0.00    +0.000 C 
ATOM     18  C12 UNL A   1      14.801  24.067  36.878  1.00  0.00    +0.000 C 
ENDBRANCH   12   13
ENDBRANCH   11   12
ENDBRANCH    9   11
ENDBRANCH    8    9
ENDBRANCH    7    8
ENDBRANCH    5    7
ENDBRANCH    4    5
ENDBRANCH    3    4
ENDBRANCH    2    3
ENDBRANCH   19    2
ENDBRANCH   20   19
ENDBRANCH   21   20
ENDBRANCH   22   21
ENDBRANCH   23   22
ENDBRANCH   24   23
ENDBRANCH   25   24
ENDBRANCH   26   25
ENDBRANCH   27   26
ENDBRANCH   29   27
ENDBRANCH   33   32
BRANCH   37   38
ATOM     38  C28 UNL A   1      31.266  35.602  42.829  1.00  0.00    +0.000 C 
ATOM     39  C29 UNL A   1      31.401  36.019  41.496  1.00  0.00    +0.000 C 
ATOM     40  F1  UNL A   1      30.739  37.101  41.057  1.00  0.00    +0.000 F 
ATOM     41  C30 UNL A   1      32.189  35.306  40.597  1.00  0.00    +0.000 C 
ATOM     42  F2  UNL A   1      32.267  35.699  39.318  1.00  0.00    +0.000 F 
ATOM     43  C31 UNL A   1      32.886  34.184  41.020  1.00  0.00    +0.000 C 
ATOM     44  F3  UNL A   1      33.653  33.504  40.156  1.00  0.00    +0.000 F 
ATOM     45  C32 UNL A   1      32.783  33.764  42.338  1.00  0.00    +0.000 C 
ATOM     46  F4  UNL A   1      33.467  32.688  42.752  1.00  0.00    +0.000 F 
ATOM     47  C33 UNL A   1      31.972  34.458  43.232  1.00  0.00    +0.000 C 
ATOM     48  F5  UNL A   1      31.885  34.020  44.497  1.00  0.00    +0.000 F 
ENDBRANCH   37   38
BRANCH   54   55
ATOM     65  F10 UNL A   1      30.764  42.991  45.829  1.00  0.00    +0.000 F 
ATOM     55  C39 UNL A   1      31.984  41.374  47.080  1.00  0.00    +0.000 C 
ATOM     56  C40 UNL A   1      33.134  41.088  47.829  1.00  0.00    +0.000 C 
ATOM     57  F6  UNL A   1      33.307  39.868  48.362  1.00  0.00    +0.000 F 
ATOM     58  C41 UNL A   1      34.095  42.068  48.066  1.00  0.00    +0.000 C 
ATOM     59  F7  UNL A   1      35.164  41.786  48.822  1.00  0.00    +0.000 F 
ATOM     60  C42 UNL A   1      33.940  43.339  47.531  1.00  0.00    +0.000 C 
ATOM     61  F8  UNL A   1      34.870  44.278  47.753  1.00  0.00    +0.000 F 
ATOM     62  C43 UNL A   1      32.818  43.638  46.773  1.00  0.00    +0.000 C 
ATOM     63  F9  UNL A   1      32.674  44.861  46.245  1.00  0.00    +0.000 F 
ATOM     64  C44 UNL A   1      31.842  42.669  46.559  1.00  0.00    +0.000 C 
ENDBRANCH   54   55
BRANCH   69   70
ATOM     70  C48 UNL A   1      25.551  40.298  49.527  1.00  0.00    +0.000 C 
ATOM     71  C49 UNL A   1      25.538  39.846  50.854  1.00  0.00    +0.000 C 
ATOM     72  F11 UNL A   1      26.273  38.781  51.205  1.00  0.00    +0.000 F 
ATOM     73  C50 UNL A   1      24.736  40.457  51.816  1.00  0.00    +0.000 C 
ATOM     74  F12 UNL A   1      24.705  39.974  53.064  1.00  0.00    +0.000 F 
ATOM     75  C51 UNL A   1      23.954  41.551  51.476  1.00  0.00    +0.000 C 
ATOM     76  F13 UNL A   1      23.183  42.138  52.400  1.00  0.00    +0.000 F 
ATOM     77  C52 UNL A   1      23.967  42.029  50.175  1.00  0.00    +0.000 C 
ATOM     78  F14 UNL A   1      23.224  43.094  49.846  1.00  0.00    +0.000 F 
ATOM     79  C53 UNL A   1      24.748  41.401  49.206  1.00  0.00    +0.000 C 
ATOM     80  F15 UNL A   1      24.727  41.875  47.951  1.00  0.00    +0.000 F 
ENDBRANCH   69   70
TORSDOF 23
ENDMDL
MODEL 8
REMARK VINA RESULT:      -9.8      3.174      5.295
ROOT
ATOM    129  H38 UNL A   1      54.623  20.105  14.067  1.00  0.00    +0.000 H 
ATOM    130  H39 UNL A   1      53.171  19.779  11.984  1.00  0.00    +0.000 H 
ATOM     33  C24 UNL A   1      54.415  18.214   9.953  1.00  0.00    +0.000 C 
ATOM     34  C25 UNL A   1      54.925  18.493  11.340  1.00  0.00    +0.000 C 
ATOM     35  N5  UNL A   1      56.028  18.086  11.915  1.00  0.00    +0.000 N 
ATOM     36  C26 UNL A   1      56.035  18.671  13.176  1.00  0.00    +0.000 C 
ATOM     37  C27 UNL A   1      56.936  18.515  14.174  1.00  0.00    +0.000 C 
ATOM     49  C34 UNL A   1      58.097  17.667  14.096  1.00  0.00    +0.000 C 
ATOM     50  C35 UNL A   1      59.037  17.397  15.075  1.00  0.00    +0.000 C 
ATOM     51  C36 UNL A   1      60.005  16.548  14.531  1.00  0.00    +0.000 C 
ATOM     52  C37 UNL A   1      59.643  16.249  13.228  1.00  0.00    +0.000 C 
ATOM     53  N6  UNL A   1      58.473  16.947  12.972  1.00  0.00    +0.000 N 
ATOM     54  C38 UNL A   1      60.313  15.392  12.286  1.00  0.00    +0.000 C 
ATOM     66  C45 UNL A   1      59.893  15.152  11.019  1.00  0.00    +0.000 C 
ATOM     67  N7  UNL A   1      58.767  15.635  10.368  1.00  0.00    +0.000 N 
ATOM     68  C46 UNL A   1      58.803  15.125   9.161  1.00  0.00    +0.000 C 
ATOM     69  C47 UNL A   1      57.817  15.281   8.034  1.00  0.00    +0.000 C 
ATOM     81  C54 UNL A   1      56.705  16.016   8.227  1.00  0.00    +0.000 C 
ATOM     82  C55 UNL A   1      55.665  16.257   7.231  1.00  0.00    +0.000 C 
ATOM     83  C56 UNL A   1      54.744  17.084   7.750  1.00  0.00    +0.000 C 
ATOM     84  C57 UNL A   1      55.109  17.403   9.131  1.00  0.00    +0.000 C 
ATOM     85  N8  UNL A   1      56.277  16.710   9.333  1.00  0.00    +0.000 N 
ATOM     86  C58 UNL A   1      59.981  14.285   8.900  1.00  0.00    +0.000 C 
ATOM     87  C59 UNL A   1      60.589  14.301  10.077  1.00  0.00    +0.000 C 
ATOM     88  C60 UNL A   1      54.850  19.497  13.265  1.00  0.00    +0.000 C 
ATOM     89  C61 UNL A   1      54.096  19.369  12.183  1.00  0.00    +0.000 C 
ATOM    121  H30 UNL A   1      59.025  17.762  16.041  1.00  0.00    +0.000 H 
ATOM    122  H31 UNL A   1      60.847  16.203  15.018  1.00  0.00    +0.000 H 
ATOM    123  H32 UNL A   1      57.983  16.934  12.118  1.00  0.00    +0.000 H 
ATOM    124  H33 UNL A   1      55.642  15.855   6.281  1.00  0.00    +0.000 H 
ATOM    125  H34 UNL A   1      53.912  17.439   7.254  1.00  0.00    +0.000 H 
ATOM    126  H35 UNL A   1      56.762  16.709  10.190  1.00  0.00    +0.000 H 
ATOM    127  H36 UNL A   1      60.260  13.809   8.029  1.00  0.00    +0.000 H 
ATOM    128  H37 UNL A   1      61.450  13.774  10.295  1.00  0.00    +0.000 H 
ENDROOT
BRANCH   33   32
ATOM    131  H40 UNL A   1      54.220  20.601   8.754  1.00  0.00    +0.000 H 
ATOM    132  H41 UNL A   1      52.232  21.770   8.011  1.00  0.00    +0.000 H 
ATOM    119  H28 UNL A   1      49.868  18.476   9.129  1.00  0.00    +0.000 H 
ATOM    120  H29 UNL A   1      51.826  17.398  10.078  1.00  0.00    +0.000 H 
ATOM     90  C62 UNL A   1      53.294  20.156   8.853  1.00  0.00    +0.000 C 
ATOM     91  C63 UNL A   1      52.157  20.811   8.385  1.00  0.00    +0.000 C 
ATOM     29  C20 UNL A   1      50.918  20.169   8.423  1.00  0.00    +0.000 C 
ATOM     30  C21 UNL A   1      50.792  18.928   9.055  1.00  0.00    +0.000 C 
ATOM     31  C22 UNL A   1      51.923  18.301   9.588  1.00  0.00    +0.000 C 
ATOM     32  C23 UNL A   1      53.190  18.893   9.459  1.00  0.00    +0.000 C 
BRANCH   29   27
ATOM     27  C19 UNL A   1      49.717  20.784   7.814  1.00  0.00    +0.000 C 
ATOM     28  O5  UNL A   1      49.084  21.627   8.444  1.00  0.00    +0.000 O 
BRANCH   27   26
ATOM     26  N4  UNL A   1      49.297  20.398   6.564  1.00  0.00    +0.000 N 
ATOM    118  H27 UNL A   1      48.401  20.711   6.308  1.00  0.00    +0.000 H 
BRANCH   26   25
ATOM     25  C18 UNL A   1      49.982  19.595   5.561  1.00  0.00    +0.000 C 
ATOM    116  H25 UNL A   1      50.139  20.198   4.690  1.00  0.00    +0.000 H 
ATOM    117  H26 UNL A   1      50.907  19.267   5.988  1.00  0.00    +0.000 H 
BRANCH   25   24
ATOM    114  H23 UNL A   1      48.434  18.653   4.469  1.00  0.00    +0.000 H 
ATOM    115  H24 UNL A   1      49.907  17.672   4.743  1.00  0.00    +0.000 H 
ATOM     24  C17 UNL A   1      49.194  18.353   5.160  1.00  0.00    +0.000 C 
BRANCH   24   23
ATOM    113  H22 UNL A   1      48.492  18.298   7.127  1.00  0.00    +0.000 H 
ATOM     23  C16 UNL A   1      48.520  17.608   6.310  1.00  0.00    +0.000 C 
ATOM    112  H21 UNL A   1      49.089  16.723   6.507  1.00  0.00    +0.000 H 
BRANCH   23   22
ATOM    110  H19 UNL A   1      46.870  16.334   6.681  1.00  0.00    +0.000 H 
ATOM     22  C15 UNL A   1      47.068  17.190   6.069  1.00  0.00    +0.000 C 
ATOM    111  H20 UNL A   1      46.480  18.050   6.309  1.00  0.00    +0.000 H 
BRANCH   22   21
ATOM    109  H18 UNL A   1      46.415  15.796   4.639  1.00  0.00    +0.000 H 
ATOM    108  H17 UNL A   1      47.542  17.030   4.003  1.00  0.00    +0.000 H 
ATOM     21  C14 UNL A   1      46.696  16.829   4.625  1.00  0.00    +0.000 C 
BRANCH   21   20
ATOM    106  H15 UNL A   1      44.990  16.955   3.362  1.00  0.00    +0.000 H 
ATOM    107  H16 UNL A   1      44.873  17.862   4.883  1.00  0.00    +0.000 H 
ATOM     20  C13 UNL A   1      45.498  17.590   4.058  1.00  0.00    +0.000 C 
BRANCH   20   19
ATOM    105  H14 UNL A   1      46.255  18.752   2.472  1.00  0.00    +0.000 H 
ATOM     19  N3  UNL A   1      45.871  18.814   3.377  1.00  0.00    +0.000 N 
BRANCH   19    2
ATOM      1  O1  UNL A   1      46.361  20.452   4.910  1.00  0.00    +0.000 O 
ATOM      2  C1  UNL A   1      45.714  20.060   3.943  1.00  0.00    +0.000 C 
BRANCH    2    3
ATOM      3  C2  UNL A   1      44.604  20.923   3.326  1.00  0.00    +0.000 C 
ATOM     92  H1  UNL A   1      44.969  21.927   3.240  1.00  0.00    +0.000 H 
ATOM     93  H2  UNL A   1      43.757  20.845   3.974  1.00  0.00    +0.000 H 
BRANCH    3    4
ATOM      4  N1  UNL A   1      44.163  20.483   2.007  1.00  0.00    +0.000 N 
ATOM     94  H3  UNL A   1      44.836  20.550   1.291  1.00  0.00    +0.000 H 
BRANCH    4    5
ATOM      5  C3  UNL A   1      42.948  19.991   1.626  1.00  0.00    +0.000 C 
ATOM      6  O2  UNL A   1      42.715  18.798   1.825  1.00  0.00    +0.000 O 
BRANCH    5    7
ATOM     95  H4  UNL A   1      42.337  21.870   0.799  1.00  0.00    +0.000 H 
ATOM      7  C4  UNL A   1      41.899  20.916   1.010  1.00  0.00    +0.000 C 
ATOM     96  H5  UNL A   1      41.085  21.054   1.691  1.00  0.00    +0.000 H 
BRANCH    7    8
ATOM     97  H6  UNL A   1      42.104  20.055  -0.877  1.00  0.00    +0.000 H 
ATOM      8  N2  UNL A   1      41.421  20.317  -0.219  1.00  0.00    +0.000 N 
BRANCH    8    9
ATOM      9  C5  UNL A   1      40.127  20.077  -0.558  1.00  0.00    +0.000 C 
ATOM     10  O3  UNL A   1      39.606  19.005  -0.287  1.00  0.00    +0.000 O 
BRANCH    9   11
ATOM     11  O4  UNL A   1      39.524  21.121  -1.171  1.00  0.00    +0.000 O 
BRANCH   11   12
ATOM     98  H7  UNL A   1      39.564  23.051  -0.480  1.00  0.00    +0.000 H 
ATOM     99  H8  UNL A   1      39.180  21.813   0.717  1.00  0.00    +0.000 H 
ATOM     12  C6  UNL A   1      39.031  22.144  -0.289  1.00  0.00    +0.000 C 
BRANCH   12   13
ATOM    100  H9  UNL A   1      37.809  23.905  -1.938  1.00  0.00    +0.000 H 
ATOM    101  H10 UNL A   1      35.456  24.417  -2.164  1.00  0.00    +0.000 H 
ATOM    102  H11 UNL A   1      33.816  23.170  -0.882  1.00  0.00    +0.000 H 
ATOM    103  H12 UNL A   1      34.540  21.420   0.633  1.00  0.00    +0.000 H 
ATOM    104  H13 UNL A   1      36.902  20.946   0.911  1.00  0.00    +0.000 H 
ATOM     13  C7  UNL A   1      37.555  22.393  -0.484  1.00  0.00    +0.000 C 
ATOM     14  C8  UNL A   1      37.118  23.384  -1.377  1.00  0.00    +0.000 C 
ATOM     15  C9  UNL A   1      35.761  23.674  -1.516  1.00  0.00    +0.000 C 
ATOM     16  C10 UNL A   1      34.822  22.960  -0.779  1.00  0.00    +0.000 C 
ATOM     17  C11 UNL A   1      35.239  21.958   0.097  1.00  0.00    +0.000 C 
ATOM     18  C12 UNL A   1      36.600  21.681   0.251  1.00  0.00    +0.000 C 
ENDBRANCH   12   13
ENDBRANCH   11   12
ENDBRANCH    9   11
ENDBRANCH    8    9
ENDBRANCH    7    8
ENDBRANCH    5    7
ENDBRANCH    4    5
ENDBRANCH    3    4
ENDBRANCH    2    3
ENDBRANCH   19    2
ENDBRANCH   20   19
ENDBRANCH   21   20
ENDBRANCH   22   21
ENDBRANCH   23   22
ENDBRANCH   24   23
ENDBRANCH   25   24
ENDBRANCH   26   25
ENDBRANCH   27   26
ENDBRANCH   29   27
ENDBRANCH   33   32
BRANCH   37   38
ATOM     38  C28 UNL A   1      56.703  19.275  15.447  1.00  0.00    +0.000 C 
ATOM     39  C29 UNL A   1      57.223  20.564  15.639  1.00  0.00    +0.000 C 
ATOM     40  F1  UNL A   1      57.995  21.128  14.697  1.00  0.00    +0.000 F 
ATOM     41  C30 UNL A   1      56.979  21.268  16.815  1.00  0.00    +0.000 C 
ATOM     42  F2  UNL A   1      57.523  22.480  16.994  1.00  0.00    +0.000 F 
ATOM     43  C31 UNL A   1      56.185  20.713  17.807  1.00  0.00    +0.000 C 
ATOM     44  F3  UNL A   1      55.943  21.395  18.935  1.00  0.00    +0.000 F 
ATOM     45  C32 UNL A   1      55.644  19.447  17.631  1.00  0.00    +0.000 C 
ATOM     46  F4  UNL A   1      54.865  18.915  18.582  1.00  0.00    +0.000 F 
ATOM     47  C33 UNL A   1      55.910  18.729  16.468  1.00  0.00    +0.000 C 
ATOM     48  F5  UNL A   1      55.383  17.503  16.333  1.00  0.00    +0.000 F 
ENDBRANCH   37   38
BRANCH   54   55
ATOM     65  F10 UNL A   1      62.922  16.432  11.868  1.00  0.00    +0.000 F 
ATOM     55  C39 UNL A   1      61.558  14.689  12.745  1.00  0.00    +0.000 C 
ATOM     56  C40 UNL A   1      61.508  13.447  13.393  1.00  0.00    +0.000 C 
ATOM     57  F6  UNL A   1      60.324  12.879  13.673  1.00  0.00    +0.000 F 
ATOM     58  C41 UNL A   1      62.675  12.800  13.790  1.00  0.00    +0.000 C 
ATOM     59  F7  UNL A   1      62.602  11.634  14.446  1.00  0.00    +0.000 F 
ATOM     60  C42 UNL A   1      63.912  13.365  13.517  1.00  0.00    +0.000 C 
ATOM     61  F8  UNL A   1      65.035  12.736  13.892  1.00  0.00    +0.000 F 
ATOM     62  C43 UNL A   1      63.985  14.586  12.862  1.00  0.00    +0.000 C 
ATOM     63  F9  UNL A   1      65.180  15.127  12.587  1.00  0.00    +0.000 F 
ATOM     64  C44 UNL A   1      62.819  15.249  12.491  1.00  0.00    +0.000 C 
ENDBRANCH   54   55
BRANCH   69   70
ATOM     70  C48 UNL A   1      58.049  14.613   6.727  1.00  0.00    +0.000 C 
ATOM     71  C49 UNL A   1      58.652  15.303   5.666  1.00  0.00    +0.000 C 
ATOM     72  F11 UNL A   1      59.020  16.583   5.823  1.00  0.00    +0.000 F 
ATOM     73  C50 UNL A   1      58.839  14.696   4.425  1.00  0.00    +0.000 C 
ATOM     74  F12 UNL A   1      59.371  15.394   3.414  1.00  0.00    +0.000 F 
ATOM     75  C51 UNL A   1      58.454  13.378   4.231  1.00  0.00    +0.000 C 
ATOM     76  F13 UNL A   1      58.632  12.795   3.038  1.00  0.00    +0.000 F 
ATOM     77  C52 UNL A   1      57.875  12.669   5.273  1.00  0.00    +0.000 C 
ATOM     78  F14 UNL A   1      57.514  11.391   5.093  1.00  0.00    +0.000 F 
ATOM     79  C53 UNL A   1      57.663  13.284   6.505  1.00  0.00    +0.000 C 
ATOM     80  F15 UNL A   1      57.085  12.579   7.489  1.00  0.00    +0.000 F 
ENDBRANCH   69   70
TORSDOF 23
ENDMDL
MODEL 9
REMARK VINA RESULT:      -9.7     40.491     46.848
ROOT
ATOM    129  H38 UNL A   1      23.498  38.329  48.578  1.00  0.00    +0.000 H 
ATOM    130  H39 UNL A   1      23.400  36.043  47.429  1.00  0.00    +0.000 H 
ATOM     33  C24 UNL A   1      25.686  35.465  45.828  1.00  0.00    +0.000 C 
ATOM     34  C25 UNL A   1      25.472  36.648  46.733  1.00  0.00    +0.000 C 
ATOM     35  N5  UNL A   1      26.271  37.654  46.986  1.00  0.00    +0.000 N 
ATOM     36  C26 UNL A   1      25.568  38.488  47.846  1.00  0.00    +0.000 C 
ATOM     37  C27 UNL A   1      25.983  39.631  48.440  1.00  0.00    +0.000 C 
ATOM     49  C34 UNL A   1      27.295  40.202  48.277  1.00  0.00    +0.000 C 
ATOM     50  C35 UNL A   1      27.829  41.326  48.883  1.00  0.00    +0.000 C 
ATOM     51  C36 UNL A   1      29.122  41.517  48.389  1.00  0.00    +0.000 C 
ATOM     52  C37 UNL A   1      29.413  40.485  47.512  1.00  0.00    +0.000 C 
ATOM     53  N6  UNL A   1      28.280  39.689  47.447  1.00  0.00    +0.000 N 
ATOM     54  C38 UNL A   1      30.632  40.243  46.785  1.00  0.00    +0.000 C 
ATOM     66  C45 UNL A   1      30.837  39.205  45.938  1.00  0.00    +0.000 C 
ATOM     67  N7  UNL A   1      29.974  38.172  45.600  1.00  0.00    +0.000 N 
ATOM     68  C46 UNL A   1      30.626  37.425  44.741  1.00  0.00    +0.000 C 
ATOM     69  C47 UNL A   1      30.190  36.151  44.067  1.00  0.00    +0.000 C 
ATOM     81  C54 UNL A   1      28.980  35.634  44.354  1.00  0.00    +0.000 C 
ATOM     82  C55 UNL A   1      28.423  34.412  43.780  1.00  0.00    +0.000 C 
ATOM     83  C56 UNL A   1      27.176  34.238  44.244  1.00  0.00    +0.000 C 
ATOM     84  C57 UNL A   1      26.857  35.317  45.180  1.00  0.00    +0.000 C 
ATOM     85  N8  UNL A   1      27.994  36.088  45.196  1.00  0.00    +0.000 N 
ATOM     86  C58 UNL A   1      31.969  37.923  44.412  1.00  0.00    +0.000 C 
ATOM     87  C59 UNL A   1      32.063  38.985  45.200  1.00  0.00    +0.000 C 
ATOM     88  C60 UNL A   1      24.262  37.895  48.037  1.00  0.00    +0.000 C 
ATOM     89  C61 UNL A   1      24.175  36.723  47.423  1.00  0.00    +0.000 C 
ATOM    121  H30 UNL A   1      27.353  41.921  49.580  1.00  0.00    +0.000 H 
ATOM    122  H31 UNL A   1      29.754  42.295  48.636  1.00  0.00    +0.000 H 
ATOM    123  H32 UNL A   1      28.189  38.879  46.894  1.00  0.00    +0.000 H 
ATOM    124  H33 UNL A   1      28.912  33.784  43.123  1.00  0.00    +0.000 H 
ATOM    125  H34 UNL A   1      26.542  33.467  43.982  1.00  0.00    +0.000 H 
ATOM    126  H35 UNL A   1      28.094  36.890  45.759  1.00  0.00    +0.000 H 
ATOM    127  H36 UNL A   1      32.657  37.546  43.743  1.00  0.00    +0.000 H 
ATOM    128  H37 UNL A   1      32.903  39.580  45.276  1.00  0.00    +0.000 H 
ENDROOT
BRANCH   33   32
ATOM    131  H40 UNL A   1      23.767  35.588  43.964  1.00  0.00    +0.000 H 
ATOM    132  H41 UNL A   1      21.907  34.079  43.597  1.00  0.00    +0.000 H 
ATOM    119  H28 UNL A   1      23.331  31.569  46.657  1.00  0.00    +0.000 H 
ATOM    120  H29 UNL A   1      25.062  33.189  47.176  1.00  0.00    +0.000 H 
ATOM     90  C62 UNL A   1      23.665  34.745  44.551  1.00  0.00    +0.000 C 
ATOM     91  C63 UNL A   1      22.621  33.855  44.309  1.00  0.00    +0.000 C 
ATOM     29  C20 UNL A   1      22.539  32.663  45.031  1.00  0.00    +0.000 C 
ATOM     30  C21 UNL A   1      23.422  32.425  46.089  1.00  0.00    +0.000 C 
ATOM     31  C22 UNL A   1      24.428  33.352  46.378  1.00  0.00    +0.000 C 
ATOM     32  C23 UNL A   1      24.581  34.502  45.587  1.00  0.00    +0.000 C 
BRANCH   29   27
ATOM     27  C19 UNL A   1      21.520  31.639  44.708  1.00  0.00    +0.000 C 
ATOM     28  O5  UNL A   1      21.843  30.456  44.667  1.00  0.00    +0.000 O 
BRANCH   27   26
ATOM     26  N4  UNL A   1      20.226  32.012  44.432  1.00  0.00    +0.000 N 
ATOM    118  H27 UNL A   1      19.705  32.318  45.208  1.00  0.00    +0.000 H 
BRANCH   26   25
ATOM     25  C18 UNL A   1      19.513  32.022  43.163  1.00  0.00    +0.000 C 
ATOM    116  H25 UNL A   1      20.188  32.339  42.394  1.00  0.00    +0.000 H 
ATOM    117  H26 UNL A   1      19.150  31.031  42.990  1.00  0.00    +0.000 H 
BRANCH   25   24
ATOM    114  H23 UNL A   1      17.787  32.819  44.094  1.00  0.00    +0.000 H 
ATOM    115  H24 UNL A   1      18.702  33.947  43.047  1.00  0.00    +0.000 H 
ATOM     24  C17 UNL A   1      18.309  32.959  43.171  1.00  0.00    +0.000 C 
BRANCH   24   23
ATOM    113  H22 UNL A   1      17.878  32.867  41.128  1.00  0.00    +0.000 H 
ATOM     23  C16 UNL A   1      17.315  32.752  42.030  1.00  0.00    +0.000 C 
ATOM    112  H21 UNL A   1      16.529  33.470  42.145  1.00  0.00    +0.000 H 
BRANCH   23   22
ATOM    110  H19 UNL A   1      15.963  31.379  41.152  1.00  0.00    +0.000 H 
ATOM     22  C15 UNL A   1      16.677  31.364  41.950  1.00  0.00    +0.000 C 
ATOM    111  H20 UNL A   1      17.489  30.685  41.802  1.00  0.00    +0.000 H 
BRANCH   22   21
ATOM    109  H18 UNL A   1      15.013  30.486  42.886  1.00  0.00    +0.000 H 
ATOM    108  H17 UNL A   1      15.865  31.700  43.885  1.00  0.00    +0.000 H 
ATOM     21  C14 UNL A   1      15.956  30.873  43.212  1.00  0.00    +0.000 C 
BRANCH   21   20
ATOM    106  H15 UNL A   1      17.555  29.488  43.429  1.00  0.00    +0.000 H 
ATOM    107  H16 UNL A   1      16.848  30.071  44.949  1.00  0.00    +0.000 H 
ATOM     20  C13 UNL A   1      16.654  29.732  43.952  1.00  0.00    +0.000 C 
BRANCH   20   19
ATOM    105  H14 UNL A   1      15.139  28.500  44.742  1.00  0.00    +0.000 H 
ATOM     19  N3  UNL A   1      15.841  28.536  44.052  1.00  0.00    +0.000 N 
BRANCH   19    2
ATOM      1  O1  UNL A   1      16.208  27.538  42.017  1.00  0.00    +0.000 O 
ATOM      2  C1  UNL A   1      16.011  27.448  43.226  1.00  0.00    +0.000 C 
BRANCH    2    3
ATOM      3  C2  UNL A   1      15.864  26.080  43.907  1.00  0.00    +0.000 C 
ATOM     92  H1  UNL A   1      15.442  26.233  44.880  1.00  0.00    +0.000 H 
ATOM     93  H2  UNL A   1      16.841  25.647  43.943  1.00  0.00    +0.000 H 
BRANCH    3    4
ATOM      4  N1  UNL A   1      15.015  25.138  43.185  1.00  0.00    +0.000 N 
ATOM     94  H3  UNL A   1      15.422  24.263  42.991  1.00  0.00    +0.000 H 
BRANCH    4    5
ATOM      5  C3  UNL A   1      13.734  25.301  42.740  1.00  0.00    +0.000 C 
ATOM      6  O2  UNL A   1      12.883  25.678  43.546  1.00  0.00    +0.000 O 
BRANCH    5    7
ATOM     95  H4  UNL A   1      13.327  25.996  40.756  1.00  0.00    +0.000 H 
ATOM      7  C4  UNL A   1      13.391  25.060  41.270  1.00  0.00    +0.000 C 
ATOM     96  H5  UNL A   1      12.449  24.558  41.191  1.00  0.00    +0.000 H 
BRANCH    7    8
ATOM     97  H6  UNL A   1      15.198  24.021  41.260  1.00  0.00    +0.000 H 
ATOM      8  N2  UNL A   1      14.437  24.250  40.680  1.00  0.00    +0.000 N 
BRANCH    8    9
ATOM      9  C5  UNL A   1      14.476  23.772  39.408  1.00  0.00    +0.000 C 
ATOM     10  O3  UNL A   1      15.118  24.358  38.549  1.00  0.00    +0.000 O 
BRANCH    9   11
ATOM     11  O4  UNL A   1      13.781  22.625  39.237  1.00  0.00    +0.000 O 
BRANCH   11   12
ATOM     98  H7  UNL A   1      13.463  22.246  41.227  1.00  0.00    +0.000 H 
ATOM     99  H8  UNL A   1      14.808  21.379  40.483  1.00  0.00    +0.000 H 
ATOM     12  C6  UNL A   1      13.804  21.725  40.357  1.00  0.00    +0.000 C 
BRANCH   12   13
ATOM    100  H9  UNL A   1      11.709  20.854  41.831  1.00  0.00    +0.000 H 
ATOM    101  H10 UNL A   1      10.372  18.856  41.565  1.00  0.00    +0.000 H 
ATOM    102  H11 UNL A   1      10.761  17.379  39.681  1.00  0.00    +0.000 H 
ATOM    103  H12 UNL A   1      12.499  17.901  38.073  1.00  0.00    +0.000 H 
ATOM    104  H13 UNL A   1      13.886  19.868  38.369  1.00  0.00    +0.000 H 
ATOM     13  C7  UNL A   1      12.920  20.522  40.131  1.00  0.00    +0.000 C 
ATOM     14  C8  UNL A   1      11.892  20.221  41.038  1.00  0.00    +0.000 C 
ATOM     15  C9  UNL A   1      11.113  19.074  40.881  1.00  0.00    +0.000 C 
ATOM     16  C10 UNL A   1      11.338  18.227  39.801  1.00  0.00    +0.000 C 
ATOM     17  C11 UNL A   1      12.343  18.524  38.880  1.00  0.00    +0.000 C 
ATOM     18  C12 UNL A   1      13.136  19.661  39.048  1.00  0.00    +0.000 C 
ENDBRANCH   12   13
ENDBRANCH   11   12
ENDBRANCH    9   11
ENDBRANCH    8    9
ENDBRANCH    7    8
ENDBRANCH    5    7
ENDBRANCH    4    5
ENDBRANCH    3    4
ENDBRANCH    2    3
ENDBRANCH   19    2
ENDBRANCH   20   19
ENDBRANCH   21   20
ENDBRANCH   22   21
ENDBRANCH   23   22
ENDBRANCH   24   23
ENDBRANCH   25   24
ENDBRANCH   26   25
ENDBRANCH   27   26
ENDBRANCH   29   27
ENDBRANCH   33   32
BRANCH   37   38
ATOM     38  C28 UNL A   1      25.009  40.346  49.331  1.00  0.00    +0.000 C 
ATOM     39  C29 UNL A   1      24.146  41.333  48.834  1.00  0.00    +0.000 C 
ATOM     40  F1  UNL A   1      24.213  41.702  47.545  1.00  0.00    +0.000 F 
ATOM     41  C30 UNL A   1      23.231  41.972  49.667  1.00  0.00    +0.000 C 
ATOM     42  F2  UNL A   1      22.447  42.943  49.178  1.00  0.00    +0.000 F 
ATOM     43  C31 UNL A   1      23.137  41.612  51.003  1.00  0.00    +0.000 C 
ATOM     44  F3  UNL A   1      22.249  42.221  51.801  1.00  0.00    +0.000 F 
ATOM     45  C32 UNL A   1      23.967  40.625  51.512  1.00  0.00    +0.000 C 
ATOM     46  F4  UNL A   1      23.868  40.267  52.800  1.00  0.00    +0.000 F 
ATOM     47  C33 UNL A   1      24.903  40.005  50.689  1.00  0.00    +0.000 C 
ATOM     48  F5  UNL A   1      25.701  39.063  51.214  1.00  0.00    +0.000 F 
ENDBRANCH   37   38
BRANCH   54   55
ATOM     65  F10 UNL A   1      30.666  42.877  45.727  1.00  0.00    +0.000 F 
ATOM     55  C39 UNL A   1      31.772  41.196  46.998  1.00  0.00    +0.000 C 
ATOM     56  C40 UNL A   1      32.916  40.827  47.720  1.00  0.00    +0.000 C 
ATOM     57  F6  UNL A   1      32.992  39.616  48.294  1.00  0.00    +0.000 F 
ATOM     58  C41 UNL A   1      33.974  41.718  47.886  1.00  0.00    +0.000 C 
ATOM     59  F7  UNL A   1      35.039  41.360  48.616  1.00  0.00    +0.000 F 
ATOM     60  C42 UNL A   1      33.922  42.977  47.307  1.00  0.00    +0.000 C 
ATOM     61  F8  UNL A   1      34.945  43.829  47.461  1.00  0.00    +0.000 F 
ATOM     62  C43 UNL A   1      32.806  43.356  46.575  1.00  0.00    +0.000 C 
ATOM     63  F9  UNL A   1      32.760  44.568  46.005  1.00  0.00    +0.000 F 
ATOM     64  C44 UNL A   1      31.735  42.479  46.432  1.00  0.00    +0.000 C 
ENDBRANCH   54   55
BRANCH   69   70
ATOM     70  C48 UNL A   1      31.091  35.453  43.113  1.00  0.00    +0.000 C 
ATOM     71  C49 UNL A   1      31.221  35.902  41.791  1.00  0.00    +0.000 C 
ATOM     72  F11 UNL A   1      30.522  36.968  41.374  1.00  0.00    +0.000 F 
ATOM     73  C50 UNL A   1      32.033  35.231  40.879  1.00  0.00    +0.000 C 
ATOM     74  F12 UNL A   1      32.099  35.651  39.609  1.00  0.00    +0.000 F 
ATOM     75  C51 UNL A   1      32.754  34.116  41.279  1.00  0.00    +0.000 C 
ATOM     76  F13 UNL A   1      33.535  33.471  40.403  1.00  0.00    +0.000 F 
ATOM     77  C52 UNL A   1      32.659  33.667  42.588  1.00  0.00    +0.000 C 
ATOM     78  F14 UNL A   1      33.365  32.599  42.982  1.00  0.00    +0.000 F 
ATOM     79  C53 UNL A   1      31.825  34.322  43.493  1.00  0.00    +0.000 C 
ATOM     80  F15 UNL A   1      31.739  33.855  44.748  1.00  0.00    +0.000 F 
ENDBRANCH   69   70
TORSDOF 23
ENDMDL
MODEL 10
REMARK VINA RESULT:      -9.7     41.302     48.771
ROOT
ATOM    129  H38 UNL A   1      23.110  34.458  47.171  1.00  0.00    +0.000 H 
ATOM    130  H39 UNL A   1      22.810  36.698  48.373  1.00  0.00    +0.000 H 
ATOM     33  C24 UNL A   1      25.165  38.303  48.412  1.00  0.00    +0.000 C 
ATOM     34  C25 UNL A   1      24.952  37.000  47.690  1.00  0.00    +0.000 C 
ATOM     35  N5  UNL A   1      25.780  36.328  46.932  1.00  0.00    +0.000 N 
ATOM     36  C26 UNL A   1      25.100  35.175  46.559  1.00  0.00    +0.000 C 
ATOM     37  C27 UNL A   1      25.507  34.184  45.731  1.00  0.00    +0.000 C 
ATOM     49  C34 UNL A   1      26.779  34.160  45.057  1.00  0.00    +0.000 C 
ATOM     50  C35 UNL A   1      27.259  33.229  44.152  1.00  0.00    +0.000 C 
ATOM     51  C36 UNL A   1      28.558  33.598  43.792  1.00  0.00    +0.000 C 
ATOM     52  C37 UNL A   1      28.870  34.786  44.433  1.00  0.00    +0.000 C 
ATOM     53  N6  UNL A   1      27.771  35.116  45.211  1.00  0.00    +0.000 N 
ATOM     54  C38 UNL A   1      30.079  35.562  44.345  1.00  0.00    +0.000 C 
ATOM     66  C45 UNL A   1      30.309  36.720  45.012  1.00  0.00    +0.000 C 
ATOM     67  N7  UNL A   1      29.472  37.407  45.878  1.00  0.00    +0.000 N 
ATOM     68  C46 UNL A   1      30.146  38.461  46.271  1.00  0.00    +0.000 C 
ATOM     69  C47 UNL A   1      29.718  39.576  47.187  1.00  0.00    +0.000 C 
ATOM     81  C54 UNL A   1      28.472  39.569  47.699  1.00  0.00    +0.000 C 
ATOM     82  C55 UNL A   1      27.920  40.577  48.599  1.00  0.00    +0.000 C 
ATOM     83  C56 UNL A   1      26.678  40.213  48.956  1.00  0.00    +0.000 C 
ATOM     84  C57 UNL A   1      26.331  38.963  48.279  1.00  0.00    +0.000 C 
ATOM     85  N8  UNL A   1      27.450  38.665  47.539  1.00  0.00    +0.000 N 
ATOM     86  C58 UNL A   1      31.506  38.541  45.719  1.00  0.00    +0.000 C 
ATOM     87  C59 UNL A   1      31.538  37.479  44.926  1.00  0.00    +0.000 C 
ATOM     88  C60 UNL A   1      23.808  35.216  47.212  1.00  0.00    +0.000 C 
ATOM     89  C61 UNL A   1      23.642  36.355  47.868  1.00  0.00    +0.000 C 
ATOM    121  H30 UNL A   1      26.746  32.403  43.805  1.00  0.00    +0.000 H 
ATOM    122  H31 UNL A   1      29.180  33.075  43.155  1.00  0.00    +0.000 H 
ATOM    123  H32 UNL A   1      27.706  35.912  45.788  1.00  0.00    +0.000 H 
ATOM    124  H33 UNL A   1      28.407  41.432  48.910  1.00  0.00    +0.000 H 
ATOM    125  H34 UNL A   1      26.066  40.731  49.605  1.00  0.00    +0.000 H 
ATOM    126  H35 UNL A   1      27.513  37.878  46.950  1.00  0.00    +0.000 H 
ATOM    127  H36 UNL A   1      32.242  39.240  45.902  1.00  0.00    +0.000 H 
ATOM    128  H37 UNL A   1      32.338  37.226  44.325  1.00  0.00    +0.000 H 
ENDROOT
BRANCH   33   32
ATOM    131  H40 UNL A   1      23.150  39.975  47.849  1.00  0.00    +0.000 H 
ATOM    132  H41 UNL A   1      21.484  40.904  49.344  1.00  0.00    +0.000 H 
ATOM    119  H28 UNL A   1      23.040  38.616  52.511  1.00  0.00    +0.000 H 
ATOM    120  H29 UNL A   1      24.843  37.858  51.073  1.00  0.00    +0.000 H 
ATOM     90  C62 UNL A   1      23.141  39.700  48.844  1.00  0.00    +0.000 C 
ATOM     91  C63 UNL A   1      22.155  40.201  49.692  1.00  0.00    +0.000 C 
ATOM     29  C20 UNL A   1      22.077  39.752  51.012  1.00  0.00    +0.000 C 
ATOM     30  C21 UNL A   1      23.068  38.907  51.522  1.00  0.00    +0.000 C 
ATOM     31  C22 UNL A   1      24.098  38.460  50.689  1.00  0.00    +0.000 C 
ATOM     32  C23 UNL A   1      24.122  38.823  49.333  1.00  0.00    +0.000 C 
BRANCH   29   27
ATOM     27  C19 UNL A   1      20.965  40.164  51.897  1.00  0.00    +0.000 C 
ATOM     28  O5  UNL A   1      21.132  41.086  52.690  1.00  0.00    +0.000 O 
BRANCH   27   26
ATOM     26  N4  UNL A   1      19.761  39.504  51.851  1.00  0.00    +0.000 N 
ATOM    118  H27 UNL A   1      19.823  38.528  51.741  1.00  0.00    +0.000 H 
BRANCH   26   25
ATOM     25  C18 UNL A   1      18.407  40.032  51.942  1.00  0.00    +0.000 C 
ATOM    116  H25 UNL A   1      17.850  39.428  52.628  1.00  0.00    +0.000 H 
ATOM    117  H26 UNL A   1      18.480  41.047  52.274  1.00  0.00    +0.000 H 
BRANCH   25   24
ATOM    114  H23 UNL A   1      16.951  40.816  50.622  1.00  0.00    +0.000 H 
ATOM    115  H24 UNL A   1      18.441  40.184  49.856  1.00  0.00    +0.000 H 
ATOM     24  C17 UNL A   1      17.684  40.038  50.599  1.00  0.00    +0.000 C 
BRANCH   24   23
ATOM    113  H22 UNL A   1      17.295  38.016  50.960  1.00  0.00    +0.000 H 
ATOM     23  C16 UNL A   1      16.978  38.734  50.233  1.00  0.00    +0.000 C 
ATOM    112  H21 UNL A   1      17.251  38.484  49.228  1.00  0.00    +0.000 H 
BRANCH   23   22
ATOM    110  H19 UNL A   1      15.178  38.723  51.348  1.00  0.00    +0.000 H 
ATOM     22  C15 UNL A   1      15.451  38.762  50.313  1.00  0.00    +0.000 C 
ATOM    111  H20 UNL A   1      15.156  39.660  49.813  1.00  0.00    +0.000 H 
BRANCH   22   21
ATOM    109  H18 UNL A   1      14.099  38.096  48.849  1.00  0.00    +0.000 H 
ATOM    108  H17 UNL A   1      14.150  37.081  50.320  1.00  0.00    +0.000 H 
ATOM     21  C14 UNL A   1      14.711  37.628  49.592  1.00  0.00    +0.000 C 
BRANCH   21   20
ATOM    106  H15 UNL A   1      16.600  37.047  48.806  1.00  0.00    +0.000 H 
ATOM    107  H16 UNL A   1      15.576  35.715  49.380  1.00  0.00    +0.000 H 
ATOM     20  C13 UNL A   1      15.610  36.642  48.847  1.00  0.00    +0.000 C 
BRANCH   20   19
ATOM    105  H14 UNL A   1      14.202  36.262  47.326  1.00  0.00    +0.000 H 
ATOM     19  N3  UNL A   1      15.165  36.377  47.492  1.00  0.00    +0.000 N 
BRANCH   19    2
ATOM      1  O1  UNL A   1      16.832  37.159  46.120  1.00  0.00    +0.000 O 
ATOM      2  C1  UNL A   1      16.034  36.277  46.428  1.00  0.00    +0.000 C 
BRANCH    2    3
ATOM      3  C2  UNL A   1      15.893  35.002  45.586  1.00  0.00    +0.000 C 
ATOM     92  H1  UNL A   1      14.858  34.873  45.343  1.00  0.00    +0.000 H 
ATOM     93  H2  UNL A   1      16.284  34.199  46.175  1.00  0.00    +0.000 H 
BRANCH    3    4
ATOM      4  N1  UNL A   1      16.655  35.017  44.342  1.00  0.00    +0.000 N 
ATOM     94  H3  UNL A   1      17.264  35.782  44.227  1.00  0.00    +0.000 H 
BRANCH    4    5
ATOM      5  C3  UNL A   1      16.642  34.118  43.314  1.00  0.00    +0.000 C 
ATOM      6  O2  UNL A   1      15.869  34.319  42.377  1.00  0.00    +0.000 O 
BRANCH    5    7
ATOM     95  H4  UNL A   1      18.565  33.234  42.983  1.00  0.00    +0.000 H 
ATOM      7  C4  UNL A   1      17.597  32.925  43.319  1.00  0.00    +0.000 C 
ATOM     96  H5  UNL A   1      17.233  32.161  42.664  1.00  0.00    +0.000 H 
BRANCH    7    8
ATOM     97  H6  UNL A   1      16.845  32.322  45.167  1.00  0.00    +0.000 H 
ATOM      8  N2  UNL A   1      17.690  32.415  44.672  1.00  0.00    +0.000 N 
BRANCH    8    9
ATOM      9  C5  UNL A   1      18.823  32.052  45.328  1.00  0.00    +0.000 C 
ATOM     10  O3  UNL A   1      19.349  30.972  45.100  1.00  0.00    +0.000 O 
BRANCH    9   11
ATOM     11  O4  UNL A   1      19.277  32.990  46.190  1.00  0.00    +0.000 O 
BRANCH   11   12
ATOM     98  H7  UNL A   1      19.348  34.375  44.680  1.00  0.00    +0.000 H 
ATOM     99  H8  UNL A   1      20.904  33.902  45.365  1.00  0.00    +0.000 H 
ATOM     12  C6  UNL A   1      19.883  34.139  45.576  1.00  0.00    +0.000 C 
BRANCH   12   13
ATOM    100  H9  UNL A   1      20.692  36.670  45.070  1.00  0.00    +0.000 H 
ATOM    101  H10 UNL A   1      20.797  38.574  46.558  1.00  0.00    +0.000 H 
ATOM    102  H11 UNL A   1      19.980  38.379  48.834  1.00  0.00    +0.000 H 
ATOM    103  H12 UNL A   1      19.071  36.272  49.618  1.00  0.00    +0.000 H 
ATOM    104  H13 UNL A   1      19.022  34.343  48.150  1.00  0.00    +0.000 H 
ATOM     13  C7  UNL A   1      19.862  35.342  46.488  1.00  0.00    +0.000 C 
ATOM     14  C8  UNL A   1      20.360  36.576  46.042  1.00  0.00    +0.000 C 
ATOM     15  C9  UNL A   1      20.413  37.677  46.895  1.00  0.00    +0.000 C 
ATOM     16  C10 UNL A   1      19.946  37.565  48.201  1.00  0.00    +0.000 C 
ATOM     17  C11 UNL A   1      19.429  36.350  48.653  1.00  0.00    +0.000 C 
ATOM     18  C12 UNL A   1      19.394  35.241  47.804  1.00  0.00    +0.000 C 
ENDBRANCH   12   13
ENDBRANCH   11   12
ENDBRANCH    9   11
ENDBRANCH    8    9
ENDBRANCH    7    8
ENDBRANCH    5    7
ENDBRANCH    4    5
ENDBRANCH    3    4
ENDBRANCH    2    3
ENDBRANCH   19    2
ENDBRANCH   20   19
ENDBRANCH   21   20
ENDBRANCH   22   21
ENDBRANCH   23   22
ENDBRANCH   24   23
ENDBRANCH   25   24
ENDBRANCH   26   25
ENDBRANCH   27   26
ENDBRANCH   29   27
ENDBRANCH   33   32
BRANCH   37   38
ATOM     38  C28 UNL A   1      24.566  33.038  45.502  1.00  0.00    +0.000 C 
ATOM     39  C29 UNL A   1      23.541  33.109  44.546  1.00  0.00    +0.000 C 
ATOM     40  F1  UNL A   1      23.347  34.239  43.847  1.00  0.00    +0.000 F 
ATOM     41  C30 UNL A   1      22.689  32.030  44.326  1.00  0.00    +0.000 C 
ATOM     42  F2  UNL A   1      21.690  32.137  43.439  1.00  0.00    +0.000 F 
ATOM     43  C31 UNL A   1      22.865  30.849  45.031  1.00  0.00    +0.000 C 
ATOM     44  F3  UNL A   1      22.050  29.808  44.812  1.00  0.00    +0.000 F 
ATOM     45  C32 UNL A   1      23.883  30.750  45.968  1.00  0.00    +0.000 C 
ATOM     46  F4  UNL A   1      24.063  29.604  46.640  1.00  0.00    +0.000 F 
ATOM     47  C33 UNL A   1      24.718  31.837  46.211  1.00  0.00    +0.000 C 
ATOM     48  F5  UNL A   1      25.686  31.713  47.132  1.00  0.00    +0.000 F 
ENDBRANCH   37   38
BRANCH   54   55
ATOM     65  F10 UNL A   1      32.007  33.629  45.123  1.00  0.00    +0.000 F 
ATOM     55  C39 UNL A   1      31.159  35.068  43.427  1.00  0.00    +0.000 C 
ATOM     56  C40 UNL A   1      31.299  35.558  42.121  1.00  0.00    +0.000 C 
ATOM     57  F6  UNL A   1      30.420  36.450  41.637  1.00  0.00    +0.000 F 
ATOM     58  C41 UNL A   1      32.322  35.105  41.293  1.00  0.00    +0.000 C 
ATOM     59  F7  UNL A   1      32.411  35.555  40.034  1.00  0.00    +0.000 F 
ATOM     60  C42 UNL A   1      33.243  34.180  41.765  1.00  0.00    +0.000 C 
ATOM     61  F8  UNL A   1      34.232  33.752  40.969  1.00  0.00    +0.000 F 
ATOM     62  C43 UNL A   1      33.132  33.695  43.060  1.00  0.00    +0.000 C 
ATOM     63  F9  UNL A   1      34.028  32.811  43.521  1.00  0.00    +0.000 F 
ATOM     64  C44 UNL A   1      32.093  34.124  43.879  1.00  0.00    +0.000 C 
ENDBRANCH   54   55
BRANCH   69   70
ATOM     70  C48 UNL A   1      30.649  40.690  47.509  1.00  0.00    +0.000 C 
ATOM     71  C49 UNL A   1      31.544  40.589  48.583  1.00  0.00    +0.000 C 
ATOM     72  F11 UNL A   1      31.562  39.480  49.337  1.00  0.00    +0.000 F 
ATOM     73  C50 UNL A   1      32.392  41.643  48.916  1.00  0.00    +0.000 C 
ATOM     74  F12 UNL A   1      33.202  41.539  49.977  1.00  0.00    +0.000 F 
ATOM     75  C51 UNL A   1      32.383  42.808  48.163  1.00  0.00    +0.000 C 
ATOM     76  F13 UNL A   1      33.197  43.821  48.482  1.00  0.00    +0.000 F 
ATOM     77  C52 UNL A   1      31.521  42.922  47.082  1.00  0.00    +0.000 C 
ATOM     78  F14 UNL A   1      31.518  44.040  46.343  1.00  0.00    +0.000 F 
ATOM     79  C53 UNL A   1      30.652  41.879  46.766  1.00  0.00    +0.000 C 
ATOM     80  F15 UNL A   1      29.818  42.024  45.726  1.00  0.00    +0.000 F 
ENDBRANCH   69   70
TORSDOF 23
ENDMDL
