MODEL 1
REMARK VINA RESULT:     -10.7      0.000      0.000
ROOT
ATOM     19  C15 UNL A   1      38.238  29.805  29.804  1.00  0.00    +0.000 C 
ATOM     20  C16 UNL A   1      38.517  30.369  31.170  1.00  0.00    +0.000 C 
ATOM     21  N3  UNL A   1      39.567  30.202  31.934  1.00  0.00    +0.000 N 
ATOM     22  C17 UNL A   1      39.332  30.964  33.071  1.00  0.00    +0.000 C 
ATOM     23  C18 UNL A   1      40.093  31.074  34.187  1.00  0.00    +0.000 C 
ATOM     35  C25 UNL A   1      41.342  30.388  34.390  1.00  0.00    +0.000 C 
ATOM     36  C26 UNL A   1      42.161  30.398  35.507  1.00  0.00    +0.000 C 
ATOM     37  C27 UNL A   1      43.286  29.612  35.233  1.00  0.00    +0.000 C 
ATOM     38  C28 UNL A   1      43.148  29.079  33.962  1.00  0.00    +0.000 C 
ATOM     39  N4  UNL A   1      41.955  29.567  33.455  1.00  0.00    +0.000 N 
ATOM     40  C29 UNL A   1      44.037  28.189  33.262  1.00  0.00    +0.000 C 
ATOM     52  C36 UNL A   1      43.822  27.702  32.015  1.00  0.00    +0.000 C 
ATOM     53  N5  UNL A   1      42.754  27.930  31.159  1.00  0.00    +0.000 N 
ATOM     54  C37 UNL A   1      43.019  27.258  30.066  1.00  0.00    +0.000 C 
ATOM     55  C38 UNL A   1      42.196  27.119  28.814  1.00  0.00    +0.000 C 
ATOM     67  C45 UNL A   1      41.001  27.734  28.740  1.00  0.00    +0.000 C 
ATOM     68  C46 UNL A   1      40.088  27.677  27.602  1.00  0.00    +0.000 C 
ATOM     69  C47 UNL A   1      39.011  28.433  27.866  1.00  0.00    +0.000 C 
ATOM     70  C48 UNL A   1      39.142  29.003  29.208  1.00  0.00    +0.000 C 
ATOM     71  N6  UNL A   1      40.354  28.534  29.651  1.00  0.00    +0.000 N 
ATOM     72  C49 UNL A   1      44.302  26.544  30.097  1.00  0.00    +0.000 C 
ATOM     73  C50 UNL A   1      44.730  26.812  31.322  1.00  0.00    +0.000 C 
ATOM     74  C51 UNL A   1      38.065  31.635  32.876  1.00  0.00    +0.000 C 
ATOM     75  C52 UNL A   1      37.492  31.256  31.742  1.00  0.00    +0.000 C 
ATOM    114  H21 UNL A   1      41.973  30.898  36.390  1.00  0.00    +0.000 H 
ATOM    115  H22 UNL A   1      44.084  29.458  35.870  1.00  0.00    +0.000 H 
ATOM    116  H23 UNL A   1      41.593  29.363  32.562  1.00  0.00    +0.000 H 
ATOM    117  H24 UNL A   1      40.247  27.142  26.734  1.00  0.00    +0.000 H 
ATOM    118  H25 UNL A   1      38.216  28.587  27.226  1.00  0.00    +0.000 H 
ATOM    119  H26 UNL A   1      40.725  28.751  30.536  1.00  0.00    +0.000 H 
ATOM    120  H27 UNL A   1      44.753  25.982  29.358  1.00  0.00    +0.000 H 
ATOM    121  H28 UNL A   1      45.599  26.434  31.730  1.00  0.00    +0.000 H 
ATOM    122  H29 UNL A   1      37.659  32.319  33.534  1.00  0.00    +0.000 H 
ATOM    123  H30 UNL A   1      36.570  31.516  31.360  1.00  0.00    +0.000 H 
ENDROOT
BRANCH   19   18
ATOM     76  C53 UNL A   1      35.993  29.203  28.880  1.00  0.00    +0.000 C 
ATOM     77  C54 UNL A   1      34.813  29.539  28.216  1.00  0.00    +0.000 C 
ATOM     15  C11 UNL A   1      34.583  30.862  27.828  1.00  0.00    +0.000 C 
ATOM    112  H19 UNL A   1      35.434  32.789  27.661  1.00  0.00    +0.000 H 
ATOM     16  C12 UNL A   1      35.585  31.821  27.989  1.00  0.00    +0.000 C 
ATOM     17  C13 UNL A   1      36.793  31.470  28.597  1.00  0.00    +0.000 C 
ATOM    113  H20 UNL A   1      37.543  32.172  28.692  1.00  0.00    +0.000 H 
ATOM     18  C14 UNL A   1      36.993  30.165  29.078  1.00  0.00    +0.000 C 
ATOM    124  H31 UNL A   1      36.130  28.240  29.226  1.00  0.00    +0.000 H 
ATOM    125  H32 UNL A   1      34.111  28.811  28.012  1.00  0.00    +0.000 H 
BRANCH   15   13
ATOM     13  C10 UNL A   1      33.297  31.275  27.222  1.00  0.00    +0.000 C 
ATOM     14  O2  UNL A   1      33.012  32.467  27.154  1.00  0.00    +0.000 O 
BRANCH   13   12
ATOM     12  N2  UNL A   1      32.416  30.331  26.757  1.00  0.00    +0.000 N 
ATOM    111  H18 UNL A   1      31.846  29.912  27.443  1.00  0.00    +0.000 H 
BRANCH   12   11
ATOM     11  C9  UNL A   1      32.202  29.857  25.399  1.00  0.00    +0.000 C 
ATOM    109  H16 UNL A   1      31.269  29.332  25.362  1.00  0.00    +0.000 H 
ATOM    110  H17 UNL A   1      32.198  30.711  24.754  1.00  0.00    +0.000 H 
BRANCH   11   10
ATOM     10  C8  UNL A   1      33.310  28.922  24.926  1.00  0.00    +0.000 C 
ATOM    107  H14 UNL A   1      33.197  28.780  23.872  1.00  0.00    +0.000 H 
ATOM    108  H15 UNL A   1      34.233  29.393  25.196  1.00  0.00    +0.000 H 
BRANCH   10    9
ATOM      9  C7  UNL A   1      33.325  27.545  25.591  1.00  0.00    +0.000 C 
ATOM    106  H13 UNL A   1      32.310  27.208  25.597  1.00  0.00    +0.000 H 
ATOM    105  H12 UNL A   1      33.746  27.653  26.569  1.00  0.00    +0.000 H 
BRANCH    9    8
ATOM    104  H11 UNL A   1      35.062  26.920  24.601  1.00  0.00    +0.000 H 
ATOM    103  H10 UNL A   1      33.553  26.164  23.997  1.00  0.00    +0.000 H 
ATOM      8  C6  UNL A   1      34.123  26.470  24.849  1.00  0.00    +0.000 C 
BRANCH    8    7
ATOM    101  H8  UNL A   1      34.985  25.523  26.547  1.00  0.00    +0.000 H 
ATOM    102  H9  UNL A   1      33.528  24.733  25.871  1.00  0.00    +0.000 H 
ATOM      7  C5  UNL A   1      34.461  25.216  25.666  1.00  0.00    +0.000 C 
BRANCH    7    6
ATOM     99  H6  UNL A   1      36.113  24.687  24.419  1.00  0.00    +0.000 H 
ATOM    100  H7  UNL A   1      35.724  23.504  25.665  1.00  0.00    +0.000 H 
ATOM      6  C4  UNL A   1      35.327  24.180  24.937  1.00  0.00    +0.000 C 
BRANCH    6    5
ATOM     98  H5  UNL A   1      34.609  23.692  23.038  1.00  0.00    +0.000 H 
ATOM      5  N1  UNL A   1      34.549  23.416  23.982  1.00  0.00    +0.000 N 
BRANCH    5    3
ATOM      3  C3  UNL A   1      33.738  22.349  24.264  1.00  0.00    +0.000 C 
ATOM      4  O1  UNL A   1      34.284  21.374  24.783  1.00  0.00    +0.000 O 
BRANCH    3    2
ATOM     97  H4  UNL A   1      31.730  21.898  24.740  1.00  0.00    +0.000 H 
ATOM      2  C2  UNL A   1      32.228  22.444  23.966  1.00  0.00    +0.000 C 
BRANCH    2    1
ATOM      1  C1  UNL A   1      32.007  21.845  22.571  1.00  0.00    +0.000 C 
ATOM     94  H1  UNL A   1      30.960  21.839  22.348  1.00  0.00    +0.000 H 
ATOM     95  H2  UNL A   1      32.382  20.844  22.549  1.00  0.00    +0.000 H 
ATOM     96  H3  UNL A   1      32.522  22.436  21.843  1.00  0.00    +0.000 H 
ENDBRANCH    2    1
BRANCH    2   78
ATOM    137  H44 UNL A   1      29.817  25.806  26.209  1.00  0.00    +0.000 H 
ATOM     78  C55 UNL A   1      31.577  23.834  24.083  1.00  0.00    +0.000 C 
ATOM     79  C56 UNL A   1      31.537  24.721  22.993  1.00  0.00    +0.000 C 
ATOM     80  C57 UNL A   1      30.864  25.945  23.051  1.00  0.00    +0.000 C 
ATOM     81  C58 UNL A   1      30.225  26.359  24.218  1.00  0.00    +0.000 C 
ATOM     89  C65 UNL A   1      30.277  25.517  25.331  1.00  0.00    +0.000 C 
ATOM     90  C66 UNL A   1      30.949  24.278  25.275  1.00  0.00    +0.000 C 
ATOM    126  H33 UNL A   1      32.022  24.459  22.120  1.00  0.00    +0.000 H 
ATOM    127  H34 UNL A   1      30.838  26.552  22.216  1.00  0.00    +0.000 H 
BRANCH   81   82
ATOM    129  H36 UNL A   1      28.603  27.474  24.843  1.00  0.00    +0.000 H 
ATOM     82  C59 UNL A   1      29.484  27.673  24.268  1.00  0.00    +0.000 C 
ATOM    128  H35 UNL A   1      30.143  28.400  24.694  1.00  0.00    +0.000 H 
BRANCH   82   83
ATOM    130  H37 UNL A   1      29.058  27.360  22.320  1.00  0.00    +0.000 H 
ATOM    131  H38 UNL A   1      26.983  28.357  23.738  1.00  0.00    +0.000 H 
ATOM    132  H39 UNL A   1      27.035  28.537  22.024  1.00  0.00    +0.000 H 
ATOM    133  H40 UNL A   1      27.750  30.538  24.150  1.00  0.00    +0.000 H 
ATOM    134  H41 UNL A   1      26.817  30.808  22.731  1.00  0.00    +0.000 H 
ATOM    135  H42 UNL A   1      29.436  31.498  22.858  1.00  0.00    +0.000 H 
ATOM    136  H43 UNL A   1      28.771  31.009  21.371  1.00  0.00    +0.000 H 
ATOM     83  C60 UNL A   1      28.975  28.232  22.935  1.00  0.00    +0.000 C 
ATOM     84  C61 UNL A   1      27.546  28.780  22.933  1.00  0.00    +0.000 C 
ATOM     85  C62 UNL A   1      27.671  30.289  23.112  1.00  0.00    +0.000 C 
ATOM     86  C63 UNL A   1      28.944  30.679  22.375  1.00  0.00    +0.000 C 
ATOM     87  C64 UNL A   1      29.772  29.423  22.457  1.00  0.00    +0.000 C 
ATOM     88  O3  UNL A   1      30.958  29.372  22.151  1.00  0.00    +0.000 O 
ENDBRANCH   82   83
ENDBRANCH   81   82
BRANCH   90   91
ATOM     91  N7  UNL A   1      30.943  23.496  26.494  1.00  0.00    +0.000 N 
ATOM     92  O4  UNL A   1      31.910  23.490  27.227  1.00  0.00    +0.000 O 
ATOM     93  O5  UNL A   1      29.887  22.685  26.830  1.00  0.00    +0.000 O 
ENDBRANCH   90   91
ENDBRANCH    2   78
ENDBRANCH    3    2
ENDBRANCH    5    3
ENDBRANCH    6    5
ENDBRANCH    7    6
ENDBRANCH    8    7
ENDBRANCH    9    8
ENDBRANCH   10    9
ENDBRANCH   11   10
ENDBRANCH   12   11
ENDBRANCH   13   12
ENDBRANCH   15   13
ENDBRANCH   19   18
BRANCH   23   24
ATOM     33  C24 UNL A   1      38.725  31.458  36.272  1.00  0.00    +0.000 C 
ATOM     34  F5  UNL A   1      38.376  30.163  36.268  1.00  0.00    +0.000 F 
ATOM     24  C19 UNL A   1      39.590  31.960  35.288  1.00  0.00    +0.000 C 
ATOM     25  C20 UNL A   1      39.918  33.324  35.336  1.00  0.00    +0.000 C 
ATOM     26  F1  UNL A   1      40.749  33.850  34.424  1.00  0.00    +0.000 F 
ATOM     27  C21 UNL A   1      39.414  34.147  36.339  1.00  0.00    +0.000 C 
ATOM     28  F2  UNL A   1      39.771  35.439  36.385  1.00  0.00    +0.000 F 
ATOM     29  C22 UNL A   1      38.551  33.632  37.293  1.00  0.00    +0.000 C 
ATOM     30  F3  UNL A   1      38.056  34.429  38.252  1.00  0.00    +0.000 F 
ATOM     31  C23 UNL A   1      38.202  32.291  37.258  1.00  0.00    +0.000 C 
ATOM     32  F4  UNL A   1      37.357  31.795  38.173  1.00  0.00    +0.000 F 
ENDBRANCH   23   24
BRANCH   40   41
ATOM     41  C30 UNL A   1      45.288  27.748  33.962  1.00  0.00    +0.000 C 
ATOM     42  C31 UNL A   1      45.318  26.588  34.749  1.00  0.00    +0.000 C 
ATOM     43  F6  UNL A   1      44.204  25.862  34.924  1.00  0.00    +0.000 F 
ATOM     44  C32 UNL A   1      46.485  26.195  35.399  1.00  0.00    +0.000 C 
ATOM     45  F7  UNL A   1      46.477  25.111  36.188  1.00  0.00    +0.000 F 
ATOM     46  C33 UNL A   1      47.649  26.933  35.246  1.00  0.00    +0.000 C 
ATOM     47  F8  UNL A   1      48.773  26.552  35.871  1.00  0.00    +0.000 F 
ATOM     48  C34 UNL A   1      47.648  28.071  34.453  1.00  0.00    +0.000 C 
ATOM     49  F9  UNL A   1      48.775  28.778  34.295  1.00  0.00    +0.000 F 
ATOM     50  C35 UNL A   1      46.476  28.482  33.825  1.00  0.00    +0.000 C 
ATOM     51  F10 UNL A   1      46.501  29.597  33.078  1.00  0.00    +0.000 F 
ENDBRANCH   40   41
BRANCH   55   56
ATOM     65  C44 UNL A   1      43.557  26.827  26.715  1.00  0.00    +0.000 C 
ATOM     66  F15 UNL A   1      43.949  28.107  26.796  1.00  0.00    +0.000 F 
ATOM     56  C39 UNL A   1      42.684  26.297  27.676  1.00  0.00    +0.000 C 
ATOM     57  C40 UNL A   1      42.301  24.956  27.541  1.00  0.00    +0.000 C 
ATOM     58  F11 UNL A   1      41.485  24.399  28.447  1.00  0.00    +0.000 F 
ATOM     59  C41 UNL A   1      42.794  24.167  26.504  1.00  0.00    +0.000 C 
ATOM     60  F12 UNL A   1      42.454  22.873  26.428  1.00  0.00    +0.000 F 
ATOM     61  C42 UNL A   1      43.654  24.714  25.562  1.00  0.00    +0.000 C 
ATOM     62  F13 UNL A   1      44.129  23.955  24.565  1.00  0.00    +0.000 F 
ATOM     63  C43 UNL A   1      44.027  26.046  25.661  1.00  0.00    +0.000 C 
ATOM     64  F14 UNL A   1      44.846  26.582  24.747  1.00  0.00    +0.000 F 
ENDBRANCH   55   56
TORSDOF 20
ENDMDL
MODEL 2
REMARK VINA RESULT:     -10.5      2.666      3.719
ROOT
ATOM     19  C15 UNL A   1      39.954  28.911  29.192  1.00  0.00    +0.000 C 
ATOM     20  C16 UNL A   1      40.799  29.840  30.020  1.00  0.00    +0.000 C 
ATOM     21  N3  UNL A   1      42.046  29.709  30.395  1.00  0.00    +0.000 N 
ATOM     22  C17 UNL A   1      42.348  30.858  31.115  1.00  0.00    +0.000 C 
ATOM     23  C18 UNL A   1      43.494  31.173  31.764  1.00  0.00    +0.000 C 
ATOM     35  C25 UNL A   1      44.658  30.326  31.816  1.00  0.00    +0.000 C 
ATOM     36  C26 UNL A   1      45.850  30.536  32.489  1.00  0.00    +0.000 C 
ATOM     37  C27 UNL A   1      46.702  29.460  32.219  1.00  0.00    +0.000 C 
ATOM     38  C28 UNL A   1      46.026  28.559  31.412  1.00  0.00    +0.000 C 
ATOM     39  N4  UNL A   1      44.777  29.106  31.168  1.00  0.00    +0.000 N 
ATOM     40  C29 UNL A   1      46.486  27.294  30.902  1.00  0.00    +0.000 C 
ATOM     52  C36 UNL A   1      45.754  26.462  30.120  1.00  0.00    +0.000 C 
ATOM     53  N5  UNL A   1      44.458  26.619  29.650  1.00  0.00    +0.000 N 
ATOM     54  C37 UNL A   1      44.209  25.560  28.920  1.00  0.00    +0.000 C 
ATOM     55  C38 UNL A   1      42.950  25.186  28.187  1.00  0.00    +0.000 C 
ATOM     67  C45 UNL A   1      41.880  26.001  28.257  1.00  0.00    +0.000 C 
ATOM     68  C46 UNL A   1      40.591  25.763  27.616  1.00  0.00    +0.000 C 
ATOM     69  C47 UNL A   1      39.776  26.798  27.875  1.00  0.00    +0.000 C 
ATOM     70  C48 UNL A   1      40.475  27.758  28.729  1.00  0.00    +0.000 C 
ATOM     71  N6  UNL A   1      41.719  27.203  28.904  1.00  0.00    +0.000 N 
ATOM     72  C49 UNL A   1      45.334  24.619  28.826  1.00  0.00    +0.000 C 
ATOM     73  C50 UNL A   1      46.233  25.194  29.611  1.00  0.00    +0.000 C 
ATOM     74  C51 UNL A   1      41.170  31.699  31.082  1.00  0.00    +0.000 C 
ATOM     75  C52 UNL A   1      40.165  31.090  30.468  1.00  0.00    +0.000 C 
ATOM    114  H21 UNL A   1      46.070  31.347  33.088  1.00  0.00    +0.000 H 
ATOM    115  H22 UNL A   1      47.670  29.356  32.562  1.00  0.00    +0.000 H 
ATOM    116  H23 UNL A   1      44.076  28.690  30.616  1.00  0.00    +0.000 H 
ATOM    117  H24 UNL A   1      40.346  24.933  27.053  1.00  0.00    +0.000 H 
ATOM    118  H25 UNL A   1      38.809  26.899  27.528  1.00  0.00    +0.000 H 
ATOM    119  H26 UNL A   1      42.427  27.624  29.442  1.00  0.00    +0.000 H 
ATOM    120  H27 UNL A   1      45.405  23.740  28.289  1.00  0.00    +0.000 H 
ATOM    121  H28 UNL A   1      47.156  24.790  29.831  1.00  0.00    +0.000 H 
ATOM    122  H29 UNL A   1      41.119  32.648  31.485  1.00  0.00    +0.000 H 
ATOM    123  H30 UNL A   1      39.193  31.410  30.337  1.00  0.00    +0.000 H 
ENDROOT
BRANCH   19   18
ATOM     76  C53 UNL A   1      38.271  29.771  27.553  1.00  0.00    +0.000 C 
ATOM     77  C54 UNL A   1      36.962  30.098  27.203  1.00  0.00    +0.000 C 
ATOM     15  C11 UNL A   1      35.916  29.845  28.096  1.00  0.00    +0.000 C 
ATOM    112  H19 UNL A   1      35.428  29.243  30.062  1.00  0.00    +0.000 H 
ATOM     16  C12 UNL A   1      36.195  29.386  29.385  1.00  0.00    +0.000 C 
ATOM     17  C13 UNL A   1      37.515  29.119  29.759  1.00  0.00    +0.000 C 
ATOM    113  H20 UNL A   1      37.722  28.805  30.719  1.00  0.00    +0.000 H 
ATOM     18  C14 UNL A   1      38.560  29.276  28.834  1.00  0.00    +0.000 C 
ATOM    124  H31 UNL A   1      39.032  29.893  26.866  1.00  0.00    +0.000 H 
ATOM    125  H32 UNL A   1      36.764  30.525  26.285  1.00  0.00    +0.000 H 
BRANCH   15   13
ATOM     13  C10 UNL A   1      34.505  30.076  27.715  1.00  0.00    +0.000 C 
ATOM     14  O2  UNL A   1      34.126  31.213  27.446  1.00  0.00    +0.000 O 
BRANCH   13   12
ATOM     12  N2  UNL A   1      33.615  29.031  27.682  1.00  0.00    +0.000 N 
ATOM    111  H18 UNL A   1      33.025  28.956  28.467  1.00  0.00    +0.000 H 
BRANCH   12   11
ATOM     11  C9  UNL A   1      33.419  28.019  26.658  1.00  0.00    +0.000 C 
ATOM    109  H16 UNL A   1      33.858  28.365  25.744  1.00  0.00    +0.000 H 
ATOM    110  H17 UNL A   1      33.883  27.117  26.999  1.00  0.00    +0.000 H 
BRANCH   11   10
ATOM     10  C8  UNL A   1      31.944  27.719  26.409  1.00  0.00    +0.000 C 
ATOM    107  H14 UNL A   1      31.385  28.101  27.236  1.00  0.00    +0.000 H 
ATOM    108  H15 UNL A   1      31.699  28.183  25.477  1.00  0.00    +0.000 H 
BRANCH   10    9
ATOM      9  C7  UNL A   1      31.602  26.237  26.250  1.00  0.00    +0.000 C 
ATOM    106  H13 UNL A   1      31.273  26.115  25.239  1.00  0.00    +0.000 H 
ATOM    105  H12 UNL A   1      30.854  25.990  26.976  1.00  0.00    +0.000 H 
BRANCH    9    8
ATOM    104  H11 UNL A   1      33.354  25.664  27.243  1.00  0.00    +0.000 H 
ATOM    103  H10 UNL A   1      33.307  25.220  25.507  1.00  0.00    +0.000 H 
ATOM      8  C6  UNL A   1      32.775  25.271  26.433  1.00  0.00    +0.000 C 
BRANCH    8    7
ATOM    101  H8  UNL A   1      31.783  23.895  27.715  1.00  0.00    +0.000 H 
ATOM    102  H9  UNL A   1      31.898  23.412  25.996  1.00  0.00    +0.000 H 
ATOM      7  C5  UNL A   1      32.397  23.841  26.841  1.00  0.00    +0.000 C 
BRANCH    7    6
ATOM     99  H6  UNL A   1      33.907  23.095  28.154  1.00  0.00    +0.000 H 
ATOM    100  H7  UNL A   1      33.262  21.906  27.024  1.00  0.00    +0.000 H 
ATOM      6  C4  UNL A   1      33.583  22.919  27.150  1.00  0.00    +0.000 C 
BRANCH    6    5
ATOM     98  H5  UNL A   1      35.129  24.042  26.307  1.00  0.00    +0.000 H 
ATOM      5  N1  UNL A   1      34.692  23.161  26.248  1.00  0.00    +0.000 N 
BRANCH    5    3
ATOM      3  C3  UNL A   1      35.191  22.284  25.323  1.00  0.00    +0.000 C 
ATOM      4  O1  UNL A   1      35.700  21.254  25.768  1.00  0.00    +0.000 O 
BRANCH    3    2
ATOM     97  H4  UNL A   1      34.647  21.728  23.358  1.00  0.00    +0.000 H 
ATOM      2  C2  UNL A   1      35.051  22.605  23.821  1.00  0.00    +0.000 C 
BRANCH    2    1
ATOM      1  C1  UNL A   1      36.451  22.964  23.305  1.00  0.00    +0.000 C 
ATOM     94  H1  UNL A   1      36.912  23.657  23.979  1.00  0.00    +0.000 H 
ATOM     95  H2  UNL A   1      36.371  23.410  22.336  1.00  0.00    +0.000 H 
ATOM     96  H3  UNL A   1      37.047  22.078  23.243  1.00  0.00    +0.000 H 
ENDBRANCH    2    1
BRANCH    2   78
ATOM    137  H44 UNL A   1      30.789  24.087  22.484  1.00  0.00    +0.000 H 
ATOM     78  C55 UNL A   1      34.022  23.679  23.427  1.00  0.00    +0.000 C 
ATOM     79  C56 UNL A   1      34.387  25.030  23.287  1.00  0.00    +0.000 C 
ATOM     80  C57 UNL A   1      33.490  26.002  22.834  1.00  0.00    +0.000 C 
ATOM     81  C58 UNL A   1      32.169  25.677  22.531  1.00  0.00    +0.000 C 
ATOM     89  C65 UNL A   1      31.765  24.350  22.695  1.00  0.00    +0.000 C 
ATOM     90  C66 UNL A   1      32.668  23.364  23.144  1.00  0.00    +0.000 C 
ATOM    126  H33 UNL A   1      35.350  25.313  23.527  1.00  0.00    +0.000 H 
ATOM    127  H34 UNL A   1      33.811  26.977  22.721  1.00  0.00    +0.000 H 
BRANCH   81   82
ATOM    129  H36 UNL A   1      31.780  27.314  21.335  1.00  0.00    +0.000 H 
ATOM     82  C59 UNL A   1      31.211  26.727  22.025  1.00  0.00    +0.000 C 
ATOM    128  H35 UNL A   1      30.371  26.220  21.598  1.00  0.00    +0.000 H 
BRANCH   82   83
ATOM    130  H37 UNL A   1      31.361  27.560  23.858  1.00  0.00    +0.000 H 
ATOM    131  H38 UNL A   1      31.370  29.362  21.842  1.00  0.00    +0.000 H 
ATOM    132  H39 UNL A   1      30.933  29.842  23.439  1.00  0.00    +0.000 H 
ATOM    133  H40 UNL A   1      29.146  29.201  21.109  1.00  0.00    +0.000 H 
ATOM    134  H41 UNL A   1      29.011  30.526  22.197  1.00  0.00    +0.000 H 
ATOM    135  H42 UNL A   1      27.479  28.306  22.471  1.00  0.00    +0.000 H 
ATOM    136  H43 UNL A   1      27.944  29.178  23.855  1.00  0.00    +0.000 H 
ATOM     83  C60 UNL A   1      30.674  27.727  23.054  1.00  0.00    +0.000 C 
ATOM     84  C61 UNL A   1      30.664  29.197  22.628  1.00  0.00    +0.000 C 
ATOM     85  C62 UNL A   1      29.250  29.485  22.136  1.00  0.00    +0.000 C 
ATOM     86  C63 UNL A   1      28.337  28.643  23.015  1.00  0.00    +0.000 C 
ATOM     87  C64 UNL A   1      29.223  27.488  23.402  1.00  0.00    +0.000 C 
ATOM     88  O3  UNL A   1      28.812  26.475  23.955  1.00  0.00    +0.000 O 
ENDBRANCH   82   83
ENDBRANCH   81   82
BRANCH   90   91
ATOM     91  N7  UNL A   1      32.131  22.027  23.284  1.00  0.00    +0.000 N 
ATOM     92  O4  UNL A   1      31.801  21.605  24.374  1.00  0.00    +0.000 O 
ATOM     93  O5  UNL A   1      32.041  21.166  22.217  1.00  0.00    +0.000 O 
ENDBRANCH   90   91
ENDBRANCH    2   78
ENDBRANCH    3    2
ENDBRANCH    5    3
ENDBRANCH    6    5
ENDBRANCH    7    6
ENDBRANCH    8    7
ENDBRANCH    9    8
ENDBRANCH   10    9
ENDBRANCH   11   10
ENDBRANCH   12   11
ENDBRANCH   13   12
ENDBRANCH   15   13
ENDBRANCH   19   18
BRANCH   23   24
ATOM     33  C24 UNL A   1      43.107  32.587  33.817  1.00  0.00    +0.000 C 
ATOM     34  F5  UNL A   1      42.679  31.498  34.473  1.00  0.00    +0.000 F 
ATOM     24  C19 UNL A   1      43.547  32.485  32.489  1.00  0.00    +0.000 C 
ATOM     25  C20 UNL A   1      43.979  33.657  31.848  1.00  0.00    +0.000 C 
ATOM     26  F1  UNL A   1      44.419  33.610  30.582  1.00  0.00    +0.000 F 
ATOM     27  C21 UNL A   1      43.987  34.878  32.517  1.00  0.00    +0.000 C 
ATOM     28  F2  UNL A   1      44.438  35.977  31.896  1.00  0.00    +0.000 F 
ATOM     29  C22 UNL A   1      43.535  34.957  33.825  1.00  0.00    +0.000 C 
ATOM     30  F3  UNL A   1      43.531  36.136  34.464  1.00  0.00    +0.000 F 
ATOM     31  C23 UNL A   1      43.090  33.815  34.474  1.00  0.00    +0.000 C 
ATOM     32  F4  UNL A   1      42.643  33.893  35.735  1.00  0.00    +0.000 F 
ENDBRANCH   23   24
BRANCH   40   41
ATOM     41  C30 UNL A   1      47.868  26.845  31.271  1.00  0.00    +0.000 C 
ATOM     42  C31 UNL A   1      48.992  27.245  30.532  1.00  0.00    +0.000 C 
ATOM     43  F6  UNL A   1      48.844  28.015  29.444  1.00  0.00    +0.000 F 
ATOM     44  C32 UNL A   1      50.268  26.815  30.883  1.00  0.00    +0.000 C 
ATOM     45  F7  UNL A   1      51.321  27.166  30.132  1.00  0.00    +0.000 F 
ATOM     46  C33 UNL A   1      50.449  26.008  31.997  1.00  0.00    +0.000 C 
ATOM     47  F8  UNL A   1      51.679  25.596  32.335  1.00  0.00    +0.000 F 
ATOM     48  C34 UNL A   1      49.355  25.620  32.755  1.00  0.00    +0.000 C 
ATOM     49  F9  UNL A   1      49.530  24.850  33.839  1.00  0.00    +0.000 F 
ATOM     50  C35 UNL A   1      48.074  26.026  32.390  1.00  0.00    +0.000 C 
ATOM     51  F10 UNL A   1      47.033  25.621  33.134  1.00  0.00    +0.000 F 
ENDBRANCH   40   41
BRANCH   55   56
ATOM     65  C44 UNL A   1      43.211  23.882  26.049  1.00  0.00    +0.000 C 
ATOM     66  F15 UNL A   1      43.585  25.003  25.416  1.00  0.00    +0.000 F 
ATOM     56  C39 UNL A   1      42.874  23.922  27.409  1.00  0.00    +0.000 C 
ATOM     57  C40 UNL A   1      42.484  22.723  28.020  1.00  0.00    +0.000 C 
ATOM     58  F11 UNL A   1      42.173  22.707  29.325  1.00  0.00    +0.000 F 
ATOM     59  C41 UNL A   1      42.458  21.526  27.307  1.00  0.00    +0.000 C 
ATOM     60  F12 UNL A   1      42.132  20.385  27.929  1.00  0.00    +0.000 F 
ATOM     61  C42 UNL A   1      42.791  21.512  25.961  1.00  0.00    +0.000 C 
ATOM     62  F13 UNL A   1      42.769  20.360  25.276  1.00  0.00    +0.000 F 
ATOM     63  C43 UNL A   1      43.157  22.690  25.329  1.00  0.00    +0.000 C 
ATOM     64  F14 UNL A   1      43.467  22.683  24.025  1.00  0.00    +0.000 F 
ENDBRANCH   55   56
TORSDOF 20
ENDMDL
MODEL 3
REMARK VINA RESULT:     -10.5      1.156      2.008
ROOT
ATOM     19  C15 UNL A   1      38.352  29.866  29.866  1.00  0.00    +0.000 C 
ATOM     20  C16 UNL A   1      38.630  30.394  31.247  1.00  0.00    +0.000 C 
ATOM     21  N3  UNL A   1      39.648  30.152  32.034  1.00  0.00    +0.000 N 
ATOM     22  C17 UNL A   1      39.432  30.911  33.176  1.00  0.00    +0.000 C 
ATOM     23  C18 UNL A   1      40.169  30.959  34.312  1.00  0.00    +0.000 C 
ATOM     35  C25 UNL A   1      41.369  30.195  34.535  1.00  0.00    +0.000 C 
ATOM     36  C26 UNL A   1      42.159  30.139  35.672  1.00  0.00    +0.000 C 
ATOM     37  C27 UNL A   1      43.240  29.290  35.413  1.00  0.00    +0.000 C 
ATOM     38  C28 UNL A   1      43.102  28.784  34.131  1.00  0.00    +0.000 C 
ATOM     39  N4  UNL A   1      41.953  29.351  33.603  1.00  0.00    +0.000 N 
ATOM     40  C29 UNL A   1      43.952  27.851  33.440  1.00  0.00    +0.000 C 
ATOM     52  C36 UNL A   1      43.740  27.395  32.181  1.00  0.00    +0.000 C 
ATOM     53  N5  UNL A   1      42.709  27.700  31.303  1.00  0.00    +0.000 N 
ATOM     54  C37 UNL A   1      42.961  27.028  30.207  1.00  0.00    +0.000 C 
ATOM     55  C38 UNL A   1      42.163  26.956  28.932  1.00  0.00    +0.000 C 
ATOM     67  C45 UNL A   1      41.009  27.645  28.839  1.00  0.00    +0.000 C 
ATOM     68  C46 UNL A   1      40.125  27.659  27.678  1.00  0.00    +0.000 C 
ATOM     69  C47 UNL A   1      39.089  28.476  27.927  1.00  0.00    +0.000 C 
ATOM     70  C48 UNL A   1      39.220  29.018  29.280  1.00  0.00    +0.000 C 
ATOM     71  N6  UNL A   1      40.390  28.470  29.745  1.00  0.00    +0.000 N 
ATOM     72  C49 UNL A   1      44.197  26.236  30.257  1.00  0.00    +0.000 C 
ATOM     73  C50 UNL A   1      44.609  26.460  31.497  1.00  0.00    +0.000 C 
ATOM     74  C51 UNL A   1      38.213  31.661  32.961  1.00  0.00    +0.000 C 
ATOM     75  C52 UNL A   1      37.647  31.334  31.807  1.00  0.00    +0.000 C 
ATOM    114  H21 UNL A   1      41.979  30.638  36.557  1.00  0.00    +0.000 H 
ATOM    115  H22 UNL A   1      44.010  29.079  36.067  1.00  0.00    +0.000 H 
ATOM    116  H23 UNL A   1      41.603  29.181  32.698  1.00  0.00    +0.000 H 
ATOM    117  H24 UNL A   1      40.272  27.127  26.806  1.00  0.00    +0.000 H 
ATOM    118  H25 UNL A   1      38.321  28.687  27.270  1.00  0.00    +0.000 H 
ATOM    119  H26 UNL A   1      40.750  28.651  30.643  1.00  0.00    +0.000 H 
ATOM    120  H27 UNL A   1      44.632  25.657  29.522  1.00  0.00    +0.000 H 
ATOM    121  H28 UNL A   1      45.443  26.025  31.920  1.00  0.00    +0.000 H 
ATOM    122  H29 UNL A   1      37.833  32.360  33.619  1.00  0.00    +0.000 H 
ATOM    123  H30 UNL A   1      36.753  31.655  31.407  1.00  0.00    +0.000 H 
ENDROOT
BRANCH   19   18
ATOM     76  C53 UNL A   1      36.163  29.383  28.756  1.00  0.00    +0.000 C 
ATOM     77  C54 UNL A   1      35.022  29.797  28.069  1.00  0.00    +0.000 C 
ATOM     15  C11 UNL A   1      34.815  31.157  27.816  1.00  0.00    +0.000 C 
ATOM    112  H19 UNL A   1      35.674  33.085  27.911  1.00  0.00    +0.000 H 
ATOM     16  C12 UNL A   1      35.806  32.086  28.138  1.00  0.00    +0.000 C 
ATOM     17  C13 UNL A   1      36.978  31.662  28.770  1.00  0.00    +0.000 C 
ATOM    113  H20 UNL A   1      37.721  32.346  28.984  1.00  0.00    +0.000 H 
ATOM     18  C14 UNL A   1      37.150  30.312  29.116  1.00  0.00    +0.000 C 
ATOM    124  H31 UNL A   1      36.280  28.388  29.002  1.00  0.00    +0.000 H 
ATOM    125  H32 UNL A   1      34.333  29.102  27.746  1.00  0.00    +0.000 H 
BRANCH   15   13
ATOM     13  C10 UNL A   1      33.565  31.642  27.188  1.00  0.00    +0.000 C 
ATOM     14  O2  UNL A   1      33.033  32.666  27.606  1.00  0.00    +0.000 O 
BRANCH   13   12
ATOM     12  N2  UNL A   1      32.990  30.941  26.157  1.00  0.00    +0.000 N 
ATOM    111  H18 UNL A   1      33.488  30.959  25.307  1.00  0.00    +0.000 H 
BRANCH   12   11
ATOM     11  C9  UNL A   1      31.754  30.177  26.137  1.00  0.00    +0.000 C 
ATOM    109  H16 UNL A   1      30.932  30.858  26.059  1.00  0.00    +0.000 H 
ATOM    110  H17 UNL A   1      31.795  29.514  25.298  1.00  0.00    +0.000 H 
BRANCH   11   10
ATOM     10  C8  UNL A   1      31.571  29.329  27.392  1.00  0.00    +0.000 C 
ATOM    107  H14 UNL A   1      32.170  29.755  28.169  1.00  0.00    +0.000 H 
ATOM    108  H15 UNL A   1      30.523  29.338  27.607  1.00  0.00    +0.000 H 
BRANCH   10    9
ATOM      9  C7  UNL A   1      31.964  27.859  27.244  1.00  0.00    +0.000 C 
ATOM    106  H13 UNL A   1      31.066  27.296  27.392  1.00  0.00    +0.000 H 
ATOM    105  H12 UNL A   1      32.726  27.645  27.965  1.00  0.00    +0.000 H 
BRANCH    9    8
ATOM    104  H11 UNL A   1      32.607  28.371  25.318  1.00  0.00    +0.000 H 
ATOM    103  H10 UNL A   1      31.791  26.780  25.427  1.00  0.00    +0.000 H 
ATOM      8  C6  UNL A   1      32.492  27.458  25.865  1.00  0.00    +0.000 C 
BRANCH    8    7
ATOM    101  H8  UNL A   1      34.327  26.977  24.905  1.00  0.00    +0.000 H 
ATOM    102  H9  UNL A   1      34.412  27.200  26.679  1.00  0.00    +0.000 H 
ATOM      7  C5  UNL A   1      33.871  26.785  25.854  1.00  0.00    +0.000 C 
BRANCH    7    6
ATOM     99  H6  UNL A   1      34.527  24.809  25.380  1.00  0.00    +0.000 H 
ATOM    100  H7  UNL A   1      34.154  25.072  27.082  1.00  0.00    +0.000 H 
ATOM      6  C4  UNL A   1      33.854  25.267  26.073  1.00  0.00    +0.000 C 
BRANCH    6    5
ATOM     98  H5  UNL A   1      31.811  25.069  26.456  1.00  0.00    +0.000 H 
ATOM      5  N1  UNL A   1      32.527  24.718  25.877  1.00  0.00    +0.000 N 
BRANCH    5    3
ATOM      3  C3  UNL A   1      32.173  23.759  24.967  1.00  0.00    +0.000 C 
ATOM      4  O1  UNL A   1      32.850  22.730  24.968  1.00  0.00    +0.000 O 
BRANCH    3    2
ATOM     97  H4  UNL A   1      30.085  23.827  24.650  1.00  0.00    +0.000 H 
ATOM      2  C2  UNL A   1      30.955  23.996  24.051  1.00  0.00    +0.000 C 
BRANCH    2    1
ATOM      1  C1  UNL A   1      31.076  23.013  22.878  1.00  0.00    +0.000 C 
ATOM     94  H1  UNL A   1      31.158  22.016  23.256  1.00  0.00    +0.000 H 
ATOM     95  H2  UNL A   1      31.946  23.250  22.303  1.00  0.00    +0.000 H 
ATOM     96  H3  UNL A   1      30.208  23.089  22.258  1.00  0.00    +0.000 H 
ENDBRANCH    2    1
BRANCH    2   78
ATOM    137  H44 UNL A   1      32.112  27.864  21.632  1.00  0.00    +0.000 H 
ATOM     78  C55 UNL A   1      30.725  25.433  23.549  1.00  0.00    +0.000 C 
ATOM     79  C56 UNL A   1      29.634  26.200  23.992  1.00  0.00    +0.000 C 
ATOM     80  C57 UNL A   1      29.464  27.539  23.625  1.00  0.00    +0.000 C 
ATOM     81  C58 UNL A   1      30.362  28.167  22.765  1.00  0.00    +0.000 C 
ATOM     89  C65 UNL A   1      31.438  27.421  22.277  1.00  0.00    +0.000 C 
ATOM     90  C66 UNL A   1      31.617  26.073  22.651  1.00  0.00    +0.000 C 
ATOM    126  H33 UNL A   1      28.933  25.760  24.609  1.00  0.00    +0.000 H 
ATOM    127  H34 UNL A   1      28.661  28.071  23.996  1.00  0.00    +0.000 H 
BRANCH   81   82
ATOM    129  H36 UNL A   1      30.920  30.147  22.955  1.00  0.00    +0.000 H 
ATOM     82  C59 UNL A   1      30.184  29.617  22.386  1.00  0.00    +0.000 C 
ATOM    128  H35 UNL A   1      30.298  29.692  21.325  1.00  0.00    +0.000 H 
BRANCH   82   83
ATOM    130  H37 UNL A   1      28.309  29.413  23.106  1.00  0.00    +0.000 H 
ATOM    131  H38 UNL A   1      29.782  31.260  24.421  1.00  0.00    +0.000 H 
ATOM    132  H39 UNL A   1      28.060  31.314  24.480  1.00  0.00    +0.000 H 
ATOM    133  H40 UNL A   1      29.936  32.935  22.783  1.00  0.00    +0.000 H 
ATOM    134  H41 UNL A   1      28.573  33.500  23.665  1.00  0.00    +0.000 H 
ATOM    135  H42 UNL A   1      28.441  33.031  20.997  1.00  0.00    +0.000 H 
ATOM    136  H43 UNL A   1      27.058  32.791  21.958  1.00  0.00    +0.000 H 
ATOM     83  C60 UNL A   1      28.847  30.269  22.756  1.00  0.00    +0.000 C 
ATOM     84  C61 UNL A   1      28.902  31.367  23.822  1.00  0.00    +0.000 C 
ATOM     85  C62 UNL A   1      28.934  32.690  23.066  1.00  0.00    +0.000 C 
ATOM     86  C63 UNL A   1      28.072  32.471  21.831  1.00  0.00    +0.000 C 
ATOM     87  C64 UNL A   1      28.205  30.990  21.593  1.00  0.00    +0.000 C 
ATOM     88  O3  UNL A   1      27.818  30.430  20.574  1.00  0.00    +0.000 O 
ENDBRANCH   82   83
ENDBRANCH   81   82
BRANCH   90   91
ATOM     91  N7  UNL A   1      32.763  25.401  22.075  1.00  0.00    +0.000 N 
ATOM     92  O4  UNL A   1      33.803  25.311  22.696  1.00  0.00    +0.000 O 
ATOM     93  O5  UNL A   1      32.746  24.908  20.793  1.00  0.00    +0.000 O 
ENDBRANCH   90   91
ENDBRANCH    2   78
ENDBRANCH    3    2
ENDBRANCH    5    3
ENDBRANCH    6    5
ENDBRANCH    7    6
ENDBRANCH    8    7
ENDBRANCH    9    8
ENDBRANCH   10    9
ENDBRANCH   11   10
ENDBRANCH   12   11
ENDBRANCH   13   12
ENDBRANCH   15   13
ENDBRANCH   19   18
BRANCH   23   24
ATOM     33  C24 UNL A   1      38.710  31.427  36.317  1.00  0.00    +0.000 C 
ATOM     34  F5  UNL A   1      38.218  30.182  36.235  1.00  0.00    +0.000 F 
ATOM     24  C19 UNL A   1      39.693  31.859  35.414  1.00  0.00    +0.000 C 
ATOM     25  C20 UNL A   1      40.169  33.174  35.540  1.00  0.00    +0.000 C 
ATOM     26  F1  UNL A   1      41.117  33.631  34.708  1.00  0.00    +0.000 F 
ATOM     27  C21 UNL A   1      39.693  34.015  36.542  1.00  0.00    +0.000 C 
ATOM     28  F2  UNL A   1      40.189  35.254  36.665  1.00  0.00    +0.000 F 
ATOM     29  C22 UNL A   1      38.711  33.571  37.415  1.00  0.00    +0.000 C 
ATOM     30  F3  UNL A   1      38.244  34.387  38.371  1.00  0.00    +0.000 F 
ATOM     31  C23 UNL A   1      38.216  32.281  37.300  1.00  0.00    +0.000 C 
ATOM     32  F4  UNL A   1      37.259  31.855  38.136  1.00  0.00    +0.000 F 
ENDBRANCH   23   24
BRANCH   40   41
ATOM     41  C30 UNL A   1      45.156  27.325  34.164  1.00  0.00    +0.000 C 
ATOM     42  C31 UNL A   1      46.393  27.982  34.106  1.00  0.00    +0.000 C 
ATOM     43  F6  UNL A   1      46.535  29.088  33.361  1.00  0.00    +0.000 F 
ATOM     44  C32 UNL A   1      47.503  27.477  34.778  1.00  0.00    +0.000 C 
ATOM     45  F7  UNL A   1      48.688  28.093  34.666  1.00  0.00    +0.000 F 
ATOM     46  C33 UNL A   1      47.388  26.328  35.547  1.00  0.00    +0.000 C 
ATOM     47  F8  UNL A   1      48.458  25.845  36.195  1.00  0.00    +0.000 F 
ATOM     48  C34 UNL A   1      46.168  25.676  35.637  1.00  0.00    +0.000 C 
ATOM     49  F9  UNL A   1      46.054  24.572  36.389  1.00  0.00    +0.000 F 
ATOM     50  C35 UNL A   1      45.064  26.162  34.943  1.00  0.00    +0.000 C 
ATOM     51  F10 UNL A   1      43.900  25.499  35.036  1.00  0.00    +0.000 F 
ENDBRANCH   40   41
BRANCH   55   56
ATOM     65  C44 UNL A   1      43.517  26.627  26.835  1.00  0.00    +0.000 C 
ATOM     66  F15 UNL A   1      43.944  27.895  26.917  1.00  0.00    +0.000 F 
ATOM     56  C39 UNL A   1      42.628  26.122  27.795  1.00  0.00    +0.000 C 
ATOM     57  C40 UNL A   1      42.208  24.792  27.659  1.00  0.00    +0.000 C 
ATOM     58  F11 UNL A   1      41.376  24.257  28.564  1.00  0.00    +0.000 F 
ATOM     59  C41 UNL A   1      42.679  23.990  26.621  1.00  0.00    +0.000 C 
ATOM     60  F12 UNL A   1      42.303  22.706  26.545  1.00  0.00    +0.000 F 
ATOM     61  C42 UNL A   1      43.555  24.513  25.681  1.00  0.00    +0.000 C 
ATOM     62  F13 UNL A   1      44.010  23.742  24.684  1.00  0.00    +0.000 F 
ATOM     63  C43 UNL A   1      43.965  25.834  25.781  1.00  0.00    +0.000 C 
ATOM     64  F14 UNL A   1      44.800  26.347  24.867  1.00  0.00    +0.000 F 
ENDBRANCH   55   56
TORSDOF 20
ENDMDL
MODEL 4
REMARK VINA RESULT:     -10.5      1.040      2.144
ROOT
ATOM     19  C15 UNL A   1      38.066  29.860  29.793  1.00  0.00    +0.000 C 
ATOM     20  C16 UNL A   1      38.308  30.409  31.172  1.00  0.00    +0.000 C 
ATOM     21  N3  UNL A   1      39.340  30.236  31.960  1.00  0.00    +0.000 N 
ATOM     22  C17 UNL A   1      39.074  30.983  33.100  1.00  0.00    +0.000 C 
ATOM     23  C18 UNL A   1      39.806  31.083  34.235  1.00  0.00    +0.000 C 
ATOM     35  C25 UNL A   1      41.053  30.399  34.461  1.00  0.00    +0.000 C 
ATOM     36  C26 UNL A   1      41.845  30.398  35.598  1.00  0.00    +0.000 C 
ATOM     37  C27 UNL A   1      42.979  29.621  35.342  1.00  0.00    +0.000 C 
ATOM     38  C28 UNL A   1      42.874  29.102  34.062  1.00  0.00    +0.000 C 
ATOM     39  N4  UNL A   1      41.692  29.592  33.531  1.00  0.00    +0.000 N 
ATOM     40  C29 UNL A   1      43.784  28.225  33.373  1.00  0.00    +0.000 C 
ATOM     52  C36 UNL A   1      43.602  27.752  32.115  1.00  0.00    +0.000 C 
ATOM     53  N5  UNL A   1      42.554  27.986  31.237  1.00  0.00    +0.000 N 
ATOM     54  C37 UNL A   1      42.848  27.329  30.142  1.00  0.00    +0.000 C 
ATOM     55  C38 UNL A   1      42.058  27.202  28.869  1.00  0.00    +0.000 C 
ATOM     67  C45 UNL A   1      40.862  27.813  28.772  1.00  0.00    +0.000 C 
ATOM     68  C46 UNL A   1      39.978  27.767  27.612  1.00  0.00    +0.000 C 
ATOM     69  C47 UNL A   1      38.891  28.515  27.859  1.00  0.00    +0.000 C 
ATOM     70  C48 UNL A   1      38.987  29.069  29.210  1.00  0.00    +0.000 C 
ATOM     71  N6  UNL A   1      40.190  28.600  29.677  1.00  0.00    +0.000 N 
ATOM     72  C49 UNL A   1      44.134  26.619  30.196  1.00  0.00    +0.000 C 
ATOM     73  C50 UNL A   1      44.530  26.873  31.434  1.00  0.00    +0.000 C 
ATOM     74  C51 UNL A   1      37.809  31.652  32.882  1.00  0.00    +0.000 C 
ATOM     75  C52 UNL A   1      37.266  31.285  31.729  1.00  0.00    +0.000 C 
ATOM    114  H21 UNL A   1      41.633  30.887  36.482  1.00  0.00    +0.000 H 
ATOM    115  H22 UNL A   1      43.761  29.461  35.997  1.00  0.00    +0.000 H 
ATOM    116  H23 UNL A   1      41.354  29.397  32.627  1.00  0.00    +0.000 H 
ATOM    117  H24 UNL A   1      40.160  27.243  26.741  1.00  0.00    +0.000 H 
ATOM    118  H25 UNL A   1      38.112  28.674  27.201  1.00  0.00    +0.000 H 
ATOM    119  H26 UNL A   1      40.537  28.807  30.573  1.00  0.00    +0.000 H 
ATOM    120  H27 UNL A   1      44.605  26.067  29.462  1.00  0.00    +0.000 H 
ATOM    121  H28 UNL A   1      45.390  26.494  31.859  1.00  0.00    +0.000 H 
ATOM    122  H29 UNL A   1      37.385  32.327  33.538  1.00  0.00    +0.000 H 
ATOM    123  H30 UNL A   1      36.353  31.547  31.328  1.00  0.00    +0.000 H 
ENDROOT
BRANCH   19   18
ATOM     76  C53 UNL A   1      35.827  29.273  28.843  1.00  0.00    +0.000 C 
ATOM     77  C54 UNL A   1      34.663  29.613  28.155  1.00  0.00    +0.000 C 
ATOM     15  C11 UNL A   1      34.457  30.932  27.740  1.00  0.00    +0.000 C 
ATOM    112  H19 UNL A   1      35.338  32.844  27.554  1.00  0.00    +0.000 H 
ATOM     16  C12 UNL A   1      35.470  31.881  27.901  1.00  0.00    +0.000 C 
ATOM     17  C13 UNL A   1      36.663  31.523  28.534  1.00  0.00    +0.000 C 
ATOM    113  H20 UNL A   1      37.421  32.217  28.629  1.00  0.00    +0.000 H 
ATOM     18  C14 UNL A   1      36.837  30.225  29.041  1.00  0.00    +0.000 C 
ATOM    124  H31 UNL A   1      35.945  28.315  29.208  1.00  0.00    +0.000 H 
ATOM    125  H32 UNL A   1      33.954  28.892  27.951  1.00  0.00    +0.000 H 
BRANCH   15   13
ATOM     13  C10 UNL A   1      33.187  31.352  27.106  1.00  0.00    +0.000 C 
ATOM     14  O2  UNL A   1      32.832  32.525  27.176  1.00  0.00    +0.000 O 
BRANCH   13   12
ATOM     12  N2  UNL A   1      32.398  30.432  26.461  1.00  0.00    +0.000 N 
ATOM    111  H18 UNL A   1      31.516  30.273  26.871  1.00  0.00    +0.000 H 
BRANCH   12   11
ATOM     11  C9  UNL A   1      32.674  29.658  25.263  1.00  0.00    +0.000 C 
ATOM    109  H16 UNL A   1      31.823  29.714  24.615  1.00  0.00    +0.000 H 
ATOM    110  H17 UNL A   1      33.546  30.073  24.802  1.00  0.00    +0.000 H 
BRANCH   11   10
ATOM     10  C8  UNL A   1      32.962  28.192  25.569  1.00  0.00    +0.000 C 
ATOM    107  H14 UNL A   1      33.215  27.706  24.651  1.00  0.00    +0.000 H 
ATOM    108  H15 UNL A   1      33.756  28.188  26.287  1.00  0.00    +0.000 H 
BRANCH   10    9
ATOM      9  C7  UNL A   1      31.806  27.423  26.210  1.00  0.00    +0.000 C 
ATOM    106  H13 UNL A   1      30.945  27.626  25.607  1.00  0.00    +0.000 H 
ATOM    105  H12 UNL A   1      31.707  27.755  27.223  1.00  0.00    +0.000 H 
BRANCH    9    8
ATOM    104  H11 UNL A   1      31.567  25.556  25.292  1.00  0.00    +0.000 H 
ATOM    103  H10 UNL A   1      31.441  25.524  27.080  1.00  0.00    +0.000 H 
ATOM      8  C6  UNL A   1      31.962  25.901  26.225  1.00  0.00    +0.000 C 
BRANCH    8    7
ATOM    101  H8  UNL A   1      33.860  25.553  25.333  1.00  0.00    +0.000 H 
ATOM    102  H9  UNL A   1      33.880  25.917  27.085  1.00  0.00    +0.000 H 
ATOM      7  C5  UNL A   1      33.405  25.384  26.286  1.00  0.00    +0.000 C 
BRANCH    7    6
ATOM     99  H6  UNL A   1      33.497  23.772  27.684  1.00  0.00    +0.000 H 
ATOM    100  H7  UNL A   1      32.755  23.365  26.138  1.00  0.00    +0.000 H 
ATOM      6  C4  UNL A   1      33.548  23.895  26.623  1.00  0.00    +0.000 C 
BRANCH    6    5
ATOM     98  H5  UNL A   1      35.629  23.754  26.526  1.00  0.00    +0.000 H 
ATOM      5  N1  UNL A   1      34.810  23.362  26.146  1.00  0.00    +0.000 N 
BRANCH    5    3
ATOM      3  C3  UNL A   1      34.972  22.367  25.219  1.00  0.00    +0.000 C 
ATOM      4  O1  UNL A   1      35.127  21.230  25.665  1.00  0.00    +0.000 O 
BRANCH    3    2
ATOM     97  H4  UNL A   1      34.515  21.848  23.223  1.00  0.00    +0.000 H 
ATOM      2  C2  UNL A   1      34.908  22.712  23.718  1.00  0.00    +0.000 C 
BRANCH    2    1
ATOM      1  C1  UNL A   1      36.336  23.060  23.275  1.00  0.00    +0.000 C 
ATOM     94  H1  UNL A   1      36.391  23.042  22.206  1.00  0.00    +0.000 H 
ATOM     95  H2  UNL A   1      37.019  22.344  23.680  1.00  0.00    +0.000 H 
ATOM     96  H3  UNL A   1      36.591  24.036  23.629  1.00  0.00    +0.000 H 
ENDBRANCH    2    1
BRANCH    2   78
ATOM    137  H44 UNL A   1      30.647  24.321  22.533  1.00  0.00    +0.000 H 
ATOM     78  C55 UNL A   1      33.913  23.806  23.292  1.00  0.00    +0.000 C 
ATOM     79  C56 UNL A   1      34.340  25.113  22.998  1.00  0.00    +0.000 C 
ATOM     80  C57 UNL A   1      33.466  26.092  22.513  1.00  0.00    +0.000 C 
ATOM     81  C58 UNL A   1      32.112  25.821  22.333  1.00  0.00    +0.000 C 
ATOM     89  C65 UNL A   1      31.649  24.543  22.652  1.00  0.00    +0.000 C 
ATOM     90  C66 UNL A   1      32.527  23.549  23.132  1.00  0.00    +0.000 C 
ATOM    126  H33 UNL A   1      35.332  25.358  23.144  1.00  0.00    +0.000 H 
ATOM    127  H34 UNL A   1      33.831  27.031  22.285  1.00  0.00    +0.000 H 
BRANCH   81   82
ATOM    129  H36 UNL A   1      31.757  27.421  21.076  1.00  0.00    +0.000 H 
ATOM     82  C59 UNL A   1      31.178  26.876  21.793  1.00  0.00    +0.000 C 
ATOM    128  H35 UNL A   1      30.321  26.376  21.391  1.00  0.00    +0.000 H 
BRANCH   82   83
ATOM    130  H37 UNL A   1      31.446  27.874  23.528  1.00  0.00    +0.000 H 
ATOM    131  H38 UNL A   1      31.144  29.490  21.381  1.00  0.00    +0.000 H 
ATOM    132  H39 UNL A   1      30.829  30.081  22.970  1.00  0.00    +0.000 H 
ATOM    133  H40 UNL A   1      28.875  29.137  20.891  1.00  0.00    +0.000 H 
ATOM    134  H41 UNL A   1      28.757  30.542  21.875  1.00  0.00    +0.000 H 
ATOM    135  H42 UNL A   1      27.408  28.269  22.481  1.00  0.00    +0.000 H 
ATOM    136  H43 UNL A   1      27.944  29.284  23.736  1.00  0.00    +0.000 H 
ATOM     83  C60 UNL A   1      30.676  27.930  22.786  1.00  0.00    +0.000 C 
ATOM     84  C61 UNL A   1      30.527  29.354  22.245  1.00  0.00    +0.000 C 
ATOM     85  C62 UNL A   1      29.057  29.515  21.875  1.00  0.00    +0.000 C 
ATOM     86  C63 UNL A   1      28.289  28.702  22.907  1.00  0.00    +0.000 C 
ATOM     87  C64 UNL A   1      29.283  27.638  23.296  1.00  0.00    +0.000 C 
ATOM     88  O3  UNL A   1      28.995  26.655  23.968  1.00  0.00    +0.000 O 
ENDBRANCH   82   83
ENDBRANCH   81   82
BRANCH   90   91
ATOM     91  N7  UNL A   1      31.930  22.266  23.436  1.00  0.00    +0.000 N 
ATOM     92  O4  UNL A   1      31.468  22.045  24.537  1.00  0.00    +0.000 O 
ATOM     93  O5  UNL A   1      31.925  21.235  22.529  1.00  0.00    +0.000 O 
ENDBRANCH   90   91
ENDBRANCH    2   78
ENDBRANCH    3    2
ENDBRANCH    5    3
ENDBRANCH    6    5
ENDBRANCH    7    6
ENDBRANCH    8    7
ENDBRANCH    9    8
ENDBRANCH   10    9
ENDBRANCH   11   10
ENDBRANCH   12   11
ENDBRANCH   13   12
ENDBRANCH   15   13
ENDBRANCH   19   18
BRANCH   23   24
ATOM     33  C24 UNL A   1      39.650  33.302  35.427  1.00  0.00    +0.000 C 
ATOM     34  F5  UNL A   1      40.456  33.842  34.501  1.00  0.00    +0.000 F 
ATOM     24  C19 UNL A   1      39.273  31.954  35.334  1.00  0.00    +0.000 C 
ATOM     25  C20 UNL A   1      38.432  31.437  36.333  1.00  0.00    +0.000 C 
ATOM     26  F1  UNL A   1      38.034  30.157  36.284  1.00  0.00    +0.000 F 
ATOM     27  C21 UNL A   1      37.974  32.243  37.371  1.00  0.00    +0.000 C 
ATOM     28  F2  UNL A   1      37.143  31.737  38.293  1.00  0.00    +0.000 F 
ATOM     29  C22 UNL A   1      38.371  33.569  37.450  1.00  0.00    +0.000 C 
ATOM     30  F3  UNL A   1      37.939  34.341  38.457  1.00  0.00    +0.000 F 
ATOM     31  C23 UNL A   1      39.212  34.098  36.482  1.00  0.00    +0.000 C 
ATOM     32  F4  UNL A   1      39.605  35.376  36.564  1.00  0.00    +0.000 F 
ENDBRANCH   23   24
BRANCH   40   41
ATOM     41  C30 UNL A   1      45.019  27.780  34.099  1.00  0.00    +0.000 C 
ATOM     42  C31 UNL A   1      46.212  28.514  34.037  1.00  0.00    +0.000 C 
ATOM     43  F6  UNL A   1      46.283  29.623  33.285  1.00  0.00    +0.000 F 
ATOM     44  C32 UNL A   1      47.352  28.085  34.710  1.00  0.00    +0.000 C 
ATOM     45  F7  UNL A   1      48.495  28.774  34.594  1.00  0.00    +0.000 F 
ATOM     46  C33 UNL A   1      47.311  26.935  35.485  1.00  0.00    +0.000 C 
ATOM     47  F8  UNL A   1      48.409  26.524  36.135  1.00  0.00    +0.000 F 
ATOM     48  C34 UNL A   1      46.135  26.206  35.580  1.00  0.00    +0.000 C 
ATOM     49  F9  UNL A   1      46.091  25.101  36.338  1.00  0.00    +0.000 F 
ATOM     50  C35 UNL A   1      45.001  26.618  34.885  1.00  0.00    +0.000 C 
ATOM     51  F10 UNL A   1      43.883  25.883  34.982  1.00  0.00    +0.000 F 
ENDBRANCH   40   41
BRANCH   55   56
ATOM     65  C44 UNL A   1      43.422  26.957  26.766  1.00  0.00    +0.000 C 
ATOM     66  F15 UNL A   1      43.758  28.253  26.839  1.00  0.00    +0.000 F 
ATOM     56  C39 UNL A   1      42.576  26.396  27.733  1.00  0.00    +0.000 C 
ATOM     57  C40 UNL A   1      42.252  25.038  27.607  1.00  0.00    +0.000 C 
ATOM     58  F11 UNL A   1      41.464  24.451  28.520  1.00  0.00    +0.000 F 
ATOM     59  C41 UNL A   1      42.775  24.266  26.572  1.00  0.00    +0.000 C 
ATOM     60  F12 UNL A   1      42.491  22.958  26.505  1.00  0.00    +0.000 F 
ATOM     61  C42 UNL A   1      43.607  24.844  25.624  1.00  0.00    +0.000 C 
ATOM     62  F13 UNL A   1      44.111  24.101  24.630  1.00  0.00    +0.000 F 
ATOM     63  C43 UNL A   1      43.921  26.192  25.714  1.00  0.00    +0.000 C 
ATOM     64  F14 UNL A   1      44.713  26.758  24.794  1.00  0.00    +0.000 F 
ENDBRANCH   55   56
TORSDOF 20
ENDMDL
MODEL 5
REMARK VINA RESULT:     -10.5      4.017      9.479
ROOT
ATOM     19  C15 UNL A   1      41.395  26.432  27.700  1.00  0.00    +0.000 C 
ATOM     20  C16 UNL A   1      42.820  26.701  27.302  1.00  0.00    +0.000 C 
ATOM     21  N3  UNL A   1      43.566  27.747  27.557  1.00  0.00    +0.000 N 
ATOM     22  C17 UNL A   1      44.804  27.477  26.991  1.00  0.00    +0.000 C 
ATOM     23  C18 UNL A   1      45.898  28.273  26.928  1.00  0.00    +0.000 C 
ATOM     35  C25 UNL A   1      45.966  29.605  27.473  1.00  0.00    +0.000 C 
ATOM     36  C26 UNL A   1      47.014  30.508  27.417  1.00  0.00    +0.000 C 
ATOM     37  C27 UNL A   1      46.638  31.660  28.116  1.00  0.00    +0.000 C 
ATOM     38  C28 UNL A   1      45.340  31.491  28.572  1.00  0.00    +0.000 C 
ATOM     39  N4  UNL A   1      44.943  30.224  28.175  1.00  0.00    +0.000 N 
ATOM     40  C29 UNL A   1      44.523  32.416  29.312  1.00  0.00    +0.000 C 
ATOM     52  C36 UNL A   1      43.251  32.175  29.715  1.00  0.00    +0.000 C 
ATOM     53  N5  UNL A   1      42.472  31.044  29.521  1.00  0.00    +0.000 N 
ATOM     54  C37 UNL A   1      41.330  31.287  30.116  1.00  0.00    +0.000 C 
ATOM     55  C38 UNL A   1      40.102  30.422  30.203  1.00  0.00    +0.000 C 
ATOM     67  C45 UNL A   1      40.098  29.220  29.596  1.00  0.00    +0.000 C 
ATOM     68  C46 UNL A   1      38.979  28.283  29.581  1.00  0.00    +0.000 C 
ATOM     69  C47 UNL A   1      39.343  27.178  28.911  1.00  0.00    +0.000 C 
ATOM     70  C48 UNL A   1      40.713  27.342  28.421  1.00  0.00    +0.000 C 
ATOM     71  N6  UNL A   1      41.081  28.584  28.876  1.00  0.00    +0.000 N 
ATOM     72  C49 UNL A   1      41.265  32.597  30.777  1.00  0.00    +0.000 C 
ATOM     73  C50 UNL A   1      42.443  33.115  30.465  1.00  0.00    +0.000 C 
ATOM     74  C51 UNL A   1      44.728  26.147  26.422  1.00  0.00    +0.000 C 
ATOM     75  C52 UNL A   1      43.505  25.648  26.537  1.00  0.00    +0.000 C 
ATOM    114  H21 UNL A   1      47.917  30.357  26.940  1.00  0.00    +0.000 H 
ATOM    115  H22 UNL A   1      47.228  32.493  28.267  1.00  0.00    +0.000 H 
ATOM    116  H23 UNL A   1      44.065  29.822  28.364  1.00  0.00    +0.000 H 
ATOM    117  H24 UNL A   1      38.057  28.444  30.015  1.00  0.00    +0.000 H 
ATOM    118  H25 UNL A   1      38.751  26.346  28.763  1.00  0.00    +0.000 H 
ATOM    119  H26 UNL A   1      41.964  28.981  28.703  1.00  0.00    +0.000 H 
ATOM    120  H27 UNL A   1      40.502  33.007  31.338  1.00  0.00    +0.000 H 
ATOM    121  H28 UNL A   1      42.748  34.067  30.722  1.00  0.00    +0.000 H 
ATOM    122  H29 UNL A   1      45.522  25.653  25.985  1.00  0.00    +0.000 H 
ATOM    123  H30 UNL A   1      43.132  24.754  26.183  1.00  0.00    +0.000 H 
ENDROOT
BRANCH   19   18
ATOM     76  C53 UNL A   1      39.679  25.121  26.437  1.00  0.00    +0.000 C 
ATOM     77  C54 UNL A   1      39.075  23.914  26.088  1.00  0.00    +0.000 C 
ATOM     15  C11 UNL A   1      39.592  22.709  26.575  1.00  0.00    +0.000 C 
ATOM    112  H19 UNL A   1      40.981  21.834  27.905  1.00  0.00    +0.000 H 
ATOM     16  C12 UNL A   1      40.629  22.720  27.510  1.00  0.00    +0.000 C 
ATOM     17  C13 UNL A   1      41.192  23.936  27.908  1.00  0.00    +0.000 C 
ATOM    113  H20 UNL A   1      41.941  23.945  28.618  1.00  0.00    +0.000 H 
ATOM     18  C14 UNL A   1      40.744  25.144  27.349  1.00  0.00    +0.000 C 
ATOM    124  H31 UNL A   1      39.339  26.003  26.022  1.00  0.00    +0.000 H 
ATOM    125  H32 UNL A   1      38.248  23.909  25.472  1.00  0.00    +0.000 H 
BRANCH   15   13
ATOM     13  C10 UNL A   1      39.046  21.404  26.138  1.00  0.00    +0.000 C 
ATOM     14  O2  UNL A   1      39.763  20.408  26.157  1.00  0.00    +0.000 O 
BRANCH   13   12
ATOM     12  N2  UNL A   1      37.751  21.309  25.692  1.00  0.00    +0.000 N 
ATOM    111  H18 UNL A   1      37.094  21.020  26.367  1.00  0.00    +0.000 H 
BRANCH   12   11
ATOM     11  C9  UNL A   1      37.208  21.570  24.370  1.00  0.00    +0.000 C 
ATOM    109  H16 UNL A   1      37.846  22.269  23.869  1.00  0.00    +0.000 H 
ATOM    110  H17 UNL A   1      37.162  20.637  23.847  1.00  0.00    +0.000 H 
BRANCH   11   10
ATOM     10  C8  UNL A   1      35.796  22.145  24.421  1.00  0.00    +0.000 C 
ATOM    107  H14 UNL A   1      35.214  21.661  23.666  1.00  0.00    +0.000 H 
ATOM    108  H15 UNL A   1      35.439  21.969  25.415  1.00  0.00    +0.000 H 
BRANCH   10    9
ATOM      9  C7  UNL A   1      35.702  23.655  24.197  1.00  0.00    +0.000 C 
ATOM    106  H13 UNL A   1      34.812  23.815  23.625  1.00  0.00    +0.000 H 
ATOM    105  H12 UNL A   1      36.594  23.973  23.698  1.00  0.00    +0.000 H 
BRANCH    9    8
ATOM    104  H11 UNL A   1      36.094  25.397  25.290  1.00  0.00    +0.000 H 
ATOM    103  H10 UNL A   1      35.912  23.921  26.290  1.00  0.00    +0.000 H 
ATOM      8  C6  UNL A   1      35.545  24.496  25.466  1.00  0.00    +0.000 C 
BRANCH    8    7
ATOM    101  H8  UNL A   1      33.455  24.488  25.081  1.00  0.00    +0.000 H 
ATOM    102  H9  UNL A   1      33.927  24.615  26.802  1.00  0.00    +0.000 H 
ATOM      7  C5  UNL A   1      34.112  24.934  25.797  1.00  0.00    +0.000 C 
BRANCH    7    6
ATOM     99  H6  UNL A   1      34.433  26.897  26.575  1.00  0.00    +0.000 H 
ATOM    100  H7  UNL A   1      34.195  26.826  24.830  1.00  0.00    +0.000 H 
ATOM      6  C4  UNL A   1      33.876  26.449  25.780  1.00  0.00    +0.000 C 
BRANCH    6    5
ATOM     98  H5  UNL A   1      32.139  26.831  26.873  1.00  0.00    +0.000 H 
ATOM      5  N1  UNL A   1      32.472  26.769  25.948  1.00  0.00    +0.000 N 
BRANCH    5    3
ATOM      3  C3  UNL A   1      31.565  26.992  24.947  1.00  0.00    +0.000 C 
ATOM      4  O1  UNL A   1      31.607  28.101  24.413  1.00  0.00    +0.000 O 
BRANCH    3    2
ATOM     97  H4  UNL A   1      30.136  26.180  23.620  1.00  0.00    +0.000 H 
ATOM      2  C2  UNL A   1      30.604  25.861  24.528  1.00  0.00    +0.000 C 
BRANCH    2    1
ATOM      1  C1  UNL A   1      29.608  25.668  25.681  1.00  0.00    +0.000 C 
ATOM     94  H1  UNL A   1      28.625  25.528  25.282  1.00  0.00    +0.000 H 
ATOM     95  H2  UNL A   1      29.618  26.533  26.310  1.00  0.00    +0.000 H 
ATOM     96  H3  UNL A   1      29.887  24.808  26.252  1.00  0.00    +0.000 H 
ENDBRANCH    2    1
BRANCH    2   78
ATOM    137  H44 UNL A   1      33.131  23.082  21.694  1.00  0.00    +0.000 H 
ATOM     78  C55 UNL A   1      31.236  24.522  24.111  1.00  0.00    +0.000 C 
ATOM     79  C56 UNL A   1      30.998  23.340  24.834  1.00  0.00    +0.000 C 
ATOM     80  C57 UNL A   1      31.482  22.097  24.414  1.00  0.00    +0.000 C 
ATOM     81  C58 UNL A   1      32.262  21.981  23.265  1.00  0.00    +0.000 C 
ATOM     89  C65 UNL A   1      32.549  23.143  22.545  1.00  0.00    +0.000 C 
ATOM     90  C66 UNL A   1      32.055  24.397  22.960  1.00  0.00    +0.000 C 
ATOM    126  H33 UNL A   1      30.446  23.391  25.705  1.00  0.00    +0.000 H 
ATOM    127  H34 UNL A   1      31.259  21.252  24.963  1.00  0.00    +0.000 H 
BRANCH   81   82
ATOM    129  H36 UNL A   1      32.301  20.471  21.857  1.00  0.00    +0.000 H 
ATOM     82  C59 UNL A   1      32.767  20.635  22.807  1.00  0.00    +0.000 C 
ATOM    128  H35 UNL A   1      33.836  20.681  22.781  1.00  0.00    +0.000 H 
BRANCH   82   83
ATOM    130  H37 UNL A   1      31.430  19.752  24.036  1.00  0.00    +0.000 H 
ATOM    131  H38 UNL A   1      32.074  18.256  21.878  1.00  0.00    +0.000 H 
ATOM    132  H39 UNL A   1      31.425  17.514  23.291  1.00  0.00    +0.000 H 
ATOM    133  H40 UNL A   1      34.290  17.678  22.399  1.00  0.00    +0.000 H 
ATOM    134  H41 UNL A   1      33.465  16.302  23.017  1.00  0.00    +0.000 H 
ATOM    135  H42 UNL A   1      35.096  17.799  24.583  1.00  0.00    +0.000 H 
ATOM    136  H43 UNL A   1      33.745  17.032  25.275  1.00  0.00    +0.000 H 
ATOM     83  C60 UNL A   1      32.376  19.423  23.659  1.00  0.00    +0.000 C 
ATOM     84  C61 UNL A   1      32.247  18.089  22.920  1.00  0.00    +0.000 C 
ATOM     85  C62 UNL A   1      33.571  17.361  23.126  1.00  0.00    +0.000 C 
ATOM     86  C63 UNL A   1      34.029  17.742  24.526  1.00  0.00    +0.000 C 
ATOM     87  C64 UNL A   1      33.402  19.098  24.721  1.00  0.00    +0.000 C 
ATOM     88  O3  UNL A   1      33.682  19.847  25.650  1.00  0.00    +0.000 O 
ENDBRANCH   82   83
ENDBRANCH   81   82
BRANCH   90   91
ATOM     91  N7  UNL A   1      32.426  25.530  22.138  1.00  0.00    +0.000 N 
ATOM     92  O4  UNL A   1      31.676  25.936  21.273  1.00  0.00    +0.000 O 
ATOM     93  O5  UNL A   1      33.653  26.137  22.250  1.00  0.00    +0.000 O 
ENDBRANCH   90   91
ENDBRANCH    2   78
ENDBRANCH    3    2
ENDBRANCH    5    3
ENDBRANCH    6    5
ENDBRANCH    7    6
ENDBRANCH    8    7
ENDBRANCH    9    8
ENDBRANCH   10    9
ENDBRANCH   11   10
ENDBRANCH   12   11
ENDBRANCH   13   12
ENDBRANCH   15   13
ENDBRANCH   19   18
BRANCH   23   24
ATOM     33  C24 UNL A   1      47.213  27.776  24.833  1.00  0.00    +0.000 C 
ATOM     34  F5  UNL A   1      46.241  28.343  24.102  1.00  0.00    +0.000 F 
ATOM     24  C19 UNL A   1      47.113  27.736  26.232  1.00  0.00    +0.000 C 
ATOM     25  C20 UNL A   1      48.155  27.126  26.947  1.00  0.00    +0.000 C 
ATOM     26  F1  UNL A   1      48.112  27.072  28.287  1.00  0.00    +0.000 F 
ATOM     27  C21 UNL A   1      49.261  26.594  26.289  1.00  0.00    +0.000 C 
ATOM     28  F2  UNL A   1      50.261  26.049  26.996  1.00  0.00    +0.000 F 
ATOM     29  C22 UNL A   1      49.331  26.633  24.905  1.00  0.00    +0.000 C 
ATOM     30  F3  UNL A   1      50.391  26.109  24.272  1.00  0.00    +0.000 F 
ATOM     31  C23 UNL A   1      48.307  27.218  24.177  1.00  0.00    +0.000 C 
ATOM     32  F4  UNL A   1      48.369  27.246  22.838  1.00  0.00    +0.000 F 
ENDBRANCH   23   24
BRANCH   40   41
ATOM     41  C30 UNL A   1      45.107  33.755  29.654  1.00  0.00    +0.000 C 
ATOM     42  C31 UNL A   1      45.829  33.961  30.838  1.00  0.00    +0.000 C 
ATOM     43  F6  UNL A   1      45.981  32.960  31.718  1.00  0.00    +0.000 F 
ATOM     44  C32 UNL A   1      46.359  35.211  31.144  1.00  0.00    +0.000 C 
ATOM     45  F7  UNL A   1      47.000  35.398  32.306  1.00  0.00    +0.000 F 
ATOM     46  C33 UNL A   1      46.207  36.267  30.258  1.00  0.00    +0.000 C 
ATOM     47  F8  UNL A   1      46.720  37.470  30.554  1.00  0.00    +0.000 F 
ATOM     48  C34 UNL A   1      45.517  36.080  29.071  1.00  0.00    +0.000 C 
ATOM     49  F9  UNL A   1      45.380  37.097  28.208  1.00  0.00    +0.000 F 
ATOM     50  C35 UNL A   1      44.962  34.838  28.775  1.00  0.00    +0.000 C 
ATOM     51  F10 UNL A   1      44.285  34.692  27.625  1.00  0.00    +0.000 F 
ENDBRANCH   40   41
BRANCH   55   56
ATOM     65  C44 UNL A   1      37.835  31.517  30.262  1.00  0.00    +0.000 C 
ATOM     66  F15 UNL A   1      37.906  31.724  28.939  1.00  0.00    +0.000 F 
ATOM     56  C39 UNL A   1      38.896  30.893  30.933  1.00  0.00    +0.000 C 
ATOM     57  C40 UNL A   1      38.773  30.706  32.316  1.00  0.00    +0.000 C 
ATOM     58  F11 UNL A   1      39.753  30.095  32.998  1.00  0.00    +0.000 F 
ATOM     59  C41 UNL A   1      37.624  31.101  32.997  1.00  0.00    +0.000 C 
ATOM     60  F12 UNL A   1      37.510  30.863  34.311  1.00  0.00    +0.000 F 
ATOM     61  C42 UNL A   1      36.588  31.721  32.312  1.00  0.00    +0.000 C 
ATOM     62  F13 UNL A   1      35.482  32.099  32.967  1.00  0.00    +0.000 F 
ATOM     63  C43 UNL A   1      36.698  31.939  30.948  1.00  0.00    +0.000 C 
ATOM     64  F14 UNL A   1      35.706  32.548  30.284  1.00  0.00    +0.000 F 
ENDBRANCH   55   56
TORSDOF 20
ENDMDL
MODEL 6
REMARK VINA RESULT:     -10.4      3.718      8.798
ROOT
ATOM     19  C15 UNL A   1      40.666  27.845  28.492  1.00  0.00    +0.000 C 
ATOM     20  C16 UNL A   1      42.106  28.070  28.862  1.00  0.00    +0.000 C 
ATOM     21  N3  UNL A   1      42.663  29.119  29.412  1.00  0.00    +0.000 N 
ATOM     22  C17 UNL A   1      44.005  28.799  29.566  1.00  0.00    +0.000 C 
ATOM     23  C18 UNL A   1      45.012  29.576  30.032  1.00  0.00    +0.000 C 
ATOM     35  C25 UNL A   1      44.851  30.937  30.476  1.00  0.00    +0.000 C 
ATOM     36  C26 UNL A   1      45.820  31.821  30.919  1.00  0.00    +0.000 C 
ATOM     37  C27 UNL A   1      45.191  33.018  31.277  1.00  0.00    +0.000 C 
ATOM     38  C28 UNL A   1      43.835  32.894  31.018  1.00  0.00    +0.000 C 
ATOM     39  N4  UNL A   1      43.641  31.611  30.532  1.00  0.00    +0.000 N 
ATOM     40  C29 UNL A   1      42.795  33.872  31.198  1.00  0.00    +0.000 C 
ATOM     52  C36 UNL A   1      41.486  33.674  30.909  1.00  0.00    +0.000 C 
ATOM     53  N5  UNL A   1      40.866  32.543  30.397  1.00  0.00    +0.000 N 
ATOM     54  C37 UNL A   1      39.591  32.836  30.318  1.00  0.00    +0.000 C 
ATOM     55  C38 UNL A   1      38.452  31.995  29.809  1.00  0.00    +0.000 C 
ATOM     67  C45 UNL A   1      38.706  30.759  29.339  1.00  0.00    +0.000 C 
ATOM     68  C46 UNL A   1      37.711  29.838  28.799  1.00  0.00    +0.000 C 
ATOM     69  C47 UNL A   1      38.317  28.689  28.458  1.00  0.00    +0.000 C 
ATOM     70  C48 UNL A   1      39.751  28.806  28.725  1.00  0.00    +0.000 C 
ATOM     71  N6  UNL A   1      39.890  30.068  29.247  1.00  0.00    +0.000 N 
ATOM     72  C49 UNL A   1      39.255  34.185  30.795  1.00  0.00    +0.000 C 
ATOM     73  C50 UNL A   1      40.450  34.668  31.101  1.00  0.00    +0.000 C 
ATOM     74  C51 UNL A   1      44.171  27.439  29.098  1.00  0.00    +0.000 C 
ATOM     75  C52 UNL A   1      43.039  26.964  28.598  1.00  0.00    +0.000 C 
ATOM    114  H21 UNL A   1      46.833  31.630  30.974  1.00  0.00    +0.000 H 
ATOM    115  H22 UNL A   1      45.657  33.851  31.669  1.00  0.00    +0.000 H 
ATOM    116  H23 UNL A   1      42.772  31.233  30.266  1.00  0.00    +0.000 H 
ATOM    117  H24 UNL A   1      36.704  30.037  28.697  1.00  0.00    +0.000 H 
ATOM    118  H25 UNL A   1      37.847  27.858  28.067  1.00  0.00    +0.000 H 
ATOM    119  H26 UNL A   1      40.755  30.442  29.529  1.00  0.00    +0.000 H 
ATOM    120  H27 UNL A   1      38.331  34.638  30.871  1.00  0.00    +0.000 H 
ATOM    121  H28 UNL A   1      40.622  35.629  31.435  1.00  0.00    +0.000 H 
ATOM    122  H29 UNL A   1      45.056  26.909  29.148  1.00  0.00    +0.000 H 
ATOM    123  H30 UNL A   1      42.859  26.055  28.145  1.00  0.00    +0.000 H 
ENDROOT
BRANCH   19   18
ATOM     76  C53 UNL A   1      39.539  25.622  28.716  1.00  0.00    +0.000 C 
ATOM     77  C54 UNL A   1      39.109  24.409  28.178  1.00  0.00    +0.000 C 
ATOM     15  C11 UNL A   1      39.281  24.150  26.815  1.00  0.00    +0.000 C 
ATOM    112  H19 UNL A   1      40.164  24.834  25.022  1.00  0.00    +0.000 H 
ATOM     16  C12 UNL A   1      39.996  25.047  26.018  1.00  0.00    +0.000 C 
ATOM     17  C13 UNL A   1      40.483  26.233  26.572  1.00  0.00    +0.000 C 
ATOM    113  H20 UNL A   1      41.034  26.883  25.989  1.00  0.00    +0.000 H 
ATOM     18  C14 UNL A   1      40.229  26.546  27.917  1.00  0.00    +0.000 C 
ATOM    124  H31 UNL A   1      39.350  25.840  29.706  1.00  0.00    +0.000 H 
ATOM    125  H32 UNL A   1      38.664  23.704  28.786  1.00  0.00    +0.000 H 
BRANCH   15   13
ATOM     13  C10 UNL A   1      38.738  22.923  26.191  1.00  0.00    +0.000 C 
ATOM     14  O2  UNL A   1      39.484  21.974  25.966  1.00  0.00    +0.000 O 
BRANCH   13   12
ATOM     12  N2  UNL A   1      37.412  22.850  25.844  1.00  0.00    +0.000 N 
ATOM    111  H18 UNL A   1      36.923  22.076  26.208  1.00  0.00    +0.000 H 
BRANCH   12   11
ATOM     11  C9  UNL A   1      36.624  23.747  25.016  1.00  0.00    +0.000 C 
ATOM    109  H16 UNL A   1      37.173  24.656  24.876  1.00  0.00    +0.000 H 
ATOM    110  H17 UNL A   1      36.439  23.253  24.085  1.00  0.00    +0.000 H 
BRANCH   11   10
ATOM     10  C8  UNL A   1      35.273  24.082  25.641  1.00  0.00    +0.000 C 
ATOM    107  H14 UNL A   1      34.606  23.269  25.444  1.00  0.00    +0.000 H 
ATOM    108  H15 UNL A   1      35.458  24.239  26.683  1.00  0.00    +0.000 H 
BRANCH   10    9
ATOM      9  C7  UNL A   1      34.620  25.366  25.126  1.00  0.00    +0.000 C 
ATOM    106  H13 UNL A   1      34.157  25.111  24.196  1.00  0.00    +0.000 H 
ATOM    105  H12 UNL A   1      35.382  26.112  25.034  1.00  0.00    +0.000 H 
BRANCH    9    8
ATOM    104  H11 UNL A   1      33.596  25.431  26.951  1.00  0.00    +0.000 H 
ATOM    103  H10 UNL A   1      32.575  25.765  25.517  1.00  0.00    +0.000 H 
ATOM      8  C6  UNL A   1      33.508  25.934  26.011  1.00  0.00    +0.000 C 
BRANCH    8    7
ATOM    101  H8  UNL A   1      33.593  27.552  27.387  1.00  0.00    +0.000 H 
ATOM    102  H9  UNL A   1      34.523  27.769  25.874  1.00  0.00    +0.000 H 
ATOM      7  C5  UNL A   1      33.612  27.432  26.324  1.00  0.00    +0.000 C 
BRANCH    7    6
ATOM     99  H6  UNL A   1      31.650  28.274  26.383  1.00  0.00    +0.000 H 
ATOM    100  H7  UNL A   1      32.867  29.297  25.624  1.00  0.00    +0.000 H 
ATOM      6  C4  UNL A   1      32.496  28.299  25.729  1.00  0.00    +0.000 C 
BRANCH    6    5
ATOM     98  H5  UNL A   1      32.798  27.425  23.857  1.00  0.00    +0.000 H 
ATOM      5  N1  UNL A   1      32.094  27.822  24.420  1.00  0.00    +0.000 N 
BRANCH    5    3
ATOM      3  C3  UNL A   1      30.833  27.871  23.891  1.00  0.00    +0.000 C 
ATOM      4  O1  UNL A   1      30.270  28.966  23.924  1.00  0.00    +0.000 O 
BRANCH    3    2
ATOM     97  H4  UNL A   1      30.199  26.765  22.206  1.00  0.00    +0.000 H 
ATOM      2  C2  UNL A   1      30.225  26.600  23.264  1.00  0.00    +0.000 C 
BRANCH    2    1
ATOM      1  C1  UNL A   1      28.829  26.419  23.876  1.00  0.00    +0.000 C 
ATOM     94  H1  UNL A   1      28.538  27.323  24.371  1.00  0.00    +0.000 H 
ATOM     95  H2  UNL A   1      28.851  25.617  24.582  1.00  0.00    +0.000 H 
ATOM     96  H3  UNL A   1      28.126  26.195  23.102  1.00  0.00    +0.000 H 
ENDBRANCH    2    1
BRANCH    2   78
ATOM    137  H44 UNL A   1      33.498  23.545  21.816  1.00  0.00    +0.000 H 
ATOM     78  C55 UNL A   1      31.048  25.304  23.368  1.00  0.00    +0.000 C 
ATOM     79  C56 UNL A   1      30.786  24.345  24.362  1.00  0.00    +0.000 C 
ATOM     80  C57 UNL A   1      31.456  23.119  24.411  1.00  0.00    +0.000 C 
ATOM     81  C58 UNL A   1      32.450  22.805  23.486  1.00  0.00    +0.000 C 
ATOM     89  C65 UNL A   1      32.760  23.752  22.507  1.00  0.00    +0.000 C 
ATOM     90  C66 UNL A   1      32.081  24.987  22.449  1.00  0.00    +0.000 C 
ATOM    126  H33 UNL A   1      30.075  24.553  25.080  1.00  0.00    +0.000 H 
ATOM    127  H34 UNL A   1      31.211  22.434  25.144  1.00  0.00    +0.000 H 
BRANCH   81   82
ATOM    129  H36 UNL A   1      33.371  21.234  22.512  1.00  0.00    +0.000 H 
ATOM     82  C59 UNL A   1      33.157  21.473  23.533  1.00  0.00    +0.000 C 
ATOM    128  H35 UNL A   1      34.018  21.585  24.158  1.00  0.00    +0.000 H 
BRANCH   82   83
ATOM    130  H37 UNL A   1      31.419  20.761  24.274  1.00  0.00    +0.000 H 
ATOM    131  H38 UNL A   1      32.291  19.433  22.086  1.00  0.00    +0.000 H 
ATOM    132  H39 UNL A   1      31.187  18.685  23.178  1.00  0.00    +0.000 H 
ATOM    133  H40 UNL A   1      34.163  18.326  22.970  1.00  0.00    +0.000 H 
ATOM    134  H41 UNL A   1      32.973  17.099  23.152  1.00  0.00    +0.000 H 
ATOM    135  H42 UNL A   1      34.412  18.002  25.265  1.00  0.00    +0.000 H 
ATOM    136  H43 UNL A   1      32.815  17.471  25.507  1.00  0.00    +0.000 H 
ATOM     83  C60 UNL A   1      32.352  20.281  24.062  1.00  0.00    +0.000 C 
ATOM     84  C61 UNL A   1      32.167  19.107  23.097  1.00  0.00    +0.000 C 
ATOM     85  C62 UNL A   1      33.242  18.088  23.459  1.00  0.00    +0.000 C 
ATOM     86  C63 UNL A   1      33.400  18.187  24.969  1.00  0.00    +0.000 C 
ATOM     87  C64 UNL A   1      33.005  19.614  25.251  1.00  0.00    +0.000 C 
ATOM     88  O3  UNL A   1      33.179  20.164  26.332  1.00  0.00    +0.000 O 
ENDBRANCH   82   83
ENDBRANCH   81   82
BRANCH   90   91
ATOM     91  N7  UNL A   1      32.496  25.891  21.396  1.00  0.00    +0.000 N 
ATOM     92  O4  UNL A   1      32.028  25.793  20.280  1.00  0.00    +0.000 O 
ATOM     93  O5  UNL A   1      33.473  26.835  21.594  1.00  0.00    +0.000 O 
ENDBRANCH   90   91
ENDBRANCH    2   78
ENDBRANCH    3    2
ENDBRANCH    5    3
ENDBRANCH    6    5
ENDBRANCH    7    6
ENDBRANCH    8    7
ENDBRANCH    9    8
ENDBRANCH   10    9
ENDBRANCH   11   10
ENDBRANCH   12   11
ENDBRANCH   13   12
ENDBRANCH   15   13
ENDBRANCH   19   18
BRANCH   23   24
ATOM     33  C24 UNL A   1      46.863  28.355  31.236  1.00  0.00    +0.000 C 
ATOM     34  F5  UNL A   1      46.069  28.236  32.311  1.00  0.00    +0.000 F 
ATOM     24  C19 UNL A   1      46.389  28.981  30.074  1.00  0.00    +0.000 C 
ATOM     25  C20 UNL A   1      47.263  29.083  28.980  1.00  0.00    +0.000 C 
ATOM     26  F1  UNL A   1      46.854  29.663  27.842  1.00  0.00    +0.000 F 
ATOM     27  C21 UNL A   1      48.552  28.563  29.043  1.00  0.00    +0.000 C 
ATOM     28  F2  UNL A   1      49.357  28.640  27.973  1.00  0.00    +0.000 F 
ATOM     29  C22 UNL A   1      49.004  27.960  30.207  1.00  0.00    +0.000 C 
ATOM     30  F3  UNL A   1      50.251  27.471  30.270  1.00  0.00    +0.000 F 
ATOM     31  C23 UNL A   1      48.163  27.860  31.305  1.00  0.00    +0.000 C 
ATOM     32  F4  UNL A   1      48.602  27.288  32.434  1.00  0.00    +0.000 F 
ENDBRANCH   23   24
BRANCH   40   41
ATOM     41  C30 UNL A   1      43.182  35.222  31.728  1.00  0.00    +0.000 C 
ATOM     42  C31 UNL A   1      43.098  35.525  33.094  1.00  0.00    +0.000 C 
ATOM     43  F6  UNL A   1      42.628  34.614  33.960  1.00  0.00    +0.000 F 
ATOM     44  C32 UNL A   1      43.453  36.784  33.570  1.00  0.00    +0.000 C 
ATOM     45  F7  UNL A   1      43.316  37.069  34.873  1.00  0.00    +0.000 F 
ATOM     46  C33 UNL A   1      43.931  37.749  32.696  1.00  0.00    +0.000 C 
ATOM     47  F8  UNL A   1      44.275  38.961  33.157  1.00  0.00    +0.000 F 
ATOM     48  C34 UNL A   1      44.044  37.462  31.344  1.00  0.00    +0.000 C 
ATOM     49  F9  UNL A   1      44.517  38.391  30.500  1.00  0.00    +0.000 F 
ATOM     50  C35 UNL A   1      43.663  36.214  30.862  1.00  0.00    +0.000 C 
ATOM     51  F10 UNL A   1      43.768  35.972  29.546  1.00  0.00    +0.000 F 
ENDBRANCH   40   41
BRANCH   55   56
ATOM     65  C44 UNL A   1      36.199  32.314  30.885  1.00  0.00    +0.000 C 
ATOM     66  F15 UNL A   1      36.608  31.601  31.944  1.00  0.00    +0.000 F 
ATOM     56  C39 UNL A   1      37.064  32.525  29.802  1.00  0.00    +0.000 C 
ATOM     57  C40 UNL A   1      36.584  33.272  28.719  1.00  0.00    +0.000 C 
ATOM     58  F11 UNL A   1      37.382  33.518  27.670  1.00  0.00    +0.000 F 
ATOM     59  C41 UNL A   1      35.300  33.812  28.729  1.00  0.00    +0.000 C 
ATOM     60  F12 UNL A   1      34.884  34.568  27.704  1.00  0.00    +0.000 F 
ATOM     61  C42 UNL A   1      34.460  33.588  29.810  1.00  0.00    +0.000 C 
ATOM     62  F13 UNL A   1      33.225  34.109  29.821  1.00  0.00    +0.000 F 
ATOM     63  C43 UNL A   1      34.904  32.830  30.883  1.00  0.00    +0.000 C 
ATOM     64  F14 UNL A   1      34.092  32.600  31.923  1.00  0.00    +0.000 F 
ENDBRANCH   55   56
TORSDOF 20
ENDMDL
MODEL 7
REMARK VINA RESULT:     -10.4      3.266      8.680
ROOT
ATOM     19  C15 UNL A   1      40.471  27.999  29.148  1.00  0.00    +0.000 C 
ATOM     20  C16 UNL A   1      41.857  28.098  29.722  1.00  0.00    +0.000 C 
ATOM     21  N3  UNL A   1      42.383  29.050  30.451  1.00  0.00    +0.000 N 
ATOM     22  C17 UNL A   1      43.676  28.634  30.741  1.00  0.00    +0.000 C 
ATOM     23  C18 UNL A   1      44.646  29.297  31.414  1.00  0.00    +0.000 C 
ATOM     35  C25 UNL A   1      44.490  30.613  31.980  1.00  0.00    +0.000 C 
ATOM     36  C26 UNL A   1      45.431  31.387  32.638  1.00  0.00    +0.000 C 
ATOM     37  C27 UNL A   1      44.816  32.576  33.041  1.00  0.00    +0.000 C 
ATOM     38  C28 UNL A   1      43.503  32.562  32.598  1.00  0.00    +0.000 C 
ATOM     39  N4  UNL A   1      43.316  31.349  31.954  1.00  0.00    +0.000 N 
ATOM     40  C29 UNL A   1      42.495  33.578  32.749  1.00  0.00    +0.000 C 
ATOM     52  C36 UNL A   1      41.228  33.489  32.274  1.00  0.00    +0.000 C 
ATOM     53  N5  UNL A   1      40.631  32.456  31.566  1.00  0.00    +0.000 N 
ATOM     54  C37 UNL A   1      39.393  32.833  31.356  1.00  0.00    +0.000 C 
ATOM     55  C38 UNL A   1      38.295  32.119  30.615  1.00  0.00    +0.000 C 
ATOM     67  C45 UNL A   1      38.552  30.924  30.049  1.00  0.00    +0.000 C 
ATOM     68  C46 UNL A   1      37.597  30.125  29.289  1.00  0.00    +0.000 C 
ATOM     69  C47 UNL A   1      38.189  28.983  28.904  1.00  0.00    +0.000 C 
ATOM     70  C48 UNL A   1      39.578  28.984  29.365  1.00  0.00    +0.000 C 
ATOM     71  N6  UNL A   1      39.704  30.176  30.036  1.00  0.00    +0.000 N 
ATOM     72  C49 UNL A   1      39.059  34.144  31.930  1.00  0.00    +0.000 C 
ATOM     73  C50 UNL A   1      40.223  34.519  32.439  1.00  0.00    +0.000 C 
ATOM     74  C51 UNL A   1      43.840  27.322  30.152  1.00  0.00    +0.000 C 
ATOM     75  C52 UNL A   1      42.764  26.970  29.462  1.00  0.00    +0.000 C 
ATOM    114  H21 UNL A   1      46.417  31.130  32.802  1.00  0.00    +0.000 H 
ATOM    115  H22 UNL A   1      45.263  33.335  33.579  1.00  0.00    +0.000 H 
ATOM    116  H23 UNL A   1      42.474  31.054  31.538  1.00  0.00    +0.000 H 
ATOM    117  H24 UNL A   1      36.623  30.394  29.080  1.00  0.00    +0.000 H 
ATOM    118  H25 UNL A   1      37.738  28.226  28.368  1.00  0.00    +0.000 H 
ATOM    119  H26 UNL A   1      40.540  30.466  30.466  1.00  0.00    +0.000 H 
ATOM    120  H27 UNL A   1      38.155  34.641  31.937  1.00  0.00    +0.000 H 
ATOM    121  H28 UNL A   1      40.393  35.429  32.895  1.00  0.00    +0.000 H 
ATOM    122  H29 UNL A   1      44.684  26.737  30.256  1.00  0.00    +0.000 H 
ATOM    123  H30 UNL A   1      42.605  26.125  28.892  1.00  0.00    +0.000 H 
ENDROOT
BRANCH   19   18
ATOM     76  C53 UNL A   1      40.466  26.632  27.052  1.00  0.00    +0.000 C 
ATOM     77  C54 UNL A   1      40.095  25.496  26.334  1.00  0.00    +0.000 C 
ATOM     15  C11 UNL A   1      39.391  24.468  26.968  1.00  0.00    +0.000 C 
ATOM    112  H19 UNL A   1      38.386  23.895  28.736  1.00  0.00    +0.000 H 
ATOM     16  C12 UNL A   1      38.947  24.634  28.282  1.00  0.00    +0.000 C 
ATOM     17  C13 UNL A   1      39.263  25.801  28.982  1.00  0.00    +0.000 C 
ATOM    113  H20 UNL A   1      38.913  25.934  29.943  1.00  0.00    +0.000 H 
ATOM     18  C14 UNL A   1      40.055  26.795  28.383  1.00  0.00    +0.000 C 
ATOM    124  H31 UNL A   1      41.045  27.358  26.601  1.00  0.00    +0.000 H 
ATOM    125  H32 UNL A   1      40.341  25.413  25.335  1.00  0.00    +0.000 H 
BRANCH   15   13
ATOM     13  C10 UNL A   1      39.078  23.202  26.268  1.00  0.00    +0.000 C 
ATOM     14  O2  UNL A   1      39.818  22.232  26.407  1.00  0.00    +0.000 O 
BRANCH   13   12
ATOM     12  N2  UNL A   1      37.980  23.116  25.449  1.00  0.00    +0.000 N 
ATOM    111  H18 UNL A   1      38.173  23.133  24.483  1.00  0.00    +0.000 H 
BRANCH   12   11
ATOM     11  C9  UNL A   1      36.574  23.004  25.799  1.00  0.00    +0.000 C 
ATOM    109  H16 UNL A   1      36.223  22.037  25.503  1.00  0.00    +0.000 H 
ATOM    110  H17 UNL A   1      36.490  23.145  26.857  1.00  0.00    +0.000 H 
BRANCH   11   10
ATOM     10  C8  UNL A   1      35.717  24.067  25.119  1.00  0.00    +0.000 C 
ATOM    107  H14 UNL A   1      36.330  24.926  24.946  1.00  0.00    +0.000 H 
ATOM    108  H15 UNL A   1      35.346  23.619  24.220  1.00  0.00    +0.000 H 
BRANCH   10    9
ATOM      9  C7  UNL A   1      34.487  24.513  25.911  1.00  0.00    +0.000 C 
ATOM    106  H13 UNL A   1      34.788  24.536  26.937  1.00  0.00    +0.000 H 
ATOM    105  H12 UNL A   1      33.695  23.821  25.712  1.00  0.00    +0.000 H 
BRANCH    9    8
ATOM    104  H11 UNL A   1      33.590  25.870  24.592  1.00  0.00    +0.000 H 
ATOM    103  H10 UNL A   1      34.795  26.600  25.699  1.00  0.00    +0.000 H 
ATOM      8  C6  UNL A   1      33.978  25.920  25.588  1.00  0.00    +0.000 C 
BRANCH    8    7
ATOM    101  H8  UNL A   1      32.071  25.661  26.493  1.00  0.00    +0.000 H 
ATOM    102  H9  UNL A   1      33.247  26.638  27.424  1.00  0.00    +0.000 H 
ATOM      7  C5  UNL A   1      32.823  26.422  26.464  1.00  0.00    +0.000 C 
BRANCH    7    6
ATOM     99  H6  UNL A   1      31.174  27.778  26.389  1.00  0.00    +0.000 H 
ATOM    100  H7  UNL A   1      32.760  28.544  26.326  1.00  0.00    +0.000 H 
ATOM      6  C4  UNL A   1      32.164  27.722  25.987  1.00  0.00    +0.000 C 
BRANCH    6    5
ATOM     98  H5  UNL A   1      32.942  27.736  24.050  1.00  0.00    +0.000 H 
ATOM      5  N1  UNL A   1      32.089  27.779  24.541  1.00  0.00    +0.000 N 
BRANCH    5    3
ATOM      3  C3  UNL A   1      30.949  27.888  23.791  1.00  0.00    +0.000 C 
ATOM      4  O1  UNL A   1      30.522  29.029  23.611  1.00  0.00    +0.000 O 
BRANCH    3    2
ATOM     97  H4  UNL A   1      30.266  26.765  22.136  1.00  0.00    +0.000 H 
ATOM      2  C2  UNL A   1      30.310  26.617  23.195  1.00  0.00    +0.000 C 
BRANCH    2    1
ATOM      1  C1  UNL A   1      28.924  26.467  23.837  1.00  0.00    +0.000 C 
ATOM     94  H1  UNL A   1      28.299  25.875  23.201  1.00  0.00    +0.000 H 
ATOM     95  H2  UNL A   1      28.485  27.434  23.968  1.00  0.00    +0.000 H 
ATOM     96  H3  UNL A   1      29.021  25.988  24.788  1.00  0.00    +0.000 H 
ENDBRANCH    2    1
BRANCH    2   78
ATOM    137  H44 UNL A   1      33.596  23.550  21.803  1.00  0.00    +0.000 H 
ATOM     78  C55 UNL A   1      31.115  25.310  23.304  1.00  0.00    +0.000 C 
ATOM     79  C56 UNL A   1      30.811  24.338  24.272  1.00  0.00    +0.000 C 
ATOM     80  C57 UNL A   1      31.465  23.103  24.322  1.00  0.00    +0.000 C 
ATOM     81  C58 UNL A   1      32.486  22.794  23.425  1.00  0.00    +0.000 C 
ATOM     89  C65 UNL A   1      32.838  23.754  22.474  1.00  0.00    +0.000 C 
ATOM     90  C66 UNL A   1      32.175  24.997  22.414  1.00  0.00    +0.000 C 
ATOM    126  H33 UNL A   1      30.078  24.542  24.970  1.00  0.00    +0.000 H 
ATOM    127  H34 UNL A   1      31.189  22.409  25.035  1.00  0.00    +0.000 H 
BRANCH   81   82
ATOM    129  H36 UNL A   1      33.349  21.192  22.449  1.00  0.00    +0.000 H 
ATOM     82  C59 UNL A   1      33.176  21.453  23.472  1.00  0.00    +0.000 C 
ATOM    128  H35 UNL A   1      34.061  21.565  24.063  1.00  0.00    +0.000 H 
BRANCH   82   83
ATOM    130  H37 UNL A   1      31.459  20.780  24.293  1.00  0.00    +0.000 H 
ATOM    131  H38 UNL A   1      32.227  19.401  22.098  1.00  0.00    +0.000 H 
ATOM    132  H39 UNL A   1      31.156  18.689  23.246  1.00  0.00    +0.000 H 
ATOM    133  H40 UNL A   1      34.117  18.283  22.930  1.00  0.00    +0.000 H 
ATOM    134  H41 UNL A   1      32.918  17.076  23.181  1.00  0.00    +0.000 H 
ATOM    135  H42 UNL A   1      34.449  17.997  25.220  1.00  0.00    +0.000 H 
ATOM    136  H43 UNL A   1      32.855  17.493  25.533  1.00  0.00    +0.000 H 
ATOM     83  C60 UNL A   1      32.376  20.283  24.054  1.00  0.00    +0.000 C 
ATOM     84  C61 UNL A   1      32.138  19.094  23.119  1.00  0.00    +0.000 C 
ATOM     85  C62 UNL A   1      33.212  18.067  23.459  1.00  0.00    +0.000 C 
ATOM     86  C63 UNL A   1      33.430  18.191  24.960  1.00  0.00    +0.000 C 
ATOM     87  C64 UNL A   1      33.065  19.628  25.229  1.00  0.00    +0.000 C 
ATOM     88  O3  UNL A   1      33.288  20.196  26.292  1.00  0.00    +0.000 O 
ENDBRANCH   82   83
ENDBRANCH   81   82
BRANCH   90   91
ATOM     91  N7  UNL A   1      32.633  25.914  21.391  1.00  0.00    +0.000 N 
ATOM     92  O4  UNL A   1      32.293  25.768  20.235  1.00  0.00    +0.000 O 
ATOM     93  O5  UNL A   1      33.517  26.928  21.669  1.00  0.00    +0.000 O 
ENDBRANCH   90   91
ENDBRANCH    2   78
ENDBRANCH    3    2
ENDBRANCH    5    3
ENDBRANCH    6    5
ENDBRANCH    7    6
ENDBRANCH    8    7
ENDBRANCH    9    8
ENDBRANCH   10    9
ENDBRANCH   11   10
ENDBRANCH   12   11
ENDBRANCH   13   12
ENDBRANCH   15   13
ENDBRANCH   19   18
BRANCH   23   24
ATOM     33  C24 UNL A   1      46.963  28.746  30.579  1.00  0.00    +0.000 C 
ATOM     34  F5  UNL A   1      46.747  29.519  29.504  1.00  0.00    +0.000 F 
ATOM     24  C19 UNL A   1      45.976  28.619  31.568  1.00  0.00    +0.000 C 
ATOM     25  C20 UNL A   1      46.252  27.793  32.669  1.00  0.00    +0.000 C 
ATOM     26  F1  UNL A   1      45.345  27.647  33.646  1.00  0.00    +0.000 F 
ATOM     27  C21 UNL A   1      47.474  27.137  32.783  1.00  0.00    +0.000 C 
ATOM     28  F2  UNL A   1      47.728  26.382  33.861  1.00  0.00    +0.000 F 
ATOM     29  C22 UNL A   1      48.429  27.266  31.787  1.00  0.00    +0.000 C 
ATOM     30  F3  UNL A   1      49.601  26.623  31.892  1.00  0.00    +0.000 F 
ATOM     31  C23 UNL A   1      48.173  28.066  30.683  1.00  0.00    +0.000 C 
ATOM     32  F4  UNL A   1      49.092  28.182  29.714  1.00  0.00    +0.000 F 
ENDBRANCH   23   24
BRANCH   40   41
ATOM     41  C30 UNL A   1      42.869  34.840  33.469  1.00  0.00    +0.000 C 
ATOM     42  C31 UNL A   1      43.354  35.961  32.781  1.00  0.00    +0.000 C 
ATOM     43  F6  UNL A   1      43.531  35.912  31.451  1.00  0.00    +0.000 F 
ATOM     44  C32 UNL A   1      43.703  37.123  33.463  1.00  0.00    +0.000 C 
ATOM     45  F7  UNL A   1      44.213  38.164  32.791  1.00  0.00    +0.000 F 
ATOM     46  C33 UNL A   1      43.540  37.198  34.838  1.00  0.00    +0.000 C 
ATOM     47  F8  UNL A   1      43.876  38.319  35.494  1.00  0.00    +0.000 F 
ATOM     48  C34 UNL A   1      43.041  36.109  35.536  1.00  0.00    +0.000 C 
ATOM     49  F9  UNL A   1      42.873  36.184  36.864  1.00  0.00    +0.000 F 
ATOM     50  C35 UNL A   1      42.717  34.936  34.860  1.00  0.00    +0.000 C 
ATOM     51  F10 UNL A   1      42.251  33.893  35.564  1.00  0.00    +0.000 F 
ENDBRANCH   40   41
BRANCH   55   56
ATOM     65  C44 UNL A   1      36.001  32.628  31.519  1.00  0.00    +0.000 C 
ATOM     66  F15 UNL A   1      36.294  31.947  32.636  1.00  0.00    +0.000 F 
ATOM     56  C39 UNL A   1      36.947  32.729  30.489  1.00  0.00    +0.000 C 
ATOM     57  C40 UNL A   1      36.586  33.447  29.340  1.00  0.00    +0.000 C 
ATOM     58  F11 UNL A   1      37.465  33.590  28.337  1.00  0.00    +0.000 F 
ATOM     59  C41 UNL A   1      35.341  34.062  29.237  1.00  0.00    +0.000 C 
ATOM     60  F12 UNL A   1      35.042  34.787  28.150  1.00  0.00    +0.000 F 
ATOM     61  C42 UNL A   1      34.419  33.945  30.267  1.00  0.00    +0.000 C 
ATOM     62  F13 UNL A   1      33.222  34.538  30.169  1.00  0.00    +0.000 F 
ATOM     63  C43 UNL A   1      34.744  33.219  31.403  1.00  0.00    +0.000 C 
ATOM     64  F14 UNL A   1      33.853  33.091  32.395  1.00  0.00    +0.000 F 
ENDBRANCH   55   56
TORSDOF 20
ENDMDL
MODEL 8
REMARK VINA RESULT:     -10.4     38.560     43.572
ROOT
ATOM     19  C15 UNL A   1      14.010  54.284   3.980  1.00  0.00    +0.000 C 
ATOM     20  C16 UNL A   1      15.052  54.604   2.945  1.00  0.00    +0.000 C 
ATOM     21  N3  UNL A   1      15.580  53.824   2.036  1.00  0.00    +0.000 N 
ATOM     22  C17 UNL A   1      16.466  54.620   1.322  1.00  0.00    +0.000 C 
ATOM     23  C18 UNL A   1      17.303  54.264   0.318  1.00  0.00    +0.000 C 
ATOM     35  C25 UNL A   1      17.416  52.929  -0.211  1.00  0.00    +0.000 C 
ATOM     36  C26 UNL A   1      18.270  52.460  -1.195  1.00  0.00    +0.000 C 
ATOM     37  C27 UNL A   1      17.996  51.104  -1.404  1.00  0.00    +0.000 C 
ATOM     38  C28 UNL A   1      17.000  50.718  -0.521  1.00  0.00    +0.000 C 
ATOM     39  N4  UNL A   1      16.650  51.849   0.200  1.00  0.00    +0.000 N 
ATOM     40  C29 UNL A   1      16.412  49.416  -0.346  1.00  0.00    +0.000 C 
ATOM     52  C36 UNL A   1      15.443  49.118   0.554  1.00  0.00    +0.000 C 
ATOM     53  N5  UNL A   1      14.818  49.949   1.473  1.00  0.00    +0.000 N 
ATOM     54  C37 UNL A   1      13.939  49.201   2.094  1.00  0.00    +0.000 C 
ATOM     55  C38 UNL A   1      12.998  49.568   3.208  1.00  0.00    +0.000 C 
ATOM     67  C45 UNL A   1      13.014  50.823   3.697  1.00  0.00    +0.000 C 
ATOM     68  C46 UNL A   1      12.174  51.320   4.783  1.00  0.00    +0.000 C 
ATOM     69  C47 UNL A   1      12.438  52.621   4.979  1.00  0.00    +0.000 C 
ATOM     70  C48 UNL A   1      13.490  53.044   4.054  1.00  0.00    +0.000 C 
ATOM     71  N6  UNL A   1      13.770  51.910   3.331  1.00  0.00    +0.000 N 
ATOM     72  C49 UNL A   1      13.892  47.811   1.620  1.00  0.00    +0.000 C 
ATOM     73  C50 UNL A   1      14.858  47.802   0.713  1.00  0.00    +0.000 C 
ATOM     74  C51 UNL A   1      16.369  55.956   1.870  1.00  0.00    +0.000 C 
ATOM     75  C52 UNL A   1      15.552  55.987   2.914  1.00  0.00    +0.000 C 
ATOM    114  H21 UNL A   1      18.986  53.015  -1.689  1.00  0.00    +0.000 H 
ATOM    115  H22 UNL A   1      18.456  50.495  -2.098  1.00  0.00    +0.000 H 
ATOM    116  H23 UNL A   1      15.960  51.881   0.902  1.00  0.00    +0.000 H 
ATOM    117  H24 UNL A   1      11.488  50.760   5.313  1.00  0.00    +0.000 H 
ATOM    118  H25 UNL A   1      11.974  53.227   5.674  1.00  0.00    +0.000 H 
ATOM    119  H26 UNL A   1      14.448  51.880   2.618  1.00  0.00    +0.000 H 
ATOM    120  H27 UNL A   1      13.270  47.042   1.916  1.00  0.00    +0.000 H 
ATOM    121  H28 UNL A   1      15.156  46.966   0.188  1.00  0.00    +0.000 H 
ATOM    122  H29 UNL A   1      16.871  56.778   1.497  1.00  0.00    +0.000 H 
ATOM    123  H30 UNL A   1      15.325  56.776   3.539  1.00  0.00    +0.000 H 
ENDROOT
BRANCH   19   18
ATOM     76  C53 UNL A   1      12.430  56.152   4.504  1.00  0.00    +0.000 C 
ATOM     77  C54 UNL A   1      11.938  57.133   5.365  1.00  0.00    +0.000 C 
ATOM     15  C11 UNL A   1      12.455  57.249   6.659  1.00  0.00    +0.000 C 
ATOM    112  H19 UNL A   1      13.960  56.587   7.987  1.00  0.00    +0.000 H 
ATOM     16  C12 UNL A   1      13.547  56.470   7.047  1.00  0.00    +0.000 C 
ATOM     17  C13 UNL A   1      14.082  55.531   6.161  1.00  0.00    +0.000 C 
ATOM    113  H20 UNL A   1      14.905  54.975   6.439  1.00  0.00    +0.000 H 
ATOM     18  C14 UNL A   1      13.505  55.341   4.895  1.00  0.00    +0.000 C 
ATOM    124  H31 UNL A   1      12.000  56.023   3.575  1.00  0.00    +0.000 H 
ATOM    125  H32 UNL A   1      11.194  57.773   5.047  1.00  0.00    +0.000 H 
BRANCH   15   13
ATOM     13  C10 UNL A   1      11.882  58.203   7.635  1.00  0.00    +0.000 C 
ATOM     14  O2  UNL A   1      12.442  59.277   7.835  1.00  0.00    +0.000 O 
BRANCH   13   12
ATOM     12  N2  UNL A   1      10.741  57.885   8.329  1.00  0.00    +0.000 N 
ATOM    111  H18 UNL A   1      10.768  58.078   9.294  1.00  0.00    +0.000 H 
BRANCH   12   11
ATOM     11  C9  UNL A   1       9.500  57.301   7.847  1.00  0.00    +0.000 C 
ATOM    109  H16 UNL A   1       8.682  57.895   8.201  1.00  0.00    +0.000 H 
ATOM    110  H17 UNL A   1       9.541  57.288   6.778  1.00  0.00    +0.000 H 
BRANCH   11   10
ATOM     10  C8  UNL A   1       9.307  55.865   8.324  1.00  0.00    +0.000 C 
ATOM    107  H14 UNL A   1       9.834  55.749   9.247  1.00  0.00    +0.000 H 
ATOM    108  H15 UNL A   1       8.250  55.722   8.414  1.00  0.00    +0.000 H 
BRANCH   10    9
ATOM      9  C7  UNL A   1       9.801  54.788   7.357  1.00  0.00    +0.000 C 
ATOM    106  H13 UNL A   1      10.141  55.306   6.484  1.00  0.00    +0.000 H 
ATOM    105  H12 UNL A   1       8.991  54.115   7.167  1.00  0.00    +0.000 H 
BRANCH    9    8
ATOM    104  H11 UNL A   1      11.557  54.616   8.486  1.00  0.00    +0.000 H 
ATOM    103  H10 UNL A   1      11.535  53.622   6.994  1.00  0.00    +0.000 H 
ATOM      8  C6  UNL A   1      10.993  53.965   7.851  1.00  0.00    +0.000 C 
BRANCH    8    7
ATOM    101  H8  UNL A   1       9.759  52.294   8.303  1.00  0.00    +0.000 H 
ATOM    102  H9  UNL A   1      11.498  52.099   8.675  1.00  0.00    +0.000 H 
ATOM      7  C5  UNL A   1      10.642  52.741   8.708  1.00  0.00    +0.000 C 
BRANCH    7    6
ATOM     99  H6  UNL A   1       9.675  53.831  10.268  1.00  0.00    +0.000 H 
ATOM    100  H7  UNL A   1      10.017  52.146  10.651  1.00  0.00    +0.000 H 
ATOM      6  C4  UNL A   1      10.387  53.038  10.190  1.00  0.00    +0.000 C 
BRANCH    6    5
ATOM     98  H5  UNL A   1      11.647  54.353  11.211  1.00  0.00    +0.000 H 
ATOM      5  N1  UNL A   1      11.606  53.430  10.870  1.00  0.00    +0.000 N 
BRANCH    5    3
ATOM      3  C3  UNL A   1      12.705  52.642  11.084  1.00  0.00    +0.000 C 
ATOM      4  O1  UNL A   1      12.506  51.580  11.674  1.00  0.00    +0.000 O 
BRANCH    3    2
ATOM     97  H4  UNL A   1      14.756  53.056  11.380  1.00  0.00    +0.000 H 
ATOM      2  C2  UNL A   1      14.079  53.097  10.551  1.00  0.00    +0.000 C 
BRANCH    2    1
ATOM      1  C1  UNL A   1      13.898  54.515   9.993  1.00  0.00    +0.000 C 
ATOM     94  H1  UNL A   1      12.898  54.847  10.180  1.00  0.00    +0.000 H 
ATOM     95  H2  UNL A   1      14.081  54.510   8.940  1.00  0.00    +0.000 H 
ATOM     96  H3  UNL A   1      14.589  55.178  10.472  1.00  0.00    +0.000 H 
ENDBRANCH    2    1
BRANCH    2   78
ATOM    137  H44 UNL A   1      17.142  49.772   9.243  1.00  0.00    +0.000 H 
ATOM     78  C55 UNL A   1      14.771  52.181   9.526  1.00  0.00    +0.000 C 
ATOM     79  C56 UNL A   1      14.501  52.284   8.150  1.00  0.00    +0.000 C 
ATOM     80  C57 UNL A   1      15.192  51.531   7.195  1.00  0.00    +0.000 C 
ATOM     81  C58 UNL A   1      16.165  50.608   7.575  1.00  0.00    +0.000 C 
ATOM     89  C65 UNL A   1      16.430  50.455   8.938  1.00  0.00    +0.000 C 
ATOM     90  C66 UNL A   1      15.742  51.219   9.903  1.00  0.00    +0.000 C 
ATOM    126  H33 UNL A   1      13.768  52.938   7.833  1.00  0.00    +0.000 H 
ATOM    127  H34 UNL A   1      14.979  51.660   6.193  1.00  0.00    +0.000 H 
BRANCH   81   82
ATOM    129  H36 UNL A   1      17.896  50.250   6.506  1.00  0.00    +0.000 H 
ATOM     82  C59 UNL A   1      16.920  49.811   6.539  1.00  0.00    +0.000 C 
ATOM    128  H35 UNL A   1      16.899  48.785   6.842  1.00  0.00    +0.000 H 
BRANCH   82   83
ATOM    130  H37 UNL A   1      15.346  49.903   5.278  1.00  0.00    +0.000 H 
ATOM    131  H38 UNL A   1      17.141  51.892   4.920  1.00  0.00    +0.000 H 
ATOM    132  H39 UNL A   1      16.061  51.453   3.651  1.00  0.00    +0.000 H 
ATOM    133  H40 UNL A   1      18.944  50.690   4.018  1.00  0.00    +0.000 H 
ATOM    134  H41 UNL A   1      18.179  51.217   2.571  1.00  0.00    +0.000 H 
ATOM    135  H42 UNL A   1      18.643  48.589   3.052  1.00  0.00    +0.000 H 
ATOM    136  H43 UNL A   1      17.279  49.045   2.145  1.00  0.00    +0.000 H 
ATOM     83  C60 UNL A   1      16.401  49.881   5.099  1.00  0.00    +0.000 C 
ATOM     84  C61 UNL A   1      16.851  51.090   4.275  1.00  0.00    +0.000 C 
ATOM     85  C62 UNL A   1      18.042  50.619   3.448  1.00  0.00    +0.000 C 
ATOM     86  C63 UNL A   1      17.744  49.167   3.101  1.00  0.00    +0.000 C 
ATOM     87  C64 UNL A   1      16.875  48.724   4.249  1.00  0.00    +0.000 C 
ATOM     88  O3  UNL A   1      16.572  47.556   4.457  1.00  0.00    +0.000 O 
ENDBRANCH   82   83
ENDBRANCH   81   82
BRANCH   90   91
ATOM     91  N7  UNL A   1      16.097  50.966  11.284  1.00  0.00    +0.000 N 
ATOM     92  O4  UNL A   1      17.084  51.478  11.771  1.00  0.00    +0.000 O 
ATOM     93  O5  UNL A   1      15.383  50.093  12.068  1.00  0.00    +0.000 O 
ENDBRANCH   90   91
ENDBRANCH    2   78
ENDBRANCH    3    2
ENDBRANCH    5    3
ENDBRANCH    6    5
ENDBRANCH    7    6
ENDBRANCH    8    7
ENDBRANCH    9    8
ENDBRANCH   10    9
ENDBRANCH   11   10
ENDBRANCH   12   11
ENDBRANCH   13   12
ENDBRANCH   15   13
ENDBRANCH   19   18
BRANCH   23   24
ATOM     33  C24 UNL A   1      17.869  55.907  -1.511  1.00  0.00    +0.000 C 
ATOM     34  F5  UNL A   1      16.755  55.546  -2.165  1.00  0.00    +0.000 F 
ATOM     24  C19 UNL A   1      18.179  55.330  -0.270  1.00  0.00    +0.000 C 
ATOM     25  C20 UNL A   1      19.360  55.740   0.368  1.00  0.00    +0.000 C 
ATOM     26  F1  UNL A   1      19.695  55.226   1.561  1.00  0.00    +0.000 F 
ATOM     27  C21 UNL A   1      20.187  56.702  -0.205  1.00  0.00    +0.000 C 
ATOM     28  F2  UNL A   1      21.291  57.103   0.441  1.00  0.00    +0.000 F 
ATOM     29  C22 UNL A   1      19.868  57.248  -1.438  1.00  0.00    +0.000 C 
ATOM     30  F3  UNL A   1      20.673  58.165  -1.995  1.00  0.00    +0.000 F 
ATOM     31  C23 UNL A   1      18.714  56.849  -2.094  1.00  0.00    +0.000 C 
ATOM     32  F4  UNL A   1      18.411  57.368  -3.291  1.00  0.00    +0.000 F 
ENDBRANCH   23   24
BRANCH   40   41
ATOM     41  C30 UNL A   1      16.916  48.295  -1.206  1.00  0.00    +0.000 C 
ATOM     42  C31 UNL A   1      16.248  47.912  -2.378  1.00  0.00    +0.000 C 
ATOM     43  F6  UNL A   1      15.110  48.524  -2.737  1.00  0.00    +0.000 F 
ATOM     44  C32 UNL A   1      16.724  46.865  -3.162  1.00  0.00    +0.000 C 
ATOM     45  F7  UNL A   1      16.041  46.482  -4.250  1.00  0.00    +0.000 F 
ATOM     46  C33 UNL A   1      17.892  46.206  -2.809  1.00  0.00    +0.000 C 
ATOM     47  F8  UNL A   1      18.349  45.198  -3.567  1.00  0.00    +0.000 F 
ATOM     48  C34 UNL A   1      18.581  46.583  -1.667  1.00  0.00    +0.000 C 
ATOM     49  F9  UNL A   1      19.716  45.955  -1.331  1.00  0.00    +0.000 F 
ATOM     50  C35 UNL A   1      18.093  47.611  -0.865  1.00  0.00    +0.000 C 
ATOM     51  F10 UNL A   1      18.772  47.944   0.243  1.00  0.00    +0.000 F 
ENDBRANCH   40   41
BRANCH   55   56
ATOM     65  C44 UNL A   1      10.867  48.228   3.145  1.00  0.00    +0.000 C 
ATOM     66  F15 UNL A   1      10.516  48.847   2.009  1.00  0.00    +0.000 F 
ATOM     56  C39 UNL A   1      12.072  48.557   3.781  1.00  0.00    +0.000 C 
ATOM     57  C40 UNL A   1      12.388  47.884   4.969  1.00  0.00    +0.000 C 
ATOM     58  F11 UNL A   1      13.539  48.149   5.603  1.00  0.00    +0.000 F 
ATOM     59  C41 UNL A   1      11.547  46.900   5.484  1.00  0.00    +0.000 C 
ATOM     60  F12 UNL A   1      11.898  46.234   6.593  1.00  0.00    +0.000 F 
ATOM     61  C42 UNL A   1      10.358  46.593   4.839  1.00  0.00    +0.000 C 
ATOM     62  F13 UNL A   1       9.549  45.646   5.334  1.00  0.00    +0.000 F 
ATOM     63  C43 UNL A   1      10.012  47.264   3.676  1.00  0.00    +0.000 C 
ATOM     64  F14 UNL A   1       8.858  46.981   3.056  1.00  0.00    +0.000 F 
ENDBRANCH   55   56
TORSDOF 20
ENDMDL
MODEL 9
REMARK VINA RESULT:     -10.3      3.994      9.132
ROOT
ATOM     19  C15 UNL A   1      41.567  26.564  27.716  1.00  0.00    +0.000 C 
ATOM     20  C16 UNL A   1      42.989  26.801  27.287  1.00  0.00    +0.000 C 
ATOM     21  N3  UNL A   1      43.762  27.831  27.524  1.00  0.00    +0.000 N 
ATOM     22  C17 UNL A   1      44.982  27.533  26.931  1.00  0.00    +0.000 C 
ATOM     23  C18 UNL A   1      46.091  28.305  26.843  1.00  0.00    +0.000 C 
ATOM     35  C25 UNL A   1      46.200  29.636  27.384  1.00  0.00    +0.000 C 
ATOM     36  C26 UNL A   1      47.266  30.516  27.303  1.00  0.00    +0.000 C 
ATOM     37  C27 UNL A   1      46.930  31.677  28.007  1.00  0.00    +0.000 C 
ATOM     38  C28 UNL A   1      45.640  31.537  28.491  1.00  0.00    +0.000 C 
ATOM     39  N4  UNL A   1      45.206  30.279  28.106  1.00  0.00    +0.000 N 
ATOM     40  C29 UNL A   1      44.859  32.481  29.247  1.00  0.00    +0.000 C 
ATOM     52  C36 UNL A   1      43.591  32.269  29.677  1.00  0.00    +0.000 C 
ATOM     53  N5  UNL A   1      42.784  31.154  29.503  1.00  0.00    +0.000 N 
ATOM     54  C37 UNL A   1      41.660  31.423  30.122  1.00  0.00    +0.000 C 
ATOM     55  C38 UNL A   1      40.415  30.586  30.237  1.00  0.00    +0.000 C 
ATOM     67  C45 UNL A   1      40.373  29.383  29.633  1.00  0.00    +0.000 C 
ATOM     68  C46 UNL A   1      39.233  28.471  29.644  1.00  0.00    +0.000 C 
ATOM     69  C47 UNL A   1      39.558  27.357  28.969  1.00  0.00    +0.000 C 
ATOM     70  C48 UNL A   1      40.920  27.490  28.450  1.00  0.00    +0.000 C 
ATOM     71  N6  UNL A   1      41.325  28.725  28.894  1.00  0.00    +0.000 N 
ATOM     72  C49 UNL A   1      41.638  32.736  30.781  1.00  0.00    +0.000 C 
ATOM     73  C50 UNL A   1      42.820  33.228  30.442  1.00  0.00    +0.000 C 
ATOM     74  C51 UNL A   1      44.864  26.204  26.368  1.00  0.00    +0.000 C 
ATOM     75  C52 UNL A   1      43.634  25.732  26.510  1.00  0.00    +0.000 C 
ATOM    114  H21 UNL A   1      48.155  30.345  26.807  1.00  0.00    +0.000 H 
ATOM    115  H22 UNL A   1      47.541  32.498  28.144  1.00  0.00    +0.000 H 
ATOM    116  H23 UNL A   1      44.323  29.897  28.315  1.00  0.00    +0.000 H 
ATOM    117  H24 UNL A   1      38.324  28.653  30.097  1.00  0.00    +0.000 H 
ATOM    118  H25 UNL A   1      38.945  26.537  28.836  1.00  0.00    +0.000 H 
ATOM    119  H26 UNL A   1      42.213  29.102  28.701  1.00  0.00    +0.000 H 
ATOM    120  H27 UNL A   1      40.896  33.163  31.358  1.00  0.00    +0.000 H 
ATOM    121  H28 UNL A   1      43.151  34.173  30.691  1.00  0.00    +0.000 H 
ATOM    122  H29 UNL A   1      45.637  25.692  25.914  1.00  0.00    +0.000 H 
ATOM    123  H30 UNL A   1      43.234  24.846  26.166  1.00  0.00    +0.000 H 
ENDROOT
BRANCH   19   18
ATOM     76  C53 UNL A   1      39.844  25.278  26.437  1.00  0.00    +0.000 C 
ATOM     77  C54 UNL A   1      39.208  24.082  26.104  1.00  0.00    +0.000 C 
ATOM     15  C11 UNL A   1      39.665  22.875  26.642  1.00  0.00    +0.000 C 
ATOM    112  H19 UNL A   1      40.979  21.992  28.041  1.00  0.00    +0.000 H 
ATOM     16  C12 UNL A   1      40.673  22.878  27.609  1.00  0.00    +0.000 C 
ATOM     17  C13 UNL A   1      41.267  24.084  27.990  1.00  0.00    +0.000 C 
ATOM    113  H20 UNL A   1      41.993  24.089  28.723  1.00  0.00    +0.000 H 
ATOM     18  C14 UNL A   1      40.881  25.290  27.382  1.00  0.00    +0.000 C 
ATOM    124  H31 UNL A   1      39.550  26.158  25.986  1.00  0.00    +0.000 H 
ATOM    125  H32 UNL A   1      38.401  24.088  25.462  1.00  0.00    +0.000 H 
BRANCH   15   13
ATOM     13  C10 UNL A   1      39.085  21.578  26.226  1.00  0.00    +0.000 C 
ATOM     14  O2  UNL A   1      39.771  20.562  26.278  1.00  0.00    +0.000 O 
BRANCH   13   12
ATOM     12  N2  UNL A   1      37.794  21.512  25.764  1.00  0.00    +0.000 N 
ATOM    111  H18 UNL A   1      37.096  21.633  26.448  1.00  0.00    +0.000 H 
BRANCH   12   11
ATOM     11  C9  UNL A   1      37.308  21.288  24.413  1.00  0.00    +0.000 C 
ATOM    109  H16 UNL A   1      38.146  21.099  23.774  1.00  0.00    +0.000 H 
ATOM    110  H17 UNL A   1      36.640  20.452  24.442  1.00  0.00    +0.000 H 
BRANCH   11   10
ATOM     10  C8  UNL A   1      36.534  22.483  23.866  1.00  0.00    +0.000 C 
ATOM    107  H14 UNL A   1      37.204  23.068  23.272  1.00  0.00    +0.000 H 
ATOM    108  H15 UNL A   1      35.714  22.078  23.310  1.00  0.00    +0.000 H 
BRANCH   10    9
ATOM      9  C7  UNL A   1      35.919  23.398  24.926  1.00  0.00    +0.000 C 
ATOM    106  H13 UNL A   1      35.730  24.332  24.438  1.00  0.00    +0.000 H 
ATOM    105  H12 UNL A   1      36.609  23.473  25.741  1.00  0.00    +0.000 H 
BRANCH    9    8
ATOM    104  H11 UNL A   1      34.776  22.572  26.474  1.00  0.00    +0.000 H 
ATOM    103  H10 UNL A   1      34.178  22.191  24.828  1.00  0.00    +0.000 H 
ATOM      8  C6  UNL A   1      34.573  22.934  25.487  1.00  0.00    +0.000 C 
BRANCH    8    7
ATOM    101  H8  UNL A   1      33.531  24.361  26.670  1.00  0.00    +0.000 H 
ATOM    102  H9  UNL A   1      33.763  24.798  24.951  1.00  0.00    +0.000 H 
ATOM      7  C5  UNL A   1      33.511  24.030  25.653  1.00  0.00    +0.000 C 
BRANCH    7    6
ATOM     99  H6  UNL A   1      31.835  22.729  25.890  1.00  0.00    +0.000 H 
ATOM    100  H7  UNL A   1      31.421  24.411  25.564  1.00  0.00    +0.000 H 
ATOM      6  C4  UNL A   1      32.077  23.601  25.321  1.00  0.00    +0.000 C 
BRANCH    6    5
ATOM     98  H5  UNL A   1      31.427  22.483  23.681  1.00  0.00    +0.000 H 
ATOM      5  N1  UNL A   1      31.927  23.301  23.910  1.00  0.00    +0.000 N 
BRANCH    5    3
ATOM      3  C3  UNL A   1      32.412  24.042  22.867  1.00  0.00    +0.000 C 
ATOM      4  O1  UNL A   1      33.365  23.560  22.254  1.00  0.00    +0.000 O 
BRANCH    3    2
ATOM     97  H4  UNL A   1      30.681  25.237  22.670  1.00  0.00    +0.000 H 
ATOM      2  C2  UNL A   1      31.729  25.376  22.502  1.00  0.00    +0.000 C 
BRANCH    2    1
ATOM      1  C1  UNL A   1      32.068  25.668  21.034  1.00  0.00    +0.000 C 
ATOM     94  H1  UNL A   1      31.860  26.696  20.819  1.00  0.00    +0.000 H 
ATOM     95  H2  UNL A   1      31.474  25.044  20.400  1.00  0.00    +0.000 H 
ATOM     96  H3  UNL A   1      33.104  25.470  20.861  1.00  0.00    +0.000 H 
ENDBRANCH    2    1
BRANCH    2   78
ATOM    137  H44 UNL A   1      30.653  28.654  25.703  1.00  0.00    +0.000 H 
ATOM     78  C55 UNL A   1      32.040  26.589  23.396  1.00  0.00    +0.000 C 
ATOM     79  C56 UNL A   1      33.271  27.264  23.316  1.00  0.00    +0.000 C 
ATOM     80  C57 UNL A   1      33.534  28.427  24.047  1.00  0.00    +0.000 C 
ATOM     81  C58 UNL A   1      32.587  28.954  24.924  1.00  0.00    +0.000 C 
ATOM     89  C65 UNL A   1      31.367  28.286  25.054  1.00  0.00    +0.000 C 
ATOM     90  C66 UNL A   1      31.095  27.117  24.312  1.00  0.00    +0.000 C 
ATOM    126  H33 UNL A   1      34.006  26.888  22.697  1.00  0.00    +0.000 H 
ATOM    127  H34 UNL A   1      34.443  28.904  23.936  1.00  0.00    +0.000 H 
BRANCH   81   82
ATOM    129  H36 UNL A   1      33.698  30.673  25.194  1.00  0.00    +0.000 H 
ATOM     82  C59 UNL A   1      32.869  30.219  25.696  1.00  0.00    +0.000 C 
ATOM    128  H35 UNL A   1      31.972  30.803  25.700  1.00  0.00    +0.000 H 
BRANCH   82   83
ATOM    130  H37 UNL A   1      32.381  29.859  27.622  1.00  0.00    +0.000 H 
ATOM    131  H38 UNL A   1      34.278  28.194  26.653  1.00  0.00    +0.000 H 
ATOM    132  H39 UNL A   1      34.118  28.440  28.351  1.00  0.00    +0.000 H 
ATOM    133  H40 UNL A   1      36.089  29.675  26.448  1.00  0.00    +0.000 H 
ATOM    134  H41 UNL A   1      36.410  29.018  28.004  1.00  0.00    +0.000 H 
ATOM    135  H42 UNL A   1      36.150  31.690  27.619  1.00  0.00    +0.000 H 
ATOM    136  H43 UNL A   1      35.666  31.007  29.100  1.00  0.00    +0.000 H 
ATOM     83  C60 UNL A   1      33.322  30.055  27.151  1.00  0.00    +0.000 C 
ATOM     84  C61 UNL A   1      34.327  28.933  27.425  1.00  0.00    +0.000 C 
ATOM     85  C62 UNL A   1      35.702  29.591  27.442  1.00  0.00    +0.000 C 
ATOM     86  C63 UNL A   1      35.483  30.970  28.046  1.00  0.00    +0.000 C 
ATOM     87  C64 UNL A   1      34.053  31.269  27.677  1.00  0.00    +0.000 C 
ATOM     88  O3  UNL A   1      33.536  32.373  27.809  1.00  0.00    +0.000 O 
ENDBRANCH   82   83
ENDBRANCH   81   82
BRANCH   90   91
ATOM     91  N7  UNL A   1      29.800  26.509  24.538  1.00  0.00    +0.000 N 
ATOM     92  O4  UNL A   1      29.604  25.822  25.520  1.00  0.00    +0.000 O 
ATOM     93  O5  UNL A   1      28.777  26.622  23.628  1.00  0.00    +0.000 O 
ENDBRANCH   90   91
ENDBRANCH    2   78
ENDBRANCH    3    2
ENDBRANCH    5    3
ENDBRANCH    6    5
ENDBRANCH    7    6
ENDBRANCH    8    7
ENDBRANCH    9    8
ENDBRANCH   10    9
ENDBRANCH   11   10
ENDBRANCH   12   11
ENDBRANCH   13   12
ENDBRANCH   15   13
ENDBRANCH   19   18
BRANCH   23   24
ATOM     33  C24 UNL A   1      48.368  27.218  26.835  1.00  0.00    +0.000 C 
ATOM     34  F5  UNL A   1      48.339  27.174  28.176  1.00  0.00    +0.000 F 
ATOM     24  C19 UNL A   1      47.279  27.740  26.122  1.00  0.00    +0.000 C 
ATOM     25  C20 UNL A   1      47.365  27.768  24.721  1.00  0.00    +0.000 C 
ATOM     26  F1  UNL A   1      46.345  28.247  23.993  1.00  0.00    +0.000 F 
ATOM     27  C21 UNL A   1      48.488  27.277  24.062  1.00  0.00    +0.000 C 
ATOM     28  F2  UNL A   1      48.531  27.281  22.722  1.00  0.00    +0.000 F 
ATOM     29  C22 UNL A   1      49.558  26.779  24.789  1.00  0.00    +0.000 C 
ATOM     30  F3  UNL A   1      50.645  26.318  24.153  1.00  0.00    +0.000 F 
ATOM     31  C23 UNL A   1      49.502  26.754  26.174  1.00  0.00    +0.000 C 
ATOM     32  F4  UNL A   1      50.541  26.283  26.877  1.00  0.00    +0.000 F 
ENDBRANCH   23   24
BRANCH   40   41
ATOM     41  C30 UNL A   1      45.479  33.808  29.573  1.00  0.00    +0.000 C 
ATOM     42  C31 UNL A   1      45.349  34.909  28.715  1.00  0.00    +0.000 C 
ATOM     43  F6  UNL A   1      44.691  34.785  27.552  1.00  0.00    +0.000 F 
ATOM     44  C32 UNL A   1      45.936  36.132  29.028  1.00  0.00    +0.000 C 
ATOM     45  F7  UNL A   1      45.843  37.156  28.168  1.00  0.00    +0.000 F 
ATOM     46  C33 UNL A   1      46.632  36.286  30.218  1.00  0.00    +0.000 C 
ATOM     47  F8  UNL A   1      47.195  37.465  30.518  1.00  0.00    +0.000 F 
ATOM     48  C34 UNL A   1      46.752  35.217  31.092  1.00  0.00    +0.000 C 
ATOM     49  F9  UNL A   1      47.415  35.368  32.247  1.00  0.00    +0.000 F 
ATOM     50  C35 UNL A   1      46.191  33.985  30.769  1.00  0.00    +0.000 C 
ATOM     51  F10 UNL A   1      46.339  32.963  31.627  1.00  0.00    +0.000 F 
ENDBRANCH   40   41
BRANCH   55   56
ATOM     65  C44 UNL A   1      38.267  31.892  30.380  1.00  0.00    +0.000 C 
ATOM     66  F15 UNL A   1      38.406  32.252  29.096  1.00  0.00    +0.000 F 
ATOM     56  C39 UNL A   1      39.236  31.084  30.992  1.00  0.00    +0.000 C 
ATOM     57  C40 UNL A   1      39.045  30.742  32.337  1.00  0.00    +0.000 C 
ATOM     58  F11 UNL A   1      39.934  29.954  32.959  1.00  0.00    +0.000 F 
ATOM     59  C41 UNL A   1      37.916  31.166  33.035  1.00  0.00    +0.000 C 
ATOM     60  F12 UNL A   1      37.732  30.780  34.305  1.00  0.00    +0.000 F 
ATOM     61  C42 UNL A   1      36.973  31.968  32.410  1.00  0.00    +0.000 C 
ATOM     62  F13 UNL A   1      35.886  32.374  33.080  1.00  0.00    +0.000 F 
ATOM     63  C43 UNL A   1      37.153  32.340  31.086  1.00  0.00    +0.000 C 
ATOM     64  F14 UNL A   1      36.251  33.125  30.482  1.00  0.00    +0.000 F 
ENDBRANCH   55   56
TORSDOF 20
ENDMDL
MODEL 10
REMARK VINA RESULT:     -10.2      1.109      2.313
ROOT
ATOM     19  C15 UNL A   1      38.241  29.915  29.899  1.00  0.00    +0.000 C 
ATOM     20  C16 UNL A   1      38.494  30.430  31.289  1.00  0.00    +0.000 C 
ATOM     21  N3  UNL A   1      39.511  30.204  32.081  1.00  0.00    +0.000 N 
ATOM     22  C17 UNL A   1      39.265  30.941  33.233  1.00  0.00    +0.000 C 
ATOM     23  C18 UNL A   1      39.991  30.992  34.375  1.00  0.00    +0.000 C 
ATOM     35  C25 UNL A   1      41.209  30.257  34.598  1.00  0.00    +0.000 C 
ATOM     36  C26 UNL A   1      41.991  30.206  35.740  1.00  0.00    +0.000 C 
ATOM     37  C27 UNL A   1      43.096  29.390  35.480  1.00  0.00    +0.000 C 
ATOM     38  C28 UNL A   1      42.982  28.898  34.190  1.00  0.00    +0.000 C 
ATOM     39  N4  UNL A   1      41.824  29.443  33.659  1.00  0.00    +0.000 N 
ATOM     40  C29 UNL A   1      43.863  27.998  33.493  1.00  0.00    +0.000 C 
ATOM     52  C36 UNL A   1      43.674  27.555  32.225  1.00  0.00    +0.000 C 
ATOM     53  N5  UNL A   1      42.642  27.844  31.343  1.00  0.00    +0.000 N 
ATOM     54  C37 UNL A   1      42.920  27.195  30.240  1.00  0.00    +0.000 C 
ATOM     55  C38 UNL A   1      42.136  27.121  28.958  1.00  0.00    +0.000 C 
ATOM     67  C45 UNL A   1      40.965  27.779  28.864  1.00  0.00    +0.000 C 
ATOM     68  C46 UNL A   1      40.090  27.787  27.696  1.00  0.00    +0.000 C 
ATOM     69  C47 UNL A   1      39.031  28.572  27.947  1.00  0.00    +0.000 C 
ATOM     70  C48 UNL A   1      39.136  29.099  29.309  1.00  0.00    +0.000 C 
ATOM     71  N6  UNL A   1      40.316  28.575  29.776  1.00  0.00    +0.000 N 
ATOM     72  C49 UNL A   1      44.177  26.435  30.290  1.00  0.00    +0.000 C 
ATOM     73  C50 UNL A   1      44.573  26.653  31.536  1.00  0.00    +0.000 C 
ATOM     74  C51 UNL A   1      38.029  31.662  33.017  1.00  0.00    +0.000 C 
ATOM     75  C52 UNL A   1      37.482  31.336  31.854  1.00  0.00    +0.000 C 
ATOM    114  H21 UNL A   1      41.790  30.688  36.631  1.00  0.00    +0.000 H 
ATOM    115  H22 UNL A   1      43.866  29.190  36.137  1.00  0.00    +0.000 H 
ATOM    116  H23 UNL A   1      41.486  29.276  32.749  1.00  0.00    +0.000 H 
ATOM    117  H24 UNL A   1      40.259  27.271  26.818  1.00  0.00    +0.000 H 
ATOM    118  H25 UNL A   1      38.263  28.772  27.287  1.00  0.00    +0.000 H 
ATOM    119  H26 UNL A   1      40.664  28.753  30.679  1.00  0.00    +0.000 H 
ATOM    120  H27 UNL A   1      44.633  25.878  29.550  1.00  0.00    +0.000 H 
ATOM    121  H28 UNL A   1      45.414  26.234  31.961  1.00  0.00    +0.000 H 
ATOM    122  H29 UNL A   1      37.625  32.341  33.681  1.00  0.00    +0.000 H 
ATOM    123  H30 UNL A   1      36.582  31.639  31.450  1.00  0.00    +0.000 H 
ENDROOT
BRANCH   19   18
ATOM     76  C53 UNL A   1      36.031  29.407  28.843  1.00  0.00    +0.000 C 
ATOM     77  C54 UNL A   1      34.886  29.802  28.152  1.00  0.00    +0.000 C 
ATOM     15  C11 UNL A   1      34.691  31.150  27.838  1.00  0.00    +0.000 C 
ATOM    112  H19 UNL A   1      35.574  33.070  27.829  1.00  0.00    +0.000 H 
ATOM     16  C12 UNL A   1      35.698  32.082  28.102  1.00  0.00    +0.000 C 
ATOM     17  C13 UNL A   1      36.873  31.674  28.737  1.00  0.00    +0.000 C 
ATOM    113  H20 UNL A   1      37.627  32.357  28.909  1.00  0.00    +0.000 H 
ATOM     18  C14 UNL A   1      37.034  30.339  29.144  1.00  0.00    +0.000 C 
ATOM    124  H31 UNL A   1      36.140  28.423  29.134  1.00  0.00    +0.000 H 
ATOM    125  H32 UNL A   1      34.184  29.100  27.872  1.00  0.00    +0.000 H 
BRANCH   15   13
ATOM     13  C10 UNL A   1      33.438  31.620  27.204  1.00  0.00    +0.000 C 
ATOM     14  O2  UNL A   1      33.045  32.764  27.411  1.00  0.00    +0.000 O 
BRANCH   13   12
ATOM     12  N2  UNL A   1      32.707  30.777  26.405  1.00  0.00    +0.000 N 
ATOM    111  H18 UNL A   1      32.913  30.825  25.443  1.00  0.00    +0.000 H 
BRANCH   12   11
ATOM     11  C9  UNL A   1      31.672  29.825  26.772  1.00  0.00    +0.000 C 
ATOM    109  H16 UNL A   1      31.788  29.574  27.806  1.00  0.00    +0.000 H 
ATOM    110  H17 UNL A   1      30.725  30.285  26.584  1.00  0.00    +0.000 H 
BRANCH   11   10
ATOM     10  C8  UNL A   1      31.739  28.544  25.946  1.00  0.00    +0.000 C 
ATOM    107  H14 UNL A   1      31.501  27.723  26.589  1.00  0.00    +0.000 H 
ATOM    108  H15 UNL A   1      31.045  28.671  25.142  1.00  0.00    +0.000 H 
BRANCH   10    9
ATOM      9  C7  UNL A   1      33.095  28.260  25.298  1.00  0.00    +0.000 C 
ATOM    106  H13 UNL A   1      33.791  28.927  25.761  1.00  0.00    +0.000 H 
ATOM    105  H12 UNL A   1      32.995  28.409  24.242  1.00  0.00    +0.000 H 
BRANCH    9    8
ATOM    104  H11 UNL A   1      34.539  26.973  26.101  1.00  0.00    +0.000 H 
ATOM    103  H10 UNL A   1      33.808  26.401  24.568  1.00  0.00    +0.000 H 
ATOM      8  C6  UNL A   1      33.645  26.850  25.525  1.00  0.00    +0.000 C 
BRANCH    8    7
ATOM    101  H8  UNL A   1      32.790  26.215  27.365  1.00  0.00    +0.000 H 
ATOM    102  H9  UNL A   1      31.767  25.991  25.913  1.00  0.00    +0.000 H 
ATOM      7  C5  UNL A   1      32.746  25.911  26.340  1.00  0.00    +0.000 C 
BRANCH    7    6
ATOM     99  H6  UNL A   1      33.995  24.318  25.660  1.00  0.00    +0.000 H 
ATOM    100  H7  UNL A   1      33.306  24.080  27.264  1.00  0.00    +0.000 H 
ATOM      6  C4  UNL A   1      33.122  24.427  26.269  1.00  0.00    +0.000 C 
BRANCH    6    5
ATOM     98  H5  UNL A   1      31.246  23.511  26.257  1.00  0.00    +0.000 H 
ATOM      5  N1  UNL A   1      32.050  23.633  25.701  1.00  0.00    +0.000 N 
BRANCH    5    3
ATOM      3  C3  UNL A   1      32.045  23.039  24.468  1.00  0.00    +0.000 C 
ATOM      4  O1  UNL A   1      31.935  21.813  24.455  1.00  0.00    +0.000 O 
BRANCH    3    2
ATOM     97  H4  UNL A   1      31.739  23.331  22.398  1.00  0.00    +0.000 H 
ATOM      2  C2  UNL A   1      32.131  23.917  23.203  1.00  0.00    +0.000 C 
BRANCH    2    1
ATOM      1  C1  UNL A   1      33.609  24.287  23.011  1.00  0.00    +0.000 C 
ATOM     94  H1  UNL A   1      34.101  23.511  22.462  1.00  0.00    +0.000 H 
ATOM     95  H2  UNL A   1      34.075  24.398  23.967  1.00  0.00    +0.000 H 
ATOM     96  H3  UNL A   1      33.679  25.207  22.470  1.00  0.00    +0.000 H 
ENDBRANCH    2    1
BRANCH    2   78
ATOM    137  H44 UNL A   1      31.028  28.274  21.810  1.00  0.00    +0.000 H 
ATOM     78  C55 UNL A   1      31.236  25.168  23.156  1.00  0.00    +0.000 C 
ATOM     79  C56 UNL A   1      30.076  25.271  23.943  1.00  0.00    +0.000 C 
ATOM     80  C57 UNL A   1      29.306  26.438  23.989  1.00  0.00    +0.000 C 
ATOM     81  C58 UNL A   1      29.640  27.549  23.218  1.00  0.00    +0.000 C 
ATOM     89  C65 UNL A   1      30.766  27.466  22.395  1.00  0.00    +0.000 C 
ATOM     90  C66 UNL A   1      31.550  26.294  22.353  1.00  0.00    +0.000 C 
ATOM    126  H33 UNL A   1      29.783  24.458  24.508  1.00  0.00    +0.000 H 
ATOM    127  H34 UNL A   1      28.477  26.477  24.603  1.00  0.00    +0.000 H 
BRANCH   81   82
ATOM    129  H36 UNL A   1      27.941  28.605  22.703  1.00  0.00    +0.000 H 
ATOM     82  C59 UNL A   1      28.815  28.812  23.284  1.00  0.00    +0.000 C 
ATOM    128  H35 UNL A   1      28.628  29.022  24.317  1.00  0.00    +0.000 H 
BRANCH   82   83
ATOM    130  H37 UNL A   1      30.446  29.762  22.567  1.00  0.00    +0.000 H 
ATOM    131  H38 UNL A   1      28.385  29.670  20.819  1.00  0.00    +0.000 H 
ATOM    132  H39 UNL A   1      29.616  30.865  20.655  1.00  0.00    +0.000 H 
ATOM    133  H40 UNL A   1      26.875  31.139  21.854  1.00  0.00    +0.000 H 
ATOM    134  H41 UNL A   1      27.653  32.222  20.769  1.00  0.00    +0.000 H 
ATOM    135  H42 UNL A   1      27.585  32.695  23.438  1.00  0.00    +0.000 H 
ATOM    136  H43 UNL A   1      28.922  33.222  22.529  1.00  0.00    +0.000 H 
ATOM     83  C60 UNL A   1      29.425  30.070  22.659  1.00  0.00    +0.000 C 
ATOM     84  C61 UNL A   1      28.850  30.501  21.307  1.00  0.00    +0.000 C 
ATOM     85  C62 UNL A   1      27.818  31.581  21.610  1.00  0.00    +0.000 C 
ATOM     86  C63 UNL A   1      28.372  32.345  22.804  1.00  0.00    +0.000 C 
ATOM     87  C64 UNL A   1      29.211  31.307  23.502  1.00  0.00    +0.000 C 
ATOM     88  O3  UNL A   1      29.682  31.458  24.623  1.00  0.00    +0.000 O 
ENDBRANCH   82   83
ENDBRANCH   81   82
BRANCH   90   91
ATOM     91  N7  UNL A   1      32.687  26.323  21.457  1.00  0.00    +0.000 N 
ATOM     92  O4  UNL A   1      33.662  26.998  21.719  1.00  0.00    +0.000 O 
ATOM     93  O5  UNL A   1      32.682  25.656  20.256  1.00  0.00    +0.000 O 
ENDBRANCH   90   91
ENDBRANCH    2   78
ENDBRANCH    3    2
ENDBRANCH    5    3
ENDBRANCH    6    5
ENDBRANCH    7    6
ENDBRANCH    8    7
ENDBRANCH    9    8
ENDBRANCH   10    9
ENDBRANCH   11   10
ENDBRANCH   12   11
ENDBRANCH   13   12
ENDBRANCH   15   13
ENDBRANCH   19   18
BRANCH   23   24
ATOM     33  C24 UNL A   1      39.979  33.164  35.659  1.00  0.00    +0.000 C 
ATOM     34  F5  UNL A   1      40.882  33.663  34.802  1.00  0.00    +0.000 F 
ATOM     24  C19 UNL A   1      39.483  31.864  35.485  1.00  0.00    +0.000 C 
ATOM     25  C20 UNL A   1      38.544  31.390  36.415  1.00  0.00    +0.000 C 
ATOM     26  F1  UNL A   1      38.030  30.157  36.286  1.00  0.00    +0.000 F 
ATOM     27  C21 UNL A   1      38.107  32.192  37.465  1.00  0.00    +0.000 C 
ATOM     28  F2  UNL A   1      37.183  31.730  38.319  1.00  0.00    +0.000 F 
ATOM     29  C22 UNL A   1      38.622  33.470  37.625  1.00  0.00    +0.000 C 
ATOM     30  F3  UNL A   1      38.210  34.237  38.645  1.00  0.00    +0.000 F 
ATOM     31  C23 UNL A   1      39.561  33.954  36.727  1.00  0.00    +0.000 C 
ATOM     32  F4  UNL A   1      40.068  35.184  36.888  1.00  0.00    +0.000 F 
ENDBRANCH   23   24
BRANCH   40   41
ATOM     41  C30 UNL A   1      45.074  27.494  34.220  1.00  0.00    +0.000 C 
ATOM     42  C31 UNL A   1      45.036  26.317  34.981  1.00  0.00    +0.000 C 
ATOM     43  F6  UNL A   1      43.889  25.631  35.106  1.00  0.00    +0.000 F 
ATOM     44  C32 UNL A   1      46.166  25.864  35.656  1.00  0.00    +0.000 C 
ATOM     45  F7  UNL A   1      46.093  24.765  36.420  1.00  0.00    +0.000 F 
ATOM     46  C33 UNL A   1      47.362  26.559  35.554  1.00  0.00    +0.000 C 
ATOM     47  F8  UNL A   1      48.450  26.121  36.203  1.00  0.00    +0.000 F 
ATOM     48  C34 UNL A   1      47.428  27.713  34.788  1.00  0.00    +0.000 C 
ATOM     49  F9  UNL A   1      48.587  28.379  34.679  1.00  0.00    +0.000 F 
ATOM     50  C35 UNL A   1      46.293  28.183  34.135  1.00  0.00    +0.000 C 
ATOM     51  F10 UNL A   1      46.384  29.312  33.414  1.00  0.00    +0.000 F 
ENDBRANCH   40   41
BRANCH   55   56
ATOM     65  C44 UNL A   1      42.242  24.980  27.637  1.00  0.00    +0.000 C 
ATOM     66  F15 UNL A   1      41.424  24.396  28.525  1.00  0.00    +0.000 F 
ATOM     56  C39 UNL A   1      42.632  26.315  27.813  1.00  0.00    +0.000 C 
ATOM     57  C40 UNL A   1      43.492  26.874  26.859  1.00  0.00    +0.000 C 
ATOM     58  F11 UNL A   1      43.877  28.154  26.972  1.00  0.00    +0.000 F 
ATOM     59  C41 UNL A   1      43.922  26.137  25.756  1.00  0.00    +0.000 C 
ATOM     60  F12 UNL A   1      44.701  26.713  24.831  1.00  0.00    +0.000 F 
ATOM     61  C42 UNL A   1      43.525  24.817  25.605  1.00  0.00    +0.000 C 
ATOM     62  F13 UNL A   1      43.937  24.109  24.544  1.00  0.00    +0.000 F 
ATOM     63  C43 UNL A   1      42.695  24.234  26.550  1.00  0.00    +0.000 C 
ATOM     64  F14 UNL A   1      42.320  22.955  26.415  1.00  0.00    +0.000 F 
ENDBRANCH   55   56
TORSDOF 20
ENDMDL
