MODEL 1
REMARK VINA RESULT:     -12.4      0.000      0.000
ROOT
ATOM     34  C25 UNL A   1      52.858  20.233  11.516  1.00  0.00    +0.000 C 
ATOM     35  C26 UNL A   1      54.182  19.579  11.240  1.00  0.00    +0.000 C 
ATOM     36  N5  UNL A   1      55.225  19.465  12.026  1.00  0.00    +0.000 N 
ATOM     37  C27 UNL A   1      56.178  18.766  11.299  1.00  0.00    +0.000 C 
ATOM     38  C28 UNL A   1      57.439  18.428  11.665  1.00  0.00    +0.000 C 
ATOM     50  C35 UNL A   1      58.030  18.747  12.940  1.00  0.00    +0.000 C 
ATOM     51  C36 UNL A   1      59.302  18.450  13.402  1.00  0.00    +0.000 C 
ATOM     52  C37 UNL A   1      59.419  18.934  14.710  1.00  0.00    +0.000 C 
ATOM     53  C38 UNL A   1      58.234  19.568  15.049  1.00  0.00    +0.000 C 
ATOM     54  N6  UNL A   1      57.388  19.436  13.959  1.00  0.00    +0.000 N 
ATOM     55  C39 UNL A   1      57.899  20.246  16.274  1.00  0.00    +0.000 C 
ATOM     67  C46 UNL A   1      56.714  20.849  16.532  1.00  0.00    +0.000 C 
ATOM     68  N7  UNL A   1      55.588  20.936  15.729  1.00  0.00    +0.000 N 
ATOM     69  C47 UNL A   1      54.689  21.575  16.437  1.00  0.00    +0.000 C 
ATOM     70  C48 UNL A   1      53.287  21.955  16.064  1.00  0.00    +0.000 C 
ATOM     82  C55 UNL A   1      52.817  21.615  14.850  1.00  0.00    +0.000 C 
ATOM     83  C56 UNL A   1      51.487  21.933  14.346  1.00  0.00    +0.000 C 
ATOM     84  C57 UNL A   1      51.356  21.421  13.114  1.00  0.00    +0.000 C 
ATOM     85  C58 UNL A   1      52.615  20.783  12.722  1.00  0.00    +0.000 C 
ATOM     86  N8  UNL A   1      53.414  20.920  13.827  1.00  0.00    +0.000 N 
ATOM     87  C59 UNL A   1      55.146  21.966  17.777  1.00  0.00    +0.000 C 
ATOM     88  C60 UNL A   1      56.398  21.533  17.769  1.00  0.00    +0.000 C 
ATOM     89  C61 UNL A   1      55.582  18.452  10.017  1.00  0.00    +0.000 C 
ATOM     90  C62 UNL A   1      54.363  18.966   9.915  1.00  0.00    +0.000 C 
ATOM    117  H25 UNL A   1      60.037  17.957  12.872  1.00  0.00    +0.000 H 
ATOM    118  H26 UNL A   1      60.246  18.835  15.318  1.00  0.00    +0.000 H 
ATOM    119  H27 UNL A   1      56.467  19.781  13.913  1.00  0.00    +0.000 H 
ATOM    120  H28 UNL A   1      50.764  22.465  14.854  1.00  0.00    +0.000 H 
ATOM    121  H29 UNL A   1      50.504  21.469  12.534  1.00  0.00    +0.000 H 
ATOM    122  H30 UNL A   1      54.327  20.554  13.882  1.00  0.00    +0.000 H 
ATOM    123  H31 UNL A   1      54.627  22.449  18.527  1.00  0.00    +0.000 H 
ATOM    124  H32 UNL A   1      57.064  21.665  18.547  1.00  0.00    +0.000 H 
ATOM    125  H33 UNL A   1      56.046  17.900   9.279  1.00  0.00    +0.000 H 
ATOM    126  H34 UNL A   1      53.712  18.942   9.115  1.00  0.00    +0.000 H 
ENDROOT
BRANCH   34   33
ATOM     33  C24 UNL A   1      51.813  20.345  10.467  1.00  0.00    +0.000 C 
ATOM    127  H35 UNL A   1      50.926  18.451  10.781  1.00  0.00    +0.000 H 
ATOM    115  H23 UNL A   1      50.562  22.636   8.350  1.00  0.00    +0.000 H 
ATOM    116  H24 UNL A   1      52.394  22.299   9.898  1.00  0.00    +0.000 H 
ATOM     91  C63 UNL A   1      50.891  19.317  10.222  1.00  0.00    +0.000 C 
ATOM     92  C64 UNL A   1      49.922  19.464   9.224  1.00  0.00    +0.000 C 
ATOM     32  C23 UNL A   1      51.708  21.544   9.739  1.00  0.00    +0.000 C 
ATOM     30  C21 UNL A   1      49.842  20.657   8.497  1.00  0.00    +0.000 C 
ATOM     31  C22 UNL A   1      50.691  21.721   8.809  1.00  0.00    +0.000 C 
ATOM    128  H36 UNL A   1      49.266  18.692   9.023  1.00  0.00    +0.000 H 
BRANCH   30    2
ATOM      1  O1  UNL A   1      48.258  21.834   7.228  1.00  0.00    +0.000 O 
ATOM      2  C1  UNL A   1      48.851  20.773   7.404  1.00  0.00    +0.000 C 
BRANCH    2    3
ATOM      3  N1  UNL A   1      48.574  19.685   6.610  1.00  0.00    +0.000 N 
ATOM     93  H1  UNL A   1      49.359  19.201   6.265  1.00  0.00    +0.000 H 
BRANCH    3    4
ATOM      4  C2  UNL A   1      47.285  19.149   6.210  1.00  0.00    +0.000 C 
ATOM     94  H2  UNL A   1      46.575  19.354   6.984  1.00  0.00    +0.000 H 
ATOM     95  H3  UNL A   1      47.410  18.098   6.051  1.00  0.00    +0.000 H 
BRANCH    4    5
ATOM     97  H5  UNL A   1      45.841  20.221   5.147  1.00  0.00    +0.000 H 
ATOM      5  C3  UNL A   1      46.770  19.747   4.908  1.00  0.00    +0.000 C 
ATOM     96  H4  UNL A   1      47.513  20.421   4.537  1.00  0.00    +0.000 H 
BRANCH    5    6
ATOM     98  H6  UNL A   1      46.462  17.760   4.243  1.00  0.00    +0.000 H 
ATOM     99  H7  UNL A   1      47.204  18.883   3.055  1.00  0.00    +0.000 H 
ATOM      6  C4  UNL A   1      46.455  18.737   3.805  1.00  0.00    +0.000 C 
BRANCH    6    7
ATOM    100  H8  UNL A   1      44.379  18.351   3.622  1.00  0.00    +0.000 H 
ATOM    101  H9  UNL A   1      45.274  18.604   2.085  1.00  0.00    +0.000 H 
ATOM      7  C5  UNL A   1      45.112  18.924   3.093  1.00  0.00    +0.000 C 
BRANCH    7    8
ATOM    102  H10 UNL A   1      45.307  21.004   3.471  1.00  0.00    +0.000 H 
ATOM    103  H11 UNL A   1      43.633  20.366   3.453  1.00  0.00    +0.000 H 
ATOM      8  C6  UNL A   1      44.597  20.365   2.990  1.00  0.00    +0.000 C 
BRANCH    8    9
ATOM      9  C7  UNL A   1      44.383  20.884   1.569  1.00  0.00    +0.000 C 
ATOM    105  H13 UNL A   1      44.903  21.815   1.477  1.00  0.00    +0.000 H 
ATOM    104  H12 UNL A   1      44.758  20.160   0.876  1.00  0.00    +0.000 H 
BRANCH    9   10
ATOM     10  N2  UNL A   1      42.980  21.125   1.283  1.00  0.00    +0.000 N 
ATOM    106  H14 UNL A   1      42.664  22.048   1.417  1.00  0.00    +0.000 H 
BRANCH   10   11
ATOM     11  C8  UNL A   1      42.042  20.224   0.846  1.00  0.00    +0.000 C 
ATOM     12  O2  UNL A   1      42.072  19.807  -0.310  1.00  0.00    +0.000 O 
BRANCH   11   13
ATOM    107  H15 UNL A   1      42.176  18.283   2.699  1.00  0.00    +0.000 H 
ATOM    108  H16 UNL A   1      40.397  17.534   4.194  1.00  0.00    +0.000 H 
ATOM     13  C9  UNL A   1      40.981  19.754   1.754  1.00  0.00    +0.000 C 
ATOM     14  C10 UNL A   1      41.243  18.724   2.665  1.00  0.00    +0.000 C 
ATOM     15  C11 UNL A   1      40.237  18.301   3.523  1.00  0.00    +0.000 C 
ATOM     16  C12 UNL A   1      39.016  18.941   3.448  1.00  0.00    +0.000 C 
ATOM     17  N3  UNL A   1      38.752  19.961   2.602  1.00  0.00    +0.000 N 
ATOM     18  C13 UNL A   1      39.736  20.396   1.773  1.00  0.00    +0.000 C 
ATOM    109  H17 UNL A   1      38.261  18.622   4.075  1.00  0.00    +0.000 H 
BRANCH   18   19
ATOM     19  N4  UNL A   1      39.443  21.426   0.836  1.00  0.00    +0.000 N 
ATOM    110  H18 UNL A   1      40.180  22.014   0.552  1.00  0.00    +0.000 H 
BRANCH   19   20
ATOM    111  H19 UNL A   1      37.159  21.293   2.106  1.00  0.00    +0.000 H 
ATOM    112  H20 UNL A   1      34.930  21.608   1.208  1.00  0.00    +0.000 H 
ATOM    113  H21 UNL A   1      34.625  22.079  -1.150  1.00  0.00    +0.000 H 
ATOM    114  H22 UNL A   1      38.790  21.931  -1.707  1.00  0.00    +0.000 H 
ATOM     20  C14 UNL A   1      38.159  21.661   0.286  1.00  0.00    +0.000 C 
ATOM     21  C15 UNL A   1      37.036  21.520   1.107  1.00  0.00    +0.000 C 
ATOM     22  C16 UNL A   1      35.750  21.683   0.587  1.00  0.00    +0.000 C 
ATOM     23  C17 UNL A   1      35.575  21.948  -0.771  1.00  0.00    +0.000 C 
ATOM     24  C18 UNL A   1      36.684  22.037  -1.624  1.00  0.00    +0.000 C 
ATOM     25  C19 UNL A   1      36.493  22.306  -3.095  1.00  0.00    +0.000 C 
ATOM     26  F1  UNL A   1      35.617  21.436  -3.673  1.00  0.00    +0.000 F 
ATOM     27  F2  UNL A   1      35.994  23.550  -3.338  1.00  0.00    +0.000 F 
ATOM     28  F3  UNL A   1      37.639  22.215  -3.826  1.00  0.00    +0.000 F 
ATOM     29  C20 UNL A   1      37.969  21.882  -1.083  1.00  0.00    +0.000 C 
ENDBRANCH   19   20
ENDBRANCH   18   19
ENDBRANCH   11   13
ENDBRANCH   10   11
ENDBRANCH    9   10
ENDBRANCH    8    9
ENDBRANCH    7    8
ENDBRANCH    6    7
ENDBRANCH    5    6
ENDBRANCH    4    5
ENDBRANCH    3    4
ENDBRANCH    2    3
ENDBRANCH   30    2
ENDBRANCH   34   33
BRANCH   38   39
ATOM     39  C29 UNL A   1      58.274  17.670  10.673  1.00  0.00    +0.000 C 
ATOM     40  C30 UNL A   1      58.249  16.269  10.617  1.00  0.00    +0.000 C 
ATOM     41  F4  UNL A   1      57.525  15.571  11.505  1.00  0.00    +0.000 F 
ATOM     42  C31 UNL A   1      58.990  15.576   9.662  1.00  0.00    +0.000 C 
ATOM     43  F5  UNL A   1      58.976  14.237   9.649  1.00  0.00    +0.000 F 
ATOM     44  C32 UNL A   1      59.747  16.270   8.730  1.00  0.00    +0.000 C 
ATOM     45  F6  UNL A   1      60.450  15.603   7.805  1.00  0.00    +0.000 F 
ATOM     46  C33 UNL A   1      59.777  17.657   8.760  1.00  0.00    +0.000 C 
ATOM     47  F7  UNL A   1      60.500  18.329   7.853  1.00  0.00    +0.000 F 
ATOM     48  C34 UNL A   1      59.057  18.351   9.729  1.00  0.00    +0.000 C 
ATOM     49  F8  UNL A   1      59.110  19.691   9.734  1.00  0.00    +0.000 F 
ENDBRANCH   38   39
BRANCH   55   56
ATOM     65  C45 UNL A   1      59.149  19.220  18.208  1.00  0.00    +0.000 C 
ATOM     66  F13 UNL A   1      58.419  18.103  18.070  1.00  0.00    +0.000 F 
ATOM     56  C40 UNL A   1      58.939  20.311  17.352  1.00  0.00    +0.000 C 
ATOM     57  C41 UNL A   1      59.726  21.458  17.541  1.00  0.00    +0.000 C 
ATOM     58  F9  UNL A   1      59.574  22.519  16.735  1.00  0.00    +0.000 F 
ATOM     59  C42 UNL A   1      60.706  21.498  18.530  1.00  0.00    +0.000 C 
ATOM     60  F10 UNL A   1      61.480  22.583  18.657  1.00  0.00    +0.000 F 
ATOM     61  C43 UNL A   1      60.895  20.408  19.366  1.00  0.00    +0.000 C 
ATOM     62  F11 UNL A   1      61.841  20.447  20.314  1.00  0.00    +0.000 F 
ATOM     63  C44 UNL A   1      60.112  19.274  19.212  1.00  0.00    +0.000 C 
ATOM     64  F12 UNL A   1      60.288  18.223  20.025  1.00  0.00    +0.000 F 
ENDBRANCH   55   56
BRANCH   70   71
ATOM     71  C49 UNL A   1      52.412  22.694  17.009  1.00  0.00    +0.000 C 
ATOM     72  C50 UNL A   1      52.310  24.090  16.962  1.00  0.00    +0.000 C 
ATOM     73  F14 UNL A   1      53.033  24.786  16.073  1.00  0.00    +0.000 F 
ATOM     74  C51 UNL A   1      51.489  24.781  17.852  1.00  0.00    +0.000 C 
ATOM     75  F15 UNL A   1      51.439  26.120  17.814  1.00  0.00    +0.000 F 
ATOM     76  C52 UNL A   1      50.732  24.086  18.784  1.00  0.00    +0.000 C 
ATOM     77  F16 UNL A   1      49.936  24.750  19.633  1.00  0.00    +0.000 F 
ATOM     78  C53 UNL A   1      50.805  22.702  18.838  1.00  0.00    +0.000 C 
ATOM     79  F17 UNL A   1      50.063  22.025  19.725  1.00  0.00    +0.000 F 
ATOM     80  C54 UNL A   1      51.649  22.015  17.970  1.00  0.00    +0.000 C 
ATOM     81  F18 UNL A   1      51.707  20.677  18.050  1.00  0.00    +0.000 F 
ENDBRANCH   70   71
TORSDOF 17
ENDMDL
MODEL 2
REMARK VINA RESULT:     -12.2     41.234     47.530
ROOT
ATOM     34  C25 UNL A   1      10.637   2.930  21.344  1.00  0.00    +0.000 C 
ATOM     35  C26 UNL A   1       9.743   3.881  22.088  1.00  0.00    +0.000 C 
ATOM     36  N5  UNL A   1       9.359   5.087  21.746  1.00  0.00    +0.000 N 
ATOM     37  C27 UNL A   1       8.532   5.530  22.769  1.00  0.00    +0.000 C 
ATOM     38  C28 UNL A   1       7.913   6.729  22.897  1.00  0.00    +0.000 C 
ATOM     50  C35 UNL A   1       8.008   7.801  21.937  1.00  0.00    +0.000 C 
ATOM     51  C36 UNL A   1       7.421   9.055  21.981  1.00  0.00    +0.000 C 
ATOM     52  C37 UNL A   1       7.774   9.746  20.816  1.00  0.00    +0.000 C 
ATOM     53  C38 UNL A   1       8.614   8.938  20.067  1.00  0.00    +0.000 C 
ATOM     54  N6  UNL A   1       8.740   7.745  20.760  1.00  0.00    +0.000 N 
ATOM     55  C39 UNL A   1       9.256   9.233  18.812  1.00  0.00    +0.000 C 
ATOM     67  C46 UNL A   1      10.072   8.389  18.137  1.00  0.00    +0.000 C 
ATOM     68  N7  UNL A   1      10.450   7.095  18.462  1.00  0.00    +0.000 N 
ATOM     69  C47 UNL A   1      11.209   6.683  17.477  1.00  0.00    +0.000 C 
ATOM     70  C48 UNL A   1      11.898   5.362  17.303  1.00  0.00    +0.000 C 
ATOM     82  C55 UNL A   1      11.751   4.418  18.250  1.00  0.00    +0.000 C 
ATOM     83  C56 UNL A   1      12.375   3.100  18.225  1.00  0.00    +0.000 C 
ATOM     84  C57 UNL A   1      11.992   2.418  19.314  1.00  0.00    +0.000 C 
ATOM     85  C58 UNL A   1      11.136   3.273  20.140  1.00  0.00    +0.000 C 
ATOM     86  N8  UNL A   1      11.023   4.430  19.415  1.00  0.00    +0.000 N 
ATOM     87  C59 UNL A   1      11.398   7.673  16.408  1.00  0.00    +0.000 C 
ATOM     88  C60 UNL A   1      10.715   8.707  16.878  1.00  0.00    +0.000 C 
ATOM     89  C61 UNL A   1       8.442   4.452  23.733  1.00  0.00    +0.000 C 
ATOM     90  C62 UNL A   1       9.204   3.426  23.378  1.00  0.00    +0.000 C 
ATOM    117  H25 UNL A   1       6.826   9.417  22.741  1.00  0.00    +0.000 H 
ATOM    118  H26 UNL A   1       7.461  10.695  20.559  1.00  0.00    +0.000 H 
ATOM    119  H27 UNL A   1       9.272   6.972  20.463  1.00  0.00    +0.000 H 
ATOM    120  H28 UNL A   1      13.007   2.750  17.489  1.00  0.00    +0.000 H 
ATOM    121  H29 UNL A   1      12.258   1.446  19.535  1.00  0.00    +0.000 H 
ATOM    122  H30 UNL A   1      10.473   5.195  19.701  1.00  0.00    +0.000 H 
ATOM    123  H31 UNL A   1      11.922   7.585  15.524  1.00  0.00    +0.000 H 
ATOM    124  H32 UNL A   1      10.650   9.623  16.407  1.00  0.00    +0.000 H 
ATOM    125  H33 UNL A   1       7.860   4.479  24.585  1.00  0.00    +0.000 H 
ATOM    126  H34 UNL A   1       9.374   2.539  23.877  1.00  0.00    +0.000 H 
ENDROOT
BRANCH   34   33
ATOM     33  C24 UNL A   1      11.040   1.625  21.929  1.00  0.00    +0.000 C 
ATOM    127  H35 UNL A   1       9.274   0.567  21.443  1.00  0.00    +0.000 H 
ATOM    115  H23 UNL A   1      13.748   0.165  23.281  1.00  0.00    +0.000 H 
ATOM    116  H24 UNL A   1      12.943   2.324  22.536  1.00  0.00    +0.000 H 
ATOM     91  C63 UNL A   1      10.201   0.501  21.889  1.00  0.00    +0.000 C 
ATOM     92  C64 UNL A   1      10.620  -0.709  22.452  1.00  0.00    +0.000 C 
ATOM     32  C23 UNL A   1      12.325   1.498  22.484  1.00  0.00    +0.000 C 
ATOM     30  C21 UNL A   1      11.896  -0.813  23.016  1.00  0.00    +0.000 C 
ATOM     31  C22 UNL A   1      12.771   0.273  22.964  1.00  0.00    +0.000 C 
ATOM    128  H36 UNL A   1       9.988  -1.525  22.451  1.00  0.00    +0.000 H 
BRANCH   30    2
ATOM      1  O1  UNL A   1      12.407  -3.103  22.984  1.00  0.00    +0.000 O 
ATOM      2  C1  UNL A   1      12.300  -2.083  23.660  1.00  0.00    +0.000 C 
BRANCH    2    3
ATOM      3  N1  UNL A   1      12.524  -2.123  25.016  1.00  0.00    +0.000 N 
ATOM     93  H1  UNL A   1      12.748  -3.009  25.382  1.00  0.00    +0.000 H 
BRANCH    3    4
ATOM      4  C2  UNL A   1      12.477  -1.041  25.983  1.00  0.00    +0.000 C 
ATOM     94  H2  UNL A   1      11.884  -1.354  26.818  1.00  0.00    +0.000 H 
ATOM     95  H3  UNL A   1      12.055  -0.189  25.491  1.00  0.00    +0.000 H 
BRANCH    4    5
ATOM     97  H5  UNL A   1      13.796  -0.668  27.559  1.00  0.00    +0.000 H 
ATOM      5  C3  UNL A   1      13.853  -0.635  26.492  1.00  0.00    +0.000 C 
ATOM     96  H4  UNL A   1      14.571  -1.313  26.079  1.00  0.00    +0.000 H 
BRANCH    5    6
ATOM     98  H6  UNL A   1      13.407   1.355  25.926  1.00  0.00    +0.000 H 
ATOM     99  H7  UNL A   1      14.953   0.688  25.304  1.00  0.00    +0.000 H 
ATOM      6  C4  UNL A   1      14.288   0.786  26.137  1.00  0.00    +0.000 C 
BRANCH    6    7
ATOM    100  H8  UNL A   1      16.087   1.636  26.868  1.00  0.00    +0.000 H 
ATOM    101  H9  UNL A   1      14.984   0.941  28.103  1.00  0.00    +0.000 H 
ATOM      7  C5  UNL A   1      15.081   1.530  27.216  1.00  0.00    +0.000 C 
BRANCH    7    8
ATOM    102  H10 UNL A   1      13.502   2.924  27.478  1.00  0.00    +0.000 H 
ATOM    103  H11 UNL A   1      15.067   3.609  26.938  1.00  0.00    +0.000 H 
ATOM      8  C6  UNL A   1      14.565   2.925  27.590  1.00  0.00    +0.000 C 
BRANCH    8    9
ATOM      9  C7  UNL A   1      14.889   3.384  29.011  1.00  0.00    +0.000 C 
ATOM    105  H13 UNL A   1      14.262   2.839  29.685  1.00  0.00    +0.000 H 
ATOM    104  H12 UNL A   1      15.924   3.196  29.207  1.00  0.00    +0.000 H 
BRANCH    9   10
ATOM     10  N2  UNL A   1      14.626   4.799  29.200  1.00  0.00    +0.000 N 
ATOM    106  H14 UNL A   1      14.760   5.373  28.411  1.00  0.00    +0.000 H 
BRANCH   10   11
ATOM     11  C8  UNL A   1      14.212   5.434  30.344  1.00  0.00    +0.000 C 
ATOM     12  O2  UNL A   1      14.285   4.867  31.431  1.00  0.00    +0.000 O 
BRANCH   11   13
ATOM    107  H15 UNL A   1      15.546   7.753  30.090  1.00  0.00    +0.000 H 
ATOM    108  H16 UNL A   1      14.604  10.002  29.979  1.00  0.00    +0.000 H 
ATOM     13  C9  UNL A   1      13.664   6.801  30.280  1.00  0.00    +0.000 C 
ATOM     14  C10 UNL A   1      14.525   7.896  30.140  1.00  0.00    +0.000 C 
ATOM     15  C11 UNL A   1      13.993   9.176  30.068  1.00  0.00    +0.000 C 
ATOM     16  C12 UNL A   1      12.619   9.306  30.119  1.00  0.00    +0.000 C 
ATOM     17  N3  UNL A   1      11.768   8.261  30.217  1.00  0.00    +0.000 N 
ATOM     18  C13 UNL A   1      12.278   7.003  30.267  1.00  0.00    +0.000 C 
ATOM    109  H17 UNL A   1      12.219  10.256  30.079  1.00  0.00    +0.000 H 
BRANCH   18   19
ATOM     19  N4  UNL A   1      11.389   5.905  30.437  1.00  0.00    +0.000 N 
ATOM    110  H18 UNL A   1      11.281   5.535  31.343  1.00  0.00    +0.000 H 
BRANCH   19   20
ATOM    111  H19 UNL A   1       9.148   6.789  29.415  1.00  0.00    +0.000 H 
ATOM    112  H20 UNL A   1       7.799   5.779  27.673  1.00  0.00    +0.000 H 
ATOM    113  H21 UNL A   1       8.469   3.669  26.687  1.00  0.00    +0.000 H 
ATOM    114  H22 UNL A   1      11.854   3.590  29.182  1.00  0.00    +0.000 H 
ATOM     20  C14 UNL A   1      10.650   5.309  29.386  1.00  0.00    +0.000 C 
ATOM     21  C15 UNL A   1       9.452   5.904  28.979  1.00  0.00    +0.000 C 
ATOM     22  C16 UNL A   1       8.665   5.314  27.988  1.00  0.00    +0.000 C 
ATOM     23  C17 UNL A   1       9.048   4.097  27.426  1.00  0.00    +0.000 C 
ATOM     24  C18 UNL A   1      10.215   3.452  27.859  1.00  0.00    +0.000 C 
ATOM     25  C19 UNL A   1      10.620   2.129  27.262  1.00  0.00    +0.000 C 
ATOM     26  F1  UNL A   1       9.617   1.207  27.312  1.00  0.00    +0.000 F 
ATOM     27  F2  UNL A   1      10.962   2.231  25.948  1.00  0.00    +0.000 F 
ATOM     28  F3  UNL A   1      11.685   1.547  27.881  1.00  0.00    +0.000 F 
ATOM     29  C20 UNL A   1      11.001   4.065  28.846  1.00  0.00    +0.000 C 
ENDBRANCH   19   20
ENDBRANCH   18   19
ENDBRANCH   11   13
ENDBRANCH   10   11
ENDBRANCH    9   10
ENDBRANCH    8    9
ENDBRANCH    7    8
ENDBRANCH    6    7
ENDBRANCH    5    6
ENDBRANCH    4    5
ENDBRANCH    3    4
ENDBRANCH    2    3
ENDBRANCH   30    2
ENDBRANCH   34   33
BRANCH   38   39
ATOM     39  C29 UNL A   1       7.072   6.954  24.120  1.00  0.00    +0.000 C 
ATOM     40  C30 UNL A   1       7.567   7.658  25.228  1.00  0.00    +0.000 C 
ATOM     41  F4  UNL A   1       8.838   8.086  25.243  1.00  0.00    +0.000 F 
ATOM     42  C31 UNL A   1       6.763   7.903  26.340  1.00  0.00    +0.000 C 
ATOM     43  F5  UNL A   1       7.268   8.548  27.399  1.00  0.00    +0.000 F 
ATOM     44  C32 UNL A   1       5.445   7.473  26.354  1.00  0.00    +0.000 C 
ATOM     45  F6  UNL A   1       4.670   7.720  27.419  1.00  0.00    +0.000 F 
ATOM     46  C33 UNL A   1       4.931   6.785  25.264  1.00  0.00    +0.000 C 
ATOM     47  F7  UNL A   1       3.654   6.378  25.273  1.00  0.00    +0.000 F 
ATOM     48  C34 UNL A   1       5.740   6.517  24.162  1.00  0.00    +0.000 C 
ATOM     49  F8  UNL A   1       5.215   5.846  23.126  1.00  0.00    +0.000 F 
ENDBRANCH   38   39
BRANCH   55   56
ATOM     65  C45 UNL A   1       7.947  10.797  17.329  1.00  0.00    +0.000 C 
ATOM     66  F13 UNL A   1       7.108   9.793  17.035  1.00  0.00    +0.000 F 
ATOM     56  C40 UNL A   1       9.025  10.583  18.201  1.00  0.00    +0.000 C 
ATOM     57  C41 UNL A   1       9.876  11.665  18.474  1.00  0.00    +0.000 C 
ATOM     58  F9  UNL A   1      10.910  11.513  19.316  1.00  0.00    +0.000 F 
ATOM     59  C42 UNL A   1       9.638  12.920  17.920  1.00  0.00    +0.000 C 
ATOM     60  F10 UNL A   1      10.433  13.950  18.237  1.00  0.00    +0.000 F 
ATOM     61  C43 UNL A   1       8.566  13.108  17.060  1.00  0.00    +0.000 C 
ATOM     62  F11 UNL A   1       8.336  14.318  16.531  1.00  0.00    +0.000 F 
ATOM     63  C44 UNL A   1       7.727  12.046  16.757  1.00  0.00    +0.000 C 
ATOM     64  F12 UNL A   1       6.696  12.226  15.920  1.00  0.00    +0.000 F 
ENDBRANCH   55   56
BRANCH   70   71
ATOM     71  C49 UNL A   1      12.732   5.079  16.108  1.00  0.00    +0.000 C 
ATOM     72  C50 UNL A   1      14.087   5.430  16.070  1.00  0.00    +0.000 C 
ATOM     73  F14 UNL A   1      14.646   6.060  17.114  1.00  0.00    +0.000 F 
ATOM     74  C51 UNL A   1      14.867   5.165  14.946  1.00  0.00    +0.000 C 
ATOM     75  F15 UNL A   1      16.151   5.547  14.918  1.00  0.00    +0.000 F 
ATOM     76  C52 UNL A   1      14.313   4.517  13.851  1.00  0.00    +0.000 C 
ATOM     77  F16 UNL A   1      15.066   4.254  12.775  1.00  0.00    +0.000 F 
ATOM     78  C53 UNL A   1      12.978   4.146  13.873  1.00  0.00    +0.000 C 
ATOM     79  F17 UNL A   1      12.442   3.505  12.825  1.00  0.00    +0.000 F 
ATOM     80  C54 UNL A   1      12.191   4.439  14.983  1.00  0.00    +0.000 C 
ATOM     81  F18 UNL A   1      10.899   4.077  14.974  1.00  0.00    +0.000 F 
ENDBRANCH   70   71
TORSDOF 17
ENDMDL
MODEL 3
REMARK VINA RESULT:     -12.2      1.890      3.425
ROOT
ATOM     34  C25 UNL A   1      53.249  19.744  11.700  1.00  0.00    +0.000 C 
ATOM     35  C26 UNL A   1      54.604  19.125  11.507  1.00  0.00    +0.000 C 
ATOM     36  N5  UNL A   1      55.631  19.122  12.322  1.00  0.00    +0.000 N 
ATOM     37  C27 UNL A   1      56.630  18.406  11.676  1.00  0.00    +0.000 C 
ATOM     38  C28 UNL A   1      57.894  18.153  12.095  1.00  0.00    +0.000 C 
ATOM     50  C35 UNL A   1      58.441  18.601  13.351  1.00  0.00    +0.000 C 
ATOM     51  C36 UNL A   1      59.712  18.399  13.863  1.00  0.00    +0.000 C 
ATOM     52  C37 UNL A   1      59.778  18.994  15.127  1.00  0.00    +0.000 C 
ATOM     53  C38 UNL A   1      58.561  19.603  15.387  1.00  0.00    +0.000 C 
ATOM     54  N6  UNL A   1      57.747  19.346  14.294  1.00  0.00    +0.000 N 
ATOM     55  C39 UNL A   1      58.169  20.367  16.543  1.00  0.00    +0.000 C 
ATOM     67  C46 UNL A   1      56.954  20.939  16.725  1.00  0.00    +0.000 C 
ATOM     68  N7  UNL A   1      55.845  20.911  15.894  1.00  0.00    +0.000 N 
ATOM     69  C47 UNL A   1      54.905  21.568  16.527  1.00  0.00    +0.000 C 
ATOM     70  C48 UNL A   1      53.497  21.856  16.094  1.00  0.00    +0.000 C 
ATOM     82  C55 UNL A   1      53.071  21.396  14.904  1.00  0.00    +0.000 C 
ATOM     83  C56 UNL A   1      51.742  21.614  14.347  1.00  0.00    +0.000 C 
ATOM     84  C57 UNL A   1      51.662  20.996  13.160  1.00  0.00    +0.000 C 
ATOM     85  C58 UNL A   1      52.955  20.382  12.850  1.00  0.00    +0.000 C 
ATOM     86  N8  UNL A   1      53.721  20.644  13.956  1.00  0.00    +0.000 N 
ATOM     87  C59 UNL A   1      55.313  22.088  17.838  1.00  0.00    +0.000 C 
ATOM     88  C60 UNL A   1      56.581  21.709  17.893  1.00  0.00    +0.000 C 
ATOM     89  C61 UNL A   1      56.078  17.961  10.413  1.00  0.00    +0.000 C 
ATOM     90  C62 UNL A   1      54.842  18.412  10.243  1.00  0.00    +0.000 C 
ATOM    117  H25 UNL A   1      60.479  17.895  13.392  1.00  0.00    +0.000 H 
ATOM    118  H26 UNL A   1      60.593  18.981  15.759  1.00  0.00    +0.000 H 
ATOM    119  H27 UNL A   1      56.814  19.647  14.201  1.00  0.00    +0.000 H 
ATOM    120  H28 UNL A   1      50.986  22.156  14.794  1.00  0.00    +0.000 H 
ATOM    121  H29 UNL A   1      50.823  20.960  12.561  1.00  0.00    +0.000 H 
ATOM    122  H30 UNL A   1      54.646  20.323  14.061  1.00  0.00    +0.000 H 
ATOM    123  H31 UNL A   1      54.757  22.610  18.534  1.00  0.00    +0.000 H 
ATOM    124  H32 UNL A   1      57.223  21.934  18.670  1.00  0.00    +0.000 H 
ATOM    125  H33 UNL A   1      56.581  17.369   9.734  1.00  0.00    +0.000 H 
ATOM    126  H34 UNL A   1      54.212  18.294   9.434  1.00  0.00    +0.000 H 
ENDROOT
BRANCH   34   33
ATOM     33  C24 UNL A   1      52.226  19.724  10.623  1.00  0.00    +0.000 C 
ATOM    127  H35 UNL A   1      51.443  17.805  11.046  1.00  0.00    +0.000 H 
ATOM    115  H23 UNL A   1      50.898  21.790   8.330  1.00  0.00    +0.000 H 
ATOM    116  H24 UNL A   1      52.707  21.667   9.936  1.00  0.00    +0.000 H 
ATOM     91  C63 UNL A   1      51.371  18.629  10.430  1.00  0.00    +0.000 C 
ATOM     92  C64 UNL A   1      50.421  18.651   9.403  1.00  0.00    +0.000 C 
ATOM     32  C23 UNL A   1      52.070  20.863   9.814  1.00  0.00    +0.000 C 
ATOM     30  C21 UNL A   1      50.291  19.786   8.596  1.00  0.00    +0.000 C 
ATOM     31  C22 UNL A   1      51.068  20.917   8.853  1.00  0.00    +0.000 C 
ATOM    128  H36 UNL A   1      49.816  17.830   9.241  1.00  0.00    +0.000 H 
BRANCH   30    2
ATOM      1  O1  UNL A   1      48.143  20.043   7.687  1.00  0.00    +0.000 O 
ATOM      2  C1  UNL A   1      49.322  19.770   7.477  1.00  0.00    +0.000 C 
BRANCH    2    3
ATOM      3  N1  UNL A   1      49.738  19.420   6.214  1.00  0.00    +0.000 N 
ATOM     93  H1  UNL A   1      49.107  19.627   5.487  1.00  0.00    +0.000 H 
BRANCH    3    4
ATOM      4  C2  UNL A   1      50.979  18.788   5.803  1.00  0.00    +0.000 C 
ATOM     94  H2  UNL A   1      51.708  18.931   6.574  1.00  0.00    +0.000 H 
ATOM     95  H3  UNL A   1      51.279  19.241   4.880  1.00  0.00    +0.000 H 
BRANCH    4    5
ATOM     97  H5  UNL A   1      51.303  17.106   4.606  1.00  0.00    +0.000 H 
ATOM      5  C3  UNL A   1      50.831  17.295   5.548  1.00  0.00    +0.000 C 
ATOM     96  H4  UNL A   1      51.282  16.773   6.366  1.00  0.00    +0.000 H 
BRANCH    5    6
ATOM     98  H6  UNL A   1      48.871  17.480   4.770  1.00  0.00    +0.000 H 
ATOM     99  H7  UNL A   1      49.005  16.739   6.400  1.00  0.00    +0.000 H 
ATOM      6  C4  UNL A   1      49.394  16.795   5.405  1.00  0.00    +0.000 C 
BRANCH    6    7
ATOM    100  H8  UNL A   1      48.878  14.748   5.595  1.00  0.00    +0.000 H 
ATOM    101  H9  UNL A   1      50.194  15.125   4.432  1.00  0.00    +0.000 H 
ATOM      7  C5  UNL A   1      49.231  15.391   4.816  1.00  0.00    +0.000 C 
BRANCH    7    8
ATOM    102  H10 UNL A   1      48.675  14.549   2.948  1.00  0.00    +0.000 H 
ATOM    103  H11 UNL A   1      48.173  16.248   3.221  1.00  0.00    +0.000 H 
ATOM      8  C6  UNL A   1      48.266  15.264   3.631  1.00  0.00    +0.000 C 
BRANCH    8    9
ATOM      9  C7  UNL A   1      46.848  14.819   3.985  1.00  0.00    +0.000 C 
ATOM    105  H13 UNL A   1      46.635  13.926   3.435  1.00  0.00    +0.000 H 
ATOM    104  H12 UNL A   1      46.793  14.648   5.040  1.00  0.00    +0.000 H 
BRANCH    9   10
ATOM     10  N2  UNL A   1      45.857  15.815   3.620  1.00  0.00    +0.000 N 
ATOM    106  H14 UNL A   1      45.649  15.887   2.660  1.00  0.00    +0.000 H 
BRANCH   10   11
ATOM     11  C8  UNL A   1      45.174  16.668   4.449  1.00  0.00    +0.000 C 
ATOM     12  O2  UNL A   1      44.453  16.224   5.340  1.00  0.00    +0.000 O 
BRANCH   11   13
ATOM    107  H15 UNL A   1      47.076  18.315   5.393  1.00  0.00    +0.000 H 
ATOM    108  H16 UNL A   1      47.237  20.730   5.078  1.00  0.00    +0.000 H 
ATOM     13  C9  UNL A   1      45.287  18.127   4.275  1.00  0.00    +0.000 C 
ATOM     14  C10 UNL A   1      46.364  18.820   4.843  1.00  0.00    +0.000 C 
ATOM     15  C11 UNL A   1      46.464  20.192   4.659  1.00  0.00    +0.000 C 
ATOM     16  C12 UNL A   1      45.493  20.812   3.896  1.00  0.00    +0.000 C 
ATOM     17  N3  UNL A   1      44.467  20.158   3.310  1.00  0.00    +0.000 N 
ATOM     18  C13 UNL A   1      44.371  18.812   3.466  1.00  0.00    +0.000 C 
ATOM    109  H17 UNL A   1      45.556  21.834   3.767  1.00  0.00    +0.000 H 
BRANCH   18   19
ATOM     19  N4  UNL A   1      43.257  18.130   2.905  1.00  0.00    +0.000 N 
ATOM    110  H18 UNL A   1      43.397  17.215   2.571  1.00  0.00    +0.000 H 
BRANCH   19   20
ATOM    111  H19 UNL A   1      41.210  17.618   4.453  1.00  0.00    +0.000 H 
ATOM    112  H20 UNL A   1      38.949  18.470   4.271  1.00  0.00    +0.000 H 
ATOM    113  H21 UNL A   1      38.356  19.966   2.458  1.00  0.00    +0.000 H 
ATOM    114  H22 UNL A   1      42.302  19.765   1.017  1.00  0.00    +0.000 H 
ATOM     20  C14 UNL A   1      41.958  18.683   2.793  1.00  0.00    +0.000 C 
ATOM     21  C15 UNL A   1      40.970  18.277   3.695  1.00  0.00    +0.000 C 
ATOM     22  C16 UNL A   1      39.662  18.752   3.581  1.00  0.00    +0.000 C 
ATOM     23  C17 UNL A   1      39.320  19.608   2.534  1.00  0.00    +0.000 C 
ATOM     24  C18 UNL A   1      40.280  19.983   1.584  1.00  0.00    +0.000 C 
ATOM     25  C19 UNL A   1      39.906  20.894   0.443  1.00  0.00    +0.000 C 
ATOM     26  F1  UNL A   1      38.821  20.444  -0.248  1.00  0.00    +0.000 F 
ATOM     27  F2  UNL A   1      39.583  22.150   0.861  1.00  0.00    +0.000 F 
ATOM     28  F3  UNL A   1      40.892  21.052  -0.484  1.00  0.00    +0.000 F 
ATOM     29  C20 UNL A   1      41.592  19.505   1.721  1.00  0.00    +0.000 C 
ENDBRANCH   19   20
ENDBRANCH   18   19
ENDBRANCH   11   13
ENDBRANCH   10   11
ENDBRANCH    9   10
ENDBRANCH    8    9
ENDBRANCH    7    8
ENDBRANCH    6    7
ENDBRANCH    5    6
ENDBRANCH    4    5
ENDBRANCH    3    4
ENDBRANCH    2    3
ENDBRANCH   30    2
ENDBRANCH   34   33
BRANCH   38   39
ATOM     39  C29 UNL A   1      58.782  17.351  11.188  1.00  0.00    +0.000 C 
ATOM     40  C30 UNL A   1      58.832  15.951  11.265  1.00  0.00    +0.000 C 
ATOM     41  F4  UNL A   1      58.133  15.302  12.208  1.00  0.00    +0.000 F 
ATOM     42  C31 UNL A   1      59.623  15.212  10.388  1.00  0.00    +0.000 C 
ATOM     43  F5  UNL A   1      59.680  13.879  10.502  1.00  0.00    +0.000 F 
ATOM     44  C32 UNL A   1      60.356  15.855   9.403  1.00  0.00    +0.000 C 
ATOM     45  F6  UNL A   1      61.107  15.142   8.552  1.00  0.00    +0.000 F 
ATOM     46  C33 UNL A   1      60.314  17.238   9.301  1.00  0.00    +0.000 C 
ATOM     47  F7  UNL A   1      61.014  17.859   8.342  1.00  0.00    +0.000 F 
ATOM     48  C34 UNL A   1      59.543  17.981  10.192  1.00  0.00    +0.000 C 
ATOM     49  F8  UNL A   1      59.526  19.316  10.070  1.00  0.00    +0.000 F 
ENDBRANCH   38   39
BRANCH   55   56
ATOM     65  C45 UNL A   1      59.972  21.722  17.670  1.00  0.00    +0.000 C 
ATOM     66  F13 UNL A   1      59.834  22.665  16.727  1.00  0.00    +0.000 F 
ATOM     56  C40 UNL A   1      59.179  20.565  17.633  1.00  0.00    +0.000 C 
ATOM     57  C41 UNL A   1      59.366  19.606  18.640  1.00  0.00    +0.000 C 
ATOM     58  F9  UNL A   1      58.617  18.492  18.658  1.00  0.00    +0.000 F 
ATOM     59  C42 UNL A   1      60.289  19.812  19.662  1.00  0.00    +0.000 C 
ATOM     60  F10 UNL A   1      60.413  18.907  20.642  1.00  0.00    +0.000 F 
ATOM     61  C43 UNL A   1      61.064  20.962  19.678  1.00  0.00    +0.000 C 
ATOM     62  F11 UNL A   1      61.949  21.160  20.664  1.00  0.00    +0.000 F 
ATOM     63  C44 UNL A   1      60.913  21.912  18.678  1.00  0.00    +0.000 C 
ATOM     64  F12 UNL A   1      61.666  23.019  18.688  1.00  0.00    +0.000 F 
ENDBRANCH   55   56
BRANCH   70   71
ATOM     71  C49 UNL A   1      52.571  22.634  16.955  1.00  0.00    +0.000 C 
ATOM     72  C50 UNL A   1      51.783  22.005  17.927  1.00  0.00    +0.000 C 
ATOM     73  F14 UNL A   1      51.835  20.672  18.072  1.00  0.00    +0.000 F 
ATOM     74  C51 UNL A   1      50.914  22.738  18.732  1.00  0.00    +0.000 C 
ATOM     75  F15 UNL A   1      50.140  22.108  19.627  1.00  0.00    +0.000 F 
ATOM     76  C52 UNL A   1      50.839  24.117  18.601  1.00  0.00    +0.000 C 
ATOM     77  F16 UNL A   1      50.009  24.822  19.381  1.00  0.00    +0.000 F 
ATOM     78  C53 UNL A   1      51.621  24.763  17.656  1.00  0.00    +0.000 C 
ATOM     79  F17 UNL A   1      51.566  26.097  17.537  1.00  0.00    +0.000 F 
ATOM     80  C54 UNL A   1      52.467  24.027  16.831  1.00  0.00    +0.000 C 
ATOM     81  F18 UNL A   1      53.207  24.677  15.919  1.00  0.00    +0.000 F 
ENDBRANCH   70   71
TORSDOF 17
ENDMDL
MODEL 4
REMARK VINA RESULT:     -12.2     40.208     47.192
ROOT
ATOM     34  C25 UNL A   1      25.712  35.537  45.317  1.00  0.00    +0.000 C 
ATOM     35  C26 UNL A   1      25.483  36.663  46.286  1.00  0.00    +0.000 C 
ATOM     36  N5  UNL A   1      26.307  37.616  46.650  1.00  0.00    +0.000 N 
ATOM     37  C27 UNL A   1      25.605  38.404  47.552  1.00  0.00    +0.000 C 
ATOM     38  C28 UNL A   1      26.035  39.493  48.236  1.00  0.00    +0.000 C 
ATOM     50  C35 UNL A   1      27.360  40.050  48.129  1.00  0.00    +0.000 C 
ATOM     51  C36 UNL A   1      27.891  41.149  48.784  1.00  0.00    +0.000 C 
ATOM     52  C37 UNL A   1      29.206  41.331  48.343  1.00  0.00    +0.000 C 
ATOM     53  C38 UNL A   1      29.509  40.321  47.444  1.00  0.00    +0.000 C 
ATOM     54  N6  UNL A   1      28.365  39.550  47.314  1.00  0.00    +0.000 N 
ATOM     55  C39 UNL A   1      30.750  40.076  46.756  1.00  0.00    +0.000 C 
ATOM     67  C46 UNL A   1      30.973  39.059  45.889  1.00  0.00    +0.000 C 
ATOM     68  N7  UNL A   1      30.099  38.073  45.460  1.00  0.00    +0.000 N 
ATOM     69  C47 UNL A   1      30.766  37.353  44.591  1.00  0.00    +0.000 C 
ATOM     70  C48 UNL A   1      30.316  36.152  43.814  1.00  0.00    +0.000 C 
ATOM     82  C55 UNL A   1      29.059  35.701  43.976  1.00  0.00    +0.000 C 
ATOM     83  C56 UNL A   1      28.492  34.538  43.305  1.00  0.00    +0.000 C 
ATOM     84  C57 UNL A   1      27.214  34.397  43.686  1.00  0.00    +0.000 C 
ATOM     85  C58 UNL A   1      26.889  35.432  44.670  1.00  0.00    +0.000 C 
ATOM     86  N8  UNL A   1      28.035  36.179  44.757  1.00  0.00    +0.000 N 
ATOM     87  C59 UNL A   1      32.146  37.806  44.369  1.00  0.00    +0.000 C 
ATOM     88  C60 UNL A   1      32.232  38.825  45.212  1.00  0.00    +0.000 C 
ATOM     89  C61 UNL A   1      24.276  37.838  47.660  1.00  0.00    +0.000 C 
ATOM     90  C62 UNL A   1      24.162  36.738  46.927  1.00  0.00    +0.000 C 
ATOM    117  H25 UNL A   1      27.400  41.734  49.478  1.00  0.00    +0.000 H 
ATOM    118  H26 UNL A   1      29.842  42.088  48.637  1.00  0.00    +0.000 H 
ATOM    119  H27 UNL A   1      28.277  38.762  46.730  1.00  0.00    +0.000 H 
ATOM    120  H28 UNL A   1      28.992  33.923  42.645  1.00  0.00    +0.000 H 
ATOM    121  H29 UNL A   1      26.564  33.674  43.341  1.00  0.00    +0.000 H 
ATOM    122  H30 UNL A   1      28.116  36.980  45.323  1.00  0.00    +0.000 H 
ATOM    123  H31 UNL A   1      32.859  37.430  43.725  1.00  0.00    +0.000 H 
ATOM    124  H32 UNL A   1      33.087  39.381  45.366  1.00  0.00    +0.000 H 
ATOM    125  H33 UNL A   1      23.517  38.239  48.232  1.00  0.00    +0.000 H 
ATOM    126  H34 UNL A   1      23.356  36.100  46.832  1.00  0.00    +0.000 H 
ENDROOT
BRANCH   34   33
ATOM     33  C24 UNL A   1      24.686  34.488  45.090  1.00  0.00    +0.000 C 
ATOM    127  H35 UNL A   1      23.732  35.411  43.443  1.00  0.00    +0.000 H 
ATOM    115  H23 UNL A   1      23.910  31.404  46.177  1.00  0.00    +0.000 H 
ATOM    116  H24 UNL A   1      25.396  33.254  46.657  1.00  0.00    +0.000 H 
ATOM     91  C63 UNL A   1      23.733  34.589  44.066  1.00  0.00    +0.000 C 
ATOM     92  C64 UNL A   1      22.783  33.577  43.886  1.00  0.00    +0.000 C 
ATOM     32  C23 UNL A   1      24.711  33.330  45.888  1.00  0.00    +0.000 C 
ATOM     30  C21 UNL A   1      22.812  32.439  44.700  1.00  0.00    +0.000 C 
ATOM     31  C22 UNL A   1      23.823  32.288  45.651  1.00  0.00    +0.000 C 
ATOM    128  H36 UNL A   1      22.062  33.670  43.154  1.00  0.00    +0.000 H 
BRANCH   30    2
ATOM      1  O1  UNL A   1      22.005  30.241  44.838  1.00  0.00    +0.000 O 
ATOM      2  C1  UNL A   1      21.764  31.407  44.536  1.00  0.00    +0.000 C 
BRANCH    2    3
ATOM      3  N1  UNL A   1      20.538  31.750  44.019  1.00  0.00    +0.000 N 
ATOM     93  H1  UNL A   1      20.467  31.716  43.038  1.00  0.00    +0.000 H 
BRANCH    3    4
ATOM      4  C2  UNL A   1      19.331  32.155  44.718  1.00  0.00    +0.000 C 
ATOM     94  H2  UNL A   1      19.140  33.186  44.499  1.00  0.00    +0.000 H 
ATOM     95  H3  UNL A   1      19.496  31.993  45.763  1.00  0.00    +0.000 H 
BRANCH    4    5
ATOM     97  H5  UNL A   1      17.457  31.350  45.168  1.00  0.00    +0.000 H 
ATOM      5  C3  UNL A   1      18.109  31.340  44.320  1.00  0.00    +0.000 C 
ATOM     96  H4  UNL A   1      17.683  31.788  43.446  1.00  0.00    +0.000 H 
BRANCH    5    6
ATOM     98  H6  UNL A   1      19.009  29.481  44.784  1.00  0.00    +0.000 H 
ATOM     99  H7  UNL A   1      18.820  29.850  43.037  1.00  0.00    +0.000 H 
ATOM      6  C4  UNL A   1      18.377  29.868  44.012  1.00  0.00    +0.000 C 
BRANCH    6    7
ATOM    100  H8  UNL A   1      16.530  29.331  43.121  1.00  0.00    +0.000 H 
ATOM    101  H9  UNL A   1      16.676  29.020  44.884  1.00  0.00    +0.000 H 
ATOM      7  C5  UNL A   1      17.140  28.969  43.922  1.00  0.00    +0.000 C 
BRANCH    7    8
ATOM    102  H10 UNL A   1      18.455  27.307  43.789  1.00  0.00    +0.000 H 
ATOM    103  H11 UNL A   1      17.044  27.277  42.686  1.00  0.00    +0.000 H 
ATOM      8  C6  UNL A   1      17.406  27.479  43.672  1.00  0.00    +0.000 C 
BRANCH    8    9
ATOM      9  C7  UNL A   1      16.664  26.517  44.598  1.00  0.00    +0.000 C 
ATOM    105  H13 UNL A   1      17.393  25.922  45.108  1.00  0.00    +0.000 H 
ATOM    104  H12 UNL A   1      16.076  27.085  45.288  1.00  0.00    +0.000 H 
BRANCH    9   10
ATOM     10  N2  UNL A   1      15.789  25.620  43.864  1.00  0.00    +0.000 N 
ATOM    106  H14 UNL A   1      16.046  24.669  43.864  1.00  0.00    +0.000 H 
BRANCH   10   11
ATOM     11  C8  UNL A   1      14.647  25.935  43.172  1.00  0.00    +0.000 C 
ATOM     12  O2  UNL A   1      13.607  26.195  43.774  1.00  0.00    +0.000 O 
BRANCH   11   13
ATOM    107  H15 UNL A   1      15.427  27.920  41.537  1.00  0.00    +0.000 H 
ATOM    108  H16 UNL A   1      15.427  27.917  39.095  1.00  0.00    +0.000 H 
ATOM     13  C9  UNL A   1      14.651  25.956  41.699  1.00  0.00    +0.000 C 
ATOM     14  C10 UNL A   1      15.103  27.091  41.014  1.00  0.00    +0.000 C 
ATOM     15  C11 UNL A   1      15.112  27.090  39.626  1.00  0.00    +0.000 C 
ATOM     16  C12 UNL A   1      14.688  25.945  38.980  1.00  0.00    +0.000 C 
ATOM     17  N3  UNL A   1      14.282  24.827  39.620  1.00  0.00    +0.000 N 
ATOM     18  C13 UNL A   1      14.288  24.811  40.979  1.00  0.00    +0.000 C 
ATOM    109  H17 UNL A   1      14.681  25.944  37.948  1.00  0.00    +0.000 H 
BRANCH   18   19
ATOM     19  N4  UNL A   1      13.800  23.659  41.656  1.00  0.00    +0.000 N 
ATOM    110  H18 UNL A   1      13.695  23.710  42.634  1.00  0.00    +0.000 H 
BRANCH   19   20
ATOM    111  H19 UNL A   1      14.419  22.960  39.212  1.00  0.00    +0.000 H 
ATOM    112  H20 UNL A   1      13.800  20.934  38.035  1.00  0.00    +0.000 H 
ATOM    113  H21 UNL A   1      12.407  19.275  39.122  1.00  0.00    +0.000 H 
ATOM    114  H22 UNL A   1      12.267  21.670  42.576  1.00  0.00    +0.000 H 
ATOM     20  C14 UNL A   1      13.456  22.444  41.016  1.00  0.00    +0.000 C 
ATOM     21  C15 UNL A   1      13.849  22.244  39.689  1.00  0.00    +0.000 C 
ATOM     22  C16 UNL A   1      13.477  21.086  39.004  1.00  0.00    +0.000 C 
ATOM     23  C17 UNL A   1      12.671  20.134  39.628  1.00  0.00    +0.000 C 
ATOM     24  C18 UNL A   1      12.217  20.340  40.938  1.00  0.00    +0.000 C 
ATOM     25  C19 UNL A   1      11.331  19.320  41.606  1.00  0.00    +0.000 C 
ATOM     26  F1  UNL A   1      10.239  19.007  40.853  1.00  0.00    +0.000 F 
ATOM     27  F2  UNL A   1      11.973  18.140  41.834  1.00  0.00    +0.000 F 
ATOM     28  F3  UNL A   1      10.844  19.718  42.814  1.00  0.00    +0.000 F 
ATOM     29  C20 UNL A   1      12.610  21.504  41.616  1.00  0.00    +0.000 C 
ENDBRANCH   19   20
ENDBRANCH   18   19
ENDBRANCH   11   13
ENDBRANCH   10   11
ENDBRANCH    9   10
ENDBRANCH    8    9
ENDBRANCH    7    8
ENDBRANCH    6    7
ENDBRANCH    5    6
ENDBRANCH    4    5
ENDBRANCH    3    4
ENDBRANCH    2    3
ENDBRANCH   30    2
ENDBRANCH   34   33
BRANCH   38   39
ATOM     39  C29 UNL A   1      25.064  40.162  49.165  1.00  0.00    +0.000 C 
ATOM     40  C30 UNL A   1      24.969  39.790  50.514  1.00  0.00    +0.000 C 
ATOM     41  F4  UNL A   1      25.702  38.771  50.986  1.00  0.00    +0.000 F 
ATOM     42  C31 UNL A   1      24.099  40.449  51.380  1.00  0.00    +0.000 C 
ATOM     43  F5  UNL A   1      24.001  40.055  52.657  1.00  0.00    +0.000 F 
ATOM     44  C32 UNL A   1      23.328  41.506  50.921  1.00  0.00    +0.000 C 
ATOM     45  F6  UNL A   1      22.501  42.147  51.758  1.00  0.00    +0.000 F 
ATOM     46  C33 UNL A   1      23.414  41.898  49.593  1.00  0.00    +0.000 C 
ATOM     47  F7  UNL A   1      22.678  42.928  49.151  1.00  0.00    +0.000 F 
ATOM     48  C34 UNL A   1      24.265  41.226  48.719  1.00  0.00    +0.000 C 
ATOM     49  F8  UNL A   1      24.323  41.626  47.441  1.00  0.00    +0.000 F 
ENDBRANCH   38   39
BRANCH   55   56
ATOM     65  C45 UNL A   1      32.946  40.613  47.872  1.00  0.00    +0.000 C 
ATOM     66  F13 UNL A   1      32.930  39.406  48.456  1.00  0.00    +0.000 F 
ATOM     56  C40 UNL A   1      31.900  41.001  47.022  1.00  0.00    +0.000 C 
ATOM     57  C41 UNL A   1      31.962  42.276  46.440  1.00  0.00    +0.000 C 
ATOM     58  F9  UNL A   1      30.993  42.684  45.605  1.00  0.00    +0.000 F 
ATOM     59  C42 UNL A   1      33.047  43.117  46.674  1.00  0.00    +0.000 C 
ATOM     60  F10 UNL A   1      33.110  44.309  46.065  1.00  0.00    +0.000 F 
ATOM     61  C43 UNL A   1      34.070  42.714  47.518  1.00  0.00    +0.000 C 
ATOM     62  F11 UNL A   1      35.115  43.523  47.739  1.00  0.00    +0.000 F 
ATOM     63  C44 UNL A   1      34.016  41.468  48.124  1.00  0.00    +0.000 C 
ATOM     64  F12 UNL A   1      35.000  41.080  48.947  1.00  0.00    +0.000 F 
ENDBRANCH   55   56
BRANCH   70   71
ATOM     71  C49 UNL A   1      31.230  35.457  42.872  1.00  0.00    +0.000 C 
ATOM     72  C50 UNL A   1      31.969  34.337  43.272  1.00  0.00    +0.000 C 
ATOM     73  F14 UNL A   1      31.883  33.893  44.534  1.00  0.00    +0.000 F 
ATOM     74  C51 UNL A   1      32.827  33.689  42.385  1.00  0.00    +0.000 C 
ATOM     75  F15 UNL A   1      33.555  32.644  42.803  1.00  0.00    +0.000 F 
ATOM     76  C52 UNL A   1      32.937  34.131  41.075  1.00  0.00    +0.000 C 
ATOM     77  F16 UNL A   1      33.755  33.501  40.220  1.00  0.00    +0.000 F 
ATOM     78  C53 UNL A   1      32.202  35.227  40.652  1.00  0.00    +0.000 C 
ATOM     79  F17 UNL A   1      32.292  35.647  39.383  1.00  0.00    +0.000 F 
ATOM     80  C54 UNL A   1      31.369  35.894  41.546  1.00  0.00    +0.000 C 
ATOM     81  F18 UNL A   1      30.676  36.958  41.114  1.00  0.00    +0.000 F 
ENDBRANCH   70   71
TORSDOF 17
ENDMDL
MODEL 5
REMARK VINA RESULT:     -12.2     18.512     23.137
ROOT
ATOM     34  C25 UNL A   1      41.455  26.501  27.946  1.00  0.00    +0.000 C 
ATOM     35  C26 UNL A   1      42.896  26.801  27.647  1.00  0.00    +0.000 C 
ATOM     36  N5  UNL A   1      43.582  27.888  27.905  1.00  0.00    +0.000 N 
ATOM     37  C27 UNL A   1      44.867  27.649  27.439  1.00  0.00    +0.000 C 
ATOM     38  C28 UNL A   1      45.936  28.483  27.444  1.00  0.00    +0.000 C 
ATOM     50  C35 UNL A   1      45.919  29.826  27.968  1.00  0.00    +0.000 C 
ATOM     51  C36 UNL A   1      46.951  30.750  28.014  1.00  0.00    +0.000 C 
ATOM     52  C37 UNL A   1      46.476  31.909  28.637  1.00  0.00    +0.000 C 
ATOM     53  C38 UNL A   1      45.137  31.723  28.943  1.00  0.00    +0.000 C 
ATOM     54  N6  UNL A   1      44.812  30.439  28.537  1.00  0.00    +0.000 N 
ATOM     55  C39 UNL A   1      44.221  32.650  29.556  1.00  0.00    +0.000 C 
ATOM     67  C46 UNL A   1      42.917  32.396  29.822  1.00  0.00    +0.000 C 
ATOM     68  N7  UNL A   1      42.192  31.236  29.598  1.00  0.00    +0.000 N 
ATOM     69  C47 UNL A   1      40.990  31.468  30.064  1.00  0.00    +0.000 C 
ATOM     70  C48 UNL A   1      39.792  30.564  30.082  1.00  0.00    +0.000 C 
ATOM     82  C55 UNL A   1      39.900  29.324  29.571  1.00  0.00    +0.000 C 
ATOM     83  C56 UNL A   1      38.820  28.348  29.503  1.00  0.00    +0.000 C 
ATOM     84  C57 UNL A   1      39.290  27.218  28.956  1.00  0.00    +0.000 C 
ATOM     85  C58 UNL A   1      40.694  27.410  28.588  1.00  0.00    +0.000 C 
ATOM     86  N8  UNL A   1      40.980  28.680  29.019  1.00  0.00    +0.000 N 
ATOM     87  C59 UNL A   1      40.816  32.807  30.642  1.00  0.00    +0.000 C 
ATOM     88  C60 UNL A   1      42.009  33.344  30.434  1.00  0.00    +0.000 C 
ATOM     89  C61 UNL A   1      44.879  26.301  26.910  1.00  0.00    +0.000 C 
ATOM     90  C62 UNL A   1      43.675  25.748  26.979  1.00  0.00    +0.000 C 
ATOM    117  H25 UNL A   1      47.906  30.607  27.650  1.00  0.00    +0.000 H 
ATOM    118  H26 UNL A   1      47.028  32.757  28.835  1.00  0.00    +0.000 H 
ATOM    119  H27 UNL A   1      43.926  30.021  28.636  1.00  0.00    +0.000 H 
ATOM    120  H28 UNL A   1      37.851  28.502  29.823  1.00  0.00    +0.000 H 
ATOM    121  H29 UNL A   1      38.748  26.351  28.817  1.00  0.00    +0.000 H 
ATOM    122  H30 UNL A   1      41.872  29.089  28.940  1.00  0.00    +0.000 H 
ATOM    123  H31 UNL A   1      39.984  33.220  31.092  1.00  0.00    +0.000 H 
ATOM    124  H32 UNL A   1      42.261  34.315  30.678  1.00  0.00    +0.000 H 
ATOM    125  H33 UNL A   1      45.715  25.832  26.529  1.00  0.00    +0.000 H 
ATOM    126  H34 UNL A   1      43.366  24.820  26.649  1.00  0.00    +0.000 H 
ENDROOT
BRANCH   34   33
ATOM     33  C24 UNL A   1      40.815  25.237  27.499  1.00  0.00    +0.000 C 
ATOM    127  H35 UNL A   1      41.890  23.938  28.777  1.00  0.00    +0.000 H 
ATOM    115  H23 UNL A   1      38.284  24.215  25.540  1.00  0.00    +0.000 H 
ATOM    116  H24 UNL A   1      39.530  26.207  26.126  1.00  0.00    +0.000 H 
ATOM     91  C63 UNL A   1      41.167  23.993  28.043  1.00  0.00    +0.000 C 
ATOM     92  C64 UNL A   1      40.540  22.826  27.593  1.00  0.00    +0.000 C 
ATOM     32  C23 UNL A   1      39.783  25.298  26.547  1.00  0.00    +0.000 C 
ATOM     30  C21 UNL A   1      39.527  22.903  26.632  1.00  0.00    +0.000 C 
ATOM     31  C22 UNL A   1      39.102  24.149  26.166  1.00  0.00    +0.000 C 
ATOM    128  H36 UNL A   1      40.825  21.908  27.970  1.00  0.00    +0.000 H 
BRANCH   30    2
ATOM      1  O1  UNL A   1      39.590  20.630  26.054  1.00  0.00    +0.000 O 
ATOM      2  C1  UNL A   1      38.915  21.654  26.124  1.00  0.00    +0.000 C 
BRANCH    2    3
ATOM      3  N1  UNL A   1      37.606  21.653  25.704  1.00  0.00    +0.000 N 
ATOM     93  H1  UNL A   1      36.938  21.839  26.402  1.00  0.00    +0.000 H 
BRANCH    3    4
ATOM      4  C2  UNL A   1      37.073  21.416  24.374  1.00  0.00    +0.000 C 
ATOM     94  H2  UNL A   1      36.159  20.865  24.466  1.00  0.00    +0.000 H 
ATOM     95  H3  UNL A   1      37.813  20.872  23.824  1.00  0.00    +0.000 H 
BRANCH    4    5
ATOM     97  H5  UNL A   1      37.685  23.282  23.663  1.00  0.00    +0.000 H 
ATOM      5  C3  UNL A   1      36.789  22.699  23.608  1.00  0.00    +0.000 C 
ATOM     96  H4  UNL A   1      36.512  22.434  22.609  1.00  0.00    +0.000 H 
BRANCH    5    6
ATOM     98  H6  UNL A   1      36.143  24.405  24.682  1.00  0.00    +0.000 H 
ATOM     99  H7  UNL A   1      35.117  22.940  24.839  1.00  0.00    +0.000 H 
ATOM      6  C4  UNL A   1      35.681  23.576  24.188  1.00  0.00    +0.000 C 
BRANCH    6    7
ATOM    100  H8  UNL A   1      35.214  24.416  22.298  1.00  0.00    +0.000 H 
ATOM    101  H9  UNL A   1      34.189  24.948  23.674  1.00  0.00    +0.000 H 
ATOM      7  C5  UNL A   1      34.673  24.134  23.178  1.00  0.00    +0.000 C 
BRANCH    7    8
ATOM    102  H10 UNL A   1      33.547  22.352  23.425  1.00  0.00    +0.000 H 
ATOM    103  H11 UNL A   1      33.757  22.916  21.737  1.00  0.00    +0.000 H 
ATOM      8  C6  UNL A   1      33.548  23.183  22.752  1.00  0.00    +0.000 C 
BRANCH    8    9
ATOM      9  C7  UNL A   1      32.145  23.788  22.748  1.00  0.00    +0.000 C 
ATOM    105  H13 UNL A   1      32.134  24.591  22.040  1.00  0.00    +0.000 H 
ATOM    104  H12 UNL A   1      31.441  23.027  22.481  1.00  0.00    +0.000 H 
BRANCH    9   10
ATOM     10  N2  UNL A   1      31.781  24.330  24.044  1.00  0.00    +0.000 N 
ATOM    106  H14 UNL A   1      31.756  25.312  24.111  1.00  0.00    +0.000 H 
BRANCH   10   11
ATOM     11  C8  UNL A   1      31.465  23.641  25.188  1.00  0.00    +0.000 C 
ATOM     12  O2  UNL A   1      30.305  23.606  25.592  1.00  0.00    +0.000 O 
BRANCH   11   13
ATOM    107  H15 UNL A   1      33.171  24.664  26.995  1.00  0.00    +0.000 H 
ATOM    108  H16 UNL A   1      34.895  23.474  28.247  1.00  0.00    +0.000 H 
ATOM     13  C9  UNL A   1      32.515  22.942  25.951  1.00  0.00    +0.000 C 
ATOM     14  C10 UNL A   1      33.310  23.651  26.861  1.00  0.00    +0.000 C 
ATOM     15  C11 UNL A   1      34.286  22.976  27.581  1.00  0.00    +0.000 C 
ATOM     16  C12 UNL A   1      34.413  21.616  27.376  1.00  0.00    +0.000 C 
ATOM     17  N3  UNL A   1      33.634  20.907  26.531  1.00  0.00    +0.000 N 
ATOM     18  C13 UNL A   1      32.662  21.554  25.836  1.00  0.00    +0.000 C 
ATOM    109  H17 UNL A   1      35.146  21.112  27.900  1.00  0.00    +0.000 H 
BRANCH   18   19
ATOM     19  N4  UNL A   1      31.883  20.823  24.897  1.00  0.00    +0.000 N 
ATOM    110  H18 UNL A   1      30.977  21.151  24.695  1.00  0.00    +0.000 H 
BRANCH   19   20
ATOM    111  H19 UNL A   1      31.908  20.416  22.312  1.00  0.00    +0.000 H 
ATOM    112  H20 UNL A   1      32.580  18.416  21.121  1.00  0.00    +0.000 H 
ATOM    113  H21 UNL A   1      33.311  16.458  22.349  1.00  0.00    +0.000 H 
ATOM    114  H22 UNL A   1      32.708  18.516  25.966  1.00  0.00    +0.000 H 
ATOM     20  C14 UNL A   1      32.326  19.653  24.233  1.00  0.00    +0.000 C 
ATOM     21  C15 UNL A   1      32.245  19.595  22.838  1.00  0.00    +0.000 C 
ATOM     22  C16 UNL A   1      32.614  18.437  22.152  1.00  0.00    +0.000 C 
ATOM     23  C17 UNL A   1      33.029  17.309  22.859  1.00  0.00    +0.000 C 
ATOM     24  C18 UNL A   1      33.064  17.325  24.260  1.00  0.00    +0.000 C 
ATOM     25  C19 UNL A   1      33.495  16.100  25.025  1.00  0.00    +0.000 C 
ATOM     26  F1  UNL A   1      32.800  14.986  24.659  1.00  0.00    +0.000 F 
ATOM     27  F2  UNL A   1      34.809  15.797  24.828  1.00  0.00    +0.000 F 
ATOM     28  F3  UNL A   1      33.336  16.206  26.374  1.00  0.00    +0.000 F 
ATOM     29  C20 UNL A   1      32.700  18.501  24.934  1.00  0.00    +0.000 C 
ENDBRANCH   19   20
ENDBRANCH   18   19
ENDBRANCH   11   13
ENDBRANCH   10   11
ENDBRANCH    9   10
ENDBRANCH    8    9
ENDBRANCH    7    8
ENDBRANCH    6    7
ENDBRANCH    5    6
ENDBRANCH    4    5
ENDBRANCH    3    4
ENDBRANCH    2    3
ENDBRANCH   30    2
ENDBRANCH   34   33
BRANCH   38   39
ATOM     39  C29 UNL A   1      47.223  27.971  26.864  1.00  0.00    +0.000 C 
ATOM     40  C30 UNL A   1      48.193  27.356  27.670  1.00  0.00    +0.000 C 
ATOM     41  F4  UNL A   1      48.017  27.278  28.997  1.00  0.00    +0.000 F 
ATOM     42  C31 UNL A   1      49.363  26.841  27.116  1.00  0.00    +0.000 C 
ATOM     43  F5  UNL A   1      50.290  26.288  27.909  1.00  0.00    +0.000 F 
ATOM     44  C32 UNL A   1      49.573  26.907  25.747  1.00  0.00    +0.000 C 
ATOM     45  F6  UNL A   1      50.694  26.401  25.214  1.00  0.00    +0.000 F 
ATOM     46  C33 UNL A   1      48.622  27.501  24.930  1.00  0.00    +0.000 C 
ATOM     47  F7  UNL A   1      48.819  27.555  23.605  1.00  0.00    +0.000 F 
ATOM     48  C34 UNL A   1      47.463  28.039  25.484  1.00  0.00    +0.000 C 
ATOM     49  F8  UNL A   1      46.564  28.610  24.668  1.00  0.00    +0.000 F 
ENDBRANCH   38   39
BRANCH   55   56
ATOM     65  C45 UNL A   1      45.293  34.247  31.187  1.00  0.00    +0.000 C 
ATOM     66  F13 UNL A   1      45.377  33.254  32.084  1.00  0.00    +0.000 F 
ATOM     56  C40 UNL A   1      44.733  34.011  29.922  1.00  0.00    +0.000 C 
ATOM     57  C41 UNL A   1      44.664  35.084  29.021  1.00  0.00    +0.000 C 
ATOM     58  F9  UNL A   1      44.154  34.902  27.793  1.00  0.00    +0.000 F 
ATOM     59  C42 UNL A   1      45.165  36.338  29.363  1.00  0.00    +0.000 C 
ATOM     60  F10 UNL A   1      45.136  37.334  28.467  1.00  0.00    +0.000 F 
ATOM     61  C43 UNL A   1      45.713  36.549  30.619  1.00  0.00    +0.000 C 
ATOM     62  F11 UNL A   1      46.198  37.755  30.944  1.00  0.00    +0.000 F 
ATOM     63  C44 UNL A   1      45.768  35.508  31.533  1.00  0.00    +0.000 C 
ATOM     64  F12 UNL A   1      46.291  35.713  32.750  1.00  0.00    +0.000 F 
ENDBRANCH   55   56
BRANCH   70   71
ATOM     71  C49 UNL A   1      38.497  31.013  30.653  1.00  0.00    +0.000 C 
ATOM     72  C50 UNL A   1      38.255  30.960  32.032  1.00  0.00    +0.000 C 
ATOM     73  F14 UNL A   1      39.190  30.469  32.858  1.00  0.00    +0.000 F 
ATOM     74  C51 UNL A   1      37.038  31.381  32.563  1.00  0.00    +0.000 C 
ATOM     75  F15 UNL A   1      36.814  31.282  33.881  1.00  0.00    +0.000 F 
ATOM     76  C52 UNL A   1      36.052  31.890  31.730  1.00  0.00    +0.000 C 
ATOM     77  F16 UNL A   1      34.886  32.303  32.244  1.00  0.00    +0.000 F 
ATOM     78  C53 UNL A   1      36.276  31.967  30.364  1.00  0.00    +0.000 C 
ATOM     79  F17 UNL A   1      35.334  32.475  29.557  1.00  0.00    +0.000 F 
ATOM     80  C54 UNL A   1      37.480  31.518  29.829  1.00  0.00    +0.000 C 
ATOM     81  F18 UNL A   1      37.667  31.595  28.503  1.00  0.00    +0.000 F 
ENDBRANCH   70   71
TORSDOF 17
ENDMDL
MODEL 6
REMARK VINA RESULT:     -12.2     18.304     22.970
ROOT
ATOM     34  C25 UNL A   1      41.370  26.231  27.616  1.00  0.00    +0.000 C 
ATOM     35  C26 UNL A   1      42.782  26.478  27.166  1.00  0.00    +0.000 C 
ATOM     36  N5  UNL A   1      43.545  27.522  27.383  1.00  0.00    +0.000 N 
ATOM     37  C27 UNL A   1      44.757  27.245  26.765  1.00  0.00    +0.000 C 
ATOM     38  C28 UNL A   1      45.859  28.029  26.678  1.00  0.00    +0.000 C 
ATOM     50  C35 UNL A   1      45.967  29.349  27.249  1.00  0.00    +0.000 C 
ATOM     51  C36 UNL A   1      47.042  30.222  27.210  1.00  0.00    +0.000 C 
ATOM     52  C37 UNL A   1      46.697  31.375  27.924  1.00  0.00    +0.000 C 
ATOM     53  C38 UNL A   1      45.394  31.237  28.374  1.00  0.00    +0.000 C 
ATOM     54  N6  UNL A   1      44.962  29.986  27.962  1.00  0.00    +0.000 N 
ATOM     55  C39 UNL A   1      44.600  32.177  29.121  1.00  0.00    +0.000 C 
ATOM     67  C46 UNL A   1      43.322  31.972  29.524  1.00  0.00    +0.000 C 
ATOM     68  N7  UNL A   1      42.521  30.856  29.342  1.00  0.00    +0.000 N 
ATOM     69  C47 UNL A   1      41.391  31.122  29.951  1.00  0.00    +0.000 C 
ATOM     70  C48 UNL A   1      40.160  30.273  30.073  1.00  0.00    +0.000 C 
ATOM     82  C55 UNL A   1      40.149  29.052  29.509  1.00  0.00    +0.000 C 
ATOM     83  C56 UNL A   1      39.021  28.129  29.529  1.00  0.00    +0.000 C 
ATOM     84  C57 UNL A   1      39.370  27.002  28.892  1.00  0.00    +0.000 C 
ATOM     85  C58 UNL A   1      40.733  27.146  28.373  1.00  0.00    +0.000 C 
ATOM     86  N8  UNL A   1      41.127  28.383  28.814  1.00  0.00    +0.000 N 
ATOM     87  C59 UNL A   1      41.349  32.442  30.593  1.00  0.00    +0.000 C 
ATOM     88  C60 UNL A   1      42.537  32.934  30.270  1.00  0.00    +0.000 C 
ATOM     89  C61 UNL A   1      44.643  25.921  26.190  1.00  0.00    +0.000 C 
ATOM     90  C62 UNL A   1      43.428  25.420  26.376  1.00  0.00    +0.000 C 
ATOM    117  H25 UNL A   1      47.942  30.052  26.735  1.00  0.00    +0.000 H 
ATOM    118  H26 UNL A   1      47.310  32.188  28.089  1.00  0.00    +0.000 H 
ATOM    119  H27 UNL A   1      44.074  29.605  28.147  1.00  0.00    +0.000 H 
ATOM    120  H28 UNL A   1      38.103  28.312  29.963  1.00  0.00    +0.000 H 
ATOM    121  H29 UNL A   1      38.774  26.166  28.784  1.00  0.00    +0.000 H 
ATOM    122  H30 UNL A   1      42.023  28.755  28.649  1.00  0.00    +0.000 H 
ATOM    123  H31 UNL A   1      40.595  32.873  31.149  1.00  0.00    +0.000 H 
ATOM    124  H32 UNL A   1      42.861  33.881  30.518  1.00  0.00    +0.000 H 
ATOM    125  H33 UNL A   1      45.407  25.431  25.699  1.00  0.00    +0.000 H 
ATOM    126  H34 UNL A   1      43.039  24.521  26.050  1.00  0.00    +0.000 H 
ENDROOT
BRANCH   34   33
ATOM     33  C24 UNL A   1      40.623  25.017  27.200  1.00  0.00    +0.000 C 
ATOM    127  H35 UNL A   1      41.772  23.618  28.295  1.00  0.00    +0.000 H 
ATOM    115  H23 UNL A   1      37.838  24.191  25.510  1.00  0.00    +0.000 H 
ATOM    116  H24 UNL A   1      39.238  26.100  26.022  1.00  0.00    +0.000 H 
ATOM     91  C63 UNL A   1      40.974  23.736  27.653  1.00  0.00    +0.000 C 
ATOM     92  C64 UNL A   1      40.243  22.618  27.236  1.00  0.00    +0.000 C 
ATOM     32  C23 UNL A   1      39.494  25.164  26.376  1.00  0.00    +0.000 C 
ATOM     30  C21 UNL A   1      39.132  22.781  26.402  1.00  0.00    +0.000 C 
ATOM     31  C22 UNL A   1      38.718  24.062  26.034  1.00  0.00    +0.000 C 
ATOM    128  H36 UNL A   1      40.524  21.674  27.544  1.00  0.00    +0.000 H 
BRANCH   30    2
ATOM      1  O1  UNL A   1      39.012  20.526  25.765  1.00  0.00    +0.000 O 
ATOM      2  C1  UNL A   1      38.407  21.583  25.922  1.00  0.00    +0.000 C 
BRANCH    2    3
ATOM      3  N1  UNL A   1      37.067  21.665  25.626  1.00  0.00    +0.000 N 
ATOM     93  H1  UNL A   1      36.642  22.531  25.823  1.00  0.00    +0.000 H 
BRANCH    3    4
ATOM      4  C2  UNL A   1      36.191  20.653  25.061  1.00  0.00    +0.000 C 
ATOM     94  H2  UNL A   1      36.149  19.824  25.737  1.00  0.00    +0.000 H 
ATOM     95  H3  UNL A   1      36.596  20.374  24.111  1.00  0.00    +0.000 H 
BRANCH    4    5
ATOM     97  H5  UNL A   1      34.860  22.209  24.648  1.00  0.00    +0.000 H 
ATOM      5  C3  UNL A   1      34.775  21.157  24.822  1.00  0.00    +0.000 C 
ATOM     96  H4  UNL A   1      34.367  20.615  23.994  1.00  0.00    +0.000 H 
BRANCH    5    6
ATOM     98  H6  UNL A   1      34.054  20.082  26.498  1.00  0.00    +0.000 H 
ATOM     99  H7  UNL A   1      32.833  21.032  25.586  1.00  0.00    +0.000 H 
ATOM      6  C4  UNL A   1      33.818  21.002  26.003  1.00  0.00    +0.000 C 
BRANCH    6    7
ATOM    100  H8  UNL A   1      34.798  22.054  27.562  1.00  0.00    +0.000 H 
ATOM    101  H9  UNL A   1      33.007  21.965  27.673  1.00  0.00    +0.000 H 
ATOM      7  C5  UNL A   1      33.861  22.121  27.048  1.00  0.00    +0.000 C 
BRANCH    7    8
ATOM    102  H10 UNL A   1      34.633  23.806  26.011  1.00  0.00    +0.000 H 
ATOM    103  H11 UNL A   1      33.512  24.166  27.362  1.00  0.00    +0.000 H 
ATOM      8  C6  UNL A   1      33.722  23.551  26.511  1.00  0.00    +0.000 C 
BRANCH    8    9
ATOM      9  C7  UNL A   1      32.569  23.775  25.534  1.00  0.00    +0.000 C 
ATOM    105  H13 UNL A   1      32.827  23.308  24.607  1.00  0.00    +0.000 H 
ATOM    104  H12 UNL A   1      31.678  23.350  25.948  1.00  0.00    +0.000 H 
BRANCH    9   10
ATOM     10  N2  UNL A   1      32.339  25.185  25.277  1.00  0.00    +0.000 N 
ATOM    106  H14 UNL A   1      31.416  25.504  25.411  1.00  0.00    +0.000 H 
BRANCH   10   11
ATOM     11  C8  UNL A   1      33.249  26.128  24.870  1.00  0.00    +0.000 C 
ATOM     12  O2  UNL A   1      34.094  25.851  24.022  1.00  0.00    +0.000 O 
BRANCH   11   13
ATOM    107  H15 UNL A   1      34.417  26.982  27.135  1.00  0.00    +0.000 H 
ATOM    108  H16 UNL A   1      34.372  29.237  28.068  1.00  0.00    +0.000 H 
ATOM     13  C9  UNL A   1      33.230  27.481  25.453  1.00  0.00    +0.000 C 
ATOM     14  C10 UNL A   1      33.909  27.738  26.651  1.00  0.00    +0.000 C 
ATOM     15  C11 UNL A   1      33.893  29.021  27.180  1.00  0.00    +0.000 C 
ATOM     16  C12 UNL A   1      33.215  29.999  26.478  1.00  0.00    +0.000 C 
ATOM     17  N3  UNL A   1      32.585  29.781  25.304  1.00  0.00    +0.000 N 
ATOM     18  C13 UNL A   1      32.612  28.534  24.767  1.00  0.00    +0.000 C 
ATOM    109  H17 UNL A   1      33.190  30.952  26.875  1.00  0.00    +0.000 H 
BRANCH   18   19
ATOM     19  N4  UNL A   1      31.894  28.286  23.564  1.00  0.00    +0.000 N 
ATOM    110  H18 UNL A   1      32.388  27.902  22.804  1.00  0.00    +0.000 H 
BRANCH   19   20
ATOM    111  H19 UNL A   1      29.926  26.585  23.854  1.00  0.00    +0.000 H 
ATOM    112  H20 UNL A   1      27.559  26.964  23.497  1.00  0.00    +0.000 H 
ATOM    113  H21 UNL A   1      26.775  29.130  22.743  1.00  0.00    +0.000 H 
ATOM    114  H22 UNL A   1      30.736  30.543  22.720  1.00  0.00    +0.000 H 
ATOM     20  C14 UNL A   1      30.515  28.556  23.388  1.00  0.00    +0.000 C 
ATOM     21  C15 UNL A   1      29.595  27.518  23.560  1.00  0.00    +0.000 C 
ATOM     22  C16 UNL A   1      28.233  27.729  23.336  1.00  0.00    +0.000 C 
ATOM     23  C17 UNL A   1      27.783  28.974  22.897  1.00  0.00    +0.000 C 
ATOM     24  C18 UNL A   1      28.694  30.014  22.663  1.00  0.00    +0.000 C 
ATOM     25  C19 UNL A   1      28.210  31.354  22.172  1.00  0.00    +0.000 C 
ATOM     26  F1  UNL A   1      27.433  31.250  21.057  1.00  0.00    +0.000 F 
ATOM     27  F2  UNL A   1      27.446  32.004  23.095  1.00  0.00    +0.000 F 
ATOM     28  F3  UNL A   1      29.211  32.217  21.844  1.00  0.00    +0.000 F 
ATOM     29  C20 UNL A   1      30.057  29.788  22.904  1.00  0.00    +0.000 C 
ENDBRANCH   19   20
ENDBRANCH   18   19
ENDBRANCH   11   13
ENDBRANCH   10   11
ENDBRANCH    9   10
ENDBRANCH    8    9
ENDBRANCH    7    8
ENDBRANCH    6    7
ENDBRANCH    5    6
ENDBRANCH    4    5
ENDBRANCH    3    4
ENDBRANCH    2    3
ENDBRANCH   30    2
ENDBRANCH   34   33
BRANCH   38   39
ATOM     39  C29 UNL A   1      47.046  27.484  25.938  1.00  0.00    +0.000 C 
ATOM     40  C30 UNL A   1      47.188  27.660  24.553  1.00  0.00    +0.000 C 
ATOM     41  F4  UNL A   1      46.219  28.262  23.847  1.00  0.00    +0.000 F 
ATOM     42  C31 UNL A   1      48.316  27.192  23.882  1.00  0.00    +0.000 C 
ATOM     43  F5  UNL A   1      48.413  27.342  22.555  1.00  0.00    +0.000 F 
ATOM     44  C32 UNL A   1      49.334  26.566  24.585  1.00  0.00    +0.000 C 
ATOM     45  F6  UNL A   1      50.424  26.127  23.941  1.00  0.00    +0.000 F 
ATOM     46  C33 UNL A   1      49.220  26.392  25.957  1.00  0.00    +0.000 C 
ATOM     47  F7  UNL A   1      50.209  25.796  26.639  1.00  0.00    +0.000 F 
ATOM     48  C34 UNL A   1      48.083  26.836  26.626  1.00  0.00    +0.000 C 
ATOM     49  F8  UNL A   1      48.001  26.650  27.952  1.00  0.00    +0.000 F 
ENDBRANCH   38   39
BRANCH   55   56
ATOM     65  C45 UNL A   1      45.921  33.657  30.677  1.00  0.00    +0.000 C 
ATOM     66  F13 UNL A   1      46.053  32.626  31.524  1.00  0.00    +0.000 F 
ATOM     56  C40 UNL A   1      45.216  33.498  29.475  1.00  0.00    +0.000 C 
ATOM     57  C41 UNL A   1      45.103  34.609  28.625  1.00  0.00    +0.000 C 
ATOM     58  F9  UNL A   1      44.453  34.499  27.455  1.00  0.00    +0.000 F 
ATOM     59  C42 UNL A   1      45.700  35.823  28.952  1.00  0.00    +0.000 C 
ATOM     60  F10 UNL A   1      45.624  36.855  28.100  1.00  0.00    +0.000 F 
ATOM     61  C43 UNL A   1      46.391  35.959  30.146  1.00  0.00    +0.000 C 
ATOM     62  F11 UNL A   1      46.968  37.127  30.458  1.00  0.00    +0.000 F 
ATOM     63  C44 UNL A   1      46.494  34.881  31.012  1.00  0.00    +0.000 C 
ATOM     64  F12 UNL A   1      47.155  35.013  32.170  1.00  0.00    +0.000 F 
ENDBRANCH   55   56
BRANCH   70   71
ATOM     71  C49 UNL A   1      38.961  30.755  30.803  1.00  0.00    +0.000 C 
ATOM     72  C50 UNL A   1      37.927  31.426  30.138  1.00  0.00    +0.000 C 
ATOM     73  F14 UNL A   1      38.024  31.671  28.823  1.00  0.00    +0.000 F 
ATOM     74  C51 UNL A   1      36.804  31.879  30.828  1.00  0.00    +0.000 C 
ATOM     75  F15 UNL A   1      35.847  32.555  30.176  1.00  0.00    +0.000 F 
ATOM     76  C52 UNL A   1      36.680  31.642  32.189  1.00  0.00    +0.000 C 
ATOM     77  F16 UNL A   1      35.596  32.069  32.849  1.00  0.00    +0.000 F 
ATOM     78  C53 UNL A   1      37.683  30.965  32.865  1.00  0.00    +0.000 C 
ATOM     79  F17 UNL A   1      37.561  30.719  34.176  1.00  0.00    +0.000 F 
ATOM     80  C54 UNL A   1      38.820  30.541  32.183  1.00  0.00    +0.000 C 
ATOM     81  F18 UNL A   1      39.780  29.896  32.863  1.00  0.00    +0.000 F 
ENDBRANCH   70   71
TORSDOF 17
ENDMDL
MODEL 7
REMARK VINA RESULT:     -12.2     41.171     47.534
ROOT
ATOM     34  C25 UNL A   1      10.675   2.871  21.393  1.00  0.00    +0.000 C 
ATOM     35  C26 UNL A   1       9.766   3.803  22.143  1.00  0.00    +0.000 C 
ATOM     36  N5  UNL A   1       9.371   5.010  21.816  1.00  0.00    +0.000 N 
ATOM     37  C27 UNL A   1       8.533   5.429  22.839  1.00  0.00    +0.000 C 
ATOM     38  C28 UNL A   1       7.901   6.620  22.979  1.00  0.00    +0.000 C 
ATOM     50  C35 UNL A   1       7.991   7.706  22.035  1.00  0.00    +0.000 C 
ATOM     51  C36 UNL A   1       7.391   8.953  22.092  1.00  0.00    +0.000 C 
ATOM     52  C37 UNL A   1       7.744   9.663  20.940  1.00  0.00    +0.000 C 
ATOM     53  C38 UNL A   1       8.597   8.875  20.184  1.00  0.00    +0.000 C 
ATOM     54  N6  UNL A   1       8.732   7.674  20.863  1.00  0.00    +0.000 N 
ATOM     55  C39 UNL A   1       9.244   9.194  18.938  1.00  0.00    +0.000 C 
ATOM     67  C46 UNL A   1      10.074   8.368  18.257  1.00  0.00    +0.000 C 
ATOM     68  N7  UNL A   1      10.463   7.074  18.567  1.00  0.00    +0.000 N 
ATOM     69  C47 UNL A   1      11.232   6.683  17.581  1.00  0.00    +0.000 C 
ATOM     70  C48 UNL A   1      11.936   5.372  17.394  1.00  0.00    +0.000 C 
ATOM     82  C55 UNL A   1      11.794   4.413  18.327  1.00  0.00    +0.000 C 
ATOM     83  C56 UNL A   1      12.431   3.103  18.288  1.00  0.00    +0.000 C 
ATOM     84  C57 UNL A   1      12.049   2.402  19.365  1.00  0.00    +0.000 C 
ATOM     85  C58 UNL A   1      11.178   3.236  20.197  1.00  0.00    +0.000 C 
ATOM     86  N8  UNL A   1      11.058   4.402  19.487  1.00  0.00    +0.000 N 
ATOM     87  C59 UNL A   1      11.418   7.690  16.528  1.00  0.00    +0.000 C 
ATOM     88  C60 UNL A   1      10.721   8.710  17.007  1.00  0.00    +0.000 C 
ATOM     89  C61 UNL A   1       8.448   4.337  23.787  1.00  0.00    +0.000 C 
ATOM     90  C62 UNL A   1       9.224   3.324  23.423  1.00  0.00    +0.000 C 
ATOM    117  H25 UNL A   1       6.787   9.298  22.853  1.00  0.00    +0.000 H 
ATOM    118  H26 UNL A   1       7.423  10.613  20.694  1.00  0.00    +0.000 H 
ATOM    119  H27 UNL A   1       9.273   6.910  20.558  1.00  0.00    +0.000 H 
ATOM    120  H28 UNL A   1      13.073   2.769  17.552  1.00  0.00    +0.000 H 
ATOM    121  H29 UNL A   1      12.324   1.430  19.574  1.00  0.00    +0.000 H 
ATOM    122  H30 UNL A   1      10.498   5.157  19.779  1.00  0.00    +0.000 H 
ATOM    123  H31 UNL A   1      11.949   7.620  15.646  1.00  0.00    +0.000 H 
ATOM    124  H32 UNL A   1      10.649   9.632  16.548  1.00  0.00    +0.000 H 
ATOM    125  H33 UNL A   1       7.861   4.346  24.636  1.00  0.00    +0.000 H 
ATOM    126  H34 UNL A   1       9.400   2.432  23.911  1.00  0.00    +0.000 H 
ENDROOT
BRANCH   34   33
ATOM     33  C24 UNL A   1      11.088   1.563  21.962  1.00  0.00    +0.000 C 
ATOM    127  H35 UNL A   1       9.316   0.506  21.494  1.00  0.00    +0.000 H 
ATOM    115  H23 UNL A   1      13.817   0.097  23.264  1.00  0.00    +0.000 H 
ATOM    116  H24 UNL A   1      12.998   2.260  22.547  1.00  0.00    +0.000 H 
ATOM     91  C63 UNL A   1      10.250   0.439  21.926  1.00  0.00    +0.000 C 
ATOM     92  C64 UNL A   1      10.678  -0.776  22.474  1.00  0.00    +0.000 C 
ATOM     32  C23 UNL A   1      12.381   1.434  22.498  1.00  0.00    +0.000 C 
ATOM     30  C21 UNL A   1      11.962  -0.882  23.019  1.00  0.00    +0.000 C 
ATOM     31  C22 UNL A   1      12.836   0.206  22.962  1.00  0.00    +0.000 C 
ATOM    128  H36 UNL A   1      10.047  -1.592  22.477  1.00  0.00    +0.000 H 
BRANCH   30    2
ATOM      1  O1  UNL A   1      12.398  -3.187  22.981  1.00  0.00    +0.000 O 
ATOM      2  C1  UNL A   1      12.377  -2.156  23.649  1.00  0.00    +0.000 C 
BRANCH    2    3
ATOM      3  N1  UNL A   1      12.707  -2.187  24.983  1.00  0.00    +0.000 N 
ATOM     93  H1  UNL A   1      12.874  -3.081  25.358  1.00  0.00    +0.000 H 
BRANCH    3    4
ATOM      4  C2  UNL A   1      12.843  -1.083  25.916  1.00  0.00    +0.000 C 
ATOM     94  H2  UNL A   1      12.499  -1.404  26.878  1.00  0.00    +0.000 H 
ATOM     95  H3  UNL A   1      12.263  -0.268  25.536  1.00  0.00    +0.000 H 
BRANCH    4    5
ATOM     97  H5  UNL A   1      14.645  -1.005  26.971  1.00  0.00    +0.000 H 
ATOM      5  C3  UNL A   1      14.278  -0.593  26.055  1.00  0.00    +0.000 C 
ATOM     96  H4  UNL A   1      14.822  -0.914  25.191  1.00  0.00    +0.000 H 
BRANCH    5    6
ATOM     98  H6  UNL A   1      13.466   1.350  26.276  1.00  0.00    +0.000 H 
ATOM     99  H7  UNL A   1      14.967   1.230  25.298  1.00  0.00    +0.000 H 
ATOM      6  C4  UNL A   1      14.442   0.921  26.178  1.00  0.00    +0.000 C 
BRANCH    6    7
ATOM    100  H8  UNL A   1      16.313   1.190  27.137  1.00  0.00    +0.000 H 
ATOM    101  H9  UNL A   1      14.908   0.894  28.217  1.00  0.00    +0.000 H 
ATOM      7  C5  UNL A   1      15.289   1.407  27.359  1.00  0.00    +0.000 C 
BRANCH    7    8
ATOM    102  H10 UNL A   1      14.572   3.363  26.951  1.00  0.00    +0.000 H 
ATOM    103  H11 UNL A   1      16.192   3.267  27.710  1.00  0.00    +0.000 H 
ATOM      8  C6  UNL A   1      15.187   2.900  27.693  1.00  0.00    +0.000 C 
BRANCH    8    9
ATOM      9  C7  UNL A   1      14.598   3.226  29.064  1.00  0.00    +0.000 C 
ATOM    105  H13 UNL A   1      13.563   2.952  29.052  1.00  0.00    +0.000 H 
ATOM    104  H12 UNL A   1      15.135   2.678  29.810  1.00  0.00    +0.000 H 
BRANCH    9   10
ATOM     10  N2  UNL A   1      14.682   4.642  29.371  1.00  0.00    +0.000 N 
ATOM    106  H14 UNL A   1      15.165   5.199  28.717  1.00  0.00    +0.000 H 
BRANCH   10   11
ATOM     11  C8  UNL A   1      14.171   5.301  30.461  1.00  0.00    +0.000 C 
ATOM     12  O2  UNL A   1      14.136   4.751  31.560  1.00  0.00    +0.000 O 
BRANCH   11   13
ATOM    107  H15 UNL A   1      15.553   7.588  30.169  1.00  0.00    +0.000 H 
ATOM    108  H16 UNL A   1      14.653   9.845  29.939  1.00  0.00    +0.000 H 
ATOM     13  C9  UNL A   1      13.649   6.672  30.325  1.00  0.00    +0.000 C 
ATOM     14  C10 UNL A   1      14.533   7.748  30.176  1.00  0.00    +0.000 C 
ATOM     15  C11 UNL A   1      14.025   9.032  30.036  1.00  0.00    +0.000 C 
ATOM     16  C12 UNL A   1      12.652   9.185  30.031  1.00  0.00    +0.000 C 
ATOM     17  N3  UNL A   1      11.782   8.158  30.137  1.00  0.00    +0.000 N 
ATOM     18  C13 UNL A   1      12.268   6.895  30.254  1.00  0.00    +0.000 C 
ATOM    109  H17 UNL A   1      12.270  10.139  29.940  1.00  0.00    +0.000 H 
BRANCH   18   19
ATOM     19  N4  UNL A   1      11.356   5.818  30.432  1.00  0.00    +0.000 N 
ATOM    110  H18 UNL A   1      11.207   5.486  31.346  1.00  0.00    +0.000 H 
BRANCH   19   20
ATOM    111  H19 UNL A   1       9.046   6.560  29.451  1.00  0.00    +0.000 H 
ATOM    112  H20 UNL A   1       7.751   5.490  27.704  1.00  0.00    +0.000 H 
ATOM    113  H21 UNL A   1       8.557   3.452  26.669  1.00  0.00    +0.000 H 
ATOM    114  H22 UNL A   1      11.968   3.566  29.126  1.00  0.00    +0.000 H 
ATOM     20  C14 UNL A   1      10.648   5.191  29.377  1.00  0.00    +0.000 C 
ATOM     21  C15 UNL A   1       9.407   5.708  28.994  1.00  0.00    +0.000 C 
ATOM     22  C16 UNL A   1       8.651   5.082  28.001  1.00  0.00    +0.000 C 
ATOM     23  C17 UNL A   1       9.112   3.906  27.410  1.00  0.00    +0.000 C 
ATOM     24  C18 UNL A   1      10.327   3.338  27.818  1.00  0.00    +0.000 C 
ATOM     25  C19 UNL A   1      10.817   2.058  27.192  1.00  0.00    +0.000 C 
ATOM     26  F1  UNL A   1       9.882   1.067  27.234  1.00  0.00    +0.000 F 
ATOM     27  F2  UNL A   1      11.136   2.209  25.876  1.00  0.00    +0.000 F 
ATOM     28  F3  UNL A   1      11.928   1.541  27.787  1.00  0.00    +0.000 F 
ATOM     29  C20 UNL A   1      11.079   3.986  28.809  1.00  0.00    +0.000 C 
ENDBRANCH   19   20
ENDBRANCH   18   19
ENDBRANCH   11   13
ENDBRANCH   10   11
ENDBRANCH    9   10
ENDBRANCH    8    9
ENDBRANCH    7    8
ENDBRANCH    6    7
ENDBRANCH    5    6
ENDBRANCH    4    5
ENDBRANCH    3    4
ENDBRANCH    2    3
ENDBRANCH   30    2
ENDBRANCH   34   33
BRANCH   38   39
ATOM     39  C29 UNL A   1       7.050   6.819  24.200  1.00  0.00    +0.000 C 
ATOM     40  C30 UNL A   1       7.526   7.523  25.317  1.00  0.00    +0.000 C 
ATOM     41  F4  UNL A   1       8.789   7.974  25.341  1.00  0.00    +0.000 F 
ATOM     42  C31 UNL A   1       6.712   7.743  26.426  1.00  0.00    +0.000 C 
ATOM     43  F5  UNL A   1       7.199   8.389  27.493  1.00  0.00    +0.000 F 
ATOM     44  C32 UNL A   1       5.402   7.289  26.429  1.00  0.00    +0.000 C 
ATOM     45  F6  UNL A   1       4.616   7.513  27.491  1.00  0.00    +0.000 F 
ATOM     46  C33 UNL A   1       4.906   6.601  25.331  1.00  0.00    +0.000 C 
ATOM     47  F7  UNL A   1       3.637   6.172  25.329  1.00  0.00    +0.000 F 
ATOM     48  C34 UNL A   1       5.725   6.357  24.231  1.00  0.00    +0.000 C 
ATOM     49  F8  UNL A   1       5.218   5.686  23.187  1.00  0.00    +0.000 F 
ENDBRANCH   38   39
BRANCH   55   56
ATOM     65  C45 UNL A   1       9.844  11.627  18.659  1.00  0.00    +0.000 C 
ATOM     66  F13 UNL A   1      10.877  11.455  19.497  1.00  0.00    +0.000 F 
ATOM     56  C40 UNL A   1       9.003  10.550  18.344  1.00  0.00    +0.000 C 
ATOM     57  C41 UNL A   1       7.934  10.783  17.465  1.00  0.00    +0.000 C 
ATOM     58  F9  UNL A   1       7.114   9.778  17.120  1.00  0.00    +0.000 F 
ATOM     59  C42 UNL A   1       7.734  12.039  16.900  1.00  0.00    +0.000 C 
ATOM     60  F10 UNL A   1       6.739  12.225  16.023  1.00  0.00    +0.000 F 
ATOM     61  C43 UNL A   1       8.577  13.091  17.227  1.00  0.00    +0.000 C 
ATOM     62  F11 UNL A   1       8.385  14.299  16.678  1.00  0.00    +0.000 F 
ATOM     63  C44 UNL A   1       9.625  12.888  18.112  1.00  0.00    +0.000 C 
ATOM     64  F12 UNL A   1      10.435  13.906  18.434  1.00  0.00    +0.000 F 
ENDBRANCH   55   56
BRANCH   70   71
ATOM     71  C49 UNL A   1      12.782   5.115  16.201  1.00  0.00    +0.000 C 
ATOM     72  C50 UNL A   1      12.258   4.493  15.061  1.00  0.00    +0.000 C 
ATOM     73  F14 UNL A   1      10.978   4.090  15.046  1.00  0.00    +0.000 F 
ATOM     74  C51 UNL A   1      13.054   4.252  13.943  1.00  0.00    +0.000 C 
ATOM     75  F15 UNL A   1      12.540   3.619  12.880  1.00  0.00    +0.000 F 
ATOM     76  C52 UNL A   1      14.381   4.656  13.934  1.00  0.00    +0.000 C 
ATOM     77  F16 UNL A   1      15.144   4.433  12.855  1.00  0.00    +0.000 F 
ATOM     78  C53 UNL A   1      14.918   5.289  15.045  1.00  0.00    +0.000 C 
ATOM     79  F17 UNL A   1      16.194   5.697  15.035  1.00  0.00    +0.000 F 
ATOM     80  C54 UNL A   1      14.130   5.501  16.173  1.00  0.00    +0.000 C 
ATOM     81  F18 UNL A   1      14.676   6.107  17.238  1.00  0.00    +0.000 F 
ENDBRANCH   70   71
TORSDOF 17
ENDMDL
MODEL 8
REMARK VINA RESULT:     -12.1     44.861     50.427
ROOT
ATOM     34  C25 UNL A   1      14.399  50.019   4.457  1.00  0.00    +0.000 C 
ATOM     35  C26 UNL A   1      14.419  51.487   4.777  1.00  0.00    +0.000 C 
ATOM     36  N5  UNL A   1      14.874  52.481   4.053  1.00  0.00    +0.000 N 
ATOM     37  C27 UNL A   1      14.644  53.631   4.795  1.00  0.00    +0.000 C 
ATOM     38  C28 UNL A   1      14.968  54.912   4.491  1.00  0.00    +0.000 C 
ATOM     50  C35 UNL A   1      15.634  55.317   3.279  1.00  0.00    +0.000 C 
ATOM     51  C36 UNL A   1      16.008  56.591   2.882  1.00  0.00    +0.000 C 
ATOM     52  C37 UNL A   1      16.601  56.502   1.618  1.00  0.00    +0.000 C 
ATOM     53  C38 UNL A   1      16.633  55.168   1.244  1.00  0.00    +0.000 C 
ATOM     54  N6  UNL A   1      16.028  54.454   2.266  1.00  0.00    +0.000 N 
ATOM     55  C39 UNL A   1      17.178  54.586   0.045  1.00  0.00    +0.000 C 
ATOM     67  C46 UNL A   1      17.176  53.264  -0.251  1.00  0.00    +0.000 C 
ATOM     68  N7  UNL A   1      16.657  52.208   0.482  1.00  0.00    +0.000 N 
ATOM     69  C47 UNL A   1      16.859  51.134  -0.241  1.00  0.00    +0.000 C 
ATOM     70  C48 UNL A   1      16.505  49.709   0.063  1.00  0.00    +0.000 C 
ATOM     82  C55 UNL A   1      15.881  49.422   1.221  1.00  0.00    +0.000 C 
ATOM     83  C56 UNL A   1      15.495  48.086   1.657  1.00  0.00    +0.000 C 
ATOM     84  C57 UNL A   1      14.878  48.179   2.844  1.00  0.00    +0.000 C 
ATOM     85  C58 UNL A   1      14.872  49.579   3.275  1.00  0.00    +0.000 C 
ATOM     86  N8  UNL A   1      15.461  50.249   2.235  1.00  0.00    +0.000 N 
ATOM     87  C59 UNL A   1      17.532  51.389  -1.522  1.00  0.00    +0.000 C 
ATOM     88  C60 UNL A   1      17.736  52.697  -1.460  1.00  0.00    +0.000 C 
ATOM     89  C61 UNL A   1      13.978  53.219   6.014  1.00  0.00    +0.000 C 
ATOM     90  C62 UNL A   1      13.851  51.900   6.069  1.00  0.00    +0.000 C 
ATOM    117  H25 UNL A   1      15.873  57.457   3.426  1.00  0.00    +0.000 H 
ATOM    118  H26 UNL A   1      16.953  57.294   1.059  1.00  0.00    +0.000 H 
ATOM    119  H27 UNL A   1      15.896  53.479   2.274  1.00  0.00    +0.000 H 
ATOM    120  H28 UNL A   1      15.669  47.212   1.138  1.00  0.00    +0.000 H 
ATOM    121  H29 UNL A   1      14.472  47.389   3.369  1.00  0.00    +0.000 H 
ATOM    122  H30 UNL A   1      15.572  51.227   2.215  1.00  0.00    +0.000 H 
ATOM    123  H31 UNL A   1      17.779  50.725  -2.272  1.00  0.00    +0.000 H 
ATOM    124  H32 UNL A   1      18.231  53.243  -2.183  1.00  0.00    +0.000 H 
ATOM    125  H33 UNL A   1      13.646  53.868   6.744  1.00  0.00    +0.000 H 
ATOM    126  H34 UNL A   1      13.457  51.315   6.822  1.00  0.00    +0.000 H 
ENDROOT
BRANCH   34   33
ATOM     33  C24 UNL A   1      13.918  49.017   5.442  1.00  0.00    +0.000 C 
ATOM    127  H35 UNL A   1      15.748  48.771   6.475  1.00  0.00    +0.000 H 
ATOM    115  H23 UNL A   1      11.041  47.587   6.427  1.00  0.00    +0.000 H 
ATOM    116  H24 UNL A   1      11.937  49.026   4.698  1.00  0.00    +0.000 H 
ATOM     91  C63 UNL A   1      14.762  48.474   6.423  1.00  0.00    +0.000 C 
ATOM     92  C64 UNL A   1      14.268  47.532   7.332  1.00  0.00    +0.000 C 
ATOM     32  C23 UNL A   1      12.562  48.647   5.427  1.00  0.00    +0.000 C 
ATOM     30  C21 UNL A   1      12.920  47.162   7.292  1.00  0.00    +0.000 C 
ATOM     31  C22 UNL A   1      12.055  47.778   6.386  1.00  0.00    +0.000 C 
ATOM    128  H36 UNL A   1      14.899  47.109   8.031  1.00  0.00    +0.000 H 
BRANCH   30    2
ATOM      1  O1  UNL A   1      11.615  45.287   7.829  1.00  0.00    +0.000 O 
ATOM      2  C1  UNL A   1      12.428  46.120   8.222  1.00  0.00    +0.000 C 
BRANCH    2    3
ATOM      3  N1  UNL A   1      12.859  46.107   9.527  1.00  0.00    +0.000 N 
ATOM     93  H1  UNL A   1      13.814  45.906   9.656  1.00  0.00    +0.000 H 
BRANCH    3    4
ATOM      4  C2  UNL A   1      12.102  46.347  10.743  1.00  0.00    +0.000 C 
ATOM     94  H2  UNL A   1      11.957  45.413  11.246  1.00  0.00    +0.000 H 
ATOM     95  H3  UNL A   1      11.172  46.795  10.458  1.00  0.00    +0.000 H 
BRANCH    4    5
ATOM     97  H5  UNL A   1      12.070  47.563  12.441  1.00  0.00    +0.000 H 
ATOM      5  C3  UNL A   1      12.795  47.309  11.697  1.00  0.00    +0.000 C 
ATOM     96  H4  UNL A   1      13.661  46.818  12.090  1.00  0.00    +0.000 H 
BRANCH    5    6
ATOM     98  H6  UNL A   1      13.765  48.410  10.171  1.00  0.00    +0.000 H 
ATOM     99  H7  UNL A   1      13.848  49.111  11.822  1.00  0.00    +0.000 H 
ATOM      6  C4  UNL A   1      13.244  48.633  11.079  1.00  0.00    +0.000 C 
BRANCH    6    7
ATOM    100  H8  UNL A   1      12.274  50.498  11.354  1.00  0.00    +0.000 H 
ATOM    101  H9  UNL A   1      11.212  49.109  10.941  1.00  0.00    +0.000 H 
ATOM      7  C5  UNL A   1      12.128  49.628  10.748  1.00  0.00    +0.000 C 
BRANCH    7    8
ATOM    102  H10 UNL A   1      11.114  49.734   8.886  1.00  0.00    +0.000 H 
ATOM    103  H11 UNL A   1      12.902  49.676   8.800  1.00  0.00    +0.000 H 
ATOM      8  C6  UNL A   1      12.042  50.084   9.287  1.00  0.00    +0.000 C 
BRANCH    8    9
ATOM      9  C7  UNL A   1      12.111  51.595   9.066  1.00  0.00    +0.000 C 
ATOM    105  H13 UNL A   1      12.487  51.767   8.079  1.00  0.00    +0.000 H 
ATOM    104  H12 UNL A   1      11.130  52.006   9.185  1.00  0.00    +0.000 H 
BRANCH    9   10
ATOM     10  N2  UNL A   1      13.007  52.242  10.007  1.00  0.00    +0.000 N 
ATOM    106  H14 UNL A   1      12.612  52.502  10.871  1.00  0.00    +0.000 H 
BRANCH   10   11
ATOM     11  C8  UNL A   1      14.336  52.537   9.839  1.00  0.00    +0.000 C 
ATOM     12  O2  UNL A   1      14.681  53.642   9.427  1.00  0.00    +0.000 O 
BRANCH   11   13
ATOM    107  H15 UNL A   1      15.338  50.642   8.217  1.00  0.00    +0.000 H 
ATOM    108  H16 UNL A   1      17.053  48.989   8.749  1.00  0.00    +0.000 H 
ATOM     13  C9  UNL A   1      15.367  51.527  10.141  1.00  0.00    +0.000 C 
ATOM     14  C10 UNL A   1      15.767  50.617   9.155  1.00  0.00    +0.000 C 
ATOM     15  C11 UNL A   1      16.748  49.680   9.451  1.00  0.00    +0.000 C 
ATOM     16  C12 UNL A   1      17.303  49.707  10.716  1.00  0.00    +0.000 C 
ATOM     17  N3  UNL A   1      16.957  50.598  11.670  1.00  0.00    +0.000 N 
ATOM     18  C13 UNL A   1      16.013  51.532  11.384  1.00  0.00    +0.000 C 
ATOM    109  H17 UNL A   1      18.023  49.004  10.945  1.00  0.00    +0.000 H 
BRANCH   18   19
ATOM     19  N4  UNL A   1      15.599  52.431  12.406  1.00  0.00    +0.000 N 
ATOM    110  H18 UNL A   1      16.232  53.130  12.689  1.00  0.00    +0.000 H 
BRANCH   19   20
ATOM    111  H19 UNL A   1      14.070  54.475  12.980  1.00  0.00    +0.000 H 
ATOM    112  H20 UNL A   1      11.939  54.469  14.135  1.00  0.00    +0.000 H 
ATOM    113  H21 UNL A   1      11.003  52.387  14.947  1.00  0.00    +0.000 H 
ATOM    114  H22 UNL A   1      14.331  50.311  13.430  1.00  0.00    +0.000 H 
ATOM     20  C14 UNL A   1      14.336  52.384  13.045  1.00  0.00    +0.000 C 
ATOM     21  C15 UNL A   1      13.662  53.582  13.299  1.00  0.00    +0.000 C 
ATOM     22  C16 UNL A   1      12.443  53.583  13.981  1.00  0.00    +0.000 C 
ATOM     23  C17 UNL A   1      11.908  52.384  14.453  1.00  0.00    +0.000 C 
ATOM     24  C18 UNL A   1      12.594  51.177  14.260  1.00  0.00    +0.000 C 
ATOM     25  C19 UNL A   1      12.024  49.885  14.786  1.00  0.00    +0.000 C 
ATOM     26  F1  UNL A   1      11.711  49.955  16.111  1.00  0.00    +0.000 F 
ATOM     27  F2  UNL A   1      10.872  49.527  14.153  1.00  0.00    +0.000 F 
ATOM     28  F3  UNL A   1      12.864  48.819  14.662  1.00  0.00    +0.000 F 
ATOM     29  C20 UNL A   1      13.812  51.193  13.563  1.00  0.00    +0.000 C 
ENDBRANCH   19   20
ENDBRANCH   18   19
ENDBRANCH   11   13
ENDBRANCH   10   11
ENDBRANCH    9   10
ENDBRANCH    8    9
ENDBRANCH    7    8
ENDBRANCH    6    7
ENDBRANCH    5    6
ENDBRANCH    4    5
ENDBRANCH    3    4
ENDBRANCH    2    3
ENDBRANCH   30    2
ENDBRANCH   34   33
BRANCH   38   39
ATOM     39  C29 UNL A   1      14.606  55.978   5.484  1.00  0.00    +0.000 C 
ATOM     40  C30 UNL A   1      15.584  56.610   6.267  1.00  0.00    +0.000 C 
ATOM     41  F4  UNL A   1      16.865  56.220   6.190  1.00  0.00    +0.000 F 
ATOM     42  C31 UNL A   1      15.245  57.631   7.151  1.00  0.00    +0.000 C 
ATOM     43  F5  UNL A   1      16.191  58.198   7.912  1.00  0.00    +0.000 F 
ATOM     44  C32 UNL A   1      13.930  58.058   7.252  1.00  0.00    +0.000 C 
ATOM     45  F6  UNL A   1      13.607  59.048   8.094  1.00  0.00    +0.000 F 
ATOM     46  C33 UNL A   1      12.947  57.454   6.480  1.00  0.00    +0.000 C 
ATOM     47  F7  UNL A   1      11.677  57.873   6.568  1.00  0.00    +0.000 F 
ATOM     48  C34 UNL A   1      13.279  56.416   5.613  1.00  0.00    +0.000 C 
ATOM     49  F8  UNL A   1      12.307  55.850   4.882  1.00  0.00    +0.000 F 
ENDBRANCH   38   39
BRANCH   55   56
ATOM     65  C45 UNL A   1      17.058  56.053  -2.002  1.00  0.00    +0.000 C 
ATOM     66  F13 UNL A   1      15.752  55.767  -2.114  1.00  0.00    +0.000 F 
ATOM     56  C40 UNL A   1      17.815  55.502  -0.958  1.00  0.00    +0.000 C 
ATOM     57  C41 UNL A   1      19.178  55.829  -0.888  1.00  0.00    +0.000 C 
ATOM     58  F9  UNL A   1      19.938  55.340   0.105  1.00  0.00    +0.000 F 
ATOM     59  C42 UNL A   1      19.752  56.700  -1.809  1.00  0.00    +0.000 C 
ATOM     60  F10 UNL A   1      21.043  57.039  -1.691  1.00  0.00    +0.000 F 
ATOM     61  C43 UNL A   1      18.986  57.232  -2.835  1.00  0.00    +0.000 C 
ATOM     62  F11 UNL A   1      19.540  58.073  -3.718  1.00  0.00    +0.000 F 
ATOM     63  C44 UNL A   1      17.642  56.903  -2.937  1.00  0.00    +0.000 C 
ATOM     64  F12 UNL A   1      16.903  57.411  -3.932  1.00  0.00    +0.000 F 
ENDBRANCH   55   56
BRANCH   70   71
ATOM     71  C49 UNL A   1      16.827  48.615  -0.887  1.00  0.00    +0.000 C 
ATOM     72  C50 UNL A   1      17.967  47.818  -0.718  1.00  0.00    +0.000 C 
ATOM     73  F14 UNL A   1      18.806  48.058   0.300  1.00  0.00    +0.000 F 
ATOM     74  C51 UNL A   1      18.266  46.794  -1.613  1.00  0.00    +0.000 C 
ATOM     75  F15 UNL A   1      19.384  46.072  -1.453  1.00  0.00    +0.000 F 
ATOM     76  C52 UNL A   1      17.417  46.528  -2.677  1.00  0.00    +0.000 C 
ATOM     77  F16 UNL A   1      17.701  45.536  -3.532  1.00  0.00    +0.000 F 
ATOM     78  C53 UNL A   1      16.274  47.292  -2.855  1.00  0.00    +0.000 C 
ATOM     79  F17 UNL A   1      15.441  47.028  -3.871  1.00  0.00    +0.000 F 
ATOM     80  C54 UNL A   1      15.991  48.336  -1.979  1.00  0.00    +0.000 C 
ATOM     81  F18 UNL A   1      14.884  49.067  -2.180  1.00  0.00    +0.000 F 
ENDBRANCH   70   71
TORSDOF 17
ENDMDL
MODEL 9
REMARK VINA RESULT:     -12.1     44.797     50.198
ROOT
ATOM     34  C25 UNL A   1      12.954  49.588   3.570  1.00  0.00    +0.000 C 
ATOM     35  C26 UNL A   1      12.962  51.021   4.024  1.00  0.00    +0.000 C 
ATOM     36  N5  UNL A   1      13.670  52.025   3.567  1.00  0.00    +0.000 N 
ATOM     37  C27 UNL A   1      13.296  53.130   4.318  1.00  0.00    +0.000 C 
ATOM     38  C28 UNL A   1      13.770  54.399   4.249  1.00  0.00    +0.000 C 
ATOM     50  C35 UNL A   1      14.790  54.838   3.330  1.00  0.00    +0.000 C 
ATOM     51  C36 UNL A   1      15.339  56.102   3.187  1.00  0.00    +0.000 C 
ATOM     52  C37 UNL A   1      16.275  56.060   2.149  1.00  0.00    +0.000 C 
ATOM     53  C38 UNL A   1      16.340  54.761   1.672  1.00  0.00    +0.000 C 
ATOM     54  N6  UNL A   1      15.417  54.025   2.398  1.00  0.00    +0.000 N 
ATOM     55  C39 UNL A   1      17.184  54.228   0.633  1.00  0.00    +0.000 C 
ATOM     67  C46 UNL A   1      17.194  52.937   0.222  1.00  0.00    +0.000 C 
ATOM     68  N7  UNL A   1      16.419  51.877   0.664  1.00  0.00    +0.000 N 
ATOM     69  C47 UNL A   1      16.765  50.848  -0.070  1.00  0.00    +0.000 C 
ATOM     70  C48 UNL A   1      16.254  49.438  -0.024  1.00  0.00    +0.000 C 
ATOM     82  C55 UNL A   1      15.298  49.118   0.866  1.00  0.00    +0.000 C 
ATOM     83  C56 UNL A   1      14.722  47.790   1.038  1.00  0.00    +0.000 C 
ATOM     84  C57 UNL A   1      13.785  47.843   1.995  1.00  0.00    +0.000 C 
ATOM     85  C58 UNL A   1      13.732  49.201   2.541  1.00  0.00    +0.000 C 
ATOM     86  N8  UNL A   1      14.643  49.897   1.789  1.00  0.00    +0.000 N 
ATOM     87  C59 UNL A   1      17.803  51.142  -1.067  1.00  0.00    +0.000 C 
ATOM     88  C60 UNL A   1      18.055  52.420  -0.821  1.00  0.00    +0.000 C 
ATOM     89  C61 UNL A   1      12.274  52.684   5.242  1.00  0.00    +0.000 C 
ATOM     90  C62 UNL A   1      12.060  51.380   5.128  1.00  0.00    +0.000 C 
ATOM    117  H25 UNL A   1      15.097  56.932   3.750  1.00  0.00    +0.000 H 
ATOM    118  H26 UNL A   1      16.824  56.860   1.798  1.00  0.00    +0.000 H 
ATOM    119  H27 UNL A   1      15.233  53.066   2.271  1.00  0.00    +0.000 H 
ATOM    120  H28 UNL A   1      14.992  46.946   0.509  1.00  0.00    +0.000 H 
ATOM    121  H29 UNL A   1      13.195  47.052   2.299  1.00  0.00    +0.000 H 
ATOM    122  H30 UNL A   1      14.811  50.860   1.899  1.00  0.00    +0.000 H 
ATOM    123  H31 UNL A   1      18.224  50.519  -1.774  1.00  0.00    +0.000 H 
ATOM    124  H32 UNL A   1      18.775  52.975  -1.310  1.00  0.00    +0.000 H 
ATOM    125  H33 UNL A   1      11.777  53.301   5.904  1.00  0.00    +0.000 H 
ATOM    126  H34 UNL A   1      11.425  50.775   5.672  1.00  0.00    +0.000 H 
ENDROOT
BRANCH   34   33
ATOM     33  C24 UNL A   1      12.144  48.558   4.268  1.00  0.00    +0.000 C 
ATOM    127  H35 UNL A   1      10.427  48.703   3.041  1.00  0.00    +0.000 H 
ATOM    115  H23 UNL A   1      12.492  46.245   6.681  1.00  0.00    +0.000 H 
ATOM    116  H24 UNL A   1      13.668  48.101   5.663  1.00  0.00    +0.000 H 
ATOM     91  C63 UNL A   1      10.845  48.225   3.854  1.00  0.00    +0.000 C 
ATOM     92  C64 UNL A   1      10.116  47.248   4.540  1.00  0.00    +0.000 C 
ATOM     32  C23 UNL A   1      12.720  47.851   5.338  1.00  0.00    +0.000 C 
ATOM     30  C21 UNL A   1      10.699  46.567   5.614  1.00  0.00    +0.000 C 
ATOM     31  C22 UNL A   1      12.027  46.821   5.962  1.00  0.00    +0.000 C 
ATOM    128  H36 UNL A   1       9.149  47.030   4.254  1.00  0.00    +0.000 H 
BRANCH   30    2
ATOM      1  O1  UNL A   1      10.254  44.405   6.411  1.00  0.00    +0.000 O 
ATOM      2  C1  UNL A   1       9.894  45.578   6.366  1.00  0.00    +0.000 C 
BRANCH    2    3
ATOM      3  N1  UNL A   1       8.731  45.970   6.985  1.00  0.00    +0.000 N 
ATOM     93  H1  UNL A   1       7.921  45.937   6.426  1.00  0.00    +0.000 H 
BRANCH    3    4
ATOM      4  C2  UNL A   1       8.529  46.425   8.350  1.00  0.00    +0.000 C 
ATOM     94  H2  UNL A   1       7.966  45.683   8.877  1.00  0.00    +0.000 H 
ATOM     95  H3  UNL A   1       8.010  47.360   8.302  1.00  0.00    +0.000 H 
BRANCH    4    5
ATOM     97  H5  UNL A   1       9.625  46.472  10.127  1.00  0.00    +0.000 H 
ATOM      5  C3  UNL A   1       9.833  46.666   9.096  1.00  0.00    +0.000 C 
ATOM     96  H4  UNL A   1      10.577  46.019   8.679  1.00  0.00    +0.000 H 
BRANCH    5    6
ATOM     98  H6  UNL A   1       9.550  48.759   9.242  1.00  0.00    +0.000 H 
ATOM     99  H7  UNL A   1      10.783  48.212   8.058  1.00  0.00    +0.000 H 
ATOM      6  C4  UNL A   1      10.366  48.097   9.036  1.00  0.00    +0.000 C 
BRANCH    6    7
ATOM    100  H8  UNL A   1      11.491  47.690  10.786  1.00  0.00    +0.000 H 
ATOM    101  H9  UNL A   1      11.301  49.423  10.355  1.00  0.00    +0.000 H 
ATOM      7  C5  UNL A   1      11.498  48.429  10.013  1.00  0.00    +0.000 C 
BRANCH    7    8
ATOM    102  H10 UNL A   1      13.503  49.129  10.020  1.00  0.00    +0.000 H 
ATOM    103  H11 UNL A   1      12.795  48.802   8.407  1.00  0.00    +0.000 H 
ATOM      8  C6  UNL A   1      12.911  48.472   9.418  1.00  0.00    +0.000 C 
BRANCH    8    9
ATOM      9  C7  UNL A   1      13.631  47.126   9.341  1.00  0.00    +0.000 C 
ATOM    105  H13 UNL A   1      14.147  46.975  10.266  1.00  0.00    +0.000 H 
ATOM    104  H12 UNL A   1      12.907  46.357   9.170  1.00  0.00    +0.000 H 
BRANCH    9   10
ATOM     10  N2  UNL A   1      14.611  47.093   8.271  1.00  0.00    +0.000 N 
ATOM    106  H14 UNL A   1      14.393  46.516   7.502  1.00  0.00    +0.000 H 
BRANCH   10   11
ATOM     11  C8  UNL A   1      15.804  47.767   8.199  1.00  0.00    +0.000 C 
ATOM     12  O2  UNL A   1      16.555  47.807   9.171  1.00  0.00    +0.000 O 
BRANCH   11   13
ATOM    107  H15 UNL A   1      15.840  46.798   5.692  1.00  0.00    +0.000 H 
ATOM    108  H16 UNL A   1      16.487  47.977   3.655  1.00  0.00    +0.000 H 
ATOM     13  C9  UNL A   1      16.195  48.459   6.958  1.00  0.00    +0.000 C 
ATOM     14  C10 UNL A   1      16.143  47.783   5.732  1.00  0.00    +0.000 C 
ATOM     15  C11 UNL A   1      16.502  48.453   4.570  1.00  0.00    +0.000 C 
ATOM     16  C12 UNL A   1      16.878  49.778   4.680  1.00  0.00    +0.000 C 
ATOM     17  N3  UNL A   1      16.901  50.458   5.847  1.00  0.00    +0.000 N 
ATOM     18  C13 UNL A   1      16.532  49.818   6.987  1.00  0.00    +0.000 C 
ATOM    109  H17 UNL A   1      17.158  50.276   3.821  1.00  0.00    +0.000 H 
BRANCH   18   19
ATOM     19  N4  UNL A   1      16.617  50.512   8.226  1.00  0.00    +0.000 N 
ATOM    110  H18 UNL A   1      17.487  50.529   8.686  1.00  0.00    +0.000 H 
BRANCH   19   20
ATOM    111  H19 UNL A   1      14.389  51.251   7.069  1.00  0.00    +0.000 H 
ATOM    112  H20 UNL A   1      12.528  52.459   8.044  1.00  0.00    +0.000 H 
ATOM    113  H21 UNL A   1      12.618  53.165  10.361  1.00  0.00    +0.000 H 
ATOM    114  H22 UNL A   1      16.434  51.436  10.728  1.00  0.00    +0.000 H 
ATOM     20  C14 UNL A   1      15.530  51.180   8.841  1.00  0.00    +0.000 C 
ATOM     21  C15 UNL A   1      14.420  51.525   8.063  1.00  0.00    +0.000 C 
ATOM     22  C16 UNL A   1      13.356  52.237   8.619  1.00  0.00    +0.000 C 
ATOM     23  C17 UNL A   1      13.411  52.648   9.950  1.00  0.00    +0.000 C 
ATOM     24  C18 UNL A   1      14.538  52.364  10.734  1.00  0.00    +0.000 C 
ATOM     25  C19 UNL A   1      14.605  52.823  12.167  1.00  0.00    +0.000 C 
ATOM     26  F1  UNL A   1      14.359  54.157  12.298  1.00  0.00    +0.000 F 
ATOM     27  F2  UNL A   1      13.688  52.199  12.959  1.00  0.00    +0.000 F 
ATOM     28  F3  UNL A   1      15.813  52.612  12.760  1.00  0.00    +0.000 F 
ATOM     29  C20 UNL A   1      15.594  51.637  10.163  1.00  0.00    +0.000 C 
ENDBRANCH   19   20
ENDBRANCH   18   19
ENDBRANCH   11   13
ENDBRANCH   10   11
ENDBRANCH    9   10
ENDBRANCH    8    9
ENDBRANCH    7    8
ENDBRANCH    6    7
ENDBRANCH    5    6
ENDBRANCH    4    5
ENDBRANCH    3    4
ENDBRANCH    2    3
ENDBRANCH   30    2
ENDBRANCH   34   33
BRANCH   38   39
ATOM     39  C29 UNL A   1      13.190  55.412   5.193  1.00  0.00    +0.000 C 
ATOM     40  C30 UNL A   1      12.118  56.234   4.815  1.00  0.00    +0.000 C 
ATOM     41  F4  UNL A   1      11.633  56.178   3.566  1.00  0.00    +0.000 F 
ATOM     42  C31 UNL A   1      11.556  57.139   5.714  1.00  0.00    +0.000 C 
ATOM     43  F5  UNL A   1      10.555  57.936   5.320  1.00  0.00    +0.000 F 
ATOM     44  C32 UNL A   1      12.036  57.219   7.012  1.00  0.00    +0.000 C 
ATOM     45  F6  UNL A   1      11.487  58.081   7.879  1.00  0.00    +0.000 F 
ATOM     46  C33 UNL A   1      13.088  56.408   7.411  1.00  0.00    +0.000 C 
ATOM     47  F7  UNL A   1      13.546  56.477   8.669  1.00  0.00    +0.000 F 
ATOM     48  C34 UNL A   1      13.668  55.521   6.508  1.00  0.00    +0.000 C 
ATOM     49  F8  UNL A   1      14.687  54.752   6.923  1.00  0.00    +0.000 F 
ENDBRANCH   38   39
BRANCH   55   56
ATOM     65  C45 UNL A   1      19.300  55.600   0.616  1.00  0.00    +0.000 C 
ATOM     66  F13 UNL A   1      19.562  55.187   1.865  1.00  0.00    +0.000 F 
ATOM     56  C40 UNL A   1      18.143  55.161  -0.045  1.00  0.00    +0.000 C 
ATOM     57  C41 UNL A   1      17.913  55.625  -1.349  1.00  0.00    +0.000 C 
ATOM     58  F9  UNL A   1      16.829  55.218  -2.027  1.00  0.00    +0.000 F 
ATOM     59  C42 UNL A   1      18.822  56.471  -1.978  1.00  0.00    +0.000 C 
ATOM     60  F10 UNL A   1      18.608  56.859  -3.242  1.00  0.00    +0.000 F 
ATOM     61  C43 UNL A   1      19.959  56.893  -1.305  1.00  0.00    +0.000 C 
ATOM     62  F11 UNL A   1      20.835  57.704  -1.914  1.00  0.00    +0.000 F 
ATOM     63  C44 UNL A   1      20.193  56.466  -0.007  1.00  0.00    +0.000 C 
ATOM     64  F12 UNL A   1      21.288  56.880   0.647  1.00  0.00    +0.000 F 
ENDBRANCH   55   56
BRANCH   70   71
ATOM     71  C49 UNL A   1      16.781  48.397  -0.942  1.00  0.00    +0.000 C 
ATOM     72  C50 UNL A   1      16.072  48.012  -2.086  1.00  0.00    +0.000 C 
ATOM     73  F14 UNL A   1      14.879  48.564  -2.352  1.00  0.00    +0.000 F 
ATOM     74  C51 UNL A   1      16.569  47.033  -2.944  1.00  0.00    +0.000 C 
ATOM     75  F15 UNL A   1      15.852  46.652  -4.011  1.00  0.00    +0.000 F 
ATOM     76  C52 UNL A   1      17.799  46.444  -2.690  1.00  0.00    +0.000 C 
ATOM     77  F16 UNL A   1      18.281  45.510  -3.521  1.00  0.00    +0.000 F 
ATOM     78  C53 UNL A   1      18.527  46.821  -1.572  1.00  0.00    +0.000 C 
ATOM     79  F17 UNL A   1      19.723  46.268  -1.332  1.00  0.00    +0.000 F 
ATOM     80  C54 UNL A   1      18.016  47.776  -0.698  1.00  0.00    +0.000 C 
ATOM     81  F18 UNL A   1      18.736  48.117   0.381  1.00  0.00    +0.000 F 
ENDBRANCH   70   71
TORSDOF 17
ENDMDL
MODEL 10
REMARK VINA RESULT:     -12.1     45.457     50.157
ROOT
ATOM     34  C25 UNL A   1      13.231  53.323   6.095  1.00  0.00    +0.000 C 
ATOM     35  C26 UNL A   1      12.815  51.885   5.971  1.00  0.00    +0.000 C 
ATOM     36  N5  UNL A   1      13.160  51.003   5.064  1.00  0.00    +0.000 N 
ATOM     37  C27 UNL A   1      12.513  49.825   5.411  1.00  0.00    +0.000 C 
ATOM     38  C28 UNL A   1      12.524  48.633   4.764  1.00  0.00    +0.000 C 
ATOM     50  C35 UNL A   1      13.255  48.373   3.550  1.00  0.00    +0.000 C 
ATOM     51  C36 UNL A   1      13.325  47.199   2.818  1.00  0.00    +0.000 C 
ATOM     52  C37 UNL A   1      14.178  47.410   1.729  1.00  0.00    +0.000 C 
ATOM     53  C38 UNL A   1      14.607  48.727   1.759  1.00  0.00    +0.000 C 
ATOM     54  N6  UNL A   1      14.042  49.302   2.886  1.00  0.00    +0.000 N 
ATOM     55  C39 UNL A   1      15.466  49.411   0.827  1.00  0.00    +0.000 C 
ATOM     67  C46 UNL A   1      15.840  50.710   0.921  1.00  0.00    +0.000 C 
ATOM     68  N7  UNL A   1      15.521  51.640   1.898  1.00  0.00    +0.000 N 
ATOM     69  C47 UNL A   1      16.158  52.737   1.572  1.00  0.00    +0.000 C 
ATOM     70  C48 UNL A   1      16.173  54.065   2.270  1.00  0.00    +0.000 C 
ATOM     82  C55 UNL A   1      15.461  54.218   3.401  1.00  0.00    +0.000 C 
ATOM     83  C56 UNL A   1      15.366  55.451   4.173  1.00  0.00    +0.000 C 
ATOM     84  C57 UNL A   1      14.593  55.233   5.246  1.00  0.00    +0.000 C 
ATOM     85  C58 UNL A   1      14.096  53.855   5.209  1.00  0.00    +0.000 C 
ATOM     86  N8  UNL A   1      14.687  53.319   4.095  1.00  0.00    +0.000 N 
ATOM     87  C59 UNL A   1      16.959  52.626   0.346  1.00  0.00    +0.000 C 
ATOM     88  C60 UNL A   1      16.700  51.382  -0.031  1.00  0.00    +0.000 C 
ATOM     89  C61 UNL A   1      11.777  50.092   6.629  1.00  0.00    +0.000 C 
ATOM     90  C62 UNL A   1      11.898  51.362   6.995  1.00  0.00    +0.000 C 
ATOM    117  H25 UNL A   1      12.833  46.319   3.038  1.00  0.00    +0.000 H 
ATOM    118  H26 UNL A   1      14.443  46.704   1.024  1.00  0.00    +0.000 H 
ATOM    119  H27 UNL A   1      14.178  50.234   3.173  1.00  0.00    +0.000 H 
ATOM    120  H28 UNL A   1      15.819  56.346   3.932  1.00  0.00    +0.000 H 
ATOM    121  H29 UNL A   1      14.382  55.925   5.982  1.00  0.00    +0.000 H 
ATOM    122  H30 UNL A   1      14.570  52.381   3.819  1.00  0.00    +0.000 H 
ATOM    123  H31 UNL A   1      17.565  53.331  -0.103  1.00  0.00    +0.000 H 
ATOM    124  H32 UNL A   1      17.065  50.948  -0.893  1.00  0.00    +0.000 H 
ATOM    125  H33 UNL A   1      11.229  49.387   7.145  1.00  0.00    +0.000 H 
ATOM    126  H34 UNL A   1      11.463  51.853   7.791  1.00  0.00    +0.000 H 
ENDROOT
BRANCH   34   33
ATOM     33  C24 UNL A   1      12.666  54.207   7.146  1.00  0.00    +0.000 C 
ATOM    127  H35 UNL A   1      10.936  54.800   6.084  1.00  0.00    +0.000 H 
ATOM    115  H23 UNL A   1      13.235  55.041  10.352  1.00  0.00    +0.000 H 
ATOM    116  H24 UNL A   1      14.231  53.814   8.516  1.00  0.00    +0.000 H 
ATOM     91  C63 UNL A   1      11.459  54.899   6.967  1.00  0.00    +0.000 C 
ATOM     92  C64 UNL A   1      10.962  55.722   7.984  1.00  0.00    +0.000 C 
ATOM     32  C23 UNL A   1      13.332  54.304   8.381  1.00  0.00    +0.000 C 
ATOM     30  C21 UNL A   1      11.646  55.821   9.200  1.00  0.00    +0.000 C 
ATOM     31  C22 UNL A   1      12.791  55.052   9.420  1.00  0.00    +0.000 C 
ATOM    128  H36 UNL A   1      10.092  56.256   7.837  1.00  0.00    +0.000 H 
BRANCH   30    2
ATOM      1  O1  UNL A   1      11.305  57.952  10.119  1.00  0.00    +0.000 O 
ATOM      2  C1  UNL A   1      11.139  56.741  10.242  1.00  0.00    +0.000 C 
BRANCH    2    3
ATOM      3  N1  UNL A   1      10.513  56.237  11.357  1.00  0.00    +0.000 N 
ATOM     93  H1  UNL A   1       9.666  55.764  11.190  1.00  0.00    +0.000 H 
BRANCH    3    4
ATOM      4  C2  UNL A   1      10.928  56.303  12.748  1.00  0.00    +0.000 C 
ATOM     94  H2  UNL A   1      10.089  56.609  13.340  1.00  0.00    +0.000 H 
ATOM     95  H3  UNL A   1      11.735  57.003  12.808  1.00  0.00    +0.000 H 
BRANCH    4    5
ATOM     97  H5  UNL A   1      10.969  54.836  14.233  1.00  0.00    +0.000 H 
ATOM      5  C3  UNL A   1      11.438  54.973  13.282  1.00  0.00    +0.000 C 
ATOM     96  H4  UNL A   1      11.193  54.214  12.569  1.00  0.00    +0.000 H 
BRANCH    5    6
ATOM     98  H6  UNL A   1      13.105  55.100  14.582  1.00  0.00    +0.000 H 
ATOM     99  H7  UNL A   1      13.383  55.633  12.890  1.00  0.00    +0.000 H 
ATOM      6  C4  UNL A   1      12.942  54.907  13.541  1.00  0.00    +0.000 C 
BRANCH    6    7
ATOM    100  H8  UNL A   1      14.592  53.580  13.650  1.00  0.00    +0.000 H 
ATOM    101  H9  UNL A   1      13.635  53.527  12.131  1.00  0.00    +0.000 H 
ATOM      7  C5  UNL A   1      13.621  53.577  13.199  1.00  0.00    +0.000 C 
BRANCH    7    8
ATOM    102  H10 UNL A   1      12.067  52.144  13.003  1.00  0.00    +0.000 H 
ATOM    103  H11 UNL A   1      12.605  52.489  14.677  1.00  0.00    +0.000 H 
ATOM      8  C6  UNL A   1      12.893  52.309  13.662  1.00  0.00    +0.000 C 
BRANCH    8    9
ATOM      9  C7  UNL A   1      13.741  51.038  13.684  1.00  0.00    +0.000 C 
ATOM    105  H13 UNL A   1      14.439  51.121  14.491  1.00  0.00    +0.000 H 
ATOM    104  H12 UNL A   1      13.095  50.195  13.816  1.00  0.00    +0.000 H 
BRANCH    9   10
ATOM     10  N2  UNL A   1      14.494  50.864  12.456  1.00  0.00    +0.000 N 
ATOM    106  H14 UNL A   1      15.473  50.952  12.533  1.00  0.00    +0.000 H 
BRANCH   10   11
ATOM     11  C8  UNL A   1      14.011  50.590  11.201  1.00  0.00    +0.000 C 
ATOM     12  O2  UNL A   1      13.986  51.466  10.340  1.00  0.00    +0.000 O 
BRANCH   11   13
ATOM    107  H15 UNL A   1      11.468  49.721  11.195  1.00  0.00    +0.000 H 
ATOM    108  H16 UNL A   1      10.667  47.482  10.640  1.00  0.00    +0.000 H 
ATOM     13  C9  UNL A   1      13.507  49.244  10.875  1.00  0.00    +0.000 C 
ATOM     14  C10 UNL A   1      12.133  48.979  10.922  1.00  0.00    +0.000 C 
ATOM     15  C11 UNL A   1      11.672  47.710  10.600  1.00  0.00    +0.000 C 
ATOM     16  C12 UNL A   1      12.605  46.764  10.222  1.00  0.00    +0.000 C 
ATOM     17  N3  UNL A   1      13.930  47.008  10.134  1.00  0.00    +0.000 N 
ATOM     18  C13 UNL A   1      14.389  48.252  10.428  1.00  0.00    +0.000 C 
ATOM    109  H17 UNL A   1      12.269  45.815   9.993  1.00  0.00    +0.000 H 
BRANCH   18   19
ATOM     19  N4  UNL A   1      15.791  48.495  10.400  1.00  0.00    +0.000 N 
ATOM    110  H18 UNL A   1      16.332  48.153  11.148  1.00  0.00    +0.000 H 
BRANCH   19   20
ATOM    111  H19 UNL A   1      17.412  50.527  10.696  1.00  0.00    +0.000 H 
ATOM    112  H20 UNL A   1      18.522  51.816   8.970  1.00  0.00    +0.000 H 
ATOM    113  H21 UNL A   1      18.149  51.292   6.633  1.00  0.00    +0.000 H 
ATOM    114  H22 UNL A   1      15.563  48.172   7.756  1.00  0.00    +0.000 H 
ATOM     20  C14 UNL A   1      16.457  49.197   9.367  1.00  0.00    +0.000 C 
ATOM     21  C15 UNL A   1      17.272  50.282   9.703  1.00  0.00    +0.000 C 
ATOM     22  C16 UNL A   1      17.897  51.038   8.709  1.00  0.00    +0.000 C 
ATOM     23  C17 UNL A   1      17.678  50.739   7.364  1.00  0.00    +0.000 C 
ATOM     24  C18 UNL A   1      16.819  49.692   7.002  1.00  0.00    +0.000 C 
ATOM     25  C19 UNL A   1      16.569  49.381   5.549  1.00  0.00    +0.000 C 
ATOM     26  F1  UNL A   1      16.175  50.478   4.842  1.00  0.00    +0.000 F 
ATOM     27  F2  UNL A   1      17.681  48.913   4.916  1.00  0.00    +0.000 F 
ATOM     28  F3  UNL A   1      15.602  48.443   5.343  1.00  0.00    +0.000 F 
ATOM     29  C20 UNL A   1      16.208  48.936   8.014  1.00  0.00    +0.000 C 
ENDBRANCH   19   20
ENDBRANCH   18   19
ENDBRANCH   11   13
ENDBRANCH   10   11
ENDBRANCH    9   10
ENDBRANCH    8    9
ENDBRANCH    7    8
ENDBRANCH    6    7
ENDBRANCH    5    6
ENDBRANCH    4    5
ENDBRANCH    3    4
ENDBRANCH    2    3
ENDBRANCH   30    2
ENDBRANCH   34   33
BRANCH   38   39
ATOM     39  C29 UNL A   1      11.721  47.511   5.356  1.00  0.00    +0.000 C 
ATOM     40  C30 UNL A   1      12.274  46.640   6.308  1.00  0.00    +0.000 C 
ATOM     41  F4  UNL A   1      13.564  46.753   6.656  1.00  0.00    +0.000 F 
ATOM     42  C31 UNL A   1      11.507  45.631   6.886  1.00  0.00    +0.000 C 
ATOM     43  F5  UNL A   1      12.065  44.791   7.768  1.00  0.00    +0.000 F 
ATOM     44  C32 UNL A   1      10.170  45.491   6.547  1.00  0.00    +0.000 C 
ATOM     45  F6  UNL A   1       9.431  44.527   7.113  1.00  0.00    +0.000 F 
ATOM     46  C33 UNL A   1       9.600  46.348   5.617  1.00  0.00    +0.000 C 
ATOM     47  F7  UNL A   1       8.305  46.220   5.296  1.00  0.00    +0.000 F 
ATOM     48  C34 UNL A   1      10.370  47.342   5.018  1.00  0.00    +0.000 C 
ATOM     49  F8  UNL A   1       9.792  48.152   4.119  1.00  0.00    +0.000 F 
ENDBRANCH   38   39
BRANCH   55   56
ATOM     65  C45 UNL A   1      17.281  48.114  -0.348  1.00  0.00    +0.000 C 
ATOM     66  F13 UNL A   1      18.078  48.291   0.717  1.00  0.00    +0.000 F 
ATOM     56  C40 UNL A   1      15.982  48.643  -0.353  1.00  0.00    +0.000 C 
ATOM     57  C41 UNL A   1      15.190  48.434  -1.493  1.00  0.00    +0.000 C 
ATOM     58  F9  UNL A   1      13.934  48.905  -1.536  1.00  0.00    +0.000 F 
ATOM     59  C42 UNL A   1      15.671  47.698  -2.572  1.00  0.00    +0.000 C 
ATOM     60  F10 UNL A   1      14.878  47.467  -3.627  1.00  0.00    +0.000 F 
ATOM     61  C43 UNL A   1      16.959  47.186  -2.546  1.00  0.00    +0.000 C 
ATOM     62  F11 UNL A   1      17.418  46.475  -3.585  1.00  0.00    +0.000 F 
ATOM     63  C44 UNL A   1      17.767  47.402  -1.440  1.00  0.00    +0.000 C 
ATOM     64  F12 UNL A   1      19.015  46.914  -1.418  1.00  0.00    +0.000 F 
ENDBRANCH   55   56
BRANCH   70   71
ATOM     71  C49 UNL A   1      16.958  55.207   1.737  1.00  0.00    +0.000 C 
ATOM     72  C50 UNL A   1      18.308  55.377   2.069  1.00  0.00    +0.000 C 
ATOM     73  F14 UNL A   1      18.905  54.518   2.908  1.00  0.00    +0.000 F 
ATOM     74  C51 UNL A   1      19.041  56.451   1.568  1.00  0.00    +0.000 C 
ATOM     75  F15 UNL A   1      20.320  56.615   1.934  1.00  0.00    +0.000 F 
ATOM     76  C52 UNL A   1      18.446  57.356   0.702  1.00  0.00    +0.000 C 
ATOM     77  F16 UNL A   1      19.155  58.383   0.213  1.00  0.00    +0.000 F 
ATOM     78  C53 UNL A   1      17.116  57.199   0.346  1.00  0.00    +0.000 C 
ATOM     79  F17 UNL A   1      16.542  58.060  -0.505  1.00  0.00    +0.000 F 
ATOM     80  C54 UNL A   1      16.375  56.144   0.871  1.00  0.00    +0.000 C 
ATOM     81  F18 UNL A   1      15.086  56.019   0.517  1.00  0.00    +0.000 F 
ENDBRANCH   70   71
TORSDOF 17
ENDMDL
