MODEL 1
REMARK VINA RESULT:     -12.1      0.000      0.000
ROOT
ATOM     21  C17 UNL A   1      39.981  28.822  29.038  1.00  0.00    +0.000 C 
ATOM     22  C18 UNL A   1      40.344  28.661  30.473  1.00  0.00    +0.000 C 
ATOM     23  N3  UNL A   1      41.355  29.174  31.095  1.00  0.00    +0.000 N 
ATOM     24  C19 UNL A   1      41.262  28.729  32.411  1.00  0.00    +0.000 C 
ATOM     25  C20 UNL A   1      42.349  28.711  33.231  1.00  0.00    +0.000 C 
ATOM     37  C27 UNL A   1      43.379  29.594  32.749  1.00  0.00    +0.000 C 
ATOM     38  C28 UNL A   1      43.494  30.960  32.585  1.00  0.00    +0.000 C 
ATOM     39  C29 UNL A   1      44.273  31.126  31.402  1.00  0.00    +0.000 C 
ATOM     40  C30 UNL A   1      44.635  29.859  30.947  1.00  0.00    +0.000 C 
ATOM     41  N4  UNL A   1      44.404  29.044  32.024  1.00  0.00    +0.000 N 
ATOM     42  C31 UNL A   1      45.058  29.369  29.658  1.00  0.00    +0.000 C 
ATOM     54  C38 UNL A   1      44.993  28.065  29.261  1.00  0.00    +0.000 C 
ATOM     55  N5  UNL A   1      44.985  27.734  27.915  1.00  0.00    +0.000 N 
ATOM     56  C39 UNL A   1      44.355  26.594  27.861  1.00  0.00    +0.000 C 
ATOM     57  C40 UNL A   1      43.398  26.241  26.782  1.00  0.00    +0.000 C 
ATOM     69  C47 UNL A   1      42.324  27.059  26.928  1.00  0.00    +0.000 C 
ATOM     70  C48 UNL A   1      41.287  27.427  25.988  1.00  0.00    +0.000 C 
ATOM     71  C49 UNL A   1      40.405  28.236  26.613  1.00  0.00    +0.000 C 
ATOM     72  C50 UNL A   1      40.731  28.315  28.037  1.00  0.00    +0.000 C 
ATOM     73  N6  UNL A   1      41.953  27.682  28.137  1.00  0.00    +0.000 N 
ATOM     74  C51 UNL A   1      44.257  25.866  29.115  1.00  0.00    +0.000 C 
ATOM     75  C52 UNL A   1      44.585  26.848  29.956  1.00  0.00    +0.000 C 
ATOM     76  C53 UNL A   1      39.963  28.124  32.545  1.00  0.00    +0.000 C 
ATOM     77  C54 UNL A   1      39.381  27.983  31.354  1.00  0.00    +0.000 C 
ATOM    117  H22 UNL A   1      43.102  31.700  33.187  1.00  0.00    +0.000 H 
ATOM    118  H23 UNL A   1      44.525  32.025  30.962  1.00  0.00    +0.000 H 
ATOM    119  H24 UNL A   1      44.886  28.214  32.238  1.00  0.00    +0.000 H 
ATOM    120  H25 UNL A   1      41.231  27.121  25.004  1.00  0.00    +0.000 H 
ATOM    121  H26 UNL A   1      39.620  28.725  26.155  1.00  0.00    +0.000 H 
ATOM    122  H27 UNL A   1      42.500  27.667  28.956  1.00  0.00    +0.000 H 
ATOM    123  H28 UNL A   1      44.007  24.881  29.300  1.00  0.00    +0.000 H 
ATOM    124  H29 UNL A   1      44.555  26.758  30.984  1.00  0.00    +0.000 H 
ATOM    125  H30 UNL A   1      39.539  27.839  33.443  1.00  0.00    +0.000 H 
ATOM    126  H31 UNL A   1      38.490  27.520  31.114  1.00  0.00    +0.000 H 
ENDROOT
BRANCH   21   20
ATOM     78  C55 UNL A   1      37.573  28.882  28.412  1.00  0.00    +0.000 C 
ATOM     79  C56 UNL A   1      36.429  29.627  28.158  1.00  0.00    +0.000 C 
ATOM     17  C13 UNL A   1      36.417  31.025  28.330  1.00  0.00    +0.000 C 
ATOM     18  C14 UNL A   1      37.535  31.636  28.892  1.00  0.00    +0.000 C 
ATOM     19  C15 UNL A   1      38.694  30.903  29.116  1.00  0.00    +0.000 C 
ATOM    115  H20 UNL A   1      37.504  32.637  29.142  1.00  0.00    +0.000 H 
ATOM    116  H21 UNL A   1      39.530  31.367  29.503  1.00  0.00    +0.000 H 
ATOM     20  C16 UNL A   1      38.728  29.537  28.818  1.00  0.00    +0.000 C 
ATOM    127  H32 UNL A   1      37.566  27.856  28.299  1.00  0.00    +0.000 H 
ATOM    128  H33 UNL A   1      35.574  29.148  27.837  1.00  0.00    +0.000 H 
BRANCH   17   15
ATOM     15  C12 UNL A   1      35.222  31.730  27.790  1.00  0.00    +0.000 C 
ATOM     16  O2  UNL A   1      35.141  32.951  27.939  1.00  0.00    +0.000 O 
BRANCH   15   14
ATOM    114  H19 UNL A   1      34.412  30.453  26.532  1.00  0.00    +0.000 H 
ATOM     14  N2  UNL A   1      34.148  31.121  27.206  1.00  0.00    +0.000 N 
BRANCH   14   13
ATOM    113  H18 UNL A   1      32.378  31.957  26.639  1.00  0.00    +0.000 H 
ATOM     13  C11 UNL A   1      32.710  31.228  27.348  1.00  0.00    +0.000 C 
ATOM    112  H17 UNL A   1      32.491  31.511  28.356  1.00  0.00    +0.000 H 
BRANCH   13   12
ATOM     12  C10 UNL A   1      31.966  29.928  27.038  1.00  0.00    +0.000 C 
ATOM    110  H15 UNL A   1      31.133  29.851  27.705  1.00  0.00    +0.000 H 
ATOM    111  H16 UNL A   1      31.669  29.980  26.011  1.00  0.00    +0.000 H 
BRANCH   12   11
ATOM     11  C9  UNL A   1      32.822  28.666  27.188  1.00  0.00    +0.000 C 
ATOM    108  H13 UNL A   1      33.811  28.967  27.465  1.00  0.00    +0.000 H 
ATOM    109  H14 UNL A   1      32.338  28.062  27.925  1.00  0.00    +0.000 H 
BRANCH   11   10
ATOM     10  C8  UNL A   1      32.927  27.801  25.926  1.00  0.00    +0.000 C 
ATOM    107  H12 UNL A   1      31.972  27.851  25.446  1.00  0.00    +0.000 H 
ATOM    106  H11 UNL A   1      33.197  26.810  26.223  1.00  0.00    +0.000 H 
BRANCH   10    9
ATOM      9  C7  UNL A   1      33.954  28.288  24.897  1.00  0.00    +0.000 C 
ATOM    105  H10 UNL A   1      34.444  27.423  24.503  1.00  0.00    +0.000 H 
ATOM    104  H9  UNL A   1      34.639  28.950  25.388  1.00  0.00    +0.000 H 
BRANCH    9    8
ATOM    102  H7  UNL A   1      33.600  30.061  23.766  1.00  0.00    +0.000 H 
ATOM    103  H8  UNL A   1      33.677  28.583  22.812  1.00  0.00    +0.000 H 
ATOM      8  C6  UNL A   1      33.323  29.030  23.718  1.00  0.00    +0.000 C 
BRANCH    8    7
ATOM    101  H6  UNL A   1      31.461  28.944  24.634  1.00  0.00    +0.000 H 
ATOM      7  N1  UNL A   1      31.878  28.928  23.742  1.00  0.00    +0.000 N 
BRANCH    7    5
ATOM      5  C5  UNL A   1      31.020  28.815  22.686  1.00  0.00    +0.000 C 
ATOM      6  O1  UNL A   1      30.705  29.837  22.073  1.00  0.00    +0.000 O 
BRANCH    5    4
ATOM    100  H5  UNL A   1      30.557  27.323  21.280  1.00  0.00    +0.000 H 
ATOM     99  H4  UNL A   1      29.389  27.464  22.614  1.00  0.00    +0.000 H 
ATOM      4  C4  UNL A   1      30.422  27.460  22.333  1.00  0.00    +0.000 C 
BRANCH    4    3
ATOM    129  H34 UNL A   1      28.884  26.679  24.844  1.00  0.00    +0.000 H 
ATOM      2  C2  UNL A   1      32.261  25.657  22.628  1.00  0.00    +0.000 C 
ATOM      3  C3  UNL A   1      31.097  26.305  23.017  1.00  0.00    +0.000 C 
ATOM    132  H37 UNL A   1      32.159  23.306  26.065  1.00  0.00    +0.000 H 
ATOM    130  H35 UNL A   1      28.576  25.355  26.849  1.00  0.00    +0.000 H 
ATOM    131  H36 UNL A   1      30.219  23.703  27.469  1.00  0.00    +0.000 H 
ATOM     80  C57 UNL A   1      30.664  25.695  24.227  1.00  0.00    +0.000 C 
ATOM     81  C58 UNL A   1      29.565  25.942  25.082  1.00  0.00    +0.000 C 
ATOM     82  C59 UNL A   1      29.398  25.195  26.247  1.00  0.00    +0.000 C 
ATOM     83  C60 UNL A   1      30.337  24.240  26.595  1.00  0.00    +0.000 C 
ATOM     84  C61 UNL A   1      31.444  23.993  25.777  1.00  0.00    +0.000 C 
ATOM     85  C62 UNL A   1      31.579  24.688  24.556  1.00  0.00    +0.000 C 
ATOM     86  N7  UNL A   1      32.488  24.574  23.492  1.00  0.00    +0.000 N 
BRANCH    2    1
ATOM      1  C1  UNL A   1      33.152  25.964  21.462  1.00  0.00    +0.000 C 
ATOM     98  H3  UNL A   1      33.540  26.956  21.562  1.00  0.00    +0.000 H 
ATOM     97  H2  UNL A   1      33.961  25.265  21.438  1.00  0.00    +0.000 H 
ATOM     96  H1  UNL A   1      32.588  25.890  20.555  1.00  0.00    +0.000 H 
ENDBRANCH    2    1
BRANCH   86   87
ATOM     87  C63 UNL A   1      33.468  23.555  23.286  1.00  0.00    +0.000 C 
ATOM     88  O3  UNL A   1      33.220  22.642  22.508  1.00  0.00    +0.000 O 
BRANCH   87   89
ATOM    133  H38 UNL A   1      35.755  22.400  22.388  1.00  0.00    +0.000 H 
ATOM    134  H39 UNL A   1      37.860  22.192  23.596  1.00  0.00    +0.000 H 
ATOM    135  H40 UNL A   1      36.300  24.517  26.739  1.00  0.00    +0.000 H 
ATOM    136  H41 UNL A   1      34.178  24.685  25.562  1.00  0.00    +0.000 H 
ATOM     89  C64 UNL A   1      34.791  23.487  23.928  1.00  0.00    +0.000 C 
ATOM     90  C65 UNL A   1      35.860  22.816  23.328  1.00  0.00    +0.000 C 
ATOM     91  C66 UNL A   1      37.074  22.713  24.014  1.00  0.00    +0.000 C 
ATOM     92  C67 UNL A   1      37.219  23.317  25.265  1.00  0.00    +0.000 C 
ATOM     93 Cl1  UNL A   1      38.698  23.147  26.127  1.00  0.00    +0.000 Cl
ATOM     94  C68 UNL A   1      36.173  24.047  25.829  1.00  0.00    +0.000 C 
ATOM     95  C69 UNL A   1      34.955  24.139  25.157  1.00  0.00    +0.000 C 
ENDBRANCH   87   89
ENDBRANCH   86   87
ENDBRANCH    4    3
ENDBRANCH    5    4
ENDBRANCH    7    5
ENDBRANCH    8    7
ENDBRANCH    9    8
ENDBRANCH   10    9
ENDBRANCH   11   10
ENDBRANCH   12   11
ENDBRANCH   13   12
ENDBRANCH   14   13
ENDBRANCH   15   14
ENDBRANCH   17   15
ENDBRANCH   21   20
BRANCH   25   26
ATOM     33  C25 UNL A   1      42.103  26.506  36.370  1.00  0.00    +0.000 C 
ATOM     34  F4  UNL A   1      41.565  26.575  37.596  1.00  0.00    +0.000 F 
ATOM     35  C26 UNL A   1      42.118  27.643  35.564  1.00  0.00    +0.000 C 
ATOM     36  F5  UNL A   1      41.515  28.716  36.087  1.00  0.00    +0.000 F 
ATOM     26  C21 UNL A   1      42.629  27.631  34.248  1.00  0.00    +0.000 C 
ATOM     27  C22 UNL A   1      43.154  26.396  33.815  1.00  0.00    +0.000 C 
ATOM     28  F1  UNL A   1      43.654  26.260  32.577  1.00  0.00    +0.000 F 
ATOM     29  C23 UNL A   1      43.092  25.246  34.608  1.00  0.00    +0.000 C 
ATOM     30  F2  UNL A   1      43.486  24.068  34.104  1.00  0.00    +0.000 F 
ATOM     31  C24 UNL A   1      42.557  25.300  35.882  1.00  0.00    +0.000 C 
ATOM     32  F3  UNL A   1      42.437  24.188  36.618  1.00  0.00    +0.000 F 
ENDBRANCH   25   26
BRANCH   42   43
ATOM     43  C32 UNL A   1      45.373  30.403  28.611  1.00  0.00    +0.000 C 
ATOM     44  C33 UNL A   1      44.404  30.996  27.782  1.00  0.00    +0.000 C 
ATOM     45  F6  UNL A   1      43.119  30.618  27.848  1.00  0.00    +0.000 F 
ATOM     46  C34 UNL A   1      44.736  32.035  26.913  1.00  0.00    +0.000 C 
ATOM     47  F7  UNL A   1      43.797  32.584  26.128  1.00  0.00    +0.000 F 
ATOM     48  C35 UNL A   1      46.029  32.533  26.888  1.00  0.00    +0.000 C 
ATOM     49  F8  UNL A   1      46.338  33.566  26.092  1.00  0.00    +0.000 F 
ATOM     50  C36 UNL A   1      46.995  31.980  27.714  1.00  0.00    +0.000 C 
ATOM     51  F9  UNL A   1      48.234  32.491  27.732  1.00  0.00    +0.000 F 
ATOM     52  C37 UNL A   1      46.674  30.918  28.555  1.00  0.00    +0.000 C 
ATOM     53  F10 UNL A   1      47.626  30.426  29.362  1.00  0.00    +0.000 F 
ENDBRANCH   42   43
BRANCH   57   58
ATOM     65  C45 UNL A   1      43.047  22.542  26.016  1.00  0.00    +0.000 C 
ATOM     66  F14 UNL A   1      42.354  21.497  26.488  1.00  0.00    +0.000 F 
ATOM     67  C46 UNL A   1      42.740  23.831  26.456  1.00  0.00    +0.000 C 
ATOM     68  F15 UNL A   1      41.765  23.948  27.369  1.00  0.00    +0.000 F 
ATOM     58  C41 UNL A   1      43.485  24.954  26.049  1.00  0.00    +0.000 C 
ATOM     59  C42 UNL A   1      44.531  24.712  25.141  1.00  0.00    +0.000 C 
ATOM     60  F11 UNL A   1      45.317  25.720  24.732  1.00  0.00    +0.000 F 
ATOM     61  C43 UNL A   1      44.840  23.419  24.703  1.00  0.00    +0.000 C 
ATOM     62  F12 UNL A   1      45.890  23.220  23.893  1.00  0.00    +0.000 F 
ATOM     63  C44 UNL A   1      44.107  22.334  25.153  1.00  0.00    +0.000 C 
ATOM     64  F13 UNL A   1      44.447  21.089  24.791  1.00  0.00    +0.000 F 
ENDBRANCH   57   58
TORSDOF 19
ENDMDL
MODEL 2
REMARK VINA RESULT:     -11.8      3.324      8.884
ROOT
ATOM     21  C17 UNL A   1      41.093  28.251  28.519  1.00  0.00    +0.000 C 
ATOM     22  C18 UNL A   1      42.196  29.186  28.162  1.00  0.00    +0.000 C 
ATOM     23  N3  UNL A   1      43.067  29.720  28.955  1.00  0.00    +0.000 N 
ATOM     24  C19 UNL A   1      43.879  30.517  28.152  1.00  0.00    +0.000 C 
ATOM     25  C20 UNL A   1      44.611  31.537  28.677  1.00  0.00    +0.000 C 
ATOM     37  C27 UNL A   1      44.796  31.369  30.095  1.00  0.00    +0.000 C 
ATOM     38  C28 UNL A   1      45.454  30.453  30.891  1.00  0.00    +0.000 C 
ATOM     39  C29 UNL A   1      44.638  30.318  32.053  1.00  0.00    +0.000 C 
ATOM     40  C30 UNL A   1      43.563  31.197  31.925  1.00  0.00    +0.000 C 
ATOM     41  N4  UNL A   1      43.958  32.057  30.934  1.00  0.00    +0.000 N 
ATOM     42  C31 UNL A   1      42.259  31.240  32.540  1.00  0.00    +0.000 C 
ATOM     54  C38 UNL A   1      41.182  31.908  32.035  1.00  0.00    +0.000 C 
ATOM     55  N5  UNL A   1      39.893  31.558  32.406  1.00  0.00    +0.000 N 
ATOM     56  C39 UNL A   1      39.151  31.916  31.396  1.00  0.00    +0.000 C 
ATOM     57  C40 UNL A   1      38.003  31.115  30.902  1.00  0.00    +0.000 C 
ATOM     69  C47 UNL A   1      38.520  29.973  30.379  1.00  0.00    +0.000 C 
ATOM     70  C48 UNL A   1      37.893  28.697  30.104  1.00  0.00    +0.000 C 
ATOM     71  C49 UNL A   1      38.807  27.880  29.540  1.00  0.00    +0.000 C 
ATOM     72  C50 UNL A   1      40.037  28.627  29.270  1.00  0.00    +0.000 C 
ATOM     73  N6  UNL A   1      39.838  29.838  29.899  1.00  0.00    +0.000 N 
ATOM     74  C51 UNL A   1      39.750  32.874  30.481  1.00  0.00    +0.000 C 
ATOM     75  C52 UNL A   1      41.023  32.770  30.867  1.00  0.00    +0.000 C 
ATOM     76  C53 UNL A   1      43.552  30.188  26.789  1.00  0.00    +0.000 C 
ATOM     77  C54 UNL A   1      42.459  29.426  26.735  1.00  0.00    +0.000 C 
ATOM    117  H22 UNL A   1      46.344  29.971  30.690  1.00  0.00    +0.000 H 
ATOM    118  H23 UNL A   1      44.813  29.682  32.847  1.00  0.00    +0.000 H 
ATOM    119  H24 UNL A   1      43.688  32.999  30.842  1.00  0.00    +0.000 H 
ATOM    120  H25 UNL A   1      36.911  28.453  30.307  1.00  0.00    +0.000 H 
ATOM    121  H26 UNL A   1      38.662  26.880  29.330  1.00  0.00    +0.000 H 
ATOM    122  H27 UNL A   1      40.535  30.527  30.001  1.00  0.00    +0.000 H 
ATOM    123  H28 UNL A   1      39.318  33.461  29.749  1.00  0.00    +0.000 H 
ATOM    124  H29 UNL A   1      41.807  33.246  30.395  1.00  0.00    +0.000 H 
ATOM    125  H30 UNL A   1      44.091  30.499  25.966  1.00  0.00    +0.000 H 
ATOM    126  H31 UNL A   1      41.937  29.092  25.910  1.00  0.00    +0.000 H 
ENDROOT
BRANCH   21   20
ATOM     78  C55 UNL A   1      41.951  25.916  28.603  1.00  0.00    +0.000 C 
ATOM     79  C56 UNL A   1      42.107  24.684  27.982  1.00  0.00    +0.000 C 
ATOM     17  C13 UNL A   1      41.536  24.426  26.720  1.00  0.00    +0.000 C 
ATOM     18  C14 UNL A   1      40.693  25.386  26.163  1.00  0.00    +0.000 C 
ATOM     19  C15 UNL A   1      40.560  26.632  26.762  1.00  0.00    +0.000 C 
ATOM    115  H20 UNL A   1      40.167  25.171  25.301  1.00  0.00    +0.000 H 
ATOM    116  H21 UNL A   1      39.960  27.350  26.329  1.00  0.00    +0.000 H 
ATOM     20  C16 UNL A   1      41.239  26.915  27.951  1.00  0.00    +0.000 C 
ATOM    127  H32 UNL A   1      42.359  26.089  29.535  1.00  0.00    +0.000 H 
ATOM    128  H33 UNL A   1      42.652  23.946  28.452  1.00  0.00    +0.000 H 
BRANCH   17   15
ATOM     15  C12 UNL A   1      41.981  23.171  26.056  1.00  0.00    +0.000 C 
ATOM     16  O2  UNL A   1      43.066  23.167  25.470  1.00  0.00    +0.000 O 
BRANCH   15   14
ATOM    114  H19 UNL A   1      41.631  21.373  25.340  1.00  0.00    +0.000 H 
ATOM     14  N2  UNL A   1      41.242  22.025  25.966  1.00  0.00    +0.000 N 
BRANCH   14   13
ATOM    113  H18 UNL A   1      39.856  22.137  27.456  1.00  0.00    +0.000 H 
ATOM     13  C11 UNL A   1      40.020  21.546  26.579  1.00  0.00    +0.000 C 
ATOM    112  H17 UNL A   1      40.141  20.507  26.804  1.00  0.00    +0.000 H 
BRANCH   13   12
ATOM     12  C10 UNL A   1      38.785  21.708  25.691  1.00  0.00    +0.000 C 
ATOM    110  H15 UNL A   1      39.110  21.778  24.674  1.00  0.00    +0.000 H 
ATOM    111  H16 UNL A   1      38.164  20.856  25.868  1.00  0.00    +0.000 H 
BRANCH   12   11
ATOM     11  C9  UNL A   1      37.941  22.946  26.014  1.00  0.00    +0.000 C 
ATOM    108  H13 UNL A   1      37.941  23.080  27.075  1.00  0.00    +0.000 H 
ATOM    109  H14 UNL A   1      38.388  23.760  25.482  1.00  0.00    +0.000 H 
BRANCH   11   10
ATOM     10  C8  UNL A   1      36.484  22.876  25.545  1.00  0.00    +0.000 C 
ATOM    107  H12 UNL A   1      36.258  23.830  25.115  1.00  0.00    +0.000 H 
ATOM    106  H11 UNL A   1      35.872  22.640  26.390  1.00  0.00    +0.000 H 
BRANCH   10    9
ATOM      9  C7  UNL A   1      36.211  21.835  24.452  1.00  0.00    +0.000 C 
ATOM    105  H10 UNL A   1      37.133  21.664  23.939  1.00  0.00    +0.000 H 
ATOM    104  H9  UNL A   1      35.452  22.217  23.801  1.00  0.00    +0.000 H 
BRANCH    9    8
ATOM    102  H7  UNL A   1      36.220  19.703  24.459  1.00  0.00    +0.000 H 
ATOM    103  H8  UNL A   1      36.002  20.442  26.042  1.00  0.00    +0.000 H 
ATOM      8  C6  UNL A   1      35.743  20.488  25.005  1.00  0.00    +0.000 C 
BRANCH    8    7
ATOM    101  H6  UNL A   1      33.993  19.788  24.133  1.00  0.00    +0.000 H 
ATOM      7  N1  UNL A   1      34.306  20.338  24.887  1.00  0.00    +0.000 N 
BRANCH    7    5
ATOM      5  C5  UNL A   1      33.332  20.862  25.687  1.00  0.00    +0.000 C 
ATOM      6  O1  UNL A   1      33.576  21.012  26.886  1.00  0.00    +0.000 O 
BRANCH    5    4
ATOM    100  H5  UNL A   1      31.242  20.973  25.873  1.00  0.00    +0.000 H 
ATOM     99  H4  UNL A   1      31.814  20.580  24.236  1.00  0.00    +0.000 H 
ATOM      4  C4  UNL A   1      31.961  21.182  25.109  1.00  0.00    +0.000 C 
BRANCH    4    3
ATOM    129  H34 UNL A   1      33.147  21.687  22.349  1.00  0.00    +0.000 H 
ATOM      2  C2  UNL A   1      31.204  23.634  25.479  1.00  0.00    +0.000 C 
ATOM      3  C3  UNL A   1      31.789  22.625  24.726  1.00  0.00    +0.000 C 
ATOM    132  H37 UNL A   1      32.213  26.449  22.578  1.00  0.00    +0.000 H 
ATOM    130  H35 UNL A   1      33.738  23.134  20.497  1.00  0.00    +0.000 H 
ATOM    131  H36 UNL A   1      33.302  25.501  20.627  1.00  0.00    +0.000 H 
ATOM     80  C57 UNL A   1      32.241  23.217  23.514  1.00  0.00    +0.000 C 
ATOM     81  C58 UNL A   1      32.917  22.692  22.389  1.00  0.00    +0.000 C 
ATOM     82  C59 UNL A   1      33.277  23.527  21.332  1.00  0.00    +0.000 C 
ATOM     83  C60 UNL A   1      33.016  24.884  21.404  1.00  0.00    +0.000 C 
ATOM     84  C61 UNL A   1      32.369  25.430  22.517  1.00  0.00    +0.000 C 
ATOM     85  C62 UNL A   1      31.929  24.581  23.555  1.00  0.00    +0.000 C 
ATOM     86  N7  UNL A   1      31.163  24.808  24.710  1.00  0.00    +0.000 N 
BRANCH    2    1
ATOM      1  C1  UNL A   1      30.637  23.552  26.864  1.00  0.00    +0.000 C 
ATOM     98  H3  UNL A   1      29.571  23.624  26.817  1.00  0.00    +0.000 H 
ATOM     97  H2  UNL A   1      30.914  22.619  27.308  1.00  0.00    +0.000 H 
ATOM     96  H1  UNL A   1      31.023  24.358  27.454  1.00  0.00    +0.000 H 
ENDBRANCH    2    1
BRANCH   86   87
ATOM     87  C63 UNL A   1      30.451  25.993  25.066  1.00  0.00    +0.000 C 
ATOM     88  O3  UNL A   1      29.234  26.019  24.930  1.00  0.00    +0.000 O 
BRANCH   87   89
ATOM    133  H38 UNL A   1      31.396  26.503  27.560  1.00  0.00    +0.000 H 
ATOM    134  H39 UNL A   1      32.212  28.636  28.408  1.00  0.00    +0.000 H 
ATOM    135  H40 UNL A   1      31.831  30.320  24.569  1.00  0.00    +0.000 H 
ATOM    136  H41 UNL A   1      30.967  28.207  23.728  1.00  0.00    +0.000 H 
ATOM     89  C64 UNL A   1      31.045  27.229  25.603  1.00  0.00    +0.000 C 
ATOM     90  C65 UNL A   1      31.453  27.324  26.937  1.00  0.00    +0.000 C 
ATOM     91  C66 UNL A   1      31.939  28.544  27.417  1.00  0.00    +0.000 C 
ATOM     92  C67 UNL A   1      32.054  29.636  26.554  1.00  0.00    +0.000 C 
ATOM     93 Cl1  UNL A   1      32.607  31.148  27.160  1.00  0.00    +0.000 Cl
ATOM     94  C68 UNL A   1      31.713  29.517  25.206  1.00  0.00    +0.000 C 
ATOM     95  C69 UNL A   1      31.213  28.308  24.725  1.00  0.00    +0.000 C 
ENDBRANCH   87   89
ENDBRANCH   86   87
ENDBRANCH    4    3
ENDBRANCH    5    4
ENDBRANCH    7    5
ENDBRANCH    8    7
ENDBRANCH    9    8
ENDBRANCH   10    9
ENDBRANCH   11   10
ENDBRANCH   12   11
ENDBRANCH   13   12
ENDBRANCH   14   13
ENDBRANCH   15   14
ENDBRANCH   17   15
ENDBRANCH   21   20
BRANCH   25   26
ATOM     33  C25 UNL A   1      44.321  35.251  27.726  1.00  0.00    +0.000 C 
ATOM     34  F4  UNL A   1      43.440  36.250  27.873  1.00  0.00    +0.000 F 
ATOM     35  C26 UNL A   1      43.949  33.954  28.077  1.00  0.00    +0.000 C 
ATOM     36  F5  UNL A   1      42.726  33.838  28.604  1.00  0.00    +0.000 F 
ATOM     26  C21 UNL A   1      44.840  32.862  27.989  1.00  0.00    +0.000 C 
ATOM     27  C22 UNL A   1      46.123  33.167  27.491  1.00  0.00    +0.000 C 
ATOM     28  F1  UNL A   1      47.059  32.211  27.377  1.00  0.00    +0.000 F 
ATOM     29  C23 UNL A   1      46.508  34.476  27.187  1.00  0.00    +0.000 C 
ATOM     30  F2  UNL A   1      47.776  34.734  26.840  1.00  0.00    +0.000 F 
ATOM     31  C24 UNL A   1      45.608  35.519  27.314  1.00  0.00    +0.000 C 
ATOM     32  F3  UNL A   1      45.993  36.781  27.088  1.00  0.00    +0.000 F 
ENDBRANCH   25   26
BRANCH   42   43
ATOM     43  C32 UNL A   1      42.021  30.296  33.687  1.00  0.00    +0.000 C 
ATOM     44  C33 UNL A   1      41.644  28.951  33.527  1.00  0.00    +0.000 C 
ATOM     45  F6  UNL A   1      41.419  28.441  32.308  1.00  0.00    +0.000 F 
ATOM     46  C34 UNL A   1      41.554  28.091  34.622  1.00  0.00    +0.000 C 
ATOM     47  F7  UNL A   1      41.190  26.812  34.447  1.00  0.00    +0.000 F 
ATOM     48  C35 UNL A   1      41.883  28.545  35.890  1.00  0.00    +0.000 C 
ATOM     49  F8  UNL A   1      41.847  27.707  36.935  1.00  0.00    +0.000 F 
ATOM     50  C36 UNL A   1      42.280  29.861  36.067  1.00  0.00    +0.000 C 
ATOM     51  F9  UNL A   1      42.648  30.291  37.282  1.00  0.00    +0.000 F 
ATOM     52  C37 UNL A   1      42.335  30.730  34.982  1.00  0.00    +0.000 C 
ATOM     53  F10 UNL A   1      42.751  31.989  35.185  1.00  0.00    +0.000 F 
ENDBRANCH   42   43
BRANCH   57   58
ATOM     65  C45 UNL A   1      35.250  33.117  29.229  1.00  0.00    +0.000 C 
ATOM     66  F14 UNL A   1      35.008  33.651  28.024  1.00  0.00    +0.000 F 
ATOM     67  C46 UNL A   1      36.332  32.251  29.398  1.00  0.00    +0.000 C 
ATOM     68  F15 UNL A   1      37.102  32.021  28.326  1.00  0.00    +0.000 F 
ATOM     58  C41 UNL A   1      36.672  31.723  30.659  1.00  0.00    +0.000 C 
ATOM     59  C42 UNL A   1      35.837  32.082  31.731  1.00  0.00    +0.000 C 
ATOM     60  F11 UNL A   1      36.113  31.655  32.973  1.00  0.00    +0.000 F 
ATOM     61  C43 UNL A   1      34.755  32.952  31.561  1.00  0.00    +0.000 C 
ATOM     62  F12 UNL A   1      34.025  33.328  32.622  1.00  0.00    +0.000 F 
ATOM     63  C44 UNL A   1      34.472  33.480  30.313  1.00  0.00    +0.000 C 
ATOM     64  F13 UNL A   1      33.480  34.370  30.162  1.00  0.00    +0.000 F 
ENDBRANCH   57   58
TORSDOF 19
ENDMDL
MODEL 3
REMARK VINA RESULT:     -11.7      3.499      9.002
ROOT
ATOM     21  C17 UNL A   1      40.830  28.166  28.484  1.00  0.00    +0.000 C 
ATOM     22  C18 UNL A   1      41.926  29.048  27.996  1.00  0.00    +0.000 C 
ATOM     23  N3  UNL A   1      42.884  29.574  28.687  1.00  0.00    +0.000 N 
ATOM     24  C19 UNL A   1      43.645  30.315  27.787  1.00  0.00    +0.000 C 
ATOM     25  C20 UNL A   1      44.457  31.323  28.208  1.00  0.00    +0.000 C 
ATOM     37  C27 UNL A   1      44.766  31.194  29.608  1.00  0.00    +0.000 C 
ATOM     38  C28 UNL A   1      45.462  30.279  30.372  1.00  0.00    +0.000 C 
ATOM     39  C29 UNL A   1      44.753  30.211  31.608  1.00  0.00    +0.000 C 
ATOM     40  C30 UNL A   1      43.701  31.125  31.547  1.00  0.00    +0.000 C 
ATOM     41  N4  UNL A   1      44.032  31.938  30.496  1.00  0.00    +0.000 N 
ATOM     42  C31 UNL A   1      42.461  31.236  32.276  1.00  0.00    +0.000 C 
ATOM     54  C38 UNL A   1      41.365  31.927  31.848  1.00  0.00    +0.000 C 
ATOM     55  N5  UNL A   1      40.105  31.637  32.347  1.00  0.00    +0.000 N 
ATOM     56  C39 UNL A   1      39.286  31.990  31.396  1.00  0.00    +0.000 C 
ATOM     57  C40 UNL A   1      38.071  31.217  31.036  1.00  0.00    +0.000 C 
ATOM     69  C47 UNL A   1      38.498  30.041  30.508  1.00  0.00    +0.000 C 
ATOM     70  C48 UNL A   1      37.806  28.781  30.336  1.00  0.00    +0.000 C 
ATOM     71  C49 UNL A   1      38.636  27.913  29.720  1.00  0.00    +0.000 C 
ATOM     72  C50 UNL A   1      39.860  28.605  29.314  1.00  0.00    +0.000 C 
ATOM     73  N6  UNL A   1      39.761  29.842  29.916  1.00  0.00    +0.000 N 
ATOM     74  C51 UNL A   1      39.830  32.896  30.397  1.00  0.00    +0.000 C 
ATOM     75  C52 UNL A   1      41.129  32.757  30.670  1.00  0.00    +0.000 C 
ATOM     76  C53 UNL A   1      43.184  29.955  26.472  1.00  0.00    +0.000 C 
ATOM     77  C54 UNL A   1      42.066  29.233  26.543  1.00  0.00    +0.000 C 
ATOM    117  H22 UNL A   1      46.313  29.759  30.109  1.00  0.00    +0.000 H 
ATOM    118  H23 UNL A   1      44.977  29.594  32.404  1.00  0.00    +0.000 H 
ATOM    119  H24 UNL A   1      43.787  32.886  30.395  1.00  0.00    +0.000 H 
ATOM    120  H25 UNL A   1      36.839  28.580  30.635  1.00  0.00    +0.000 H 
ATOM    121  H26 UNL A   1      38.438  26.913  29.559  1.00  0.00    +0.000 H 
ATOM    122  H27 UNL A   1      40.487  30.508  29.930  1.00  0.00    +0.000 H 
ATOM    123  H28 UNL A   1      39.353  33.475  29.688  1.00  0.00    +0.000 H 
ATOM    124  H29 UNL A   1      41.882  33.188  30.112  1.00  0.00    +0.000 H 
ATOM    125  H30 UNL A   1      43.655  30.221  25.593  1.00  0.00    +0.000 H 
ATOM    126  H31 UNL A   1      41.458  28.893  25.782  1.00  0.00    +0.000 H 
ENDROOT
BRANCH   21   20
ATOM     78  C55 UNL A   1      40.233  26.462  26.772  1.00  0.00    +0.000 C 
ATOM     79  C56 UNL A   1      40.263  25.138  26.352  1.00  0.00    +0.000 C 
ATOM     17  C13 UNL A   1      40.953  24.155  27.088  1.00  0.00    +0.000 C 
ATOM     18  C14 UNL A   1      41.724  24.557  28.176  1.00  0.00    +0.000 C 
ATOM     19  C15 UNL A   1      41.672  25.872  28.621  1.00  0.00    +0.000 C 
ATOM    115  H20 UNL A   1      42.336  23.877  28.654  1.00  0.00    +0.000 H 
ATOM    116  H21 UNL A   1      42.220  26.158  29.447  1.00  0.00    +0.000 H 
ATOM     20  C16 UNL A   1      40.877  26.808  27.952  1.00  0.00    +0.000 C 
ATOM    127  H32 UNL A   1      39.739  27.177  26.217  1.00  0.00    +0.000 H 
ATOM    128  H33 UNL A   1      39.769  24.871  25.487  1.00  0.00    +0.000 H 
BRANCH   17   15
ATOM     15  C12 UNL A   1      40.703  22.747  26.675  1.00  0.00    +0.000 C 
ATOM     16  O2  UNL A   1      41.641  22.090  26.219  1.00  0.00    +0.000 O 
BRANCH   15   14
ATOM    114  H19 UNL A   1      39.202  21.857  27.582  1.00  0.00    +0.000 H 
ATOM     14  N2  UNL A   1      39.482  22.133  26.680  1.00  0.00    +0.000 N 
BRANCH   14   13
ATOM    113  H18 UNL A   1      37.893  21.013  26.068  1.00  0.00    +0.000 H 
ATOM     13  C11 UNL A   1      38.505  21.793  25.666  1.00  0.00    +0.000 C 
ATOM    112  H17 UNL A   1      39.027  21.488  24.783  1.00  0.00    +0.000 H 
BRANCH   13   12
ATOM     12  C10 UNL A   1      37.574  22.951  25.301  1.00  0.00    +0.000 C 
ATOM    110  H15 UNL A   1      38.093  23.869  25.482  1.00  0.00    +0.000 H 
ATOM    111  H16 UNL A   1      37.310  22.823  24.272  1.00  0.00    +0.000 H 
BRANCH   12   11
ATOM     11  C9  UNL A   1      36.263  22.974  26.095  1.00  0.00    +0.000 C 
ATOM    108  H13 UNL A   1      36.470  23.378  27.064  1.00  0.00    +0.000 H 
ATOM    109  H14 UNL A   1      35.579  23.565  25.524  1.00  0.00    +0.000 H 
BRANCH   11   10
ATOM     10  C8  UNL A   1      35.596  21.607  26.282  1.00  0.00    +0.000 C 
ATOM    107  H12 UNL A   1      36.279  21.014  26.854  1.00  0.00    +0.000 H 
ATOM    106  H11 UNL A   1      35.393  21.199  25.315  1.00  0.00    +0.000 H 
BRANCH   10    9
ATOM      9  C7  UNL A   1      34.283  21.637  27.073  1.00  0.00    +0.000 C 
ATOM    105  H10 UNL A   1      34.177  22.621  27.475  1.00  0.00    +0.000 H 
ATOM    104  H9  UNL A   1      34.331  20.891  27.840  1.00  0.00    +0.000 H 
BRANCH    9    8
ATOM    102  H7  UNL A   1      33.260  20.546  25.553  1.00  0.00    +0.000 H 
ATOM    103  H8  UNL A   1      32.231  21.133  26.856  1.00  0.00    +0.000 H 
ATOM      8  C6  UNL A   1      33.051  21.364  26.208  1.00  0.00    +0.000 C 
BRANCH    8    7
ATOM    101  H6  UNL A   1      32.057  23.148  25.833  1.00  0.00    +0.000 H 
ATOM      7  N1  UNL A   1      32.694  22.524  25.416  1.00  0.00    +0.000 N 
BRANCH    7    5
ATOM      5  C5  UNL A   1      33.127  22.862  24.166  1.00  0.00    +0.000 C 
ATOM      6  O1  UNL A   1      33.193  21.977  23.310  1.00  0.00    +0.000 O 
BRANCH    5    4
ATOM    100  H5  UNL A   1      33.754  24.349  22.822  1.00  0.00    +0.000 H 
ATOM     99  H4  UNL A   1      34.460  24.484  24.448  1.00  0.00    +0.000 H 
ATOM      4  C4  UNL A   1      33.578  24.285  23.875  1.00  0.00    +0.000 C 
BRANCH    4    3
ATOM    129  H34 UNL A   1      34.780  26.402  25.707  1.00  0.00    +0.000 H 
ATOM      2  C2  UNL A   1      31.222  25.367  23.800  1.00  0.00    +0.000 C 
ATOM      3  C3  UNL A   1      32.548  25.327  24.212  1.00  0.00    +0.000 C 
ATOM    132  H37 UNL A   1      30.541  28.729  26.164  1.00  0.00    +0.000 H 
ATOM    130  H35 UNL A   1      34.631  28.403  27.065  1.00  0.00    +0.000 H 
ATOM    131  H36 UNL A   1      32.519  29.537  27.315  1.00  0.00    +0.000 H 
ATOM     80  C57 UNL A   1      32.756  26.450  25.059  1.00  0.00    +0.000 C 
ATOM     81  C58 UNL A   1      33.885  26.911  25.775  1.00  0.00    +0.000 C 
ATOM     82  C59 UNL A   1      33.796  28.050  26.573  1.00  0.00    +0.000 C 
ATOM     83  C60 UNL A   1      32.585  28.705  26.707  1.00  0.00    +0.000 C 
ATOM     84  C61 UNL A   1      31.448  28.255  26.028  1.00  0.00    +0.000 C 
ATOM     85  C62 UNL A   1      31.549  27.151  25.154  1.00  0.00    +0.000 C 
ATOM     86  N7  UNL A   1      30.640  26.557  24.263  1.00  0.00    +0.000 N 
BRANCH    2    1
ATOM      1  C1  UNL A   1      30.479  24.375  22.957  1.00  0.00    +0.000 C 
ATOM     98  H3  UNL A   1      29.568  24.815  22.611  1.00  0.00    +0.000 H 
ATOM     97  H2  UNL A   1      31.083  24.096  22.120  1.00  0.00    +0.000 H 
ATOM     96  H1  UNL A   1      30.257  23.507  23.543  1.00  0.00    +0.000 H 
ENDBRANCH    2    1
BRANCH   86   87
ATOM     87  C63 UNL A   1      29.359  27.048  23.867  1.00  0.00    +0.000 C 
ATOM     88  O3  UNL A   1      28.358  26.410  24.171  1.00  0.00    +0.000 O 
BRANCH   87   89
ATOM    133  H38 UNL A   1      31.003  28.395  22.178  1.00  0.00    +0.000 H 
ATOM    134  H39 UNL A   1      30.554  30.529  21.092  1.00  0.00    +0.000 H 
ATOM    135  H40 UNL A   1      26.632  30.494  22.619  1.00  0.00    +0.000 H 
ATOM    136  H41 UNL A   1      27.090  28.389  23.749  1.00  0.00    +0.000 H 
ATOM     89  C64 UNL A   1      29.104  28.284  23.108  1.00  0.00    +0.000 C 
ATOM     90  C65 UNL A   1      30.090  28.861  22.302  1.00  0.00    +0.000 C 
ATOM     91  C66 UNL A   1      29.824  30.076  21.663  1.00  0.00    +0.000 C 
ATOM     92  C67 UNL A   1      28.570  30.675  21.801  1.00  0.00    +0.000 C 
ATOM     93 Cl1  UNL A   1      28.263  32.194  21.054  1.00  0.00    +0.000 Cl
ATOM     94  C68 UNL A   1      27.566  30.060  22.549  1.00  0.00    +0.000 C 
ATOM     95  C69 UNL A   1      27.830  28.857  23.201  1.00  0.00    +0.000 C 
ENDBRANCH   87   89
ENDBRANCH   86   87
ENDBRANCH    4    3
ENDBRANCH    5    4
ENDBRANCH    7    5
ENDBRANCH    8    7
ENDBRANCH    9    8
ENDBRANCH   10    9
ENDBRANCH   11   10
ENDBRANCH   12   11
ENDBRANCH   13   12
ENDBRANCH   14   13
ENDBRANCH   15   14
ENDBRANCH   17   15
ENDBRANCH   21   20
BRANCH   25   26
ATOM     33  C25 UNL A   1      44.333  35.043  27.245  1.00  0.00    +0.000 C 
ATOM     34  F4  UNL A   1      43.598  36.125  27.541  1.00  0.00    +0.000 F 
ATOM     35  C26 UNL A   1      43.919  33.790  27.694  1.00  0.00    +0.000 C 
ATOM     36  F5  UNL A   1      42.822  33.797  28.458  1.00  0.00    +0.000 F 
ATOM     26  C21 UNL A   1      44.666  32.616  27.457  1.00  0.00    +0.000 C 
ATOM     27  C22 UNL A   1      45.846  32.792  26.704  1.00  0.00    +0.000 C 
ATOM     28  F1  UNL A   1      46.645  31.750  26.428  1.00  0.00    +0.000 F 
ATOM     29  C23 UNL A   1      46.284  34.057  26.298  1.00  0.00    +0.000 C 
ATOM     30  F2  UNL A   1      47.475  34.188  25.698  1.00  0.00    +0.000 F 
ATOM     31  C24 UNL A   1      45.531  35.183  26.578  1.00  0.00    +0.000 C 
ATOM     32  F3  UNL A   1      45.979  36.401  26.248  1.00  0.00    +0.000 F 
ENDBRANCH   25   26
BRANCH   42   43
ATOM     43  C32 UNL A   1      42.297  30.338  33.473  1.00  0.00    +0.000 C 
ATOM     44  C33 UNL A   1      42.437  30.774  34.802  1.00  0.00    +0.000 C 
ATOM     45  F6  UNL A   1      42.788  32.038  35.077  1.00  0.00    +0.000 F 
ATOM     46  C34 UNL A   1      42.155  29.926  35.873  1.00  0.00    +0.000 C 
ATOM     47  F7  UNL A   1      42.299  30.362  37.134  1.00  0.00    +0.000 F 
ATOM     48  C35 UNL A   1      41.684  28.644  35.638  1.00  0.00    +0.000 C 
ATOM     49  F8  UNL A   1      41.363  27.846  36.666  1.00  0.00    +0.000 F 
ATOM     50  C36 UNL A   1      41.515  28.202  34.336  1.00  0.00    +0.000 C 
ATOM     51  F9  UNL A   1      41.012  26.981  34.104  1.00  0.00    +0.000 F 
ATOM     52  C37 UNL A   1      41.831  29.033  33.266  1.00  0.00    +0.000 C 
ATOM     53  F10 UNL A   1      41.628  28.583  32.018  1.00  0.00    +0.000 F 
ENDBRANCH   42   43
BRANCH   57   58
ATOM     65  C45 UNL A   1      35.324  33.455  29.683  1.00  0.00    +0.000 C 
ATOM     66  F14 UNL A   1      35.076  34.149  28.564  1.00  0.00    +0.000 F 
ATOM     67  C46 UNL A   1      36.397  32.563  29.720  1.00  0.00    +0.000 C 
ATOM     68  F15 UNL A   1      37.153  32.472  28.617  1.00  0.00    +0.000 F 
ATOM     58  C41 UNL A   1      36.745  31.866  30.893  1.00  0.00    +0.000 C 
ATOM     59  C42 UNL A   1      35.926  32.085  32.015  1.00  0.00    +0.000 C 
ATOM     60  F11 UNL A   1      36.209  31.491  33.184  1.00  0.00    +0.000 F 
ATOM     61  C43 UNL A   1      34.851  32.981  31.977  1.00  0.00    +0.000 C 
ATOM     62  F12 UNL A   1      34.137  33.217  33.087  1.00  0.00    +0.000 F 
ATOM     63  C44 UNL A   1      34.561  33.676  30.815  1.00  0.00    +0.000 C 
ATOM     64  F13 UNL A   1      33.578  34.588  30.798  1.00  0.00    +0.000 F 
ENDBRANCH   57   58
TORSDOF 19
ENDMDL
MODEL 4
REMARK VINA RESULT:     -11.7      1.235      1.792
ROOT
ATOM     21  C17 UNL A   1      40.056  28.616  29.910  1.00  0.00    +0.000 C 
ATOM     22  C18 UNL A   1      40.584  28.449  31.293  1.00  0.00    +0.000 C 
ATOM     23  N3  UNL A   1      41.735  28.822  31.750  1.00  0.00    +0.000 N 
ATOM     24  C19 UNL A   1      41.758  28.441  33.088  1.00  0.00    +0.000 C 
ATOM     25  C20 UNL A   1      42.932  28.285  33.759  1.00  0.00    +0.000 C 
ATOM     37  C27 UNL A   1      44.005  28.985  33.102  1.00  0.00    +0.000 C 
ATOM     38  C28 UNL A   1      44.295  30.310  32.851  1.00  0.00    +0.000 C 
ATOM     39  C29 UNL A   1      44.922  30.317  31.570  1.00  0.00    +0.000 C 
ATOM     40  C30 UNL A   1      45.028  28.995  31.139  1.00  0.00    +0.000 C 
ATOM     41  N4  UNL A   1      44.830  28.261  32.279  1.00  0.00    +0.000 N 
ATOM     42  C31 UNL A   1      45.195  28.404  29.834  1.00  0.00    +0.000 C 
ATOM     54  C38 UNL A   1      44.886  27.113  29.519  1.00  0.00    +0.000 C 
ATOM     55  N5  UNL A   1      44.646  26.742  28.205  1.00  0.00    +0.000 N 
ATOM     56  C39 UNL A   1      43.854  25.710  28.295  1.00  0.00    +0.000 C 
ATOM     57  C40 UNL A   1      42.718  25.471  27.369  1.00  0.00    +0.000 C 
ATOM     69  C47 UNL A   1      41.805  26.447  27.611  1.00  0.00    +0.000 C 
ATOM     70  C48 UNL A   1      40.714  26.937  26.796  1.00  0.00    +0.000 C 
ATOM     71  C49 UNL A   1      40.055  27.892  27.485  1.00  0.00    +0.000 C 
ATOM     72  C50 UNL A   1      40.580  27.967  28.849  1.00  0.00    +0.000 C 
ATOM     73  N6  UNL A   1      41.698  27.159  28.822  1.00  0.00    +0.000 N 
ATOM     74  C51 UNL A   1      43.823  25.047  29.588  1.00  0.00    +0.000 C 
ATOM     75  C52 UNL A   1      44.404  25.996  30.326  1.00  0.00    +0.000 C 
ATOM     76  C53 UNL A   1      40.415  28.045  33.422  1.00  0.00    +0.000 C 
ATOM     77  C54 UNL A   1      39.662  27.954  32.326  1.00  0.00    +0.000 C 
ATOM    117  H22 UNL A   1      44.102  31.122  33.459  1.00  0.00    +0.000 H 
ATOM    118  H23 UNL A   1      45.239  31.152  31.053  1.00  0.00    +0.000 H 
ATOM    119  H24 UNL A   1      45.210  27.374  32.472  1.00  0.00    +0.000 H 
ATOM    120  H25 UNL A   1      40.480  26.611  25.845  1.00  0.00    +0.000 H 
ATOM    121  H26 UNL A   1      39.294  28.479  27.108  1.00  0.00    +0.000 H 
ATOM    122  H27 UNL A   1      42.344  27.089  29.563  1.00  0.00    +0.000 H 
ATOM    123  H28 UNL A   1      43.460  24.119  29.856  1.00  0.00    +0.000 H 
ATOM    124  H29 UNL A   1      44.501  25.945  31.352  1.00  0.00    +0.000 H 
ATOM    125  H30 UNL A   1      40.081  27.858  34.381  1.00  0.00    +0.000 H 
ATOM    126  H31 UNL A   1      38.688  27.625  32.229  1.00  0.00    +0.000 H 
ENDROOT
BRANCH   21   20
ATOM     78  C55 UNL A   1      39.048  30.879  29.674  1.00  0.00    +0.000 C 
ATOM     79  C56 UNL A   1      37.912  31.678  29.654  1.00  0.00    +0.000 C 
ATOM     17  C13 UNL A   1      36.624  31.117  29.753  1.00  0.00    +0.000 C 
ATOM     18  C14 UNL A   1      36.499  29.730  29.732  1.00  0.00    +0.000 C 
ATOM     19  C15 UNL A   1      37.631  28.925  29.786  1.00  0.00    +0.000 C 
ATOM    115  H20 UNL A   1      35.563  29.297  29.679  1.00  0.00    +0.000 H 
ATOM    116  H21 UNL A   1      37.532  27.899  29.803  1.00  0.00    +0.000 H 
ATOM     20  C16 UNL A   1      38.903  29.505  29.817  1.00  0.00    +0.000 C 
ATOM    127  H32 UNL A   1      39.986  31.298  29.583  1.00  0.00    +0.000 H 
ATOM    128  H33 UNL A   1      38.015  32.700  29.568  1.00  0.00    +0.000 H 
BRANCH   17   15
ATOM     15  C12 UNL A   1      35.515  32.084  29.972  1.00  0.00    +0.000 C 
ATOM     16  O2  UNL A   1      35.560  32.818  30.962  1.00  0.00    +0.000 O 
BRANCH   15   14
ATOM    114  H19 UNL A   1      33.580  32.351  29.736  1.00  0.00    +0.000 H 
ATOM     14  N2  UNL A   1      34.389  32.177  29.203  1.00  0.00    +0.000 N 
BRANCH   14   13
ATOM    113  H18 UNL A   1      35.050  31.974  27.285  1.00  0.00    +0.000 H 
ATOM     13  C11 UNL A   1      34.110  32.080  27.784  1.00  0.00    +0.000 C 
ATOM    112  H17 UNL A   1      33.585  32.962  27.483  1.00  0.00    +0.000 H 
BRANCH   13   12
ATOM     12  C10 UNL A   1      33.263  30.862  27.410  1.00  0.00    +0.000 C 
ATOM    110  H15 UNL A   1      32.627  30.628  28.238  1.00  0.00    +0.000 H 
ATOM    111  H16 UNL A   1      32.714  31.127  26.531  1.00  0.00    +0.000 H 
BRANCH   12   11
ATOM     11  C9  UNL A   1      34.082  29.615  27.061  1.00  0.00    +0.000 C 
ATOM    108  H13 UNL A   1      34.546  29.777  26.112  1.00  0.00    +0.000 H 
ATOM    109  H14 UNL A   1      34.781  29.483  27.860  1.00  0.00    +0.000 H 
BRANCH   11   10
ATOM     10  C8  UNL A   1      33.276  28.314  26.979  1.00  0.00    +0.000 C 
ATOM    107  H12 UNL A   1      32.249  28.600  26.888  1.00  0.00    +0.000 H 
ATOM    106  H11 UNL A   1      33.476  27.740  27.860  1.00  0.00    +0.000 H 
BRANCH   10    9
ATOM      9  C7  UNL A   1      33.591  27.440  25.759  1.00  0.00    +0.000 C 
ATOM    105  H10 UNL A   1      32.858  26.662  25.728  1.00  0.00    +0.000 H 
ATOM    104  H9  UNL A   1      34.584  27.053  25.865  1.00  0.00    +0.000 H 
BRANCH    9    8
ATOM    102  H7  UNL A   1      34.137  29.058  24.483  1.00  0.00    +0.000 H 
ATOM    103  H8  UNL A   1      33.816  27.541  23.649  1.00  0.00    +0.000 H 
ATOM      8  C6  UNL A   1      33.504  28.198  24.434  1.00  0.00    +0.000 C 
BRANCH    8    7
ATOM    101  H6  UNL A   1      31.673  29.059  24.903  1.00  0.00    +0.000 H 
ATOM      7  N1  UNL A   1      32.147  28.626  24.157  1.00  0.00    +0.000 N 
BRANCH    7    5
ATOM      5  C5  UNL A   1      31.442  28.505  22.994  1.00  0.00    +0.000 C 
ATOM      6  O1  UNL A   1      31.524  29.411  22.162  1.00  0.00    +0.000 O 
BRANCH    5    4
ATOM    100  H5  UNL A   1      30.397  27.201  21.720  1.00  0.00    +0.000 H 
ATOM     99  H4  UNL A   1      29.607  27.488  23.287  1.00  0.00    +0.000 H 
ATOM      4  C4  UNL A   1      30.530  27.306  22.777  1.00  0.00    +0.000 C 
BRANCH    4    3
ATOM    129  H34 UNL A   1      29.180  26.496  25.384  1.00  0.00    +0.000 H 
ATOM      2  C2  UNL A   1      32.116  25.255  22.700  1.00  0.00    +0.000 C 
ATOM      3  C3  UNL A   1      31.104  26.011  23.279  1.00  0.00    +0.000 C 
ATOM    132  H37 UNL A   1      32.055  22.618  25.925  1.00  0.00    +0.000 H 
ATOM    130  H35 UNL A   1      28.906  25.037  27.299  1.00  0.00    +0.000 H 
ATOM    131  H36 UNL A   1      30.355  23.131  27.581  1.00  0.00    +0.000 H 
ATOM     80  C57 UNL A   1      30.723  25.350  24.479  1.00  0.00    +0.000 C 
ATOM     81  C58 UNL A   1      29.771  25.656  25.478  1.00  0.00    +0.000 C 
ATOM     82  C59 UNL A   1      29.627  24.829  26.591  1.00  0.00    +0.000 C 
ATOM     83  C60 UNL A   1      30.453  23.730  26.745  1.00  0.00    +0.000 C 
ATOM     84  C61 UNL A   1      31.418  23.419  25.782  1.00  0.00    +0.000 C 
ATOM     85  C62 UNL A   1      31.516  24.204  24.614  1.00  0.00    +0.000 C 
ATOM     86  N7  UNL A   1      32.279  24.074  23.441  1.00  0.00    +0.000 N 
BRANCH    2    1
ATOM      1  C1  UNL A   1      32.909  25.553  21.464  1.00  0.00    +0.000 C 
ATOM     98  H3  UNL A   1      33.720  24.861  21.387  1.00  0.00    +0.000 H 
ATOM     97  H2  UNL A   1      32.278  25.463  20.606  1.00  0.00    +0.000 H 
ATOM     96  H1  UNL A   1      33.295  26.550  21.521  1.00  0.00    +0.000 H 
ENDBRANCH    2    1
BRANCH   86   87
ATOM     87  C63 UNL A   1      33.075  22.960  23.037  1.00  0.00    +0.000 C 
ATOM     88  O3  UNL A   1      32.684  22.253  22.115  1.00  0.00    +0.000 O 
BRANCH   87   89
ATOM    133  H38 UNL A   1      33.617  20.938  24.765  1.00  0.00    +0.000 H 
ATOM    134  H39 UNL A   1      35.757  20.450  25.822  1.00  0.00    +0.000 H 
ATOM    135  H40 UNL A   1      37.587  23.474  23.537  1.00  0.00    +0.000 H 
ATOM    136  H41 UNL A   1      35.443  24.000  22.516  1.00  0.00    +0.000 H 
ATOM     89  C64 UNL A   1      34.363  22.559  23.627  1.00  0.00    +0.000 C 
ATOM     90  C65 UNL A   1      34.452  21.499  24.534  1.00  0.00    +0.000 C 
ATOM     91  C66 UNL A   1      35.685  21.209  25.126  1.00  0.00    +0.000 C 
ATOM     92  C67 UNL A   1      36.817  21.946  24.773  1.00  0.00    +0.000 C 
ATOM     93 Cl1  UNL A   1      38.322  21.616  25.539  1.00  0.00    +0.000 Cl
ATOM     94  C68 UNL A   1      36.738  22.956  23.814  1.00  0.00    +0.000 C 
ATOM     95  C69 UNL A   1      35.509  23.261  23.233  1.00  0.00    +0.000 C 
ENDBRANCH   87   89
ENDBRANCH   86   87
ENDBRANCH    4    3
ENDBRANCH    5    4
ENDBRANCH    7    5
ENDBRANCH    8    7
ENDBRANCH    9    8
ENDBRANCH   10    9
ENDBRANCH   11   10
ENDBRANCH   12   11
ENDBRANCH   13   12
ENDBRANCH   14   13
ENDBRANCH   15   14
ENDBRANCH   17   15
ENDBRANCH   21   20
BRANCH   25   26
ATOM     33  C25 UNL A   1      44.083  25.000  35.394  1.00  0.00    +0.000 C 
ATOM     34  F4  UNL A   1      44.428  23.764  35.008  1.00  0.00    +0.000 F 
ATOM     35  C26 UNL A   1      43.533  25.880  34.462  1.00  0.00    +0.000 C 
ATOM     36  F5  UNL A   1      43.459  25.408  33.213  1.00  0.00    +0.000 F 
ATOM     26  C21 UNL A   1      43.188  27.209  34.788  1.00  0.00    +0.000 C 
ATOM     27  C22 UNL A   1      43.406  27.578  36.132  1.00  0.00    +0.000 C 
ATOM     28  F1  UNL A   1      43.128  28.822  36.554  1.00  0.00    +0.000 F 
ATOM     29  C23 UNL A   1      44.003  26.710  37.050  1.00  0.00    +0.000 C 
ATOM     30  F2  UNL A   1      44.309  27.149  38.279  1.00  0.00    +0.000 F 
ATOM     31  C24 UNL A   1      44.350  25.424  36.677  1.00  0.00    +0.000 C 
ATOM     32  F3  UNL A   1      44.981  24.613  37.535  1.00  0.00    +0.000 F 
ENDBRANCH   25   26
BRANCH   42   43
ATOM     43  C32 UNL A   1      45.511  29.342  28.701  1.00  0.00    +0.000 C 
ATOM     44  C33 UNL A   1      44.539  30.077  28.000  1.00  0.00    +0.000 C 
ATOM     45  F6  UNL A   1      43.236  29.932  28.278  1.00  0.00    +0.000 F 
ATOM     46  C34 UNL A   1      44.901  31.022  27.040  1.00  0.00    +0.000 C 
ATOM     47  F7  UNL A   1      43.957  31.709  26.380  1.00  0.00    +0.000 F 
ATOM     48  C35 UNL A   1      46.240  31.285  26.796  1.00  0.00    +0.000 C 
ATOM     49  F8  UNL A   1      46.590  32.229  25.911  1.00  0.00    +0.000 F 
ATOM     50  C36 UNL A   1      47.215  30.590  27.493  1.00  0.00    +0.000 C 
ATOM     51  F9  UNL A   1      48.510  30.877  27.297  1.00  0.00    +0.000 F 
ATOM     52  C37 UNL A   1      46.856  29.620  28.424  1.00  0.00    +0.000 C 
ATOM     53  F10 UNL A   1      47.826  28.988  29.102  1.00  0.00    +0.000 F 
ENDBRANCH   42   43
BRANCH   57   58
ATOM     65  C45 UNL A   1      41.758  21.836  26.864  1.00  0.00    +0.000 C 
ATOM     66  F14 UNL A   1      41.014  20.914  27.490  1.00  0.00    +0.000 F 
ATOM     67  C46 UNL A   1      41.699  23.168  27.277  1.00  0.00    +0.000 C 
ATOM     68  F15 UNL A   1      40.905  23.450  28.319  1.00  0.00    +0.000 F 
ATOM     58  C41 UNL A   1      42.515  24.162  26.701  1.00  0.00    +0.000 C 
ATOM     59  C42 UNL A   1      43.362  23.747  25.659  1.00  0.00    +0.000 C 
ATOM     60  F11 UNL A   1      44.201  24.621  25.083  1.00  0.00    +0.000 F 
ATOM     61  C43 UNL A   1      43.422  22.410  25.248  1.00  0.00    +0.000 C 
ATOM     62  F12 UNL A   1      44.295  22.040  24.299  1.00  0.00    +0.000 F 
ATOM     63  C44 UNL A   1      42.630  21.454  25.861  1.00  0.00    +0.000 C 
ATOM     64  F13 UNL A   1      42.739  20.163  25.518  1.00  0.00    +0.000 F 
ENDBRANCH   57   58
TORSDOF 19
ENDMDL
MODEL 5
REMARK VINA RESULT:     -11.6      4.377      7.531
ROOT
ATOM     21  C17 UNL A   1      39.948  28.902  29.189  1.00  0.00    +0.000 C 
ATOM     22  C18 UNL A   1      40.313  28.714  30.620  1.00  0.00    +0.000 C 
ATOM     23  N3  UNL A   1      41.338  29.198  31.245  1.00  0.00    +0.000 N 
ATOM     24  C19 UNL A   1      41.240  28.738  32.555  1.00  0.00    +0.000 C 
ATOM     25  C20 UNL A   1      42.330  28.686  33.370  1.00  0.00    +0.000 C 
ATOM     37  C27 UNL A   1      43.377  29.553  32.895  1.00  0.00    +0.000 C 
ATOM     38  C28 UNL A   1      43.520  30.918  32.748  1.00  0.00    +0.000 C 
ATOM     39  C29 UNL A   1      44.298  31.083  31.564  1.00  0.00    +0.000 C 
ATOM     40  C30 UNL A   1      44.631  29.814  31.091  1.00  0.00    +0.000 C 
ATOM     41  N4  UNL A   1      44.387  28.991  32.158  1.00  0.00    +0.000 N 
ATOM     42  C31 UNL A   1      45.038  29.332  29.794  1.00  0.00    +0.000 C 
ATOM     54  C38 UNL A   1      44.944  28.035  29.380  1.00  0.00    +0.000 C 
ATOM     55  N5  UNL A   1      44.923  27.722  28.030  1.00  0.00    +0.000 N 
ATOM     56  C39 UNL A   1      44.269  26.596  27.965  1.00  0.00    +0.000 C 
ATOM     57  C40 UNL A   1      43.300  26.278  26.885  1.00  0.00    +0.000 C 
ATOM     69  C47 UNL A   1      42.245  27.116  27.047  1.00  0.00    +0.000 C 
ATOM     70  C48 UNL A   1      41.212  27.518  26.116  1.00  0.00    +0.000 C 
ATOM     71  C49 UNL A   1      40.350  28.338  26.754  1.00  0.00    +0.000 C 
ATOM     72  C50 UNL A   1      40.684  28.391  28.179  1.00  0.00    +0.000 C 
ATOM     73  N6  UNL A   1      41.892  27.731  28.265  1.00  0.00    +0.000 N 
ATOM     74  C51 UNL A   1      44.160  25.854  29.210  1.00  0.00    +0.000 C 
ATOM     75  C52 UNL A   1      44.513  26.818  30.062  1.00  0.00    +0.000 C 
ATOM     76  C53 UNL A   1      39.929  28.159  32.687  1.00  0.00    +0.000 C 
ATOM     77  C54 UNL A   1      39.339  28.045  31.497  1.00  0.00    +0.000 C 
ATOM    117  H22 UNL A   1      43.147  31.659  33.361  1.00  0.00    +0.000 H 
ATOM    118  H23 UNL A   1      44.567  31.982  31.134  1.00  0.00    +0.000 H 
ATOM    119  H24 UNL A   1      44.852  28.148  32.360  1.00  0.00    +0.000 H 
ATOM    120  H25 UNL A   1      41.145  27.227  25.128  1.00  0.00    +0.000 H 
ATOM    121  H26 UNL A   1      39.574  28.850  26.307  1.00  0.00    +0.000 H 
ATOM    122  H27 UNL A   1      42.442  27.694  29.081  1.00  0.00    +0.000 H 
ATOM    123  H28 UNL A   1      43.891  24.873  29.383  1.00  0.00    +0.000 H 
ATOM    124  H29 UNL A   1      44.485  26.715  31.089  1.00  0.00    +0.000 H 
ATOM    125  H30 UNL A   1      39.503  27.871  33.582  1.00  0.00    +0.000 H 
ATOM    126  H31 UNL A   1      38.438  27.605  31.254  1.00  0.00    +0.000 H 
ENDROOT
BRANCH   21   20
ATOM     78  C55 UNL A   1      37.498  29.004  28.764  1.00  0.00    +0.000 C 
ATOM     79  C56 UNL A   1      36.367  29.769  28.512  1.00  0.00    +0.000 C 
ATOM     17  C13 UNL A   1      36.425  31.176  28.501  1.00  0.00    +0.000 C 
ATOM     18  C14 UNL A   1      37.613  31.796  28.882  1.00  0.00    +0.000 C 
ATOM     19  C15 UNL A   1      38.757  31.038  29.102  1.00  0.00    +0.000 C 
ATOM    115  H20 UNL A   1      37.644  32.820  29.001  1.00  0.00    +0.000 H 
ATOM    116  H21 UNL A   1      39.642  31.504  29.354  1.00  0.00    +0.000 H 
ATOM     20  C16 UNL A   1      38.710  29.646  28.983  1.00  0.00    +0.000 C 
ATOM    127  H32 UNL A   1      37.441  27.974  28.788  1.00  0.00    +0.000 H 
ATOM    128  H33 UNL A   1      35.468  29.297  28.330  1.00  0.00    +0.000 H 
BRANCH   17   15
ATOM     15  C12 UNL A   1      35.216  31.867  27.976  1.00  0.00    +0.000 C 
ATOM     16  O2  UNL A   1      34.406  31.216  27.312  1.00  0.00    +0.000 O 
BRANCH   15   14
ATOM    114  H19 UNL A   1      35.778  33.749  28.071  1.00  0.00    +0.000 H 
ATOM     14  N2  UNL A   1      34.959  33.204  28.098  1.00  0.00    +0.000 N 
BRANCH   14   13
ATOM    113  H18 UNL A   1      32.927  33.340  28.178  1.00  0.00    +0.000 H 
ATOM     13  C11 UNL A   1      33.762  34.004  28.256  1.00  0.00    +0.000 C 
ATOM    112  H17 UNL A   1      33.757  34.757  27.496  1.00  0.00    +0.000 H 
BRANCH   13   12
ATOM     12  C10 UNL A   1      33.662  34.692  29.619  1.00  0.00    +0.000 C 
ATOM    110  H15 UNL A   1      32.990  34.129  30.231  1.00  0.00    +0.000 H 
ATOM    111  H16 UNL A   1      34.653  34.728  30.020  1.00  0.00    +0.000 H 
BRANCH   12   11
ATOM     11  C9  UNL A   1      33.158  36.138  29.553  1.00  0.00    +0.000 C 
ATOM    108  H13 UNL A   1      33.780  36.676  28.869  1.00  0.00    +0.000 H 
ATOM    109  H14 UNL A   1      32.135  36.084  29.247  1.00  0.00    +0.000 H 
BRANCH   11   10
ATOM     10  C8  UNL A   1      33.166  36.887  30.891  1.00  0.00    +0.000 C 
ATOM    107  H12 UNL A   1      32.278  37.484  30.908  1.00  0.00    +0.000 H 
ATOM    106  H11 UNL A   1      34.063  37.467  30.943  1.00  0.00    +0.000 H 
BRANCH   10    9
ATOM      9  C7  UNL A   1      33.106  35.987  32.131  1.00  0.00    +0.000 C 
ATOM    105  H10 UNL A   1      33.226  34.979  31.797  1.00  0.00    +0.000 H 
ATOM    104  H9  UNL A   1      32.165  36.141  32.618  1.00  0.00    +0.000 H 
BRANCH    9    8
ATOM    102  H7  UNL A   1      34.555  37.278  33.016  1.00  0.00    +0.000 H 
ATOM    103  H8  UNL A   1      33.838  36.109  34.121  1.00  0.00    +0.000 H 
ATOM      8  C6  UNL A   1      34.224  36.268  33.135  1.00  0.00    +0.000 C 
BRANCH    8    7
ATOM    101  H6  UNL A   1      36.208  35.811  32.726  1.00  0.00    +0.000 H 
ATOM      7  N1  UNL A   1      35.350  35.377  32.938  1.00  0.00    +0.000 N 
BRANCH    7    5
ATOM      5  C5  UNL A   1      35.373  34.014  33.008  1.00  0.00    +0.000 C 
ATOM      6  O1  UNL A   1      34.814  33.466  33.961  1.00  0.00    +0.000 O 
BRANCH    5    4
ATOM    100  H5  UNL A   1      36.033  33.730  31.034  1.00  0.00    +0.000 H 
ATOM     99  H4  UNL A   1      35.716  32.225  31.926  1.00  0.00    +0.000 H 
ATOM      4  C4  UNL A   1      36.133  33.210  31.963  1.00  0.00    +0.000 C 
BRANCH    4    3
ATOM    129  H34 UNL A   1      36.617  31.222  34.219  1.00  0.00    +0.000 H 
ATOM      2  C2  UNL A   1      38.641  33.774  31.620  1.00  0.00    +0.000 C 
ATOM      3  C3  UNL A   1      37.605  33.092  32.244  1.00  0.00    +0.000 C 
ATOM    132  H37 UNL A   1      41.402  32.062  34.228  1.00  0.00    +0.000 H 
ATOM    130  H35 UNL A   1      38.057  30.039  35.768  1.00  0.00    +0.000 H 
ATOM    131  H36 UNL A   1      40.427  30.481  35.791  1.00  0.00    +0.000 H 
ATOM     80  C57 UNL A   1      38.190  32.270  33.247  1.00  0.00    +0.000 C 
ATOM     81  C58 UNL A   1      37.636  31.380  34.196  1.00  0.00    +0.000 C 
ATOM     82  C59 UNL A   1      38.461  30.714  35.101  1.00  0.00    +0.000 C 
ATOM     83  C60 UNL A   1      39.823  30.962  35.105  1.00  0.00    +0.000 C 
ATOM     84  C61 UNL A   1      40.391  31.855  34.192  1.00  0.00    +0.000 C 
ATOM     85  C62 UNL A   1      39.575  32.472  33.220  1.00  0.00    +0.000 C 
ATOM     86  N7  UNL A   1      39.863  33.297  32.120  1.00  0.00    +0.000 N 
BRANCH    2    1
ATOM      1  C1  UNL A   1      38.555  34.816  30.547  1.00  0.00    +0.000 C 
ATOM     98  H3  UNL A   1      39.016  34.448  29.655  1.00  0.00    +0.000 H 
ATOM     97  H2  UNL A   1      37.529  35.044  30.352  1.00  0.00    +0.000 H 
ATOM     96  H1  UNL A   1      39.062  35.702  30.871  1.00  0.00    +0.000 H 
ENDBRANCH    2    1
BRANCH   86   87
ATOM     87  C63 UNL A   1      41.145  33.607  31.574  1.00  0.00    +0.000 C 
ATOM     88  O3  UNL A   1      41.565  32.947  30.630  1.00  0.00    +0.000 O 
BRANCH   87   89
ATOM    133  H38 UNL A   1      41.370  34.712  34.043  1.00  0.00    +0.000 H 
ATOM    134  H39 UNL A   1      42.777  36.597  34.680  1.00  0.00    +0.000 H 
ATOM    135  H40 UNL A   1      44.477  36.643  30.830  1.00  0.00    +0.000 H 
ATOM    136  H41 UNL A   1      43.039  34.795  30.172  1.00  0.00    +0.000 H 
ATOM     89  C64 UNL A   1      42.046  34.676  32.037  1.00  0.00    +0.000 C 
ATOM     90  C65 UNL A   1      42.002  35.148  33.352  1.00  0.00    +0.000 C 
ATOM     91  C66 UNL A   1      42.823  36.217  33.722  1.00  0.00    +0.000 C 
ATOM     92  C67 UNL A   1      43.707  36.770  32.792  1.00  0.00    +0.000 C 
ATOM     93 Cl1  UNL A   1      44.681  38.116  33.237  1.00  0.00    +0.000 Cl
ATOM     94  C68 UNL A   1      43.799  36.249  31.501  1.00  0.00    +0.000 C 
ATOM     95  C69 UNL A   1      42.971  35.194  31.122  1.00  0.00    +0.000 C 
ENDBRANCH   87   89
ENDBRANCH   86   87
ENDBRANCH    4    3
ENDBRANCH    5    4
ENDBRANCH    7    5
ENDBRANCH    8    7
ENDBRANCH    9    8
ENDBRANCH   10    9
ENDBRANCH   11   10
ENDBRANCH   12   11
ENDBRANCH   13   12
ENDBRANCH   14   13
ENDBRANCH   15   14
ENDBRANCH   17   15
ENDBRANCH   21   20
BRANCH   25   26
ATOM     33  C25 UNL A   1      42.037  26.434  36.472  1.00  0.00    +0.000 C 
ATOM     34  F4  UNL A   1      41.489  26.489  37.694  1.00  0.00    +0.000 F 
ATOM     35  C26 UNL A   1      42.069  27.584  35.684  1.00  0.00    +0.000 C 
ATOM     36  F5  UNL A   1      41.473  28.654  36.219  1.00  0.00    +0.000 F 
ATOM     26  C21 UNL A   1      42.590  27.587  34.372  1.00  0.00    +0.000 C 
ATOM     27  C22 UNL A   1      43.107  26.354  33.923  1.00  0.00    +0.000 C 
ATOM     28  F1  UNL A   1      43.616  26.233  32.687  1.00  0.00    +0.000 F 
ATOM     29  C23 UNL A   1      43.027  25.192  34.697  1.00  0.00    +0.000 C 
ATOM     30  F2  UNL A   1      43.413  24.018  34.178  1.00  0.00    +0.000 F 
ATOM     31  C24 UNL A   1      42.483  25.232  35.968  1.00  0.00    +0.000 C 
ATOM     32  F3  UNL A   1      42.345  24.109  36.685  1.00  0.00    +0.000 F 
ENDBRANCH   25   26
BRANCH   42   43
ATOM     43  C32 UNL A   1      45.371  30.373  28.759  1.00  0.00    +0.000 C 
ATOM     44  C33 UNL A   1      44.409  31.014  27.959  1.00  0.00    +0.000 C 
ATOM     45  F6  UNL A   1      43.113  30.681  28.042  1.00  0.00    +0.000 F 
ATOM     46  C34 UNL A   1      44.762  32.056  27.101  1.00  0.00    +0.000 C 
ATOM     47  F7  UNL A   1      43.829  32.651  26.344  1.00  0.00    +0.000 F 
ATOM     48  C35 UNL A   1      46.072  32.508  27.061  1.00  0.00    +0.000 C 
ATOM     49  F8  UNL A   1      46.403  33.543  26.277  1.00  0.00    +0.000 F 
ATOM     50  C36 UNL A   1      47.031  31.907  27.860  1.00  0.00    +0.000 C 
ATOM     51  F9  UNL A   1      48.288  32.374  27.862  1.00  0.00    +0.000 F 
ATOM     52  C37 UNL A   1      46.688  30.843  28.688  1.00  0.00    +0.000 C 
ATOM     53  F10 UNL A   1      47.637  30.303  29.469  1.00  0.00    +0.000 F 
ENDBRANCH   42   43
BRANCH   57   58
ATOM     65  C45 UNL A   1      42.907  22.590  26.090  1.00  0.00    +0.000 C 
ATOM     66  F14 UNL A   1      42.224  21.542  26.573  1.00  0.00    +0.000 F 
ATOM     67  C46 UNL A   1      42.620  23.874  26.555  1.00  0.00    +0.000 C 
ATOM     68  F15 UNL A   1      41.676  23.985  27.500  1.00  0.00    +0.000 F 
ATOM     58  C41 UNL A   1      43.358  24.999  26.135  1.00  0.00    +0.000 C 
ATOM     59  C42 UNL A   1      44.372  24.762  25.191  1.00  0.00    +0.000 C 
ATOM     60  F11 UNL A   1      45.148  25.771  24.768  1.00  0.00    +0.000 F 
ATOM     61  C43 UNL A   1      44.660  23.473  24.728  1.00  0.00    +0.000 C 
ATOM     62  F12 UNL A   1      45.682  23.279  23.882  1.00  0.00    +0.000 F 
ATOM     63  C44 UNL A   1      43.936  22.387  25.190  1.00  0.00    +0.000 C 
ATOM     64  F13 UNL A   1      44.258  21.144  24.803  1.00  0.00    +0.000 F 
ENDBRANCH   57   58
TORSDOF 19
ENDMDL
MODEL 6
REMARK VINA RESULT:     -11.6      3.228      8.687
ROOT
ATOM     21  C17 UNL A   1      40.549  27.683  29.199  1.00  0.00    +0.000 C 
ATOM     22  C18 UNL A   1      41.543  28.587  28.557  1.00  0.00    +0.000 C 
ATOM     23  N3  UNL A   1      42.655  29.021  29.055  1.00  0.00    +0.000 N 
ATOM     24  C19 UNL A   1      43.222  29.833  28.077  1.00  0.00    +0.000 C 
ATOM     25  C20 UNL A   1      44.151  30.777  28.393  1.00  0.00    +0.000 C 
ATOM     37  C27 UNL A   1      44.764  30.499  29.665  1.00  0.00    +0.000 C 
ATOM     38  C28 UNL A   1      45.576  29.498  30.158  1.00  0.00    +0.000 C 
ATOM     39  C29 UNL A   1      45.164  29.319  31.512  1.00  0.00    +0.000 C 
ATOM     40  C30 UNL A   1      44.166  30.256  31.782  1.00  0.00    +0.000 C 
ATOM     41  N4  UNL A   1      44.284  31.164  30.764  1.00  0.00    +0.000 N 
ATOM     42  C31 UNL A   1      43.131  30.317  32.785  1.00  0.00    +0.000 C 
ATOM     54  C38 UNL A   1      41.998  31.070  32.688  1.00  0.00    +0.000 C 
ATOM     55  N5  UNL A   1      40.872  30.757  33.434  1.00  0.00    +0.000 N 
ATOM     56  C39 UNL A   1      39.875  31.221  32.735  1.00  0.00    +0.000 C 
ATOM     57  C40 UNL A   1      38.577  30.513  32.595  1.00  0.00    +0.000 C 
ATOM     69  C47 UNL A   1      38.822  29.389  31.874  1.00  0.00    +0.000 C 
ATOM     70  C48 UNL A   1      38.055  28.167  31.749  1.00  0.00    +0.000 C 
ATOM     71  C49 UNL A   1      38.685  27.350  30.879  1.00  0.00    +0.000 C 
ATOM     72  C50 UNL A   1      39.813  28.054  30.268  1.00  0.00    +0.000 C 
ATOM     73  N6  UNL A   1      39.907  29.226  30.991  1.00  0.00    +0.000 N 
ATOM     74  C51 UNL A   1      40.216  32.213  31.728  1.00  0.00    +0.000 C 
ATOM     75  C52 UNL A   1      41.535  32.020  31.680  1.00  0.00    +0.000 C 
ATOM     76  C53 UNL A   1      42.458  29.618  26.876  1.00  0.00    +0.000 C 
ATOM     77  C54 UNL A   1      41.355  28.915  27.135  1.00  0.00    +0.000 C 
ATOM    117  H22 UNL A   1      46.322  28.990  29.657  1.00  0.00    +0.000 H 
ATOM    118  H23 UNL A   1      45.537  28.620  32.173  1.00  0.00    +0.000 H 
ATOM    119  H24 UNL A   1      44.064  32.123  30.812  1.00  0.00    +0.000 H 
ATOM    120  H25 UNL A   1      37.174  27.957  32.242  1.00  0.00    +0.000 H 
ATOM    121  H26 UNL A   1      38.412  26.375  30.675  1.00  0.00    +0.000 H 
ATOM    122  H27 UNL A   1      40.646  29.871  30.899  1.00  0.00    +0.000 H 
ATOM    123  H28 UNL A   1      39.615  32.871  31.206  1.00  0.00    +0.000 H 
ATOM    124  H29 UNL A   1      42.160  32.490  31.006  1.00  0.00    +0.000 H 
ATOM    125  H30 UNL A   1      42.728  29.962  25.941  1.00  0.00    +0.000 H 
ATOM    126  H31 UNL A   1      40.577  28.666  26.505  1.00  0.00    +0.000 H 
ENDROOT
BRANCH   21   20
ATOM     78  C55 UNL A   1      39.279  26.042  27.826  1.00  0.00    +0.000 C 
ATOM     79  C56 UNL A   1      39.186  24.768  27.280  1.00  0.00    +0.000 C 
ATOM     17  C13 UNL A   1      40.231  23.834  27.425  1.00  0.00    +0.000 C 
ATOM     18  C14 UNL A   1      41.423  24.256  28.010  1.00  0.00    +0.000 C 
ATOM     19  C15 UNL A   1      41.511  25.517  28.587  1.00  0.00    +0.000 C 
ATOM    115  H20 UNL A   1      42.244  23.630  28.016  1.00  0.00    +0.000 H 
ATOM    116  H21 UNL A   1      42.385  25.812  29.047  1.00  0.00    +0.000 H 
ATOM     20  C16 UNL A   1      40.416  26.385  28.546  1.00  0.00    +0.000 C 
ATOM    127  H32 UNL A   1      38.515  26.724  27.698  1.00  0.00    +0.000 H 
ATOM    128  H33 UNL A   1      38.336  24.501  26.761  1.00  0.00    +0.000 H 
BRANCH   17   15
ATOM     15  C12 UNL A   1      39.910  22.440  27.018  1.00  0.00    +0.000 C 
ATOM     16  O2  UNL A   1      40.546  21.515  27.529  1.00  0.00    +0.000 O 
BRANCH   15   14
ATOM    114  H19 UNL A   1      39.256  21.255  25.591  1.00  0.00    +0.000 H 
ATOM     14  N2  UNL A   1      39.011  22.091  26.049  1.00  0.00    +0.000 N 
BRANCH   14   13
ATOM    113  H18 UNL A   1      37.829  22.615  24.475  1.00  0.00    +0.000 H 
ATOM     13  C11 UNL A   1      37.781  22.664  25.542  1.00  0.00    +0.000 C 
ATOM    112  H17 UNL A   1      37.705  23.669  25.901  1.00  0.00    +0.000 H 
BRANCH   13   12
ATOM     12  C10 UNL A   1      36.527  21.901  25.972  1.00  0.00    +0.000 C 
ATOM    110  H15 UNL A   1      36.298  21.179  25.216  1.00  0.00    +0.000 H 
ATOM    111  H16 UNL A   1      36.748  21.452  26.917  1.00  0.00    +0.000 H 
BRANCH   12   11
ATOM     11  C9  UNL A   1      35.296  22.789  26.180  1.00  0.00    +0.000 C 
ATOM    108  H13 UNL A   1      35.048  22.774  27.221  1.00  0.00    +0.000 H 
ATOM    109  H14 UNL A   1      35.563  23.760  25.820  1.00  0.00    +0.000 H 
BRANCH   11   10
ATOM     10  C8  UNL A   1      34.052  22.367  25.390  1.00  0.00    +0.000 C 
ATOM    107  H12 UNL A   1      33.408  23.220  25.361  1.00  0.00    +0.000 H 
ATOM    106  H11 UNL A   1      33.614  21.525  25.883  1.00  0.00    +0.000 H 
BRANCH   10    9
ATOM      9  C7  UNL A   1      34.320  21.979  23.931  1.00  0.00    +0.000 C 
ATOM    105  H10 UNL A   1      34.241  20.915  23.865  1.00  0.00    +0.000 H 
ATOM    104  H9  UNL A   1      35.295  22.328  23.660  1.00  0.00    +0.000 H 
BRANCH    9    8
ATOM    102  H7  UNL A   1      33.325  22.005  22.045  1.00  0.00    +0.000 H 
ATOM    103  H8  UNL A   1      32.336  22.526  23.406  1.00  0.00    +0.000 H 
ATOM      8  C6  UNL A   1      33.304  22.570  22.952  1.00  0.00    +0.000 C 
BRANCH    8    7
ATOM    101  H6  UNL A   1      34.560  24.191  22.622  1.00  0.00    +0.000 H 
ATOM      7  N1  UNL A   1      33.604  23.956  22.652  1.00  0.00    +0.000 N 
BRANCH    7    5
ATOM      5  C5  UNL A   1      32.732  24.976  22.404  1.00  0.00    +0.000 C 
ATOM      6  O1  UNL A   1      32.996  25.766  21.494  1.00  0.00    +0.000 O 
BRANCH    5    4
ATOM    100  H5  UNL A   1      31.507  24.361  23.996  1.00  0.00    +0.000 H 
ATOM     99  H4  UNL A   1      30.635  25.140  22.657  1.00  0.00    +0.000 H 
ATOM      4  C4  UNL A   1      31.503  25.158  23.283  1.00  0.00    +0.000 C 
BRANCH    4    3
ATOM    129  H34 UNL A   1      29.712  27.211  21.920  1.00  0.00    +0.000 H 
ATOM      2  C2  UNL A   1      32.205  26.728  25.223  1.00  0.00    +0.000 C 
ATOM      3  C3  UNL A   1      31.501  26.445  24.060  1.00  0.00    +0.000 C 
ATOM    132  H37 UNL A   1      30.863  30.671  25.128  1.00  0.00    +0.000 H 
ATOM    130  H35 UNL A   1      28.736  29.420  21.729  1.00  0.00    +0.000 H 
ATOM    131  H36 UNL A   1      29.334  31.144  23.304  1.00  0.00    +0.000 H 
ATOM     80  C57 UNL A   1      30.791  27.624  23.703  1.00  0.00    +0.000 C 
ATOM     81  C58 UNL A   1      29.934  27.932  22.622  1.00  0.00    +0.000 C 
ATOM     82  C59 UNL A   1      29.388  29.210  22.499  1.00  0.00    +0.000 C 
ATOM     83  C60 UNL A   1      29.725  30.194  23.411  1.00  0.00    +0.000 C 
ATOM     84  C61 UNL A   1      30.588  29.919  24.476  1.00  0.00    +0.000 C 
ATOM     85  C62 UNL A   1      31.081  28.609  24.654  1.00  0.00    +0.000 C 
ATOM     86  N7  UNL A   1      31.845  28.010  25.669  1.00  0.00    +0.000 N 
BRANCH    2    1
ATOM      1  C1  UNL A   1      33.164  25.850  25.969  1.00  0.00    +0.000 C 
ATOM     98  H3  UNL A   1      34.101  26.354  26.074  1.00  0.00    +0.000 H 
ATOM     97  H2  UNL A   1      32.766  25.630  26.937  1.00  0.00    +0.000 H 
ATOM     96  H1  UNL A   1      33.307  24.939  25.425  1.00  0.00    +0.000 H 
ENDBRANCH    2    1
BRANCH   86   87
ATOM     87  C63 UNL A   1      32.201  28.563  26.936  1.00  0.00    +0.000 C 
ATOM     88  O3  UNL A   1      31.573  28.222  27.932  1.00  0.00    +0.000 O 
BRANCH   87   89
ATOM    133  H38 UNL A   1      34.882  28.151  27.051  1.00  0.00    +0.000 H 
ATOM    134  H39 UNL A   1      36.590  29.788  27.631  1.00  0.00    +0.000 H 
ATOM    135  H40 UNL A   1      33.665  32.812  27.761  1.00  0.00    +0.000 H 
ATOM    136  H41 UNL A   1      31.947  31.173  27.233  1.00  0.00    +0.000 H 
ATOM     89  C64 UNL A   1      33.282  29.532  27.183  1.00  0.00    +0.000 C 
ATOM     90  C65 UNL A   1      34.621  29.132  27.240  1.00  0.00    +0.000 C 
ATOM     91  C66 UNL A   1      35.603  30.076  27.554  1.00  0.00    +0.000 C 
ATOM     92  C67 UNL A   1      35.244  31.410  27.763  1.00  0.00    +0.000 C 
ATOM     93 Cl1  UNL A   1      36.449  32.559  28.197  1.00  0.00    +0.000 Cl
ATOM     94  C68 UNL A   1      33.916  31.818  27.636  1.00  0.00    +0.000 C 
ATOM     95  C69 UNL A   1      32.931  30.879  27.339  1.00  0.00    +0.000 C 
ENDBRANCH   87   89
ENDBRANCH   86   87
ENDBRANCH    4    3
ENDBRANCH    5    4
ENDBRANCH    7    5
ENDBRANCH    8    7
ENDBRANCH    9    8
ENDBRANCH   10    9
ENDBRANCH   11   10
ENDBRANCH   12   11
ENDBRANCH   13   12
ENDBRANCH   14   13
ENDBRANCH   15   14
ENDBRANCH   17   15
ENDBRANCH   21   20
BRANCH   25   26
ATOM     33  C25 UNL A   1      43.861  34.564  27.795  1.00  0.00    +0.000 C 
ATOM     34  F4  UNL A   1      43.168  35.600  28.290  1.00  0.00    +0.000 F 
ATOM     35  C26 UNL A   1      43.525  33.268  28.185  1.00  0.00    +0.000 C 
ATOM     36  F5  UNL A   1      42.551  33.185  29.097  1.00  0.00    +0.000 F 
ATOM     26  C21 UNL A   1      44.239  32.135  27.738  1.00  0.00    +0.000 C 
ATOM     27  C22 UNL A   1      45.296  32.401  26.842  1.00  0.00    +0.000 C 
ATOM     28  F1  UNL A   1      46.054  31.403  26.362  1.00  0.00    +0.000 F 
ATOM     29  C23 UNL A   1      45.660  33.705  26.494  1.00  0.00    +0.000 C 
ATOM     30  F2  UNL A   1      46.751  33.913  25.743  1.00  0.00    +0.000 F 
ATOM     31  C24 UNL A   1      44.948  34.786  26.978  1.00  0.00    +0.000 C 
ATOM     32  F3  UNL A   1      45.334  36.037  26.699  1.00  0.00    +0.000 F 
ENDBRANCH   25   26
BRANCH   42   43
ATOM     43  C32 UNL A   1      43.205  29.306  33.896  1.00  0.00    +0.000 C 
ATOM     44  C33 UNL A   1      43.701  29.592  35.181  1.00  0.00    +0.000 C 
ATOM     45  F6  UNL A   1      44.198  30.802  35.472  1.00  0.00    +0.000 F 
ATOM     46  C34 UNL A   1      43.633  28.649  36.207  1.00  0.00    +0.000 C 
ATOM     47  F7  UNL A   1      44.115  28.941  37.424  1.00  0.00    +0.000 F 
ATOM     48  C35 UNL A   1      43.029  27.422  35.983  1.00  0.00    +0.000 C 
ATOM     49  F8  UNL A   1      42.916  26.535  36.982  1.00  0.00    +0.000 F 
ATOM     50  C36 UNL A   1      42.511  27.129  34.732  1.00  0.00    +0.000 C 
ATOM     51  F9  UNL A   1      41.881  25.964  34.524  1.00  0.00    +0.000 F 
ATOM     52  C37 UNL A   1      42.611  28.053  33.697  1.00  0.00    +0.000 C 
ATOM     53  F10 UNL A   1      42.074  27.748  32.506  1.00  0.00    +0.000 F 
ENDBRANCH   42   43
BRANCH   57   58
ATOM     65  C45 UNL A   1      35.267  32.217  31.867  1.00  0.00    +0.000 C 
ATOM     66  F14 UNL A   1      34.419  32.330  30.836  1.00  0.00    +0.000 F 
ATOM     67  C46 UNL A   1      36.322  31.305  31.799  1.00  0.00    +0.000 C 
ATOM     68  F15 UNL A   1      36.445  30.599  30.666  1.00  0.00    +0.000 F 
ATOM     58  C41 UNL A   1      37.283  31.201  32.823  1.00  0.00    +0.000 C 
ATOM     59  C42 UNL A   1      37.098  32.036  33.939  1.00  0.00    +0.000 C 
ATOM     60  F11 UNL A   1      37.989  32.029  34.942  1.00  0.00    +0.000 F 
ATOM     61  C43 UNL A   1      36.042  32.952  34.005  1.00  0.00    +0.000 C 
ATOM     62  F12 UNL A   1      35.940  33.782  35.053  1.00  0.00    +0.000 F 
ATOM     63  C44 UNL A   1      35.137  33.052  32.962  1.00  0.00    +0.000 C 
ATOM     64  F13 UNL A   1      34.167  33.978  32.991  1.00  0.00    +0.000 F 
ENDBRANCH   57   58
TORSDOF 19
ENDMDL
MODEL 7
REMARK VINA RESULT:     -11.6      3.296      8.669
ROOT
ATOM     21  C17 UNL A   1      40.651  27.322  28.627  1.00  0.00    +0.000 C 
ATOM     22  C18 UNL A   1      41.910  27.907  28.089  1.00  0.00    +0.000 C 
ATOM     23  N3  UNL A   1      42.980  28.222  28.745  1.00  0.00    +0.000 N 
ATOM     24  C19 UNL A   1      43.870  28.733  27.805  1.00  0.00    +0.000 C 
ATOM     25  C20 UNL A   1      44.902  29.540  28.174  1.00  0.00    +0.000 C 
ATOM     37  C27 UNL A   1      45.205  29.392  29.574  1.00  0.00    +0.000 C 
ATOM     38  C28 UNL A   1      45.689  28.369  30.364  1.00  0.00    +0.000 C 
ATOM     39  C29 UNL A   1      45.011  28.512  31.611  1.00  0.00    +0.000 C 
ATOM     40  C30 UNL A   1      44.197  29.642  31.528  1.00  0.00    +0.000 C 
ATOM     41  N4  UNL A   1      44.684  30.318  30.441  1.00  0.00    +0.000 N 
ATOM     42  C31 UNL A   1      43.034  30.063  32.270  1.00  0.00    +0.000 C 
ATOM     54  C38 UNL A   1      42.118  30.974  31.830  1.00  0.00    +0.000 C 
ATOM     55  N5  UNL A   1      40.837  31.002  32.357  1.00  0.00    +0.000 N 
ATOM     56  C39 UNL A   1      40.100  31.501  31.405  1.00  0.00    +0.000 C 
ATOM     57  C40 UNL A   1      38.731  31.018  31.094  1.00  0.00    +0.000 C 
ATOM     69  C47 UNL A   1      38.863  29.757  30.607  1.00  0.00    +0.000 C 
ATOM     70  C48 UNL A   1      37.894  28.687  30.495  1.00  0.00    +0.000 C 
ATOM     71  C49 UNL A   1      38.487  27.628  29.903  1.00  0.00    +0.000 C 
ATOM     72  C50 UNL A   1      39.828  28.003  29.453  1.00  0.00    +0.000 C 
ATOM     73  N6  UNL A   1      40.032  29.250  30.006  1.00  0.00    +0.000 N 
ATOM     74  C51 UNL A   1      40.816  32.220  30.363  1.00  0.00    +0.000 C 
ATOM     75  C52 UNL A   1      42.053  31.793  30.623  1.00  0.00    +0.000 C 
ATOM     76  C53 UNL A   1      43.308  28.443  26.512  1.00  0.00    +0.000 C 
ATOM     77  C54 UNL A   1      42.055  28.003  26.628  1.00  0.00    +0.000 C 
ATOM    117  H22 UNL A   1      46.390  27.657  30.109  1.00  0.00    +0.000 H 
ATOM    118  H23 UNL A   1      45.105  27.889  32.428  1.00  0.00    +0.000 H 
ATOM    119  H24 UNL A   1      44.662  31.293  30.306  1.00  0.00    +0.000 H 
ATOM    120  H25 UNL A   1      36.914  28.726  30.816  1.00  0.00    +0.000 H 
ATOM    121  H26 UNL A   1      38.059  26.697  29.785  1.00  0.00    +0.000 H 
ATOM    122  H27 UNL A   1      40.892  29.729  29.983  1.00  0.00    +0.000 H 
ATOM    123  H28 UNL A   1      40.470  32.868  29.638  1.00  0.00    +0.000 H 
ATOM    124  H29 UNL A   1      42.873  32.018  30.038  1.00  0.00    +0.000 H 
ATOM    125  H30 UNL A   1      43.808  28.561  25.616  1.00  0.00    +0.000 H 
ATOM    126  H31 UNL A   1      41.368  27.786  25.889  1.00  0.00    +0.000 H 
ENDROOT
BRANCH   21   20
ATOM     78  C55 UNL A   1      41.212  24.905  28.438  1.00  0.00    +0.000 C 
ATOM     79  C56 UNL A   1      40.924  23.657  27.902  1.00  0.00    +0.000 C 
ATOM     17  C13 UNL A   1      39.786  23.453  27.096  1.00  0.00    +0.000 C 
ATOM     18  C14 UNL A   1      38.875  24.498  26.956  1.00  0.00    +0.000 C 
ATOM     19  C15 UNL A   1      39.173  25.758  27.461  1.00  0.00    +0.000 C 
ATOM    115  H20 UNL A   1      37.976  24.336  26.475  1.00  0.00    +0.000 H 
ATOM    116  H21 UNL A   1      38.509  26.536  27.328  1.00  0.00    +0.000 H 
ATOM     20  C16 UNL A   1      40.371  25.972  28.150  1.00  0.00    +0.000 C 
ATOM    127  H32 UNL A   1      42.038  25.039  29.041  1.00  0.00    +0.000 H 
ATOM    128  H33 UNL A   1      41.555  22.865  28.097  1.00  0.00    +0.000 H 
BRANCH   17   15
ATOM     15  C12 UNL A   1      39.726  22.148  26.384  1.00  0.00    +0.000 C 
ATOM     16  O2  UNL A   1      40.784  21.583  26.098  1.00  0.00    +0.000 O 
BRANCH   15   14
ATOM    114  H19 UNL A   1      38.304  20.794  26.507  1.00  0.00    +0.000 H 
ATOM     14  N2  UNL A   1      38.582  21.548  25.938  1.00  0.00    +0.000 N 
BRANCH   14   13
ATOM    113  H18 UNL A   1      38.209  21.484  23.936  1.00  0.00    +0.000 H 
ATOM     13  C11 UNL A   1      37.682  21.764  24.824  1.00  0.00    +0.000 C 
ATOM    112  H17 UNL A   1      37.394  22.795  24.818  1.00  0.00    +0.000 H 
BRANCH   13   12
ATOM     12  C10 UNL A   1      36.416  20.908  24.884  1.00  0.00    +0.000 C 
ATOM    110  H15 UNL A   1      35.843  21.094  24.000  1.00  0.00    +0.000 H 
ATOM    111  H16 UNL A   1      36.735  19.890  24.963  1.00  0.00    +0.000 H 
BRANCH   12   11
ATOM     11  C9  UNL A   1      35.529  21.190  26.102  1.00  0.00    +0.000 C 
ATOM    108  H13 UNL A   1      35.629  20.370  26.782  1.00  0.00    +0.000 H 
ATOM    109  H14 UNL A   1      35.863  22.122  26.507  1.00  0.00    +0.000 H 
BRANCH   11   10
ATOM     10  C8  UNL A   1      34.039  21.369  25.790  1.00  0.00    +0.000 C 
ATOM    107  H12 UNL A   1      33.797  22.381  26.038  1.00  0.00    +0.000 H 
ATOM    106  H11 UNL A   1      33.489  20.652  26.364  1.00  0.00    +0.000 H 
BRANCH   10    9
ATOM      9  C7  UNL A   1      33.666  21.185  24.314  1.00  0.00    +0.000 C 
ATOM    105  H10 UNL A   1      32.860  20.483  24.275  1.00  0.00    +0.000 H 
ATOM    104  H9  UNL A   1      34.529  20.835  23.786  1.00  0.00    +0.000 H 
BRANCH    9    8
ATOM    102  H7  UNL A   1      32.618  22.222  22.774  1.00  0.00    +0.000 H 
ATOM    103  H8  UNL A   1      32.571  23.004  24.351  1.00  0.00    +0.000 H 
ATOM      8  C6  UNL A   1      33.179  22.472  23.649  1.00  0.00    +0.000 C 
BRANCH    8    7
ATOM    101  H6  UNL A   1      34.806  23.032  22.486  1.00  0.00    +0.000 H 
ATOM      7  N1  UNL A   1      34.289  23.325  23.271  1.00  0.00    +0.000 N 
BRANCH    7    5
ATOM      5  C5  UNL A   1      34.708  24.481  23.862  1.00  0.00    +0.000 C 
ATOM      6  O1  UNL A   1      35.337  24.405  24.920  1.00  0.00    +0.000 O 
BRANCH    5    4
ATOM    100  H5  UNL A   1      34.185  25.664  22.206  1.00  0.00    +0.000 H 
ATOM     99  H4  UNL A   1      35.135  26.514  23.445  1.00  0.00    +0.000 H 
ATOM      4  C4  UNL A   1      34.339  25.826  23.253  1.00  0.00    +0.000 C 
BRANCH    4    3
ATOM    129  H34 UNL A   1      34.881  27.261  25.884  1.00  0.00    +0.000 H 
ATOM      2  C2  UNL A   1      31.794  26.324  23.247  1.00  0.00    +0.000 C 
ATOM      3  C3  UNL A   1      33.065  26.408  23.799  1.00  0.00    +0.000 C 
ATOM    132  H37 UNL A   1      30.177  28.266  26.559  1.00  0.00    +0.000 H 
ATOM    130  H35 UNL A   1      34.169  28.490  27.847  1.00  0.00    +0.000 H 
ATOM    131  H36 UNL A   1      31.831  28.960  28.195  1.00  0.00    +0.000 H 
ATOM     80  C57 UNL A   1      32.944  27.127  25.020  1.00  0.00    +0.000 C 
ATOM     81  C58 UNL A   1      33.885  27.500  26.007  1.00  0.00    +0.000 C 
ATOM     82  C59 UNL A   1      33.474  28.189  27.147  1.00  0.00    +0.000 C 
ATOM     83  C60 UNL A   1      32.132  28.467  27.339  1.00  0.00    +0.000 C 
ATOM     84  C61 UNL A   1      31.180  28.088  26.388  1.00  0.00    +0.000 C 
ATOM     85  C62 UNL A   1      31.596  27.462  25.194  1.00  0.00    +0.000 C 
ATOM     86  N7  UNL A   1      30.910  27.086  24.028  1.00  0.00    +0.000 N 
BRANCH    2    1
ATOM      1  C1  UNL A   1      31.365  25.608  22.003  1.00  0.00    +0.000 C 
ATOM     98  H3  UNL A   1      31.811  24.636  21.979  1.00  0.00    +0.000 H 
ATOM     97  H2  UNL A   1      30.300  25.512  21.996  1.00  0.00    +0.000 H 
ATOM     96  H1  UNL A   1      31.680  26.166  21.145  1.00  0.00    +0.000 H 
ENDBRANCH    2    1
BRANCH   86   87
ATOM     87  C63 UNL A   1      29.568  27.408  23.662  1.00  0.00    +0.000 C 
ATOM     88  O3  UNL A   1      28.670  26.621  23.939  1.00  0.00    +0.000 O 
BRANCH   87   89
ATOM    133  H38 UNL A   1      27.134  28.610  23.665  1.00  0.00    +0.000 H 
ATOM    134  H39 UNL A   1      26.456  30.545  22.349  1.00  0.00    +0.000 H 
ATOM    135  H40 UNL A   1      30.400  30.985  20.945  1.00  0.00    +0.000 H 
ATOM    136  H41 UNL A   1      31.071  29.023  22.216  1.00  0.00    +0.000 H 
ATOM     89  C64 UNL A   1      29.132  28.631  22.967  1.00  0.00    +0.000 C 
ATOM     90  C65 UNL A   1      27.816  29.092  23.058  1.00  0.00    +0.000 C 
ATOM     91  C66 UNL A   1      27.433  30.214  22.317  1.00  0.00    +0.000 C 
ATOM     92  C67 UNL A   1      28.374  30.885  21.533  1.00  0.00    +0.000 C 
ATOM     93 Cl1  UNL A   1      27.888  32.236  20.586  1.00  0.00    +0.000 Cl
ATOM     94  C68 UNL A   1      29.704  30.464  21.501  1.00  0.00    +0.000 C 
ATOM     95  C69 UNL A   1      30.088  29.336  22.225  1.00  0.00    +0.000 C 
ENDBRANCH   87   89
ENDBRANCH   86   87
ENDBRANCH    4    3
ENDBRANCH    5    4
ENDBRANCH    7    5
ENDBRANCH    8    7
ENDBRANCH    9    8
ENDBRANCH   10    9
ENDBRANCH   11   10
ENDBRANCH   12   11
ENDBRANCH   13   12
ENDBRANCH   14   13
ENDBRANCH   15   14
ENDBRANCH   17   15
ENDBRANCH   21   20
BRANCH   25   26
ATOM     33  C25 UNL A   1      45.163  33.068  26.667  1.00  0.00    +0.000 C 
ATOM     34  F4  UNL A   1      44.370  34.133  26.484  1.00  0.00    +0.000 F 
ATOM     35  C26 UNL A   1      44.606  31.869  27.113  1.00  0.00    +0.000 C 
ATOM     36  F5  UNL A   1      43.299  31.919  27.385  1.00  0.00    +0.000 F 
ATOM     26  C21 UNL A   1      45.388  30.722  27.368  1.00  0.00    +0.000 C 
ATOM     27  C22 UNL A   1      46.768  30.859  27.110  1.00  0.00    +0.000 C 
ATOM     28  F1  UNL A   1      47.611  29.839  27.330  1.00  0.00    +0.000 F 
ATOM     29  C23 UNL A   1      47.328  32.077  26.711  1.00  0.00    +0.000 C 
ATOM     30  F2  UNL A   1      48.659  32.193  26.604  1.00  0.00    +0.000 F 
ATOM     31  C24 UNL A   1      46.525  33.183  26.499  1.00  0.00    +0.000 C 
ATOM     32  F3  UNL A   1      47.066  34.366  26.181  1.00  0.00    +0.000 F 
ENDBRANCH   25   26
BRANCH   42   43
ATOM     43  C32 UNL A   1      42.695  29.271  33.503  1.00  0.00    +0.000 C 
ATOM     44  C33 UNL A   1      41.957  28.074  33.485  1.00  0.00    +0.000 C 
ATOM     45  F6  UNL A   1      41.457  27.592  32.339  1.00  0.00    +0.000 F 
ATOM     46  C34 UNL A   1      41.775  27.321  34.645  1.00  0.00    +0.000 C 
ATOM     47  F7  UNL A   1      41.065  26.184  34.606  1.00  0.00    +0.000 F 
ATOM     48  C35 UNL A   1      42.365  27.722  35.833  1.00  0.00    +0.000 C 
ATOM     49  F8  UNL A   1      42.235  26.972  36.936  1.00  0.00    +0.000 F 
ATOM     50  C36 UNL A   1      43.117  28.886  35.869  1.00  0.00    +0.000 C 
ATOM     51  F9  UNL A   1      43.731  29.252  37.002  1.00  0.00    +0.000 F 
ATOM     52  C37 UNL A   1      43.268  29.659  34.721  1.00  0.00    +0.000 C 
ATOM     53  F10 UNL A   1      44.026  30.764  34.784  1.00  0.00    +0.000 F 
ENDBRANCH   42   43
BRANCH   57   58
ATOM     65  C45 UNL A   1      35.389  32.694  31.732  1.00  0.00    +0.000 C 
ATOM     66  F14 UNL A   1      34.484  32.752  32.719  1.00  0.00    +0.000 F 
ATOM     67  C46 UNL A   1      36.632  32.103  31.966  1.00  0.00    +0.000 C 
ATOM     68  F15 UNL A   1      36.843  31.589  33.186  1.00  0.00    +0.000 F 
ATOM     58  C41 UNL A   1      37.588  31.951  30.944  1.00  0.00    +0.000 C 
ATOM     59  C42 UNL A   1      37.239  32.466  29.682  1.00  0.00    +0.000 C 
ATOM     60  F11 UNL A   1      38.075  32.328  28.643  1.00  0.00    +0.000 F 
ATOM     61  C43 UNL A   1      35.992  33.056  29.448  1.00  0.00    +0.000 C 
ATOM     62  F12 UNL A   1      35.668  33.470  28.214  1.00  0.00    +0.000 F 
ATOM     63  C44 UNL A   1      35.063  33.155  30.470  1.00  0.00    +0.000 C 
ATOM     64  F13 UNL A   1      33.841  33.655  30.230  1.00  0.00    +0.000 F 
ENDBRANCH   57   58
TORSDOF 19
ENDMDL
MODEL 8
REMARK VINA RESULT:     -11.5      5.359     11.319
ROOT
ATOM     21  C17 UNL A   1      40.818  28.063  28.581  1.00  0.00    +0.000 C 
ATOM     22  C18 UNL A   1      41.938  28.904  28.075  1.00  0.00    +0.000 C 
ATOM     23  N3  UNL A   1      42.900  29.435  28.758  1.00  0.00    +0.000 N 
ATOM     24  C19 UNL A   1      43.685  30.127  27.841  1.00  0.00    +0.000 C 
ATOM     25  C20 UNL A   1      44.513  31.133  28.235  1.00  0.00    +0.000 C 
ATOM     37  C27 UNL A   1      44.804  31.047  29.643  1.00  0.00    +0.000 C 
ATOM     38  C28 UNL A   1      45.473  30.147  30.447  1.00  0.00    +0.000 C 
ATOM     39  C29 UNL A   1      44.749  30.137  31.675  1.00  0.00    +0.000 C 
ATOM     40  C30 UNL A   1      43.717  31.070  31.570  1.00  0.00    +0.000 C 
ATOM     41  N4  UNL A   1      44.077  31.838  30.495  1.00  0.00    +0.000 N 
ATOM     42  C31 UNL A   1      42.472  31.232  32.281  1.00  0.00    +0.000 C 
ATOM     54  C38 UNL A   1      41.396  31.930  31.816  1.00  0.00    +0.000 C 
ATOM     55  N5  UNL A   1      40.125  31.683  32.310  1.00  0.00    +0.000 N 
ATOM     56  C39 UNL A   1      39.324  32.019  31.337  1.00  0.00    +0.000 C 
ATOM     57  C40 UNL A   1      38.096  31.259  30.992  1.00  0.00    +0.000 C 
ATOM     69  C47 UNL A   1      38.504  30.056  30.511  1.00  0.00    +0.000 C 
ATOM     70  C48 UNL A   1      37.788  28.805  30.376  1.00  0.00    +0.000 C 
ATOM     71  C49 UNL A   1      38.607  27.899  29.801  1.00  0.00    +0.000 C 
ATOM     72  C50 UNL A   1      39.849  28.551  29.384  1.00  0.00    +0.000 C 
ATOM     73  N6  UNL A   1      39.769  29.810  29.941  1.00  0.00    +0.000 N 
ATOM     74  C51 UNL A   1      39.897  32.877  30.314  1.00  0.00    +0.000 C 
ATOM     75  C52 UNL A   1      41.190  32.722  30.607  1.00  0.00    +0.000 C 
ATOM     76  C53 UNL A   1      43.230  29.730  26.534  1.00  0.00    +0.000 C 
ATOM     77  C54 UNL A   1      42.097  29.034  26.619  1.00  0.00    +0.000 C 
ATOM    117  H22 UNL A   1      46.316  29.600  30.211  1.00  0.00    +0.000 H 
ATOM    118  H23 UNL A   1      44.952  29.545  32.496  1.00  0.00    +0.000 H 
ATOM    119  H24 UNL A   1      43.853  32.786  30.358  1.00  0.00    +0.000 H 
ATOM    120  H25 UNL A   1      36.814  28.635  30.671  1.00  0.00    +0.000 H 
ATOM    121  H26 UNL A   1      38.389  26.898  29.673  1.00  0.00    +0.000 H 
ATOM    122  H27 UNL A   1      40.509  30.461  29.939  1.00  0.00    +0.000 H 
ATOM    123  H28 UNL A   1      39.440  33.441  29.579  1.00  0.00    +0.000 H 
ATOM    124  H29 UNL A   1      41.958  33.117  30.042  1.00  0.00    +0.000 H 
ATOM    125  H30 UNL A   1      43.717  29.954  25.652  1.00  0.00    +0.000 H 
ATOM    126  H31 UNL A   1      41.491  28.679  25.862  1.00  0.00    +0.000 H 
ENDROOT
BRANCH   21   20
ATOM     78  C55 UNL A   1      40.087  26.279  27.008  1.00  0.00    +0.000 C 
ATOM     79  C56 UNL A   1      40.105  24.941  26.637  1.00  0.00    +0.000 C 
ATOM     17  C13 UNL A   1      40.893  24.002  27.331  1.00  0.00    +0.000 C 
ATOM     18  C14 UNL A   1      41.764  24.464  28.315  1.00  0.00    +0.000 C 
ATOM     19  C15 UNL A   1      41.727  25.794  28.714  1.00  0.00    +0.000 C 
ATOM    115  H20 UNL A   1      42.439  23.815  28.751  1.00  0.00    +0.000 H 
ATOM    116  H21 UNL A   1      42.352  26.124  29.465  1.00  0.00    +0.000 H 
ATOM     20  C16 UNL A   1      40.843  26.686  28.099  1.00  0.00    +0.000 C 
ATOM    127  H32 UNL A   1      39.519  26.962  26.482  1.00  0.00    +0.000 H 
ATOM    128  H33 UNL A   1      39.530  24.630  25.840  1.00  0.00    +0.000 H 
BRANCH   17   15
ATOM     15  C12 UNL A   1      40.635  22.575  27.000  1.00  0.00    +0.000 C 
ATOM     16  O2  UNL A   1      39.529  22.263  26.553  1.00  0.00    +0.000 O 
BRANCH   15   14
ATOM    114  H19 UNL A   1      42.435  21.851  27.328  1.00  0.00    +0.000 H 
ATOM     14  N2  UNL A   1      41.505  21.545  27.229  1.00  0.00    +0.000 N 
BRANCH   14   13
ATOM    113  H18 UNL A   1      40.334  19.898  27.493  1.00  0.00    +0.000 H 
ATOM     13  C11 UNL A   1      41.375  20.109  27.362  1.00  0.00    +0.000 C 
ATOM    112  H17 UNL A   1      41.963  19.793  28.198  1.00  0.00    +0.000 H 
BRANCH   13   12
ATOM     12  C10 UNL A   1      41.838  19.336  26.126  1.00  0.00    +0.000 C 
ATOM    110  H15 UNL A   1      40.981  18.883  25.673  1.00  0.00    +0.000 H 
ATOM    111  H16 UNL A   1      42.320  20.042  25.483  1.00  0.00    +0.000 H 
BRANCH   12   11
ATOM     11  C9  UNL A   1      42.863  18.236  26.424  1.00  0.00    +0.000 C 
ATOM    108  H13 UNL A   1      43.014  18.202  27.483  1.00  0.00    +0.000 H 
ATOM    109  H14 UNL A   1      42.457  17.332  26.023  1.00  0.00    +0.000 H 
BRANCH   11   10
ATOM     10  C8  UNL A   1      44.229  18.427  25.756  1.00  0.00    +0.000 C 
ATOM    107  H12 UNL A   1      44.476  17.490  25.301  1.00  0.00    +0.000 H 
ATOM    106  H11 UNL A   1      44.930  18.727  26.507  1.00  0.00    +0.000 H 
BRANCH   10    9
ATOM      9  C7  UNL A   1      44.255  19.472  24.635  1.00  0.00    +0.000 C 
ATOM    105  H10 UNL A   1      43.250  19.808  24.490  1.00  0.00    +0.000 H 
ATOM    104  H9  UNL A   1      44.658  19.016  23.754  1.00  0.00    +0.000 H 
BRANCH    9    8
ATOM    102  H7  UNL A   1      45.584  20.542  25.913  1.00  0.00    +0.000 H 
ATOM    103  H8  UNL A   1      45.819  20.840  24.194  1.00  0.00    +0.000 H 
ATOM      8  C6  UNL A   1      45.100  20.701  24.974  1.00  0.00    +0.000 C 
BRANCH    8    7
ATOM    101  H6  UNL A   1      43.359  21.762  25.367  1.00  0.00    +0.000 H 
ATOM      7  N1  UNL A   1      44.284  21.896  25.060  1.00  0.00    +0.000 N 
BRANCH    7    5
ATOM      5  C5  UNL A   1      44.635  23.183  24.770  1.00  0.00    +0.000 C 
ATOM      6  O1  UNL A   1      45.485  23.377  23.898  1.00  0.00    +0.000 O 
BRANCH    5    4
ATOM    100  H5  UNL A   1      43.300  23.912  26.219  1.00  0.00    +0.000 H 
ATOM     99  H4  UNL A   1      43.608  25.033  24.873  1.00  0.00    +0.000 H 
ATOM      4  C4  UNL A   1      44.033  24.334  25.563  1.00  0.00    +0.000 C 
BRANCH    4    3
ATOM    129  H34 UNL A   1      44.893  26.927  24.217  1.00  0.00    +0.000 H 
ATOM      2  C2  UNL A   1      45.536  24.656  27.651  1.00  0.00    +0.000 C 
ATOM      3  C3  UNL A   1      45.028  25.061  26.424  1.00  0.00    +0.000 C 
ATOM    132  H37 UNL A   1      48.093  27.945  27.728  1.00  0.00    +0.000 H 
ATOM    130  H35 UNL A   1      46.217  28.954  24.107  1.00  0.00    +0.000 H 
ATOM    131  H36 UNL A   1      47.827  29.440  25.834  1.00  0.00    +0.000 H 
ATOM     80  C57 UNL A   1      45.655  26.295  26.098  1.00  0.00    +0.000 C 
ATOM     81  C58 UNL A   1      45.548  27.155  24.981  1.00  0.00    +0.000 C 
ATOM     82  C59 UNL A   1      46.324  28.311  24.906  1.00  0.00    +0.000 C 
ATOM     83  C60 UNL A   1      47.240  28.593  25.904  1.00  0.00    +0.000 C 
ATOM     84  C61 UNL A   1      47.380  27.745  27.007  1.00  0.00    +0.000 C 
ATOM     85  C62 UNL A   1      46.542  26.617  27.132  1.00  0.00    +0.000 C 
ATOM     86  N7  UNL A   1      46.363  25.673  28.156  1.00  0.00    +0.000 N 
BRANCH    2    1
ATOM      1  C1  UNL A   1      45.257  23.390  28.403  1.00  0.00    +0.000 C 
ATOM     98  H3  UNL A   1      45.518  22.550  27.795  1.00  0.00    +0.000 H 
ATOM     97  H2  UNL A   1      45.836  23.375  29.302  1.00  0.00    +0.000 H 
ATOM     96  H1  UNL A   1      44.216  23.345  28.647  1.00  0.00    +0.000 H 
ENDBRANCH    2    1
BRANCH   86   87
ATOM     87  C63 UNL A   1      46.896  25.710  29.480  1.00  0.00    +0.000 C 
ATOM     88  O3  UNL A   1      48.111  25.681  29.633  1.00  0.00    +0.000 O 
BRANCH   87   89
ATOM    133  H38 UNL A   1      44.370  26.627  29.865  1.00  0.00    +0.000 H 
ATOM    134  H39 UNL A   1      43.210  26.870  31.993  1.00  0.00    +0.000 H 
ATOM    135  H40 UNL A   1      46.434  25.026  33.974  1.00  0.00    +0.000 H 
ATOM    136  H41 UNL A   1      47.619  24.828  31.859  1.00  0.00    +0.000 H 
ATOM     89  C64 UNL A   1      46.112  25.786  30.724  1.00  0.00    +0.000 C 
ATOM     90  C65 UNL A   1      44.822  26.324  30.742  1.00  0.00    +0.000 C 
ATOM     91  C66 UNL A   1      44.149  26.445  31.962  1.00  0.00    +0.000 C 
ATOM     92  C67 UNL A   1      44.751  25.990  33.137  1.00  0.00    +0.000 C 
ATOM     93 Cl1  UNL A   1      43.941  26.184  34.642  1.00  0.00    +0.000 Cl
ATOM     94  C68 UNL A   1      46.010  25.389  33.105  1.00  0.00    +0.000 C 
ATOM     95  C69 UNL A   1      46.692  25.280  31.894  1.00  0.00    +0.000 C 
ENDBRANCH   87   89
ENDBRANCH   86   87
ENDBRANCH    4    3
ENDBRANCH    5    4
ENDBRANCH    7    5
ENDBRANCH    8    7
ENDBRANCH    9    8
ENDBRANCH   10    9
ENDBRANCH   11   10
ENDBRANCH   12   11
ENDBRANCH   13   12
ENDBRANCH   14   13
ENDBRANCH   15   14
ENDBRANCH   17   15
ENDBRANCH   21   20
BRANCH   25   26
ATOM     33  C25 UNL A   1      44.412  34.804  27.096  1.00  0.00    +0.000 C 
ATOM     34  F4  UNL A   1      43.647  35.887  27.294  1.00  0.00    +0.000 F 
ATOM     35  C26 UNL A   1      43.983  33.567  27.574  1.00  0.00    +0.000 C 
ATOM     36  F5  UNL A   1      42.838  33.592  28.264  1.00  0.00    +0.000 F 
ATOM     26  C21 UNL A   1      44.758  32.394  27.441  1.00  0.00    +0.000 C 
ATOM     27  C22 UNL A   1      45.983  32.553  26.760  1.00  0.00    +0.000 C 
ATOM     28  F1  UNL A   1      46.810  31.510  26.586  1.00  0.00    +0.000 F 
ATOM     29  C23 UNL A   1      46.432  33.804  26.327  1.00  0.00    +0.000 C 
ATOM     30  F2  UNL A   1      47.659  33.925  25.801  1.00  0.00    +0.000 F 
ATOM     31  C24 UNL A   1      45.650  34.930  26.504  1.00  0.00    +0.000 C 
ATOM     32  F3  UNL A   1      46.105  36.138  26.149  1.00  0.00    +0.000 F 
ENDBRANCH   25   26
BRANCH   42   43
ATOM     43  C32 UNL A   1      42.277  30.381  33.506  1.00  0.00    +0.000 C 
ATOM     44  C33 UNL A   1      42.393  30.866  34.821  1.00  0.00    +0.000 C 
ATOM     45  F6  UNL A   1      42.749  32.137  35.056  1.00  0.00    +0.000 F 
ATOM     46  C34 UNL A   1      42.083  30.061  35.917  1.00  0.00    +0.000 C 
ATOM     47  F7  UNL A   1      42.204  30.543  37.163  1.00  0.00    +0.000 F 
ATOM     48  C35 UNL A   1      41.606  28.775  35.721  1.00  0.00    +0.000 C 
ATOM     49  F8  UNL A   1      41.258  28.018  36.771  1.00  0.00    +0.000 F 
ATOM     50  C36 UNL A   1      41.460  28.285  34.433  1.00  0.00    +0.000 C 
ATOM     51  F9  UNL A   1      40.952  27.060  34.236  1.00  0.00    +0.000 F 
ATOM     52  C37 UNL A   1      41.805  29.073  33.339  1.00  0.00    +0.000 C 
ATOM     53  F10 UNL A   1      41.624  28.577  32.105  1.00  0.00    +0.000 F 
ENDBRANCH   42   43
BRANCH   57   58
ATOM     65  C45 UNL A   1      35.431  33.554  29.572  1.00  0.00    +0.000 C 
ATOM     66  F14 UNL A   1      35.233  34.266  28.453  1.00  0.00    +0.000 F 
ATOM     67  C46 UNL A   1      36.490  32.646  29.635  1.00  0.00    +0.000 C 
ATOM     68  F15 UNL A   1      37.283  32.557  28.558  1.00  0.00    +0.000 F 
ATOM     58  C41 UNL A   1      36.786  31.929  30.811  1.00  0.00    +0.000 C 
ATOM     59  C42 UNL A   1      35.931  32.147  31.906  1.00  0.00    +0.000 C 
ATOM     60  F11 UNL A   1      36.164  31.534  33.076  1.00  0.00    +0.000 F 
ATOM     61  C43 UNL A   1      34.871  33.060  31.841  1.00  0.00    +0.000 C 
ATOM     62  F12 UNL A   1      34.122  33.293  32.929  1.00  0.00    +0.000 F 
ATOM     63  C44 UNL A   1      34.633  33.773  30.679  1.00  0.00    +0.000 C 
ATOM     64  F13 UNL A   1      33.664  34.700  30.639  1.00  0.00    +0.000 F 
ENDBRANCH   57   58
TORSDOF 19
ENDMDL
MODEL 9
REMARK VINA RESULT:     -11.3      3.418      8.931
ROOT
ATOM     21  C17 UNL A   1      40.539  27.948  28.684  1.00  0.00    +0.000 C 
ATOM     22  C18 UNL A   1      41.699  28.737  28.185  1.00  0.00    +0.000 C 
ATOM     23  N3  UNL A   1      42.695  29.197  28.870  1.00  0.00    +0.000 N 
ATOM     24  C19 UNL A   1      43.508  29.867  27.960  1.00  0.00    +0.000 C 
ATOM     25  C20 UNL A   1      44.395  30.816  28.368  1.00  0.00    +0.000 C 
ATOM     37  C27 UNL A   1      44.695  30.680  29.770  1.00  0.00    +0.000 C 
ATOM     38  C28 UNL A   1      45.321  29.724  30.544  1.00  0.00    +0.000 C 
ATOM     39  C29 UNL A   1      44.610  29.725  31.781  1.00  0.00    +0.000 C 
ATOM     40  C30 UNL A   1      43.631  30.715  31.710  1.00  0.00    +0.000 C 
ATOM     41  N4  UNL A   1      44.022  31.488  30.649  1.00  0.00    +0.000 N 
ATOM     42  C31 UNL A   1      42.405  30.929  32.439  1.00  0.00    +0.000 C 
ATOM     54  C38 UNL A   1      41.364  31.696  32.002  1.00  0.00    +0.000 C 
ATOM     55  N5  UNL A   1      40.086  31.509  32.505  1.00  0.00    +0.000 N 
ATOM     56  C39 UNL A   1      39.295  31.912  31.551  1.00  0.00    +0.000 C 
ATOM     57  C40 UNL A   1      38.024  31.229  31.201  1.00  0.00    +0.000 C 
ATOM     69  C47 UNL A   1      38.359  30.018  30.687  1.00  0.00    +0.000 C 
ATOM     70  C48 UNL A   1      37.573  28.813  30.531  1.00  0.00    +0.000 C 
ATOM     71  C49 UNL A   1      38.334  27.877  29.925  1.00  0.00    +0.000 C 
ATOM     72  C50 UNL A   1      39.607  28.469  29.510  1.00  0.00    +0.000 C 
ATOM     73  N6  UNL A   1      39.603  29.717  30.097  1.00  0.00    +0.000 N 
ATOM     74  C51 UNL A   1      39.905  32.762  30.541  1.00  0.00    +0.000 C 
ATOM     75  C52 UNL A   1      41.190  32.528  30.815  1.00  0.00    +0.000 C 
ATOM     76  C53 UNL A   1      43.019  29.528  26.649  1.00  0.00    +0.000 C 
ATOM     77  C54 UNL A   1      41.849  28.894  26.730  1.00  0.00    +0.000 C 
ATOM    117  H22 UNL A   1      46.130  29.137  30.286  1.00  0.00    +0.000 H 
ATOM    118  H23 UNL A   1      44.789  29.103  32.585  1.00  0.00    +0.000 H 
ATOM    119  H24 UNL A   1      43.850  32.451  30.537  1.00  0.00    +0.000 H 
ATOM    120  H25 UNL A   1      36.594  28.689  30.833  1.00  0.00    +0.000 H 
ATOM    121  H26 UNL A   1      38.060  26.893  29.776  1.00  0.00    +0.000 H 
ATOM    122  H27 UNL A   1      40.377  30.325  30.102  1.00  0.00    +0.000 H 
ATOM    123  H28 UNL A   1      39.472  33.367  29.825  1.00  0.00    +0.000 H 
ATOM    124  H29 UNL A   1      41.973  32.894  30.251  1.00  0.00    +0.000 H 
ATOM    125  H30 UNL A   1      43.508  29.746  25.767  1.00  0.00    +0.000 H 
ATOM    126  H31 UNL A   1      41.217  28.591  25.973  1.00  0.00    +0.000 H 
ENDROOT
BRANCH   21   20
ATOM     78  C55 UNL A   1      39.557  26.203  27.206  1.00  0.00    +0.000 C 
ATOM     79  C56 UNL A   1      39.512  24.875  26.803  1.00  0.00    +0.000 C 
ATOM     17  C13 UNL A   1      40.401  23.920  27.334  1.00  0.00    +0.000 C 
ATOM     18  C14 UNL A   1      41.422  24.358  28.175  1.00  0.00    +0.000 C 
ATOM     19  C15 UNL A   1      41.453  25.678  28.609  1.00  0.00    +0.000 C 
ATOM    115  H20 UNL A   1      42.158  23.701  28.477  1.00  0.00    +0.000 H 
ATOM    116  H21 UNL A   1      42.193  25.990  29.256  1.00  0.00    +0.000 H 
ATOM     20  C16 UNL A   1      40.482  26.584  28.169  1.00  0.00    +0.000 C 
ATOM    127  H32 UNL A   1      38.912  26.898  26.797  1.00  0.00    +0.000 H 
ATOM    128  H33 UNL A   1      38.814  24.583  26.102  1.00  0.00    +0.000 H 
BRANCH   17   15
ATOM     15  C12 UNL A   1      40.090  22.501  27.014  1.00  0.00    +0.000 C 
ATOM     16  O2  UNL A   1      40.680  21.613  27.634  1.00  0.00    +0.000 O 
BRANCH   15   14
ATOM    114  H19 UNL A   1      39.688  21.461  25.393  1.00  0.00    +0.000 H 
ATOM     14  N2  UNL A   1      39.252  22.086  26.017  1.00  0.00    +0.000 N 
BRANCH   14   13
ATOM    113  H18 UNL A   1      37.883  23.005  24.819  1.00  0.00    +0.000 H 
ATOM     13  C11 UNL A   1      37.872  22.351  25.665  1.00  0.00    +0.000 C 
ATOM    112  H17 UNL A   1      37.387  22.789  26.512  1.00  0.00    +0.000 H 
BRANCH   13   12
ATOM     12  C10 UNL A   1      37.094  21.100  25.256  1.00  0.00    +0.000 C 
ATOM    110  H15 UNL A   1      37.687  20.550  24.555  1.00  0.00    +0.000 H 
ATOM    111  H16 UNL A   1      36.899  20.550  26.152  1.00  0.00    +0.000 H 
BRANCH   12   11
ATOM     11  C9  UNL A   1      35.734  21.392  24.612  1.00  0.00    +0.000 C 
ATOM    108  H13 UNL A   1      35.398  22.344  24.965  1.00  0.00    +0.000 H 
ATOM    109  H14 UNL A   1      35.891  21.361  23.554  1.00  0.00    +0.000 H 
BRANCH   11   10
ATOM     10  C8  UNL A   1      34.641  20.361  24.912  1.00  0.00    +0.000 C 
ATOM    107  H12 UNL A   1      34.661  20.199  25.970  1.00  0.00    +0.000 H 
ATOM    106  H11 UNL A   1      34.851  19.477  24.347  1.00  0.00    +0.000 H 
BRANCH   10    9
ATOM      9  C7  UNL A   1      33.217  20.817  24.572  1.00  0.00    +0.000 C 
ATOM    105  H10 UNL A   1      32.763  20.039  23.997  1.00  0.00    +0.000 H 
ATOM    104  H9  UNL A   1      33.276  21.737  24.028  1.00  0.00    +0.000 H 
BRANCH    9    8
ATOM    102  H7  UNL A   1      31.347  21.270  25.492  1.00  0.00    +0.000 H 
ATOM    103  H8  UNL A   1      32.358  20.146  26.395  1.00  0.00    +0.000 H 
ATOM      8  C6  UNL A   1      32.343  21.040  25.807  1.00  0.00    +0.000 C 
BRANCH    8    7
ATOM    101  H6  UNL A   1      33.355  21.867  27.420  1.00  0.00    +0.000 H 
ATOM      7  N1  UNL A   1      32.844  22.129  26.620  1.00  0.00    +0.000 N 
BRANCH    7    5
ATOM      5  C5  UNL A   1      32.698  23.472  26.420  1.00  0.00    +0.000 C 
ATOM      6  O1  UNL A   1      31.570  23.961  26.519  1.00  0.00    +0.000 O 
BRANCH    5    4
ATOM    100  H5  UNL A   1      34.656  23.642  25.679  1.00  0.00    +0.000 H 
ATOM     99  H4  UNL A   1      34.210  24.886  26.869  1.00  0.00    +0.000 H 
ATOM      4  C4  UNL A   1      33.898  24.317  26.018  1.00  0.00    +0.000 C 
BRANCH    4    3
ATOM    129  H34 UNL A   1      33.405  22.771  23.440  1.00  0.00    +0.000 H 
ATOM      2  C2  UNL A   1      33.591  26.655  24.939  1.00  0.00    +0.000 C 
ATOM      3  C3  UNL A   1      33.617  25.267  24.888  1.00  0.00    +0.000 C 
ATOM    132  H37 UNL A   1      32.988  26.841  20.821  1.00  0.00    +0.000 H 
ATOM    130  H35 UNL A   1      32.958  22.647  21.062  1.00  0.00    +0.000 H 
ATOM    131  H36 UNL A   1      32.783  24.668  19.759  1.00  0.00    +0.000 H 
ATOM     80  C57 UNL A   1      33.362  24.894  23.540  1.00  0.00    +0.000 C 
ATOM     81  C58 UNL A   1      33.285  23.638  22.895  1.00  0.00    +0.000 C 
ATOM     82  C59 UNL A   1      33.049  23.565  21.522  1.00  0.00    +0.000 C 
ATOM     83  C60 UNL A   1      32.938  24.727  20.779  1.00  0.00    +0.000 C 
ATOM     84  C61 UNL A   1      33.034  25.981  21.391  1.00  0.00    +0.000 C 
ATOM     85  C62 UNL A   1      33.192  26.064  22.790  1.00  0.00    +0.000 C 
ATOM     86  N7  UNL A   1      33.195  27.147  23.685  1.00  0.00    +0.000 N 
BRANCH    2    1
ATOM      1  C1  UNL A   1      33.871  27.549  26.109  1.00  0.00    +0.000 C 
ATOM     98  H3  UNL A   1      34.896  27.449  26.396  1.00  0.00    +0.000 H 
ATOM     97  H2  UNL A   1      33.672  28.563  25.837  1.00  0.00    +0.000 H 
ATOM     96  H1  UNL A   1      33.242  27.268  26.929  1.00  0.00    +0.000 H 
ENDBRANCH    2    1
BRANCH   86   87
ATOM     87  C63 UNL A   1      32.855  28.506  23.411  1.00  0.00    +0.000 C 
ATOM     88  O3  UNL A   1      33.751  29.308  23.175  1.00  0.00    +0.000 O 
BRANCH   87   89
ATOM    133  H38 UNL A   1      30.818  27.963  21.701  1.00  0.00    +0.000 H 
ATOM    134  H39 UNL A   1      28.644  29.061  21.618  1.00  0.00    +0.000 H 
ATOM    135  H40 UNL A   1      29.608  31.253  25.080  1.00  0.00    +0.000 H 
ATOM    136  H41 UNL A   1      31.799  30.198  25.138  1.00  0.00    +0.000 H 
ATOM     89  C64 UNL A   1      31.493  29.065  23.378  1.00  0.00    +0.000 C 
ATOM     90  C65 UNL A   1      30.574  28.688  22.394  1.00  0.00    +0.000 C 
ATOM     91  C66 UNL A   1      29.320  29.306  22.359  1.00  0.00    +0.000 C 
ATOM     92  C67 UNL A   1      28.984  30.254  23.328  1.00  0.00    +0.000 C 
ATOM     93 Cl1  UNL A   1      27.458  31.046  23.253  1.00  0.00    +0.000 Cl
ATOM     94  C68 UNL A   1      29.877  30.575  24.350  1.00  0.00    +0.000 C 
ATOM     95  C69 UNL A   1      31.135  29.975  24.381  1.00  0.00    +0.000 C 
ENDBRANCH   87   89
ENDBRANCH   86   87
ENDBRANCH    4    3
ENDBRANCH    5    4
ENDBRANCH    7    5
ENDBRANCH    8    7
ENDBRANCH    9    8
ENDBRANCH   10    9
ENDBRANCH   11   10
ENDBRANCH   12   11
ENDBRANCH   13   12
ENDBRANCH   14   13
ENDBRANCH   15   14
ENDBRANCH   17   15
ENDBRANCH   21   20
BRANCH   25   26
ATOM     33  C25 UNL A   1      44.489  34.513  27.319  1.00  0.00    +0.000 C 
ATOM     34  F4  UNL A   1      43.788  35.633  27.553  1.00  0.00    +0.000 F 
ATOM     35  C26 UNL A   1      43.996  33.291  27.773  1.00  0.00    +0.000 C 
ATOM     36  F5  UNL A   1      42.862  33.364  28.478  1.00  0.00    +0.000 F 
ATOM     26  C21 UNL A   1      44.701  32.080  27.601  1.00  0.00    +0.000 C 
ATOM     27  C22 UNL A   1      45.925  32.186  26.909  1.00  0.00    +0.000 C 
ATOM     28  F1  UNL A   1      46.690  31.104  26.698  1.00  0.00    +0.000 F 
ATOM     29  C23 UNL A   1      46.439  33.421  26.500  1.00  0.00    +0.000 C 
ATOM     30  F2  UNL A   1      47.665  33.486  25.961  1.00  0.00    +0.000 F 
ATOM     31  C24 UNL A   1      45.724  34.584  26.714  1.00  0.00    +0.000 C 
ATOM     32  F3  UNL A   1      46.243  35.774  26.382  1.00  0.00    +0.000 F 
ENDBRANCH   25   26
BRANCH   42   43
ATOM     43  C32 UNL A   1      42.174  30.061  33.646  1.00  0.00    +0.000 C 
ATOM     44  C33 UNL A   1      41.702  28.738  33.578  1.00  0.00    +0.000 C 
ATOM     45  F6  UNL A   1      41.371  28.186  32.403  1.00  0.00    +0.000 F 
ATOM     46  C34 UNL A   1      41.622  27.941  34.720  1.00  0.00    +0.000 C 
ATOM     47  F7  UNL A   1      41.165  26.683  34.634  1.00  0.00    +0.000 F 
ATOM     48  C35 UNL A   1      42.056  28.433  35.941  1.00  0.00    +0.000 C 
ATOM     49  F8  UNL A   1      42.028  27.652  37.030  1.00  0.00    +0.000 F 
ATOM     50  C36 UNL A   1      42.548  29.726  36.027  1.00  0.00    +0.000 C 
ATOM     51  F9  UNL A   1      43.016  30.188  37.194  1.00  0.00    +0.000 F 
ATOM     52  C37 UNL A   1      42.593  30.535  34.895  1.00  0.00    +0.000 C 
ATOM     53  F10 UNL A   1      43.103  31.771  35.008  1.00  0.00    +0.000 F 
ENDBRANCH   42   43
BRANCH   57   58
ATOM     65  C45 UNL A   1      35.442  33.632  29.805  1.00  0.00    +0.000 C 
ATOM     66  F14 UNL A   1      35.234  34.307  28.666  1.00  0.00    +0.000 F 
ATOM     67  C46 UNL A   1      36.443  32.660  29.860  1.00  0.00    +0.000 C 
ATOM     68  F15 UNL A   1      37.175  32.475  28.752  1.00  0.00    +0.000 F 
ATOM     58  C41 UNL A   1      36.750  31.975  31.051  1.00  0.00    +0.000 C 
ATOM     59  C42 UNL A   1      35.966  32.294  32.174  1.00  0.00    +0.000 C 
ATOM     60  F11 UNL A   1      36.218  31.718  33.359  1.00  0.00    +0.000 F 
ATOM     61  C43 UNL A   1      34.965  33.271  32.118  1.00  0.00    +0.000 C 
ATOM     62  F12 UNL A   1      34.286  33.598  33.228  1.00  0.00    +0.000 F 
ATOM     63  C44 UNL A   1      34.715  33.949  30.937  1.00  0.00    +0.000 C 
ATOM     64  F13 UNL A   1      33.806  34.934  30.900  1.00  0.00    +0.000 F 
ENDBRANCH   57   58
TORSDOF 19
ENDMDL
MODEL 10
REMARK VINA RESULT:     -11.3      3.066      8.720
ROOT
ATOM     21  C17 UNL A   1      41.240  27.935  28.616  1.00  0.00    +0.000 C 
ATOM     22  C18 UNL A   1      42.386  28.821  28.272  1.00  0.00    +0.000 C 
ATOM     23  N3  UNL A   1      43.277  29.309  29.073  1.00  0.00    +0.000 N 
ATOM     24  C19 UNL A   1      44.128  30.074  28.280  1.00  0.00    +0.000 C 
ATOM     25  C20 UNL A   1      44.903  31.056  28.817  1.00  0.00    +0.000 C 
ATOM     37  C27 UNL A   1      45.073  30.869  30.235  1.00  0.00    +0.000 C 
ATOM     38  C28 UNL A   1      45.684  29.917  31.026  1.00  0.00    +0.000 C 
ATOM     39  C29 UNL A   1      44.857  29.810  32.183  1.00  0.00    +0.000 C 
ATOM     40  C30 UNL A   1      43.824  30.738  32.057  1.00  0.00    +0.000 C 
ATOM     41  N4  UNL A   1      44.263  31.587  31.075  1.00  0.00    +0.000 N 
ATOM     42  C31 UNL A   1      42.520  30.836  32.666  1.00  0.00    +0.000 C 
ATOM     54  C38 UNL A   1      41.477  31.556  32.162  1.00  0.00    +0.000 C 
ATOM     55  N5  UNL A   1      40.172  31.263  32.524  1.00  0.00    +0.000 N 
ATOM     56  C39 UNL A   1      39.452  31.662  31.513  1.00  0.00    +0.000 C 
ATOM     57  C40 UNL A   1      38.271  30.918  31.007  1.00  0.00    +0.000 C 
ATOM     69  C47 UNL A   1      38.738  29.758  30.477  1.00  0.00    +0.000 C 
ATOM     70  C48 UNL A   1      38.056  28.515  30.189  1.00  0.00    +0.000 C 
ATOM     71  C49 UNL A   1      38.934  27.661  29.623  1.00  0.00    +0.000 C 
ATOM     72  C50 UNL A   1      40.198  28.353  29.365  1.00  0.00    +0.000 C 
ATOM     73  N6  UNL A   1      40.051  29.567  30.003  1.00  0.00    +0.000 N 
ATOM     74  C51 UNL A   1      40.099  32.599  30.608  1.00  0.00    +0.000 C 
ATOM     75  C52 UNL A   1      41.363  32.434  31.000  1.00  0.00    +0.000 C 
ATOM     76  C53 UNL A   1      43.793  29.771  26.913  1.00  0.00    +0.000 C 
ATOM     77  C54 UNL A   1      42.667  29.060  26.848  1.00  0.00    +0.000 C 
ATOM    117  H22 UNL A   1      46.553  29.397  30.825  1.00  0.00    +0.000 H 
ATOM    118  H23 UNL A   1      44.998  29.161  32.972  1.00  0.00    +0.000 H 
ATOM    119  H24 UNL A   1      44.037  32.541  30.989  1.00  0.00    +0.000 H 
ATOM    120  H25 UNL A   1      37.062  28.314  30.385  1.00  0.00    +0.000 H 
ATOM    121  H26 UNL A   1      38.744  26.670  29.404  1.00  0.00    +0.000 H 
ATOM    122  H27 UNL A   1      40.778  30.223  30.113  1.00  0.00    +0.000 H 
ATOM    123  H28 UNL A   1      39.698  33.211  29.880  1.00  0.00    +0.000 H 
ATOM    124  H29 UNL A   1      42.171  32.877  30.535  1.00  0.00    +0.000 H 
ATOM    125  H30 UNL A   1      44.350  30.065  26.095  1.00  0.00    +0.000 H 
ATOM    126  H31 UNL A   1      42.134  28.757  26.018  1.00  0.00    +0.000 H 
ENDROOT
BRANCH   21   20
ATOM     78  C55 UNL A   1      42.076  25.591  28.633  1.00  0.00    +0.000 C 
ATOM     79  C56 UNL A   1      42.171  24.359  28.001  1.00  0.00    +0.000 C 
ATOM     17  C13 UNL A   1      41.502  24.108  26.786  1.00  0.00    +0.000 C 
ATOM     18  C14 UNL A   1      40.630  25.077  26.295  1.00  0.00    +0.000 C 
ATOM     19  C15 UNL A   1      40.557  26.325  26.904  1.00  0.00    +0.000 C 
ATOM    115  H20 UNL A   1      40.037  24.869  25.476  1.00  0.00    +0.000 H 
ATOM    116  H21 UNL A   1      39.933  27.050  26.518  1.00  0.00    +0.000 H 
ATOM     20  C16 UNL A   1      41.327  26.598  28.038  1.00  0.00    +0.000 C 
ATOM    127  H32 UNL A   1      42.556  25.758  29.532  1.00  0.00    +0.000 H 
ATOM    128  H33 UNL A   1      42.742  23.614  28.428  1.00  0.00    +0.000 H 
BRANCH   17   15
ATOM     15  C12 UNL A   1      41.882  22.850  26.089  1.00  0.00    +0.000 C 
ATOM     16  O2  UNL A   1      42.994  22.780  25.562  1.00  0.00    +0.000 O 
BRANCH   15   14
ATOM    114  H19 UNL A   1      41.378  21.170  25.199  1.00  0.00    +0.000 H 
ATOM     14  N2  UNL A   1      41.060  21.773  25.908  1.00  0.00    +0.000 N 
BRANCH   14   13
ATOM    113  H18 UNL A   1      39.848  21.629  27.541  1.00  0.00    +0.000 H 
ATOM     13  C11 UNL A   1      39.829  21.313  26.519  1.00  0.00    +0.000 C 
ATOM    112  H17 UNL A   1      39.782  20.248  26.422  1.00  0.00    +0.000 H 
BRANCH   13   12
ATOM     12  C10 UNL A   1      38.571  21.912  25.887  1.00  0.00    +0.000 C 
ATOM    110  H15 UNL A   1      37.887  22.159  26.671  1.00  0.00    +0.000 H 
ATOM    111  H16 UNL A   1      38.885  22.768  25.327  1.00  0.00    +0.000 H 
BRANCH   12   11
ATOM     11  C9  UNL A   1      37.860  20.976  24.903  1.00  0.00    +0.000 C 
ATOM    108  H13 UNL A   1      37.969  21.384  23.920  1.00  0.00    +0.000 H 
ATOM    109  H14 UNL A   1      38.318  20.017  25.019  1.00  0.00    +0.000 H 
BRANCH   11   10
ATOM     10  C8  UNL A   1      36.364  20.773  25.169  1.00  0.00    +0.000 C 
ATOM    107  H12 UNL A   1      36.271  19.832  25.670  1.00  0.00    +0.000 H 
ATOM    106  H11 UNL A   1      35.851  20.803  24.231  1.00  0.00    +0.000 H 
BRANCH   10    9
ATOM      9  C7  UNL A   1      35.730  21.818  26.094  1.00  0.00    +0.000 C 
ATOM    105  H10 UNL A   1      36.510  22.476  26.412  1.00  0.00    +0.000 H 
ATOM    104  H9  UNL A   1      35.271  21.310  26.918  1.00  0.00    +0.000 H 
BRANCH    9    8
ATOM    102  H7  UNL A   1      33.769  22.648  25.978  1.00  0.00    +0.000 H 
ATOM    103  H8  UNL A   1      35.041  23.674  25.323  1.00  0.00    +0.000 H 
ATOM      8  C6  UNL A   1      34.668  22.674  25.401  1.00  0.00    +0.000 C 
BRANCH    8    7
ATOM    101  H6  UNL A   1      35.126  22.255  23.419  1.00  0.00    +0.000 H 
ATOM      7  N1  UNL A   1      34.387  22.187  24.066  1.00  0.00    +0.000 N 
BRANCH    7    5
ATOM      5  C5  UNL A   1      33.227  21.647  23.589  1.00  0.00    +0.000 C 
ATOM      6  O1  UNL A   1      32.958  20.480  23.885  1.00  0.00    +0.000 O 
BRANCH    5    4
ATOM    100  H5  UNL A   1      31.492  21.843  22.421  1.00  0.00    +0.000 H 
ATOM     99  H4  UNL A   1      32.904  22.720  21.791  1.00  0.00    +0.000 H 
ATOM      4  C4  UNL A   1      32.335  22.456  22.658  1.00  0.00    +0.000 C 
BRANCH    4    3
ATOM    129  H34 UNL A   1      31.099  21.851  25.376  1.00  0.00    +0.000 H 
ATOM      2  C2  UNL A   1      31.818  24.996  22.738  1.00  0.00    +0.000 C 
ATOM      3  C3  UNL A   1      31.801  23.717  23.279  1.00  0.00    +0.000 C 
ATOM    132  H37 UNL A   1      29.633  26.443  25.977  1.00  0.00    +0.000 H 
ATOM    130  H35 UNL A   1      29.919  22.498  27.391  1.00  0.00    +0.000 H 
ATOM    131  H36 UNL A   1      29.165  24.770  27.672  1.00  0.00    +0.000 H 
ATOM     80  C57 UNL A   1      31.141  23.803  24.535  1.00  0.00    +0.000 C 
ATOM     81  C58 UNL A   1      30.819  22.834  25.513  1.00  0.00    +0.000 C 
ATOM     82  C59 UNL A   1      30.121  23.200  26.663  1.00  0.00    +0.000 C 
ATOM     83  C60 UNL A   1      29.699  24.508  26.827  1.00  0.00    +0.000 C 
ATOM     84  C61 UNL A   1      29.986  25.479  25.863  1.00  0.00    +0.000 C 
ATOM     85  C62 UNL A   1      30.761  25.135  24.735  1.00  0.00    +0.000 C 
ATOM     86  N7  UNL A   1      31.304  25.895  23.686  1.00  0.00    +0.000 N 
BRANCH    2    1
ATOM      1  C1  UNL A   1      32.331  25.434  21.400  1.00  0.00    +0.000 C 
ATOM     98  H3  UNL A   1      33.295  25.003  21.230  1.00  0.00    +0.000 H 
ATOM     97  H2  UNL A   1      31.656  25.113  20.637  1.00  0.00    +0.000 H 
ATOM     96  H1  UNL A   1      32.410  26.502  21.382  1.00  0.00    +0.000 H 
ENDBRANCH    2    1
BRANCH   86   87
ATOM     87  C63 UNL A   1      31.355  27.318  23.574  1.00  0.00    +0.000 C 
ATOM     88  O3  UNL A   1      30.769  27.862  22.645  1.00  0.00    +0.000 O 
BRANCH   87   89
ATOM    133  H38 UNL A   1      33.876  27.151  24.568  1.00  0.00    +0.000 H 
ATOM    134  H39 UNL A   1      34.900  28.626  26.214  1.00  0.00    +0.000 H 
ATOM    135  H40 UNL A   1      31.500  31.106  26.124  1.00  0.00    +0.000 H 
ATOM    136  H41 UNL A   1      30.451  29.609  24.519  1.00  0.00    +0.000 H 
ATOM     89  C64 UNL A   1      32.057  28.232  24.490  1.00  0.00    +0.000 C 
ATOM     90  C65 UNL A   1      33.359  27.969  24.927  1.00  0.00    +0.000 C 
ATOM     91  C66 UNL A   1      33.953  28.827  25.858  1.00  0.00    +0.000 C 
ATOM     92  C67 UNL A   1      33.261  29.955  26.305  1.00  0.00    +0.000 C 
ATOM     93 Cl1  UNL A   1      33.976  30.982  27.486  1.00  0.00    +0.000 Cl
ATOM     94  C68 UNL A   1      31.990  30.252  25.812  1.00  0.00    +0.000 C 
ATOM     95  C69 UNL A   1      31.387  29.392  24.897  1.00  0.00    +0.000 C 
ENDBRANCH   87   89
ENDBRANCH   86   87
ENDBRANCH    4    3
ENDBRANCH    5    4
ENDBRANCH    7    5
ENDBRANCH    8    7
ENDBRANCH    9    8
ENDBRANCH   10    9
ENDBRANCH   11   10
ENDBRANCH   12   11
ENDBRANCH   13   12
ENDBRANCH   14   13
ENDBRANCH   15   14
ENDBRANCH   17   15
ENDBRANCH   21   20
BRANCH   25   26
ATOM     33  C25 UNL A   1      46.520  33.723  26.569  1.00  0.00    +0.000 C 
ATOM     34  F4  UNL A   1      47.677  33.907  25.917  1.00  0.00    +0.000 F 
ATOM     35  C26 UNL A   1      46.397  32.653  27.455  1.00  0.00    +0.000 C 
ATOM     36  F5  UNL A   1      47.462  31.849  27.524  1.00  0.00    +0.000 F 
ATOM     26  C21 UNL A   1      45.195  32.374  28.141  1.00  0.00    +0.000 C 
ATOM     27  C22 UNL A   1      44.135  33.272  27.895  1.00  0.00    +0.000 C 
ATOM     28  F1  UNL A   1      42.940  33.099  28.480  1.00  0.00    +0.000 F 
ATOM     29  C23 UNL A   1      44.248  34.313  26.968  1.00  0.00    +0.000 C 
ATOM     30  F2  UNL A   1      43.174  35.059  26.672  1.00  0.00    +0.000 F 
ATOM     31  C24 UNL A   1      45.438  34.531  26.299  1.00  0.00    +0.000 C 
ATOM     32  F3  UNL A   1      45.528  35.485  25.363  1.00  0.00    +0.000 F 
ENDBRANCH   25   26
BRANCH   42   43
ATOM     43  C32 UNL A   1      42.233  29.895  33.805  1.00  0.00    +0.000 C 
ATOM     44  C33 UNL A   1      41.789  28.572  33.632  1.00  0.00    +0.000 C 
ATOM     45  F6  UNL A   1      41.539  28.085  32.408  1.00  0.00    +0.000 F 
ATOM     46  C34 UNL A   1      41.654  27.709  34.719  1.00  0.00    +0.000 C 
ATOM     47  F7  UNL A   1      41.226  26.451  34.532  1.00  0.00    +0.000 F 
ATOM     48  C35 UNL A   1      42.005  28.133  35.991  1.00  0.00    +0.000 C 
ATOM     49  F8  UNL A   1      41.926  27.289  37.029  1.00  0.00    +0.000 F 
ATOM     50  C36 UNL A   1      42.468  29.426  36.181  1.00  0.00    +0.000 C 
ATOM     51  F9  UNL A   1      42.856  29.825  37.400  1.00  0.00    +0.000 F 
ATOM     52  C37 UNL A   1      42.568  30.301  35.103  1.00  0.00    +0.000 C 
ATOM     53  F10 UNL A   1      43.047  31.535  35.318  1.00  0.00    +0.000 F 
ENDBRANCH   42   43
BRANCH   57   58
ATOM     65  C45 UNL A   1      35.688  33.242  29.485  1.00  0.00    +0.000 C 
ATOM     66  F14 UNL A   1      35.556  33.983  28.376  1.00  0.00    +0.000 F 
ATOM     67  C46 UNL A   1      36.745  32.336  29.590  1.00  0.00    +0.000 C 
ATOM     68  F15 UNL A   1      37.605  32.280  28.563  1.00  0.00    +0.000 F 
ATOM     58  C41 UNL A   1      36.971  31.588  30.762  1.00  0.00    +0.000 C 
ATOM     59  C42 UNL A   1      36.048  31.772  31.807  1.00  0.00    +0.000 C 
ATOM     60  F11 UNL A   1      36.211  31.129  32.972  1.00  0.00    +0.000 F 
ATOM     61  C43 UNL A   1      34.990  32.683  31.701  1.00  0.00    +0.000 C 
ATOM     62  F12 UNL A   1      34.172  32.883  32.745  1.00  0.00    +0.000 F 
ATOM     63  C44 UNL A   1      34.820  33.427  30.546  1.00  0.00    +0.000 C 
ATOM     64  F13 UNL A   1      33.851  34.350  30.470  1.00  0.00    +0.000 F 
ENDBRANCH   57   58
TORSDOF 19
ENDMDL
