MODEL 1
REMARK VINA RESULT:      -9.2      0.000      0.000
ROOT
ATOM     19  C15 UNL A   1      13.190  49.656   3.156  1.00  0.00    +0.000 C 
ATOM     20  C16 UNL A   1      14.099  49.320   2.009  1.00  0.00    +0.000 C 
ATOM     21  N3  UNL A   1      14.956  50.086   1.383  1.00  0.00    +0.000 N 
ATOM     22  C17 UNL A   1      15.571  49.274   0.441  1.00  0.00    +0.000 C 
ATOM     23  C18 UNL A   1      16.508  49.613  -0.476  1.00  0.00    +0.000 C 
ATOM     35  C25 UNL A   1      17.024  50.944  -0.658  1.00  0.00    +0.000 C 
ATOM     36  C26 UNL A   1      17.878  51.409  -1.644  1.00  0.00    +0.000 C 
ATOM     37  C27 UNL A   1      18.151  52.756  -1.384  1.00  0.00    +0.000 C 
ATOM     38  C28 UNL A   1      17.439  53.138  -0.260  1.00  0.00    +0.000 C 
ATOM     39  N4  UNL A   1      16.741  52.020   0.169  1.00  0.00    +0.000 N 
ATOM     40  C29 UNL A   1      17.405  54.422   0.389  1.00  0.00    +0.000 C 
ATOM     52  C36 UNL A   1      16.611  54.741   1.439  1.00  0.00    +0.000 C 
ATOM     53  N5  UNL A   1      15.698  53.942   2.112  1.00  0.00    +0.000 N 
ATOM     54  C37 UNL A   1      15.193  54.694   3.060  1.00  0.00    +0.000 C 
ATOM     55  C38 UNL A   1      14.152  54.350   4.088  1.00  0.00    +0.000 C 
ATOM     67  C45 UNL A   1      13.598  53.123   4.082  1.00  0.00    +0.000 C 
ATOM     68  C46 UNL A   1      12.596  52.647   5.030  1.00  0.00    +0.000 C 
ATOM     69  C47 UNL A   1      12.351  51.348   4.791  1.00  0.00    +0.000 C 
ATOM     70  C48 UNL A   1      13.153  50.911   3.645  1.00  0.00    +0.000 C 
ATOM     71  N6  UNL A   1      13.827  52.045   3.261  1.00  0.00    +0.000 N 
ATOM     72  C49 UNL A   1      15.746  56.057   3.102  1.00  0.00    +0.000 C 
ATOM     73  C50 UNL A   1      16.582  56.041   2.072  1.00  0.00    +0.000 C 
ATOM     74  C51 UNL A   1      15.012  47.948   0.594  1.00  0.00    +0.000 C 
ATOM     75  C52 UNL A   1      14.059  47.934   1.517  1.00  0.00    +0.000 C 
ATOM    111  H21 UNL A   1      18.247  50.857  -2.433  1.00  0.00    +0.000 H 
ATOM    112  H22 UNL A   1      18.778  53.361  -1.937  1.00  0.00    +0.000 H 
ATOM    113  H23 UNL A   1      16.135  51.994   0.945  1.00  0.00    +0.000 H 
ATOM    114  H24 UNL A   1      12.148  53.215   5.765  1.00  0.00    +0.000 H 
ATOM    115  H25 UNL A   1      11.702  50.752   5.328  1.00  0.00    +0.000 H 
ATOM    116  H26 UNL A   1      14.417  52.081   2.475  1.00  0.00    +0.000 H 
ATOM    117  H27 UNL A   1      15.538  56.823   3.760  1.00  0.00    +0.000 H 
ATOM    118  H28 UNL A   1      17.140  56.853   1.764  1.00  0.00    +0.000 H 
ATOM    119  H29 UNL A   1      15.316  47.122   0.056  1.00  0.00    +0.000 H 
ATOM    120  H30 UNL A   1      13.450  47.156   1.812  1.00  0.00    +0.000 H 
ENDROOT
BRANCH   19   18
ATOM     76  C53 UNL A   1      12.997  47.868   4.883  1.00  0.00    +0.000 C 
ATOM    109  H19 UNL A   1       9.329  47.244   3.976  1.00  0.00    +0.000 H 
ATOM     77  C54 UNL A   1      12.255  46.924   5.590  1.00  0.00    +0.000 C 
ATOM     15  C11 UNL A   1      10.898  46.754   5.306  1.00  0.00    +0.000 C 
ATOM     16  C12 UNL A   1      10.316  47.421   4.224  1.00  0.00    +0.000 C 
ATOM     17  C13 UNL A   1      11.076  48.326   3.479  1.00  0.00    +0.000 C 
ATOM    110  H20 UNL A   1      10.655  48.803   2.666  1.00  0.00    +0.000 H 
ATOM     18  C14 UNL A   1      12.409  48.590   3.834  1.00  0.00    +0.000 C 
ATOM    121  H31 UNL A   1      13.984  48.036   5.132  1.00  0.00    +0.000 H 
ATOM    122  H32 UNL A   1      12.707  46.353   6.322  1.00  0.00    +0.000 H 
BRANCH   15   13
ATOM     13  C10 UNL A   1      10.050  45.882   6.147  1.00  0.00    +0.000 C 
ATOM     14  O2  UNL A   1       8.964  45.497   5.726  1.00  0.00    +0.000 O 
BRANCH   13   12
ATOM    108  H18 UNL A   1      11.048  44.734   7.452  1.00  0.00    +0.000 H 
ATOM     12  N2  UNL A   1      10.473  45.531   7.406  1.00  0.00    +0.000 N 
BRANCH   12   11
ATOM    106  H16 UNL A   1       9.767  47.138   8.493  1.00  0.00    +0.000 H 
ATOM     11  C9  UNL A   1      10.189  46.173   8.681  1.00  0.00    +0.000 C 
ATOM    107  H17 UNL A   1       9.509  45.545   9.218  1.00  0.00    +0.000 H 
BRANCH   11   10
ATOM    105  H15 UNL A   1      12.044  45.477   9.361  1.00  0.00    +0.000 H 
ATOM     10  C8  UNL A   1      11.440  46.342   9.538  1.00  0.00    +0.000 C 
ATOM    104  H14 UNL A   1      11.134  46.444  10.558  1.00  0.00    +0.000 H 
BRANCH   10    9
ATOM      9  C7  UNL A   1      12.307  47.552   9.179  1.00  0.00    +0.000 C 
ATOM    102  H12 UNL A   1      12.141  47.784   8.148  1.00  0.00    +0.000 H 
ATOM    103  H13 UNL A   1      12.015  48.335   9.846  1.00  0.00    +0.000 H 
BRANCH    9    8
ATOM    100  H10 UNL A   1      13.987  46.319   9.579  1.00  0.00    +0.000 H 
ATOM    101  H11 UNL A   1      14.281  47.711   8.489  1.00  0.00    +0.000 H 
ATOM      8  C6  UNL A   1      13.812  47.357   9.384  1.00  0.00    +0.000 C 
BRANCH    8    7
ATOM     98  H8  UNL A   1      15.027  47.501  11.125  1.00  0.00    +0.000 H 
ATOM     99  H9  UNL A   1      15.002  48.948  10.082  1.00  0.00    +0.000 H 
ATOM      7  C5  UNL A   1      14.431  48.164  10.534  1.00  0.00    +0.000 C 
BRANCH    7    6
ATOM     97  H7  UNL A   1      13.615  48.551  12.463  1.00  0.00    +0.000 H 
ATOM      6  C4  UNL A   1      13.411  48.840  11.453  1.00  0.00    +0.000 C 
ATOM     96  H6  UNL A   1      12.426  48.534  11.170  1.00  0.00    +0.000 H 
BRANCH    6    5
ATOM      5  N1  UNL A   1      13.506  50.282  11.355  1.00  0.00    +0.000 N 
ATOM     95  H5  UNL A   1      12.664  50.744  11.138  1.00  0.00    +0.000 H 
BRANCH    5    3
ATOM      3  C3  UNL A   1      14.590  51.093  11.519  1.00  0.00    +0.000 C 
ATOM      4  O1  UNL A   1      15.138  51.069  12.623  1.00  0.00    +0.000 O 
BRANCH    3    2
ATOM      2  C2  UNL A   1      15.057  51.991  10.364  1.00  0.00    +0.000 C 
ATOM     94  H4  UNL A   1      15.928  52.500  10.718  1.00  0.00    +0.000 H 
BRANCH    2    1
ATOM      1  C1  UNL A   1      14.017  53.051   9.994  1.00  0.00    +0.000 C 
ATOM     91  H1  UNL A   1      13.618  52.836   9.025  1.00  0.00    +0.000 H 
ATOM     92  H2  UNL A   1      14.480  54.016   9.983  1.00  0.00    +0.000 H 
ATOM     93  H3  UNL A   1      13.227  53.043  10.716  1.00  0.00    +0.000 H 
ENDBRANCH    2    1
BRANCH    2   78
ATOM    134  H44 UNL A   1      18.056  49.457   7.892  1.00  0.00    +0.000 H 
ATOM     78  C55 UNL A   1      15.445  51.178   9.139  1.00  0.00    +0.000 C 
ATOM     79  C56 UNL A   1      14.550  50.957   8.083  1.00  0.00    +0.000 C 
ATOM     80  C57 UNL A   1      14.941  50.217   6.966  1.00  0.00    +0.000 C 
ATOM     81  C58 UNL A   1      16.230  49.686   6.870  1.00  0.00    +0.000 C 
ATOM     88  C64 UNL A   1      17.111  49.869   7.930  1.00  0.00    +0.000 C 
ATOM     89  C65 UNL A   1      16.718  50.609   9.043  1.00  0.00    +0.000 C 
ATOM     90  F16 UNL A   1      17.602  50.781  10.037  1.00  0.00    +0.000 F 
ATOM    123  H33 UNL A   1      13.595  51.346   8.132  1.00  0.00    +0.000 H 
ATOM    124  H34 UNL A   1      14.269  50.060   6.199  1.00  0.00    +0.000 H 
BRANCH   81   82
ATOM     82  O3  UNL A   1      16.467  49.012   5.711  1.00  0.00    +0.000 O 
BRANCH   82   83
ATOM    129  H39 UNL A   1      17.062  51.663   2.472  1.00  0.00    +0.000 H 
ATOM    130  H40 UNL A   1      19.456  49.956   2.942  1.00  0.00    +0.000 H 
ATOM    131  H41 UNL A   1      18.284  49.823   1.677  1.00  0.00    +0.000 H 
ATOM    132  H42 UNL A   1      17.114  48.270   2.884  1.00  0.00    +0.000 H 
ATOM    133  H43 UNL A   1      18.364  48.277   4.065  1.00  0.00    +0.000 H 
ATOM     83  C59 UNL A   1      16.752  49.661   4.482  1.00  0.00    +0.000 C 
ATOM     84  C60 UNL A   1      17.264  51.098   4.548  1.00  0.00    +0.000 C 
ATOM     85  C61 UNL A   1      17.818  51.326   3.151  1.00  0.00    +0.000 C 
ATOM     86  C62 UNL A   1      18.407  49.981   2.729  1.00  0.00    +0.000 C 
ATOM     87  C63 UNL A   1      17.680  48.905   3.533  1.00  0.00    +0.000 C 
ATOM    125  H35 UNL A   1      15.754  49.677   4.093  1.00  0.00    +0.000 H 
ATOM    126  H36 UNL A   1      18.030  51.199   5.288  1.00  0.00    +0.000 H 
ATOM    127  H37 UNL A   1      16.507  51.804   4.822  1.00  0.00    +0.000 H 
ATOM    128  H38 UNL A   1      18.578  52.080   3.168  1.00  0.00    +0.000 H 
ENDBRANCH   82   83
ENDBRANCH   81   82
ENDBRANCH    2   78
ENDBRANCH    3    2
ENDBRANCH    5    3
ENDBRANCH    6    5
ENDBRANCH    7    6
ENDBRANCH    8    7
ENDBRANCH    9    8
ENDBRANCH   10    9
ENDBRANCH   11   10
ENDBRANCH   12   11
ENDBRANCH   13   12
ENDBRANCH   15   13
ENDBRANCH   19   18
BRANCH   23   24
ATOM     33  C24 UNL A   1      16.383  48.225  -2.571  1.00  0.00    +0.000 C 
ATOM     34  F5  UNL A   1      15.321  48.943  -2.964  1.00  0.00    +0.000 F 
ATOM     24  C19 UNL A   1      17.041  48.534  -1.370  1.00  0.00    +0.000 C 
ATOM     25  C20 UNL A   1      18.142  47.750  -1.001  1.00  0.00    +0.000 C 
ATOM     26  F1  UNL A   1      18.806  48.011   0.135  1.00  0.00    +0.000 F 
ATOM     27  C21 UNL A   1      18.574  46.700  -1.807  1.00  0.00    +0.000 C 
ATOM     28  F2  UNL A   1      19.643  45.977  -1.447  1.00  0.00    +0.000 F 
ATOM     29  C22 UNL A   1      17.901  46.402  -2.983  1.00  0.00    +0.000 C 
ATOM     30  F3  UNL A   1      18.308  45.380  -3.748  1.00  0.00    +0.000 F 
ATOM     31  C23 UNL A   1      16.805  47.162  -3.364  1.00  0.00    +0.000 C 
ATOM     32  F4  UNL A   1      16.146  46.867  -4.493  1.00  0.00    +0.000 F 
ENDBRANCH   23   24
BRANCH   40   41
ATOM     41  C30 UNL A   1      18.309  55.495  -0.141  1.00  0.00    +0.000 C 
ATOM     42  C31 UNL A   1      17.990  56.203  -1.308  1.00  0.00    +0.000 C 
ATOM     43  F6  UNL A   1      16.892  55.884  -2.012  1.00  0.00    +0.000 F 
ATOM     44  C32 UNL A   1      18.815  57.222  -1.773  1.00  0.00    +0.000 C 
ATOM     45  F7  UNL A   1      18.510  57.863  -2.910  1.00  0.00    +0.000 F 
ATOM     46  C33 UNL A   1      19.957  57.570  -1.068  1.00  0.00    +0.000 C 
ATOM     47  F8  UNL A   1      20.745  58.559  -1.512  1.00  0.00    +0.000 F 
ATOM     48  C34 UNL A   1      20.286  56.888   0.095  1.00  0.00    +0.000 C 
ATOM     49  F9  UNL A   1      21.385  57.230   0.783  1.00  0.00    +0.000 F 
ATOM     50  C35 UNL A   1      19.477  55.852   0.550  1.00  0.00    +0.000 C 
ATOM     51  F10 UNL A   1      19.822  55.205   1.673  1.00  0.00    +0.000 F 
ENDBRANCH   40   41
BRANCH   55   56
ATOM     65  C44 UNL A   1      12.854  56.386   4.801  1.00  0.00    +0.000 C 
ATOM     66  F15 UNL A   1      12.371  56.508   3.556  1.00  0.00    +0.000 F 
ATOM     56  C39 UNL A   1      13.743  55.347   5.111  1.00  0.00    +0.000 C 
ATOM     57  C40 UNL A   1      14.221  55.267   6.426  1.00  0.00    +0.000 C 
ATOM     58  F11 UNL A   1      15.056  54.276   6.775  1.00  0.00    +0.000 F 
ATOM     59  C41 UNL A   1      13.807  56.174   7.399  1.00  0.00    +0.000 C 
ATOM     60  F12 UNL A   1      14.241  56.046   8.660  1.00  0.00    +0.000 F 
ATOM     61  C42 UNL A   1      12.930  57.198   7.068  1.00  0.00    +0.000 C 
ATOM     62  F13 UNL A   1      12.532  58.069   8.004  1.00  0.00    +0.000 F 
ATOM     63  C43 UNL A   1      12.461  57.309   5.767  1.00  0.00    +0.000 C 
ATOM     64  F14 UNL A   1      11.624  58.303   5.442  1.00  0.00    +0.000 F 
ENDBRANCH   55   56
TORSDOF 19
ENDMDL
MODEL 2
REMARK VINA RESULT:      -9.1     38.000     43.256
ROOT
ATOM     19  C15 UNL A   1      41.567  25.963  27.930  1.00  0.00    +0.000 C 
ATOM     20  C16 UNL A   1      40.813  27.058  28.628  1.00  0.00    +0.000 C 
ATOM     21  N3  UNL A   1      41.194  28.281  28.896  1.00  0.00    +0.000 N 
ATOM     22  C17 UNL A   1      40.106  28.890  29.506  1.00  0.00    +0.000 C 
ATOM     23  C18 UNL A   1      40.016  30.148  29.999  1.00  0.00    +0.000 C 
ATOM     35  C25 UNL A   1      41.096  31.100  30.004  1.00  0.00    +0.000 C 
ATOM     36  C26 UNL A   1      41.139  32.350  30.597  1.00  0.00    +0.000 C 
ATOM     37  C27 UNL A   1      42.370  32.937  30.287  1.00  0.00    +0.000 C 
ATOM     38  C28 UNL A   1      43.107  32.037  29.535  1.00  0.00    +0.000 C 
ATOM     39  N4  UNL A   1      42.318  30.908  29.380  1.00  0.00    +0.000 N 
ATOM     40  C29 UNL A   1      44.427  32.196  28.985  1.00  0.00    +0.000 C 
ATOM     52  C36 UNL A   1      45.116  31.230  28.331  1.00  0.00    +0.000 C 
ATOM     53  N5  UNL A   1      44.729  29.930  28.041  1.00  0.00    +0.000 N 
ATOM     54  C37 UNL A   1      45.728  29.396  27.382  1.00  0.00    +0.000 C 
ATOM     55  C38 UNL A   1      45.861  28.006  26.825  1.00  0.00    +0.000 C 
ATOM     67  C45 UNL A   1      44.862  27.122  27.012  1.00  0.00    +0.000 C 
ATOM     68  C46 UNL A   1      44.845  25.752  26.511  1.00  0.00    +0.000 C 
ATOM     69  C47 UNL A   1      43.654  25.199  26.791  1.00  0.00    +0.000 C 
ATOM     70  C48 UNL A   1      42.836  26.166  27.527  1.00  0.00    +0.000 C 
ATOM     71  N6  UNL A   1      43.654  27.263  27.651  1.00  0.00    +0.000 N 
ATOM     72  C49 UNL A   1      46.860  30.310  27.166  1.00  0.00    +0.000 C 
ATOM     73  C50 UNL A   1      46.448  31.403  27.793  1.00  0.00    +0.000 C 
ATOM     74  C51 UNL A   1      39.039  27.914  29.545  1.00  0.00    +0.000 C 
ATOM     75  C52 UNL A   1      39.441  26.746  29.061  1.00  0.00    +0.000 C 
ATOM    111  H21 UNL A   1      40.392  32.775  31.167  1.00  0.00    +0.000 H 
ATOM    112  H22 UNL A   1      42.677  33.880  30.572  1.00  0.00    +0.000 H 
ATOM    113  H23 UNL A   1      42.586  30.093  28.897  1.00  0.00    +0.000 H 
ATOM    114  H24 UNL A   1      45.623  25.283  26.021  1.00  0.00    +0.000 H 
ATOM    115  H25 UNL A   1      43.361  24.244  26.530  1.00  0.00    +0.000 H 
ATOM    116  H26 UNL A   1      43.398  28.072  28.150  1.00  0.00    +0.000 H 
ATOM    117  H27 UNL A   1      47.743  30.144  26.659  1.00  0.00    +0.000 H 
ATOM    118  H28 UNL A   1      47.006  32.267  27.884  1.00  0.00    +0.000 H 
ATOM    119  H29 UNL A   1      38.089  28.102  29.902  1.00  0.00    +0.000 H 
ATOM    120  H30 UNL A   1      38.928  25.853  29.003  1.00  0.00    +0.000 H 
ENDROOT
BRANCH   19   18
ATOM     76  C53 UNL A   1      39.811  24.709  26.680  1.00  0.00    +0.000 C 
ATOM    109  H19 UNL A   1      41.124  21.359  27.988  1.00  0.00    +0.000 H 
ATOM     77  C54 UNL A   1      39.216  23.519  26.268  1.00  0.00    +0.000 C 
ATOM     15  C11 UNL A   1      39.746  22.297  26.688  1.00  0.00    +0.000 C 
ATOM     16  C12 UNL A   1      40.778  22.264  27.630  1.00  0.00    +0.000 C 
ATOM     17  C13 UNL A   1      41.337  23.460  28.086  1.00  0.00    +0.000 C 
ATOM    110  H20 UNL A   1      42.085  23.439  28.798  1.00  0.00    +0.000 H 
ATOM     18  C14 UNL A   1      40.889  24.689  27.578  1.00  0.00    +0.000 C 
ATOM    121  H31 UNL A   1      39.457  25.611  26.323  1.00  0.00    +0.000 H 
ATOM    122  H32 UNL A   1      38.386  23.541  25.654  1.00  0.00    +0.000 H 
BRANCH   15   13
ATOM     13  C10 UNL A   1      39.240  21.021  26.138  1.00  0.00    +0.000 C 
ATOM     14  O2  UNL A   1      40.001  20.066  26.014  1.00  0.00    +0.000 O 
BRANCH   13   12
ATOM    108  H18 UNL A   1      37.298  20.630  26.441  1.00  0.00    +0.000 H 
ATOM     12  N2  UNL A   1      37.928  20.922  25.744  1.00  0.00    +0.000 N 
BRANCH   12   11
ATOM    106  H16 UNL A   1      37.970  21.872  23.911  1.00  0.00    +0.000 H 
ATOM     11  C9  UNL A   1      37.339  21.188  24.440  1.00  0.00    +0.000 C 
ATOM    107  H17 UNL A   1      37.252  20.255  23.925  1.00  0.00    +0.000 H 
BRANCH   11   10
ATOM    105  H15 UNL A   1      35.620  21.629  25.554  1.00  0.00    +0.000 H 
ATOM     10  C8  UNL A   1      35.942  21.793  24.547  1.00  0.00    +0.000 C 
ATOM    104  H14 UNL A   1      35.317  21.316  23.820  1.00  0.00    +0.000 H 
BRANCH   10    9
ATOM      9  C7  UNL A   1      35.875  23.304  24.314  1.00  0.00    +0.000 C 
ATOM    102  H12 UNL A   1      36.820  23.622  23.927  1.00  0.00    +0.000 H 
ATOM    103  H13 UNL A   1      35.060  23.465  23.638  1.00  0.00    +0.000 H 
BRANCH    9    8
ATOM    100  H10 UNL A   1      35.523  23.478  26.399  1.00  0.00    +0.000 H 
ATOM    101  H11 UNL A   1      36.348  24.869  25.627  1.00  0.00    +0.000 H 
ATOM      8  C6  UNL A   1      35.566  24.141  25.559  1.00  0.00    +0.000 C 
BRANCH    8    7
ATOM     98  H8  UNL A   1      33.447  24.238  25.397  1.00  0.00    +0.000 H 
ATOM     99  H9  UNL A   1      34.198  25.486  26.428  1.00  0.00    +0.000 H 
ATOM      7  C5  UNL A   1      34.252  24.933  25.513  1.00  0.00    +0.000 C 
BRANCH    7    6
ATOM     97  H7  UNL A   1      34.665  25.557  23.519  1.00  0.00    +0.000 H 
ATOM      6  C4  UNL A   1      34.169  25.956  24.379  1.00  0.00    +0.000 C 
ATOM     96  H6  UNL A   1      34.641  26.865  24.691  1.00  0.00    +0.000 H 
BRANCH    6    5
ATOM      5  N1  UNL A   1      32.791  26.232  24.033  1.00  0.00    +0.000 N 
ATOM     95  H5  UNL A   1      32.301  26.792  24.677  1.00  0.00    +0.000 H 
BRANCH    5    3
ATOM      3  C3  UNL A   1      32.071  25.828  22.946  1.00  0.00    +0.000 C 
ATOM      4  O1  UNL A   1      32.383  26.324  21.861  1.00  0.00    +0.000 O 
BRANCH    3    2
ATOM      2  C2  UNL A   1      30.926  24.821  23.117  1.00  0.00    +0.000 C 
ATOM     94  H4  UNL A   1      30.547  24.633  22.134  1.00  0.00    +0.000 H 
BRANCH    2    1
ATOM      1  C1  UNL A   1      29.777  25.383  23.958  1.00  0.00    +0.000 C 
ATOM     91  H1  UNL A   1      29.911  25.097  24.980  1.00  0.00    +0.000 H 
ATOM     92  H2  UNL A   1      28.848  24.993  23.598  1.00  0.00    +0.000 H 
ATOM     93  H3  UNL A   1      29.769  26.450  23.883  1.00  0.00    +0.000 H 
ENDBRANCH    2    1
BRANCH    2   78
ATOM    134  H44 UNL A   1      33.338  20.865  22.879  1.00  0.00    +0.000 H 
ATOM     78  C55 UNL A   1      31.415  23.503  23.698  1.00  0.00    +0.000 C 
ATOM     79  C56 UNL A   1      31.060  23.087  24.989  1.00  0.00    +0.000 C 
ATOM     80  C57 UNL A   1      31.515  21.865  25.489  1.00  0.00    +0.000 C 
ATOM     81  C58 UNL A   1      32.326  21.029  24.717  1.00  0.00    +0.000 C 
ATOM     88  C64 UNL A   1      32.713  21.453  23.451  1.00  0.00    +0.000 C 
ATOM     89  C65 UNL A   1      32.256  22.673  22.954  1.00  0.00    +0.000 C 
ATOM     90  F16 UNL A   1      32.634  23.038  21.720  1.00  0.00    +0.000 F 
ATOM    123  H33 UNL A   1      30.457  23.688  25.572  1.00  0.00    +0.000 H 
ATOM    124  H34 UNL A   1      31.248  21.576  26.442  1.00  0.00    +0.000 H 
BRANCH   81   82
ATOM     82  O3  UNL A   1      32.666  19.864  25.334  1.00  0.00    +0.000 O 
BRANCH   82   83
ATOM    129  H39 UNL A   1      34.266  16.758  22.954  1.00  0.00    +0.000 H 
ATOM    130  H40 UNL A   1      33.594  15.802  25.692  1.00  0.00    +0.000 H 
ATOM    131  H41 UNL A   1      32.736  15.507  24.219  1.00  0.00    +0.000 H 
ATOM    132  H42 UNL A   1      31.341  17.270  24.645  1.00  0.00    +0.000 H 
ATOM    133  H43 UNL A   1      32.083  17.459  26.185  1.00  0.00    +0.000 H 
ATOM     83  C59 UNL A   1      32.969  18.673  24.625  1.00  0.00    +0.000 C 
ATOM     84  C60 UNL A   1      34.443  18.327  24.430  1.00  0.00    +0.000 C 
ATOM     85  C61 UNL A   1      34.396  16.866  24.011  1.00  0.00    +0.000 C 
ATOM     86  C62 UNL A   1      33.233  16.261  24.794  1.00  0.00    +0.000 C 
ATOM     87  C63 UNL A   1      32.282  17.407  25.135  1.00  0.00    +0.000 C 
ATOM    125  H35 UNL A   1      32.563  18.962  23.678  1.00  0.00    +0.000 H 
ATOM    126  H36 UNL A   1      34.991  18.449  25.341  1.00  0.00    +0.000 H 
ATOM    127  H37 UNL A   1      34.933  18.955  23.716  1.00  0.00    +0.000 H 
ATOM    128  H38 UNL A   1      35.314  16.375  24.262  1.00  0.00    +0.000 H 
ENDBRANCH   82   83
ENDBRANCH   81   82
ENDBRANCH    2   78
ENDBRANCH    3    2
ENDBRANCH    5    3
ENDBRANCH    6    5
ENDBRANCH    7    6
ENDBRANCH    8    7
ENDBRANCH    9    8
ENDBRANCH   10    9
ENDBRANCH   11   10
ENDBRANCH   12   11
ENDBRANCH   13   12
ENDBRANCH   15   13
ENDBRANCH   19   18
BRANCH   23   24
ATOM     33  C24 UNL A   1      37.702  31.108  29.766  1.00  0.00    +0.000 C 
ATOM     34  F5  UNL A   1      37.874  31.157  28.436  1.00  0.00    +0.000 F 
ATOM     24  C19 UNL A   1      38.708  30.581  30.590  1.00  0.00    +0.000 C 
ATOM     25  C20 UNL A   1      38.481  30.558  31.972  1.00  0.00    +0.000 C 
ATOM     26  F1  UNL A   1      39.411  30.058  32.801  1.00  0.00    +0.000 F 
ATOM     27  C21 UNL A   1      37.290  31.038  32.510  1.00  0.00    +0.000 C 
ATOM     28  F2  UNL A   1      37.085  30.985  33.833  1.00  0.00    +0.000 F 
ATOM     29  C22 UNL A   1      36.315  31.569  31.678  1.00  0.00    +0.000 C 
ATOM     30  F3  UNL A   1      35.176  32.046  32.199  1.00  0.00    +0.000 F 
ATOM     31  C23 UNL A   1      36.521  31.606  30.308  1.00  0.00    +0.000 C 
ATOM     32  F4  UNL A   1      35.585  32.130  29.504  1.00  0.00    +0.000 F 
ENDBRANCH   23   24
BRANCH   40   41
ATOM     41  C30 UNL A   1      45.098  33.526  29.153  1.00  0.00    +0.000 C 
ATOM     42  C31 UNL A   1      45.955  33.776  30.235  1.00  0.00    +0.000 C 
ATOM     43  F6  UNL A   1      46.138  32.840  31.180  1.00  0.00    +0.000 F 
ATOM     44  C32 UNL A   1      46.602  35.000  30.365  1.00  0.00    +0.000 C 
ATOM     45  F7  UNL A   1      47.389  35.230  31.425  1.00  0.00    +0.000 F 
ATOM     46  C33 UNL A   1      46.427  35.986  29.405  1.00  0.00    +0.000 C 
ATOM     47  F8  UNL A   1      47.061  37.161  29.527  1.00  0.00    +0.000 F 
ATOM     48  C34 UNL A   1      45.592  35.755  28.322  1.00  0.00    +0.000 C 
ATOM     49  F9  UNL A   1      45.430  36.704  27.388  1.00  0.00    +0.000 F 
ATOM     50  C35 UNL A   1      44.923  34.542  28.202  1.00  0.00    +0.000 C 
ATOM     51  F10 UNL A   1      44.116  34.348  27.148  1.00  0.00    +0.000 F 
ENDBRANCH   40   41
BRANCH   55   56
ATOM     65  C44 UNL A   1      48.207  27.102  26.718  1.00  0.00    +0.000 C 
ATOM     66  F15 UNL A   1      48.219  26.987  28.054  1.00  0.00    +0.000 F 
ATOM     56  C39 UNL A   1      47.074  27.609  26.065  1.00  0.00    +0.000 C 
ATOM     57  C40 UNL A   1      47.116  27.711  24.669  1.00  0.00    +0.000 C 
ATOM     58  F11 UNL A   1      46.046  28.169  24.000  1.00  0.00    +0.000 F 
ATOM     59  C41 UNL A   1      48.236  27.300  23.949  1.00  0.00    +0.000 C 
ATOM     60  F12 UNL A   1      48.230  27.364  22.612  1.00  0.00    +0.000 F 
ATOM     61  C42 UNL A   1      49.348  26.807  24.616  1.00  0.00    +0.000 C 
ATOM     62  F13 UNL A   1      50.424  26.411  23.925  1.00  0.00    +0.000 F 
ATOM     63  C43 UNL A   1      49.338  26.716  26.001  1.00  0.00    +0.000 C 
ATOM     64  F14 UNL A   1      50.414  26.251  26.648  1.00  0.00    +0.000 F 
ENDBRANCH   55   56
TORSDOF 19
ENDMDL
MODEL 3
REMARK VINA RESULT:      -8.8      0.634      2.036
ROOT
ATOM     19  C15 UNL A   1      13.055  49.484   3.696  1.00  0.00    +0.000 C 
ATOM     20  C16 UNL A   1      13.906  49.127   2.510  1.00  0.00    +0.000 C 
ATOM     21  N3  UNL A   1      14.710  49.888   1.813  1.00  0.00    +0.000 N 
ATOM     22  C17 UNL A   1      15.288  49.056   0.863  1.00  0.00    +0.000 C 
ATOM     23  C18 UNL A   1      16.165  49.381  -0.115  1.00  0.00    +0.000 C 
ATOM     35  C25 UNL A   1      16.644  50.715  -0.369  1.00  0.00    +0.000 C 
ATOM     36  C26 UNL A   1      17.431  51.162  -1.415  1.00  0.00    +0.000 C 
ATOM     37  C27 UNL A   1      17.693  52.521  -1.214  1.00  0.00    +0.000 C 
ATOM     38  C28 UNL A   1      17.037  52.927  -0.064  1.00  0.00    +0.000 C 
ATOM     39  N4  UNL A   1      16.387  51.811   0.438  1.00  0.00    +0.000 N 
ATOM     40  C29 UNL A   1      17.015  54.231   0.544  1.00  0.00    +0.000 C 
ATOM     52  C36 UNL A   1      16.274  54.570   1.626  1.00  0.00    +0.000 C 
ATOM     53  N5  UNL A   1      15.416  53.778   2.375  1.00  0.00    +0.000 N 
ATOM     54  C37 UNL A   1      14.950  54.551   3.326  1.00  0.00    +0.000 C 
ATOM     55  C38 UNL A   1      13.976  54.223   4.422  1.00  0.00    +0.000 C 
ATOM     67  C45 UNL A   1      13.446  52.987   4.486  1.00  0.00    +0.000 C 
ATOM     68  C46 UNL A   1      12.508  52.524   5.504  1.00  0.00    +0.000 C 
ATOM     69  C47 UNL A   1      12.277  51.214   5.321  1.00  0.00    +0.000 C 
ATOM     70  C48 UNL A   1      13.021  50.754   4.146  1.00  0.00    +0.000 C 
ATOM     71  N6  UNL A   1      13.650  51.886   3.689  1.00  0.00    +0.000 N 
ATOM     72  C49 UNL A   1      15.478  55.924   3.293  1.00  0.00    +0.000 C 
ATOM     73  C50 UNL A   1      16.255  55.889   2.219  1.00  0.00    +0.000 C 
ATOM     74  C51 UNL A   1      14.764  47.726   1.090  1.00  0.00    +0.000 C 
ATOM     75  C52 UNL A   1      13.865  47.725   2.065  1.00  0.00    +0.000 C 
ATOM    111  H21 UNL A   1      17.767  50.592  -2.206  1.00  0.00    +0.000 H 
ATOM    112  H22 UNL A   1      18.276  53.119  -1.821  1.00  0.00    +0.000 H 
ATOM    113  H23 UNL A   1      15.826  51.801   1.248  1.00  0.00    +0.000 H 
ATOM    114  H24 UNL A   1      12.091  53.108   6.245  1.00  0.00    +0.000 H 
ATOM    115  H25 UNL A   1      11.670  50.624   5.912  1.00  0.00    +0.000 H 
ATOM    116  H26 UNL A   1      14.195  51.907   2.869  1.00  0.00    +0.000 H 
ATOM    117  H27 UNL A   1      15.293  56.708   3.938  1.00  0.00    +0.000 H 
ATOM    118  H28 UNL A   1      16.779  56.701   1.854  1.00  0.00    +0.000 H 
ATOM    119  H29 UNL A   1      15.054  46.888   0.562  1.00  0.00    +0.000 H 
ATOM    120  H30 UNL A   1      13.289  46.946   2.418  1.00  0.00    +0.000 H 
ENDROOT
BRANCH   19   18
ATOM     76  C53 UNL A   1      13.028  47.669   5.406  1.00  0.00    +0.000 C 
ATOM    109  H19 UNL A   1       9.259  47.163   4.958  1.00  0.00    +0.000 H 
ATOM     77  C54 UNL A   1      12.354  46.733   6.186  1.00  0.00    +0.000 C 
ATOM     15  C11 UNL A   1      10.967  46.605   6.072  1.00  0.00    +0.000 C 
ATOM     16  C12 UNL A   1      10.274  47.308   5.082  1.00  0.00    +0.000 C 
ATOM     17  C13 UNL A   1      10.961  48.206   4.262  1.00  0.00    +0.000 C 
ATOM    110  H20 UNL A   1      10.455  48.709   3.516  1.00  0.00    +0.000 H 
ATOM     18  C14 UNL A   1      12.335  48.427   4.450  1.00  0.00    +0.000 C 
ATOM    121  H31 UNL A   1      14.044  47.807   5.531  1.00  0.00    +0.000 H 
ATOM    122  H32 UNL A   1      12.877  46.136   6.846  1.00  0.00    +0.000 H 
BRANCH   15   13
ATOM     13  C10 UNL A   1      10.207  45.741   7.000  1.00  0.00    +0.000 C 
ATOM     14  O2  UNL A   1       9.519  44.827   6.557  1.00  0.00    +0.000 O 
BRANCH   13   12
ATOM    108  H18 UNL A   1      10.883  45.424   8.860  1.00  0.00    +0.000 H 
ATOM     12  N2  UNL A   1      10.255  45.984   8.351  1.00  0.00    +0.000 N 
BRANCH   12   11
ATOM    106  H16 UNL A   1       8.847  47.490   8.483  1.00  0.00    +0.000 H 
ATOM     11  C9  UNL A   1       9.507  46.956   9.136  1.00  0.00    +0.000 C 
ATOM    107  H17 UNL A   1       8.966  46.421   9.887  1.00  0.00    +0.000 H 
BRANCH   11   10
ATOM    105  H15 UNL A   1      10.356  47.734  10.885  1.00  0.00    +0.000 H 
ATOM     10  C8  UNL A   1      10.416  47.958   9.841  1.00  0.00    +0.000 C 
ATOM    104  H14 UNL A   1      10.076  48.943   9.598  1.00  0.00    +0.000 H 
BRANCH   10    9
ATOM      9  C7  UNL A   1      11.896  47.859   9.464  1.00  0.00    +0.000 C 
ATOM    102  H12 UNL A   1      11.992  47.134   8.684  1.00  0.00    +0.000 H 
ATOM    103  H13 UNL A   1      12.195  48.844   9.172  1.00  0.00    +0.000 H 
BRANCH    9    8
ATOM    100  H10 UNL A   1      12.229  47.101  11.418  1.00  0.00    +0.000 H 
ATOM    101  H11 UNL A   1      13.485  46.707  10.202  1.00  0.00    +0.000 H 
ATOM      8  C6  UNL A   1      12.832  47.453  10.607  1.00  0.00    +0.000 C 
BRANCH    8    7
ATOM     98  H8  UNL A   1      14.612  48.113  11.568  1.00  0.00    +0.000 H 
ATOM     99  H9  UNL A   1      13.967  49.202  10.311  1.00  0.00    +0.000 H 
ATOM      7  C5  UNL A   1      13.742  48.567  11.142  1.00  0.00    +0.000 C 
BRANCH    7    6
ATOM     97  H7  UNL A   1      13.448  49.150  13.170  1.00  0.00    +0.000 H 
ATOM      6  C4  UNL A   1      13.095  49.455  12.207  1.00  0.00    +0.000 C 
ATOM     96  H6  UNL A   1      12.032  49.352  12.151  1.00  0.00    +0.000 H 
BRANCH    6    5
ATOM      5  N1  UNL A   1      13.449  50.845  12.003  1.00  0.00    +0.000 N 
ATOM     95  H5  UNL A   1      12.696  51.443  11.794  1.00  0.00    +0.000 H 
BRANCH    5    3
ATOM      3  C3  UNL A   1      14.673  51.445  12.057  1.00  0.00    +0.000 C 
ATOM      4  O1  UNL A   1      15.308  51.313  13.106  1.00  0.00    +0.000 O 
BRANCH    3    2
ATOM      2  C2  UNL A   1      15.183  52.253  10.856  1.00  0.00    +0.000 C 
ATOM     94  H4  UNL A   1      16.096  52.712  11.173  1.00  0.00    +0.000 H 
BRANCH    2    1
ATOM      1  C1  UNL A   1      14.218  53.372  10.454  1.00  0.00    +0.000 C 
ATOM     91  H1  UNL A   1      13.824  53.836  11.334  1.00  0.00    +0.000 H 
ATOM     92  H2  UNL A   1      13.415  52.960   9.878  1.00  0.00    +0.000 H 
ATOM     93  H3  UNL A   1      14.740  54.100   9.869  1.00  0.00    +0.000 H 
ENDBRANCH    2    1
BRANCH    2   78
ATOM    134  H44 UNL A   1      17.927  49.369   8.473  1.00  0.00    +0.000 H 
ATOM     78  C55 UNL A   1      15.487  51.360   9.663  1.00  0.00    +0.000 C 
ATOM     79  C56 UNL A   1      14.566  51.176   8.623  1.00  0.00    +0.000 C 
ATOM     80  C57 UNL A   1      14.881  50.359   7.535  1.00  0.00    +0.000 C 
ATOM     81  C58 UNL A   1      16.118  49.714   7.454  1.00  0.00    +0.000 C 
ATOM     88  C64 UNL A   1      17.022  49.863   8.500  1.00  0.00    +0.000 C 
ATOM     89  C65 UNL A   1      16.705  50.679   9.584  1.00  0.00    +0.000 C 
ATOM     90  F16 UNL A   1      17.610  50.814  10.565  1.00  0.00    +0.000 F 
ATOM    123  H33 UNL A   1      13.650  51.648   8.662  1.00  0.00    +0.000 H 
ATOM    124  H34 UNL A   1      14.190  50.230   6.780  1.00  0.00    +0.000 H 
BRANCH   81   82
ATOM     82  O3  UNL A   1      16.284  48.975   6.322  1.00  0.00    +0.000 O 
BRANCH   82   83
ATOM    129  H39 UNL A   1      16.708  51.440   2.914  1.00  0.00    +0.000 H 
ATOM    130  H40 UNL A   1      19.101  49.717   3.321  1.00  0.00    +0.000 H 
ATOM    131  H41 UNL A   1      17.847  49.539   2.143  1.00  0.00    +0.000 H 
ATOM    132  H42 UNL A   1      16.735  48.074   3.504  1.00  0.00    +0.000 H 
ATOM    133  H43 UNL A   1      18.059  48.120   4.600  1.00  0.00    +0.000 H 
ATOM     83  C59 UNL A   1      16.498  49.554   5.045  1.00  0.00    +0.000 C 
ATOM     84  C60 UNL A   1      17.035  50.983   5.000  1.00  0.00    +0.000 C 
ATOM     85  C61 UNL A   1      17.500  51.126   3.560  1.00  0.00    +0.000 C 
ATOM     86  C62 UNL A   1      18.041  49.750   3.174  1.00  0.00    +0.000 C 
ATOM     87  C63 UNL A   1      17.352  48.732   4.080  1.00  0.00    +0.000 C 
ATOM    125  H35 UNL A   1      15.478  49.567   4.720  1.00  0.00    +0.000 H 
ATOM    126  H36 UNL A   1      17.849  51.108   5.683  1.00  0.00    +0.000 H 
ATOM    127  H37 UNL A   1      16.309  51.715   5.284  1.00  0.00    +0.000 H 
ATOM    128  H38 UNL A   1      18.271  51.866   3.488  1.00  0.00    +0.000 H 
ENDBRANCH   82   83
ENDBRANCH   81   82
ENDBRANCH    2   78
ENDBRANCH    3    2
ENDBRANCH    5    3
ENDBRANCH    6    5
ENDBRANCH    7    6
ENDBRANCH    8    7
ENDBRANCH    9    8
ENDBRANCH   10    9
ENDBRANCH   11   10
ENDBRANCH   12   11
ENDBRANCH   13   12
ENDBRANCH   15   13
ENDBRANCH   19   18
BRANCH   23   24
ATOM     33  C24 UNL A   1      17.927  47.709  -0.772  1.00  0.00    +0.000 C 
ATOM     34  F5  UNL A   1      18.656  48.084   0.291  1.00  0.00    +0.000 F 
ATOM     24  C19 UNL A   1      16.668  48.284  -1.003  1.00  0.00    +0.000 C 
ATOM     25  C20 UNL A   1      15.950  47.862  -2.130  1.00  0.00    +0.000 C 
ATOM     26  F1  UNL A   1      14.738  48.377  -2.391  1.00  0.00    +0.000 F 
ATOM     27  C21 UNL A   1      16.468  46.896  -2.989  1.00  0.00    +0.000 C 
ATOM     28  F2  UNL A   1      15.755  46.491  -4.048  1.00  0.00    +0.000 F 
ATOM     29  C22 UNL A   1      17.722  46.352  -2.749  1.00  0.00    +0.000 C 
ATOM     30  F3  UNL A   1      18.227  45.436  -3.586  1.00  0.00    +0.000 F 
ATOM     31  C23 UNL A   1      18.452  46.759  -1.643  1.00  0.00    +0.000 C 
ATOM     32  F4  UNL A   1      19.669  46.245  -1.417  1.00  0.00    +0.000 F 
ENDBRANCH   23   24
BRANCH   40   41
ATOM     41  C30 UNL A   1      17.866  55.302  -0.070  1.00  0.00    +0.000 C 
ATOM     42  C31 UNL A   1      19.099  55.662   0.493  1.00  0.00    +0.000 C 
ATOM     43  F6  UNL A   1      19.510  55.092   1.636  1.00  0.00    +0.000 F 
ATOM     44  C32 UNL A   1      19.899  56.631  -0.103  1.00  0.00    +0.000 C 
ATOM     45  F7  UNL A   1      21.058  56.985   0.470  1.00  0.00    +0.000 F 
ATOM     46  C33 UNL A   1      19.496  57.239  -1.283  1.00  0.00    +0.000 C 
ATOM     47  F8  UNL A   1      20.274  58.165  -1.861  1.00  0.00    +0.000 F 
ATOM     48  C34 UNL A   1      18.284  56.890  -1.861  1.00  0.00    +0.000 C 
ATOM     49  F9  UNL A   1      17.898  57.470  -3.006  1.00  0.00    +0.000 F 
ATOM     50  C35 UNL A   1      17.469  55.940  -1.255  1.00  0.00    +0.000 C 
ATOM     51  F10 UNL A   1      16.299  55.627  -1.832  1.00  0.00    +0.000 F 
ENDBRANCH   40   41
BRANCH   55   56
ATOM     65  C44 UNL A   1      14.173  55.237   6.718  1.00  0.00    +0.000 C 
ATOM     66  F15 UNL A   1      15.052  54.284   7.058  1.00  0.00    +0.000 F 
ATOM     56  C39 UNL A   1      13.606  55.245   5.435  1.00  0.00    +0.000 C 
ATOM     57  C40 UNL A   1      12.689  56.261   5.132  1.00  0.00    +0.000 C 
ATOM     58  F11 UNL A   1      12.139  56.322   3.910  1.00  0.00    +0.000 F 
ATOM     59  C41 UNL A   1      12.371  57.246   6.065  1.00  0.00    +0.000 C 
ATOM     60  F12 UNL A   1      11.530  58.233   5.732  1.00  0.00    +0.000 F 
ATOM     61  C42 UNL A   1      12.941  57.215   7.330  1.00  0.00    +0.000 C 
ATOM     62  F13 UNL A   1      12.635  58.162   8.226  1.00  0.00    +0.000 F 
ATOM     63  C43 UNL A   1      13.834  56.206   7.659  1.00  0.00    +0.000 C 
ATOM     64  F14 UNL A   1      14.376  56.167   8.884  1.00  0.00    +0.000 F 
ENDBRANCH   55   56
TORSDOF 19
ENDMDL
MODEL 4
REMARK VINA RESULT:      -8.8     38.215     43.451
ROOT
ATOM     19  C15 UNL A   1      41.512  26.245  27.943  1.00  0.00    +0.000 C 
ATOM     20  C16 UNL A   1      40.818  27.369  28.659  1.00  0.00    +0.000 C 
ATOM     21  N3  UNL A   1      41.266  28.564  28.949  1.00  0.00    +0.000 N 
ATOM     22  C17 UNL A   1      40.213  29.222  29.567  1.00  0.00    +0.000 C 
ATOM     23  C18 UNL A   1      40.192  30.475  30.082  1.00  0.00    +0.000 C 
ATOM     35  C25 UNL A   1      41.323  31.364  30.106  1.00  0.00    +0.000 C 
ATOM     36  C26 UNL A   1      41.434  32.599  30.720  1.00  0.00    +0.000 C 
ATOM     37  C27 UNL A   1      42.698  33.122  30.423  1.00  0.00    +0.000 C 
ATOM     38  C28 UNL A   1      43.385  32.195  29.656  1.00  0.00    +0.000 C 
ATOM     39  N4  UNL A   1      42.534  31.116  29.480  1.00  0.00    +0.000 N 
ATOM     40  C29 UNL A   1      44.713  32.290  29.111  1.00  0.00    +0.000 C 
ATOM     52  C36 UNL A   1      45.349  31.298  28.442  1.00  0.00    +0.000 C 
ATOM     53  N5  UNL A   1      44.891  30.027  28.129  1.00  0.00    +0.000 N 
ATOM     54  C37 UNL A   1      45.860  29.449  27.462  1.00  0.00    +0.000 C 
ATOM     55  C38 UNL A   1      45.916  28.064  26.881  1.00  0.00    +0.000 C 
ATOM     67  C45 UNL A   1      44.869  27.234  27.051  1.00  0.00    +0.000 C 
ATOM     68  C46 UNL A   1      44.777  25.875  26.527  1.00  0.00    +0.000 C 
ATOM     69  C47 UNL A   1      43.556  25.385  26.795  1.00  0.00    +0.000 C 
ATOM     70  C48 UNL A   1      42.792  26.384  27.546  1.00  0.00    +0.000 C 
ATOM     71  N6  UNL A   1      43.669  27.431  27.691  1.00  0.00    +0.000 N 
ATOM     72  C49 UNL A   1      47.042  30.302  27.264  1.00  0.00    +0.000 C 
ATOM     73  C50 UNL A   1      46.690  31.406  27.909  1.00  0.00    +0.000 C 
ATOM     74  C51 UNL A   1      39.093  28.306  29.588  1.00  0.00    +0.000 C 
ATOM     75  C52 UNL A   1      39.431  27.127  29.084  1.00  0.00    +0.000 C 
ATOM    111  H21 UNL A   1      40.711  33.055  31.296  1.00  0.00    +0.000 H 
ATOM    112  H22 UNL A   1      43.055  34.042  30.724  1.00  0.00    +0.000 H 
ATOM    113  H23 UNL A   1      42.758  30.295  28.983  1.00  0.00    +0.000 H 
ATOM    114  H24 UNL A   1      45.529  25.373  26.029  1.00  0.00    +0.000 H 
ATOM    115  H25 UNL A   1      43.211  24.453  26.517  1.00  0.00    +0.000 H 
ATOM    116  H26 UNL A   1      43.458  28.245  28.203  1.00  0.00    +0.000 H 
ATOM    117  H27 UNL A   1      47.916  30.096  26.756  1.00  0.00    +0.000 H 
ATOM    118  H28 UNL A   1      47.295  32.235  28.016  1.00  0.00    +0.000 H 
ATOM    119  H29 UNL A   1      38.154  28.541  29.946  1.00  0.00    +0.000 H 
ATOM    120  H30 UNL A   1      38.868  26.265  29.010  1.00  0.00    +0.000 H 
ENDROOT
BRANCH   19   18
ATOM     76  C53 UNL A   1      39.680  25.116  26.683  1.00  0.00    +0.000 C 
ATOM    109  H19 UNL A   1      40.830  21.671  27.894  1.00  0.00    +0.000 H 
ATOM     77  C54 UNL A   1      39.019  23.970  26.249  1.00  0.00    +0.000 C 
ATOM     15  C11 UNL A   1      39.489  22.711  26.633  1.00  0.00    +0.000 C 
ATOM     16  C12 UNL A   1      40.528  22.601  27.563  1.00  0.00    +0.000 C 
ATOM     17  C13 UNL A   1      41.153  23.754  28.041  1.00  0.00    +0.000 C 
ATOM    110  H20 UNL A   1      41.906  23.677  28.744  1.00  0.00    +0.000 H 
ATOM     18  C14 UNL A   1      40.764  25.018  27.568  1.00  0.00    +0.000 C 
ATOM    121  H31 UNL A   1      39.370  26.044  26.352  1.00  0.00    +0.000 H 
ATOM    122  H32 UNL A   1      38.186  24.050  25.645  1.00  0.00    +0.000 H 
BRANCH   15   13
ATOM     13  C10 UNL A   1      38.912  21.478  26.058  1.00  0.00    +0.000 C 
ATOM     14  O2  UNL A   1      39.615  20.482  25.920  1.00  0.00    +0.000 O 
BRANCH   13   12
ATOM    108  H18 UNL A   1      36.935  21.400  26.380  1.00  0.00    +0.000 H 
ATOM     12  N2  UNL A   1      37.598  21.464  25.656  1.00  0.00    +0.000 N 
BRANCH   12   11
ATOM    106  H16 UNL A   1      37.778  21.149  23.623  1.00  0.00    +0.000 H 
ATOM     11  C9  UNL A   1      37.050  21.530  24.309  1.00  0.00    +0.000 C 
ATOM    107  H17 UNL A   1      36.153  20.947  24.294  1.00  0.00    +0.000 H 
BRANCH   11   10
ATOM    105  H15 UNL A   1      37.401  23.245  23.158  1.00  0.00    +0.000 H 
ATOM     10  C8  UNL A   1      36.687  22.954  23.900  1.00  0.00    +0.000 C 
ATOM    104  H14 UNL A   1      36.711  23.569  24.775  1.00  0.00    +0.000 H 
BRANCH   10    9
ATOM      9  C7  UNL A   1      35.308  23.106  23.251  1.00  0.00    +0.000 C 
ATOM    102  H12 UNL A   1      35.400  22.851  22.216  1.00  0.00    +0.000 H 
ATOM    103  H13 UNL A   1      34.651  22.458  23.794  1.00  0.00    +0.000 H 
BRANCH    9    8
ATOM    100  H10 UNL A   1      34.474  24.702  24.371  1.00  0.00    +0.000 H 
ATOM    101  H11 UNL A   1      35.423  25.174  22.926  1.00  0.00    +0.000 H 
ATOM      8  C6  UNL A   1      34.697  24.507  23.343  1.00  0.00    +0.000 C 
BRANCH    8    7
ATOM     98  H8  UNL A   1      33.641  25.351  21.700  1.00  0.00    +0.000 H 
ATOM     99  H9  UNL A   1      33.073  23.748  22.237  1.00  0.00    +0.000 H 
ATOM      7  C5  UNL A   1      33.411  24.720  22.532  1.00  0.00    +0.000 C 
BRANCH    7    6
ATOM     97  H7  UNL A   1      31.372  24.800  23.141  1.00  0.00    +0.000 H 
ATOM      6  C4  UNL A   1      32.265  25.361  23.318  1.00  0.00    +0.000 C 
ATOM     96  H6  UNL A   1      32.140  26.373  22.992  1.00  0.00    +0.000 H 
BRANCH    6    5
ATOM      5  N1  UNL A   1      32.546  25.351  24.738  1.00  0.00    +0.000 N 
ATOM     95  H5  UNL A   1      33.400  25.764  25.000  1.00  0.00    +0.000 H 
BRANCH    5    3
ATOM      3  C3  UNL A   1      31.801  24.852  25.766  1.00  0.00    +0.000 C 
ATOM      4  O1  UNL A   1      31.817  25.491  26.822  1.00  0.00    +0.000 O 
BRANCH    3    2
ATOM      2  C2  UNL A   1      31.015  23.547  25.580  1.00  0.00    +0.000 C 
ATOM     94  H4  UNL A   1      30.379  23.702  24.733  1.00  0.00    +0.000 H 
BRANCH    2    1
ATOM      1  C1  UNL A   1      30.120  23.230  26.781  1.00  0.00    +0.000 C 
ATOM     91  H1  UNL A   1      30.455  23.786  27.631  1.00  0.00    +0.000 H 
ATOM     92  H2  UNL A   1      30.170  22.183  26.996  1.00  0.00    +0.000 H 
ATOM     93  H3  UNL A   1      29.109  23.499  26.552  1.00  0.00    +0.000 H 
ENDBRANCH    2    1
BRANCH    2   78
ATOM    134  H44 UNL A   1      32.726  20.285  22.759  1.00  0.00    +0.000 H 
ATOM     78  C55 UNL A   1      31.934  22.374  25.278  1.00  0.00    +0.000 C 
ATOM     79  C56 UNL A   1      32.818  21.861  26.236  1.00  0.00    +0.000 C 
ATOM     80  C57 UNL A   1      33.640  20.773  25.932  1.00  0.00    +0.000 C 
ATOM     81  C58 UNL A   1      33.596  20.169  24.672  1.00  0.00    +0.000 C 
ATOM     88  C64 UNL A   1      32.748  20.696  23.705  1.00  0.00    +0.000 C 
ATOM     89  C65 UNL A   1      31.929  21.781  24.012  1.00  0.00    +0.000 C 
ATOM     90  F16 UNL A   1      31.109  22.250  23.059  1.00  0.00    +0.000 F 
ATOM    123  H33 UNL A   1      32.862  22.289  27.174  1.00  0.00    +0.000 H 
ATOM    124  H34 UNL A   1      34.289  20.411  26.647  1.00  0.00    +0.000 H 
BRANCH   81   82
ATOM     82  O3  UNL A   1      34.437  19.107  24.538  1.00  0.00    +0.000 O 
BRANCH   82   83
ATOM    129  H39 UNL A   1      33.931  14.918  24.279  1.00  0.00    +0.000 H 
ATOM    130  H40 UNL A   1      32.659  16.023  26.733  1.00  0.00    +0.000 H 
ATOM    131  H41 UNL A   1      31.886  15.479  25.285  1.00  0.00    +0.000 H 
ATOM    132  H42 UNL A   1      31.842  17.617  24.471  1.00  0.00    +0.000 H 
ATOM    133  H43 UNL A   1      32.456  18.181  25.975  1.00  0.00    +0.000 H 
ATOM     83  C59 UNL A   1      33.986  17.762  24.501  1.00  0.00    +0.000 C 
ATOM     84  C60 UNL A   1      34.947  16.684  24.996  1.00  0.00    +0.000 C 
ATOM     85  C61 UNL A   1      34.040  15.480  25.183  1.00  0.00    +0.000 C 
ATOM     86  C62 UNL A   1      32.707  16.051  25.665  1.00  0.00    +0.000 C 
ATOM     87  C63 UNL A   1      32.640  17.496  25.173  1.00  0.00    +0.000 C 
ATOM    125  H35 UNL A   1      33.897  17.670  23.438  1.00  0.00    +0.000 H 
ATOM    126  H36 UNL A   1      35.403  16.972  25.922  1.00  0.00    +0.000 H 
ATOM    127  H37 UNL A   1      35.759  16.501  24.324  1.00  0.00    +0.000 H 
ATOM    128  H38 UNL A   1      34.448  14.813  25.915  1.00  0.00    +0.000 H 
ENDBRANCH   82   83
ENDBRANCH   81   82
ENDBRANCH    2   78
ENDBRANCH    3    2
ENDBRANCH    5    3
ENDBRANCH    6    5
ENDBRANCH    7    6
ENDBRANCH    8    7
ENDBRANCH    9    8
ENDBRANCH   10    9
ENDBRANCH   11   10
ENDBRANCH   12   11
ENDBRANCH   13   12
ENDBRANCH   15   13
ENDBRANCH   19   18
BRANCH   23   24
ATOM     33  C24 UNL A   1      38.667  30.824  32.053  1.00  0.00    +0.000 C 
ATOM     34  F5  UNL A   1      39.613  30.314  32.855  1.00  0.00    +0.000 F 
ATOM     24  C19 UNL A   1      38.909  30.969  30.678  1.00  0.00    +0.000 C 
ATOM     25  C20 UNL A   1      37.886  31.503  29.883  1.00  0.00    +0.000 C 
ATOM     26  F1  UNL A   1      38.071  31.666  28.564  1.00  0.00    +0.000 F 
ATOM     27  C21 UNL A   1      36.669  31.884  30.443  1.00  0.00    +0.000 C 
ATOM     28  F2  UNL A   1      35.713  32.413  29.667  1.00  0.00    +0.000 F 
ATOM     29  C22 UNL A   1      36.446  31.718  31.802  1.00  0.00    +0.000 C 
ATOM     30  F3  UNL A   1      35.268  32.070  32.336  1.00  0.00    +0.000 F 
ATOM     31  C23 UNL A   1      37.443  31.188  32.606  1.00  0.00    +0.000 C 
ATOM     32  F4  UNL A   1      37.224  31.015  33.917  1.00  0.00    +0.000 F 
ENDBRANCH   23   24
BRANCH   40   41
ATOM     41  C30 UNL A   1      45.457  33.577  29.304  1.00  0.00    +0.000 C 
ATOM     42  C31 UNL A   1      45.327  34.635  28.393  1.00  0.00    +0.000 C 
ATOM     43  F6  UNL A   1      44.576  34.487  27.290  1.00  0.00    +0.000 F 
ATOM     44  C32 UNL A   1      45.992  35.840  28.598  1.00  0.00    +0.000 C 
ATOM     45  F7  UNL A   1      45.881  36.826  27.698  1.00  0.00    +0.000 F 
ATOM     46  C33 UNL A   1      46.777  36.018  29.728  1.00  0.00    +0.000 C 
ATOM     47  F8  UNL A   1      47.409  37.183  29.929  1.00  0.00    +0.000 F 
ATOM     48  C34 UNL A   1      46.912  34.987  30.646  1.00  0.00    +0.000 C 
ATOM     49  F9  UNL A   1      47.662  35.161  31.743  1.00  0.00    +0.000 F 
ATOM     50  C35 UNL A   1      46.268  33.772  30.431  1.00  0.00    +0.000 C 
ATOM     51  F10 UNL A   1      46.421  32.790  31.332  1.00  0.00    +0.000 F 
ENDBRANCH   40   41
BRANCH   55   56
ATOM     65  C44 UNL A   1      47.159  27.720  24.719  1.00  0.00    +0.000 C 
ATOM     66  F15 UNL A   1      46.113  28.218  24.044  1.00  0.00    +0.000 F 
ATOM     56  C39 UNL A   1      47.107  27.613  26.117  1.00  0.00    +0.000 C 
ATOM     57  C40 UNL A   1      48.225  27.081  26.773  1.00  0.00    +0.000 C 
ATOM     58  F11 UNL A   1      48.230  26.981  28.111  1.00  0.00    +0.000 F 
ATOM     59  C41 UNL A   1      49.361  26.696  26.064  1.00  0.00    +0.000 C 
ATOM     60  F12 UNL A   1      50.434  26.237  26.720  1.00  0.00    +0.000 F 
ATOM     61  C42 UNL A   1      49.388  26.806  24.681  1.00  0.00    +0.000 C 
ATOM     62  F13 UNL A   1      50.480  26.436  23.999  1.00  0.00    +0.000 F 
ATOM     63  C43 UNL A   1      48.284  27.309  24.008  1.00  0.00    +0.000 C 
ATOM     64  F14 UNL A   1      48.302  27.406  22.672  1.00  0.00    +0.000 F 
ENDBRANCH   55   56
TORSDOF 19
ENDMDL
MODEL 5
REMARK VINA RESULT:      -8.8     46.105     51.046
ROOT
ATOM     19  C15 UNL A   1      52.975  20.097  11.641  1.00  0.00    +0.000 C 
ATOM     20  C16 UNL A   1      52.776  20.680  13.011  1.00  0.00    +0.000 C 
ATOM     21  N3  UNL A   1      53.620  20.751  14.008  1.00  0.00    +0.000 N 
ATOM     22  C17 UNL A   1      52.952  21.425  15.021  1.00  0.00    +0.000 C 
ATOM     23  C18 UNL A   1      53.393  21.717  16.268  1.00  0.00    +0.000 C 
ATOM     35  C25 UNL A   1      54.677  21.329  16.789  1.00  0.00    +0.000 C 
ATOM     36  C26 UNL A   1      55.160  21.466  18.079  1.00  0.00    +0.000 C 
ATOM     37  C27 UNL A   1      56.479  21.001  18.102  1.00  0.00    +0.000 C 
ATOM     38  C28 UNL A   1      56.803  20.541  16.837  1.00  0.00    +0.000 C 
ATOM     39  N4  UNL A   1      55.684  20.736  16.044  1.00  0.00    +0.000 N 
ATOM     40  C29 UNL A   1      58.045  19.978  16.377  1.00  0.00    +0.000 C 
ATOM     52  C36 UNL A   1      58.254  19.467  15.140  1.00  0.00    +0.000 C 
ATOM     53  N5  UNL A   1      57.372  19.383  14.073  1.00  0.00    +0.000 N 
ATOM     54  C37 UNL A   1      58.044  18.831  13.093  1.00  0.00    +0.000 C 
ATOM     55  C38 UNL A   1      57.585  18.491  11.702  1.00  0.00    +0.000 C 
ATOM     67  C45 UNL A   1      56.309  18.739  11.349  1.00  0.00    +0.000 C 
ATOM     68  C46 UNL A   1      55.734  18.482  10.033  1.00  0.00    +0.000 C 
ATOM     69  C47 UNL A   1      54.475  18.949  10.008  1.00  0.00    +0.000 C 
ATOM     70  C48 UNL A   1      54.142  19.504  11.321  1.00  0.00    +0.000 C 
ATOM     71  N6  UNL A   1      55.277  19.293  12.067  1.00  0.00    +0.000 N 
ATOM     72  C49 UNL A   1      59.442  18.516  13.428  1.00  0.00    +0.000 C 
ATOM     73  C50 UNL A   1      59.507  18.895  14.697  1.00  0.00    +0.000 C 
ATOM     74  C51 UNL A   1      51.643  21.769  14.510  1.00  0.00    +0.000 C 
ATOM     75  C52 UNL A   1      51.464  21.286  13.288  1.00  0.00    +0.000 C 
ATOM    111  H21 UNL A   1      54.637  21.845  18.883  1.00  0.00    +0.000 H 
ATOM    112  H22 UNL A   1      57.103  21.002  18.923  1.00  0.00    +0.000 H 
ATOM    113  H23 UNL A   1      55.615  20.490  15.092  1.00  0.00    +0.000 H 
ATOM    114  H24 UNL A   1      56.217  18.018   9.248  1.00  0.00    +0.000 H 
ATOM    115  H25 UNL A   1      53.843  18.920   9.193  1.00  0.00    +0.000 H 
ATOM    116  H26 UNL A   1      55.343  19.518  13.023  1.00  0.00    +0.000 H 
ATOM    117  H27 UNL A   1      60.177  18.108  12.832  1.00  0.00    +0.000 H 
ATOM    118  H28 UNL A   1      60.344  18.794  15.292  1.00  0.00    +0.000 H 
ATOM    119  H29 UNL A   1      50.941  22.319  15.029  1.00  0.00    +0.000 H 
ATOM    120  H30 UNL A   1      50.625  21.324  12.689  1.00  0.00    +0.000 H 
ENDROOT
BRANCH   19   18
ATOM     76  C53 UNL A   1      51.860  21.479   9.890  1.00  0.00    +0.000 C 
ATOM    109  H19 UNL A   1      49.566  18.573   8.912  1.00  0.00    +0.000 H 
ATOM     77  C54 UNL A   1      50.952  21.630   8.845  1.00  0.00    +0.000 C 
ATOM     15  C11 UNL A   1      50.170  20.544   8.442  1.00  0.00    +0.000 C 
ATOM     16  C12 UNL A   1      50.192  19.352   9.173  1.00  0.00    +0.000 C 
ATOM     17  C13 UNL A   1      51.063  19.220  10.256  1.00  0.00    +0.000 C 
ATOM    110  H20 UNL A   1      51.065  18.349  10.811  1.00  0.00    +0.000 H 
ATOM     18  C14 UNL A   1      51.937  20.267  10.593  1.00  0.00    +0.000 C 
ATOM    121  H31 UNL A   1      52.480  22.263  10.150  1.00  0.00    +0.000 H 
ATOM    122  H32 UNL A   1      50.857  22.541   8.369  1.00  0.00    +0.000 H 
BRANCH   15   13
ATOM     13  C10 UNL A   1      49.322  20.627   7.235  1.00  0.00    +0.000 C 
ATOM     14  O2  UNL A   1      48.340  21.363   7.229  1.00  0.00    +0.000 O 
BRANCH   13   12
ATOM    108  H18 UNL A   1      50.532  19.974   5.776  1.00  0.00    +0.000 H 
ATOM     12  N2  UNL A   1      49.623  19.859   6.137  1.00  0.00    +0.000 N 
BRANCH   12   11
ATOM    106  H16 UNL A   1      47.782  19.266   5.413  1.00  0.00    +0.000 H 
ATOM     11  C9  UNL A   1      48.787  18.899   5.431  1.00  0.00    +0.000 C 
ATOM    107  H17 UNL A   1      49.182  18.787   4.443  1.00  0.00    +0.000 H 
BRANCH   11   10
ATOM    105  H15 UNL A   1      47.771  17.246   6.221  1.00  0.00    +0.000 H 
ATOM     10  C8  UNL A   1      48.796  17.524   6.093  1.00  0.00    +0.000 C 
ATOM    104  H14 UNL A   1      49.331  17.603   7.017  1.00  0.00    +0.000 H 
BRANCH   10    9
ATOM      9  C7  UNL A   1      49.443  16.413   5.263  1.00  0.00    +0.000 C 
ATOM    102  H12 UNL A   1      49.794  16.845   4.349  1.00  0.00    +0.000 H 
ATOM    103  H13 UNL A   1      50.223  16.004   5.870  1.00  0.00    +0.000 H 
BRANCH    9    8
ATOM    100  H10 UNL A   1      49.091  14.341   4.978  1.00  0.00    +0.000 H 
ATOM    101  H11 UNL A   1      47.706  15.290   5.604  1.00  0.00    +0.000 H 
ATOM      8  C6  UNL A   1      48.519  15.243   4.910  1.00  0.00    +0.000 C 
BRANCH    8    7
ATOM     98  H8  UNL A   1      48.284  16.151   3.001  1.00  0.00    +0.000 H 
ATOM     99  H9  UNL A   1      48.131  14.375   3.031  1.00  0.00    +0.000 H 
ATOM      7  C5  UNL A   1      47.888  15.299   3.512  1.00  0.00    +0.000 C 
BRANCH    7    6
ATOM     97  H7  UNL A   1      46.003  15.218   4.500  1.00  0.00    +0.000 H 
ATOM      6  C4  UNL A   1      46.362  15.406   3.509  1.00  0.00    +0.000 C 
ATOM     96  H6  UNL A   1      45.961  14.686   2.826  1.00  0.00    +0.000 H 
BRANCH    6    5
ATOM      5  N1  UNL A   1      45.938  16.730   3.106  1.00  0.00    +0.000 N 
ATOM     95  H5  UNL A   1      45.881  16.874   2.134  1.00  0.00    +0.000 H 
BRANCH    5    3
ATOM      3  C3  UNL A   1      45.608  17.807   3.876  1.00  0.00    +0.000 C 
ATOM      4  O1  UNL A   1      45.481  17.604   5.086  1.00  0.00    +0.000 O 
BRANCH    3    2
ATOM      2  C2  UNL A   1      45.393  19.179   3.222  1.00  0.00    +0.000 C 
ATOM     94  H4  UNL A   1      46.113  19.249   2.434  1.00  0.00    +0.000 H 
BRANCH    2    1
ATOM      1  C1  UNL A   1      45.654  20.334   4.193  1.00  0.00    +0.000 C 
ATOM     91  H1  UNL A   1      44.863  21.050   4.115  1.00  0.00    +0.000 H 
ATOM     92  H2  UNL A   1      46.585  20.802   3.948  1.00  0.00    +0.000 H 
ATOM     93  H3  UNL A   1      45.698  19.955   5.193  1.00  0.00    +0.000 H 
ENDBRANCH    2    1
BRANCH    2   78
ATOM    134  H44 UNL A   1      42.446  20.719  -0.014  1.00  0.00    +0.000 H 
ATOM     78  C55 UNL A   1      44.005  19.302   2.612  1.00  0.00    +0.000 C 
ATOM     79  C56 UNL A   1      42.887  18.683   3.186  1.00  0.00    +0.000 C 
ATOM     80  C57 UNL A   1      41.624  18.826   2.608  1.00  0.00    +0.000 C 
ATOM     81  C58 UNL A   1      41.443  19.591   1.453  1.00  0.00    +0.000 C 
ATOM     88  C64 UNL A   1      42.554  20.178   0.857  1.00  0.00    +0.000 C 
ATOM     89  C65 UNL A   1      43.814  20.033   1.437  1.00  0.00    +0.000 C 
ATOM     90  F16 UNL A   1      44.859  20.631   0.844  1.00  0.00    +0.000 F 
ATOM    123  H33 UNL A   1      42.998  18.118   4.042  1.00  0.00    +0.000 H 
ATOM    124  H34 UNL A   1      40.811  18.359   3.040  1.00  0.00    +0.000 H 
BRANCH   81   82
ATOM     82  O3  UNL A   1      40.152  19.655   1.027  1.00  0.00    +0.000 O 
BRANCH   82   83
ATOM    129  H39 UNL A   1      39.136  22.869  -1.525  1.00  0.00    +0.000 H 
ATOM    130  H40 UNL A   1      36.740  21.267  -0.777  1.00  0.00    +0.000 H 
ATOM    131  H41 UNL A   1      37.205  22.826  -0.191  1.00  0.00    +0.000 H 
ATOM    132  H42 UNL A   1      38.232  21.874   1.618  1.00  0.00    +0.000 H 
ATOM    133  H43 UNL A   1      37.628  20.340   1.127  1.00  0.00    +0.000 H 
ATOM     83  C59 UNL A   1      39.608  20.790   0.372  1.00  0.00    +0.000 C 
ATOM     84  C60 UNL A   1      39.626  20.797  -1.155  1.00  0.00    +0.000 C 
ATOM     85  C61 UNL A   1      38.654  21.913  -1.501  1.00  0.00    +0.000 C 
ATOM     86  C62 UNL A   1      37.569  21.848  -0.428  1.00  0.00    +0.000 C 
ATOM     87  C63 UNL A   1      38.195  21.186   0.799  1.00  0.00    +0.000 C 
ATOM    125  H35 UNL A   1      40.318  21.511   0.720  1.00  0.00    +0.000 H 
ATOM    126  H36 UNL A   1      39.292  19.859  -1.547  1.00  0.00    +0.000 H 
ATOM    127  H37 UNL A   1      40.603  20.946  -1.565  1.00  0.00    +0.000 H 
ATOM    128  H38 UNL A   1      38.232  21.755  -2.471  1.00  0.00    +0.000 H 
ENDBRANCH   82   83
ENDBRANCH   81   82
ENDBRANCH    2   78
ENDBRANCH    3    2
ENDBRANCH    5    3
ENDBRANCH    6    5
ENDBRANCH    7    6
ENDBRANCH    8    7
ENDBRANCH    9    8
ENDBRANCH   10    9
ENDBRANCH   11   10
ENDBRANCH   12   11
ENDBRANCH   13   12
ENDBRANCH   15   13
ENDBRANCH   19   18
BRANCH   23   24
ATOM     33  C24 UNL A   1      51.669  21.814  18.099  1.00  0.00    +0.000 C 
ATOM     34  F5  UNL A   1      51.760  20.482  18.232  1.00  0.00    +0.000 F 
ATOM     24  C19 UNL A   1      52.481  22.489  17.173  1.00  0.00    +0.000 C 
ATOM     25  C20 UNL A   1      52.344  23.879  17.068  1.00  0.00    +0.000 C 
ATOM     26  F1  UNL A   1      53.102  24.569  16.203  1.00  0.00    +0.000 F 
ATOM     27  C21 UNL A   1      51.434  24.570  17.864  1.00  0.00    +0.000 C 
ATOM     28  F2  UNL A   1      51.335  25.903  17.763  1.00  0.00    +0.000 F 
ATOM     29  C22 UNL A   1      50.630  23.882  18.762  1.00  0.00    +0.000 C 
ATOM     30  F3  UNL A   1      49.743  24.547  19.514  1.00  0.00    +0.000 F 
ATOM     31  C23 UNL A   1      50.746  22.505  18.878  1.00  0.00    +0.000 C 
ATOM     32  F4  UNL A   1      49.962  21.837  19.735  1.00  0.00    +0.000 F 
ENDBRANCH   23   24
BRANCH   40   41
ATOM     41  C30 UNL A   1      59.193  19.941  17.340  1.00  0.00    +0.000 C 
ATOM     42  C31 UNL A   1      59.555  18.755  17.995  1.00  0.00    +0.000 C 
ATOM     43  F6  UNL A   1      58.831  17.639  17.817  1.00  0.00    +0.000 F 
ATOM     44  C32 UNL A   1      60.644  18.720  18.859  1.00  0.00    +0.000 C 
ATOM     45  F7  UNL A   1      60.951  17.585  19.502  1.00  0.00    +0.000 F 
ATOM     46  C33 UNL A   1      61.407  19.860  19.064  1.00  0.00    +0.000 C 
ATOM     47  F8  UNL A   1      62.463  19.821  19.890  1.00  0.00    +0.000 F 
ATOM     48  C34 UNL A   1      61.072  21.041  18.419  1.00  0.00    +0.000 C 
ATOM     49  F9  UNL A   1      61.815  22.141  18.609  1.00  0.00    +0.000 F 
ATOM     50  C35 UNL A   1      59.968  21.086  17.573  1.00  0.00    +0.000 C 
ATOM     51  F10 UNL A   1      59.664  22.244  16.967  1.00  0.00    +0.000 F 
ENDBRANCH   40   41
BRANCH   55   56
ATOM     65  C44 UNL A   1      58.669  16.508  10.593  1.00  0.00    +0.000 C 
ATOM     66  F15 UNL A   1      57.962  15.687  11.383  1.00  0.00    +0.000 F 
ATOM     56  C39 UNL A   1      58.527  17.898  10.719  1.00  0.00    +0.000 C 
ATOM     57  C40 UNL A   1      59.292  18.711   9.873  1.00  0.00    +0.000 C 
ATOM     58  F11 UNL A   1      59.173  20.046   9.941  1.00  0.00    +0.000 F 
ATOM     59  C41 UNL A   1      60.146  18.159   8.920  1.00  0.00    +0.000 C 
ATOM     60  F12 UNL A   1      60.828  18.959   8.091  1.00  0.00    +0.000 F 
ATOM     61  C42 UNL A   1      60.274  16.781   8.817  1.00  0.00    +0.000 C 
ATOM     62  F13 UNL A   1      61.094  16.249   7.902  1.00  0.00    +0.000 F 
ATOM     63  C43 UNL A   1      59.543  15.956   9.660  1.00  0.00    +0.000 C 
ATOM     64  F14 UNL A   1      59.673  14.625   9.571  1.00  0.00    +0.000 F 
ENDBRANCH   55   56
TORSDOF 19
ENDMDL
MODEL 6
REMARK VINA RESULT:      -8.7     43.464     46.990
ROOT
ATOM     19  C15 UNL A   1      23.036  36.235  47.061  1.00  0.00    +0.000 C 
ATOM     20  C16 UNL A   1      24.059  37.331  46.982  1.00  0.00    +0.000 C 
ATOM     21  N3  UNL A   1      23.949  38.589  47.324  1.00  0.00    +0.000 N 
ATOM     22  C17 UNL A   1      25.197  39.153  47.096  1.00  0.00    +0.000 C 
ATOM     23  C18 UNL A   1      25.579  40.441  47.264  1.00  0.00    +0.000 C 
ATOM     35  C25 UNL A   1      24.705  41.500  47.696  1.00  0.00    +0.000 C 
ATOM     36  C26 UNL A   1      24.969  42.857  47.770  1.00  0.00    +0.000 C 
ATOM     37  C27 UNL A   1      23.841  43.491  48.302  1.00  0.00    +0.000 C 
ATOM     38  C28 UNL A   1      22.864  42.534  48.522  1.00  0.00    +0.000 C 
ATOM     39  N4  UNL A   1      23.403  41.318  48.134  1.00  0.00    +0.000 N 
ATOM     40  C29 UNL A   1      21.541  42.709  49.060  1.00  0.00    +0.000 C 
ATOM     52  C36 UNL A   1      20.610  41.731  49.163  1.00  0.00    +0.000 C 
ATOM     53  N5  UNL A   1      20.709  40.395  48.804  1.00  0.00    +0.000 N 
ATOM     54  C37 UNL A   1      19.556  39.853  49.113  1.00  0.00    +0.000 C 
ATOM     55  C38 UNL A   1      19.100  38.432  48.937  1.00  0.00    +0.000 C 
ATOM     67  C45 UNL A   1      19.930  37.537  48.368  1.00  0.00    +0.000 C 
ATOM     68  C46 UNL A   1      19.629  36.125  48.154  1.00  0.00    +0.000 C 
ATOM     69  C47 UNL A   1      20.721  35.516  47.664  1.00  0.00    +0.000 C 
ATOM     70  C48 UNL A   1      21.787  36.505  47.492  1.00  0.00    +0.000 C 
ATOM     71  N6  UNL A   1      21.211  37.686  47.892  1.00  0.00    +0.000 N 
ATOM     72  C49 UNL A   1      18.598  40.790  49.720  1.00  0.00    +0.000 C 
ATOM     73  C50 UNL A   1      19.280  41.926  49.697  1.00  0.00    +0.000 C 
ATOM     74  C51 UNL A   1      26.058  38.096  46.613  1.00  0.00    +0.000 C 
ATOM     75  C52 UNL A   1      25.390  36.959  46.475  1.00  0.00    +0.000 C 
ATOM    111  H21 UNL A   1      25.844  43.320  47.484  1.00  0.00    +0.000 H 
ATOM    112  H22 UNL A   1      23.753  44.501  48.497  1.00  0.00    +0.000 H 
ATOM    113  H23 UNL A   1      22.931  40.455  48.165  1.00  0.00    +0.000 H 
ATOM    114  H24 UNL A   1      18.725  35.669  48.349  1.00  0.00    +0.000 H 
ATOM    115  H25 UNL A   1      20.797  34.510  47.443  1.00  0.00    +0.000 H 
ATOM    116  H26 UNL A   1      21.671  38.555  47.844  1.00  0.00    +0.000 H 
ATOM    117  H27 UNL A   1      17.645  40.608  50.071  1.00  0.00    +0.000 H 
ATOM    118  H28 UNL A   1      18.908  42.834  50.020  1.00  0.00    +0.000 H 
ATOM    119  H29 UNL A   1      27.063  38.212  46.405  1.00  0.00    +0.000 H 
ATOM    120  H30 UNL A   1      25.716  36.052  46.109  1.00  0.00    +0.000 H 
ENDROOT
BRANCH   19   18
ATOM     76  C53 UNL A   1      23.574  34.416  45.442  1.00  0.00    +0.000 C 
ATOM    109  H19 UNL A   1      24.375  31.981  48.286  1.00  0.00    +0.000 H 
ATOM     77  C54 UNL A   1      24.014  33.128  45.151  1.00  0.00    +0.000 C 
ATOM     15  C11 UNL A   1      24.377  32.268  46.191  1.00  0.00    +0.000 C 
ATOM     16  C12 UNL A   1      24.167  32.643  47.521  1.00  0.00    +0.000 C 
ATOM     17  C13 UNL A   1      23.671  33.916  47.811  1.00  0.00    +0.000 C 
ATOM    110  H20 UNL A   1      23.494  34.188  48.791  1.00  0.00    +0.000 H 
ATOM     18  C14 UNL A   1      23.416  34.829  46.774  1.00  0.00    +0.000 C 
ATOM    121  H31 UNL A   1      23.362  35.072  44.674  1.00  0.00    +0.000 H 
ATOM    122  H32 UNL A   1      24.072  32.809  44.171  1.00  0.00    +0.000 H 
BRANCH   15   13
ATOM     13  C10 UNL A   1      25.002  30.958  45.909  1.00  0.00    +0.000 C 
ATOM     14  O2  UNL A   1      26.221  30.877  45.786  1.00  0.00    +0.000 O 
BRANCH   13   12
ATOM    108  H18 UNL A   1      24.662  29.054  45.384  1.00  0.00    +0.000 H 
ATOM     12  N2  UNL A   1      24.213  29.844  45.760  1.00  0.00    +0.000 N 
BRANCH   12   11
ATOM    106  H16 UNL A   1      22.620  28.631  46.264  1.00  0.00    +0.000 H 
ATOM     11  C9  UNL A   1      22.803  29.669  46.081  1.00  0.00    +0.000 C 
ATOM    107  H17 UNL A   1      22.589  30.264  46.944  1.00  0.00    +0.000 H 
BRANCH   11   10
ATOM    105  H15 UNL A   1      21.674  29.274  44.361  1.00  0.00    +0.000 H 
ATOM     10  C8  UNL A   1      21.888  30.139  44.954  1.00  0.00    +0.000 C 
ATOM    104  H14 UNL A   1      22.396  30.909  44.412  1.00  0.00    +0.000 H 
BRANCH   10    9
ATOM      9  C7  UNL A   1      20.536  30.692  45.411  1.00  0.00    +0.000 C 
ATOM    102  H12 UNL A   1      19.808  30.444  44.667  1.00  0.00    +0.000 H 
ATOM    103  H13 UNL A   1      20.340  30.248  46.366  1.00  0.00    +0.000 H 
BRANCH    9    8
ATOM    100  H10 UNL A   1      19.611  32.434  46.191  1.00  0.00    +0.000 H 
ATOM    101  H11 UNL A   1      21.402  32.458  46.136  1.00  0.00    +0.000 H 
ATOM      8  C6  UNL A   1      20.493  32.207  45.630  1.00  0.00    +0.000 C 
BRANCH    8    7
ATOM     98  H8  UNL A   1      21.481  33.198  44.027  1.00  0.00    +0.000 H 
ATOM     99  H9  UNL A   1      19.876  32.522  43.641  1.00  0.00    +0.000 H 
ATOM      7  C5  UNL A   1      20.472  33.057  44.351  1.00  0.00    +0.000 C 
BRANCH    7    6
ATOM     97  H7  UNL A   1      19.718  34.881  43.551  1.00  0.00    +0.000 H 
ATOM      6  C4  UNL A   1      19.824  34.434  44.517  1.00  0.00    +0.000 C 
ATOM     96  H6  UNL A   1      20.446  35.041  45.141  1.00  0.00    +0.000 H 
BRANCH    6    5
ATOM      5  N1  UNL A   1      18.514  34.317  45.122  1.00  0.00    +0.000 N 
ATOM     95  H5  UNL A   1      18.510  34.024  46.061  1.00  0.00    +0.000 H 
BRANCH    5    3
ATOM      3  C3  UNL A   1      17.284  34.553  44.579  1.00  0.00    +0.000 C 
ATOM      4  O1  UNL A   1      16.578  35.386  45.152  1.00  0.00    +0.000 O 
BRANCH    3    2
ATOM      2  C2  UNL A   1      16.836  33.780  43.331  1.00  0.00    +0.000 C 
ATOM     94  H4  UNL A   1      17.580  33.965  42.585  1.00  0.00    +0.000 H 
BRANCH    2    1
ATOM      1  C1  UNL A   1      15.497  34.281  42.785  1.00  0.00    +0.000 C 
ATOM     91  H1  UNL A   1      15.563  34.388  41.723  1.00  0.00    +0.000 H 
ATOM     92  H2  UNL A   1      15.265  35.229  43.225  1.00  0.00    +0.000 H 
ATOM     93  H3  UNL A   1      14.728  33.577  43.027  1.00  0.00    +0.000 H 
ENDBRANCH    2    1
BRANCH    2   78
ATOM    134  H44 UNL A   1      18.340  29.439  42.682  1.00  0.00    +0.000 H 
ATOM     78  C55 UNL A   1      16.779  32.282  43.585  1.00  0.00    +0.000 C 
ATOM     79  C56 UNL A   1      15.841  31.715  44.459  1.00  0.00    +0.000 C 
ATOM     80  C57 UNL A   1      15.806  30.334  44.661  1.00  0.00    +0.000 C 
ATOM     81  C58 UNL A   1      16.696  29.486  43.996  1.00  0.00    +0.000 C 
ATOM     88  C64 UNL A   1      17.653  30.045  43.157  1.00  0.00    +0.000 C 
ATOM     89  C65 UNL A   1      17.685  31.424  42.957  1.00  0.00    +0.000 C 
ATOM     90  F16 UNL A   1      18.610  31.925  42.123  1.00  0.00    +0.000 F 
ATOM    123  H33 UNL A   1      15.172  32.323  44.956  1.00  0.00    +0.000 H 
ATOM    124  H34 UNL A   1      15.113  29.933  45.311  1.00  0.00    +0.000 H 
BRANCH   81   82
ATOM     82  O3  UNL A   1      16.520  28.167  44.279  1.00  0.00    +0.000 O 
BRANCH   82   83
ATOM    129  H39 UNL A   1      13.564  26.429  41.805  1.00  0.00    +0.000 H 
ATOM    130  H40 UNL A   1      15.821  24.551  42.295  1.00  0.00    +0.000 H 
ATOM    131  H41 UNL A   1      14.236  24.514  42.984  1.00  0.00    +0.000 H 
ATOM    132  H42 UNL A   1      14.976  25.660  44.821  1.00  0.00    +0.000 H 
ATOM    133  H43 UNL A   1      16.582  25.551  44.217  1.00  0.00    +0.000 H 
ATOM     83  C59 UNL A   1      15.544  27.361  43.636  1.00  0.00    +0.000 C 
ATOM     84  C60 UNL A   1      15.433  27.468  42.117  1.00  0.00    +0.000 C 
ATOM     85  C61 UNL A   1      14.616  26.240  41.749  1.00  0.00    +0.000 C 
ATOM     86  C62 UNL A   1      15.055  25.156  42.732  1.00  0.00    +0.000 C 
ATOM     87  C63 UNL A   1      15.591  25.871  43.972  1.00  0.00    +0.000 C 
ATOM    125  H35 UNL A   1      14.676  27.813  44.070  1.00  0.00    +0.000 H 
ATOM    126  H36 UNL A   1      16.399  27.440  41.659  1.00  0.00    +0.000 H 
ATOM    127  H37 UNL A   1      14.988  28.385  41.790  1.00  0.00    +0.000 H 
ATOM    128  H38 UNL A   1      14.824  25.940  40.743  1.00  0.00    +0.000 H 
ENDBRANCH   82   83
ENDBRANCH   81   82
ENDBRANCH    2   78
ENDBRANCH    3    2
ENDBRANCH    5    3
ENDBRANCH    6    5
ENDBRANCH    7    6
ENDBRANCH    8    7
ENDBRANCH    9    8
ENDBRANCH   10    9
ENDBRANCH   11   10
ENDBRANCH   12   11
ENDBRANCH   13   12
ENDBRANCH   15   13
ENDBRANCH   19   18
BRANCH   23   24
ATOM     33  C24 UNL A   1      27.425  41.004  45.649  1.00  0.00    +0.000 C 
ATOM     34  F5  UNL A   1      26.537  40.965  44.645  1.00  0.00    +0.000 F 
ATOM     24  C19 UNL A   1      27.006  40.795  46.972  1.00  0.00    +0.000 C 
ATOM     25  C20 UNL A   1      27.974  40.841  47.984  1.00  0.00    +0.000 C 
ATOM     26  F1  UNL A   1      27.622  40.653  49.265  1.00  0.00    +0.000 F 
ATOM     27  C21 UNL A   1      29.311  41.094  47.685  1.00  0.00    +0.000 C 
ATOM     28  F2  UNL A   1      30.216  41.155  48.670  1.00  0.00    +0.000 F 
ATOM     29  C22 UNL A   1      29.706  41.282  46.368  1.00  0.00    +0.000 C 
ATOM     30  F3  UNL A   1      30.995  41.508  46.081  1.00  0.00    +0.000 F 
ATOM     31  C23 UNL A   1      28.765  41.236  45.351  1.00  0.00    +0.000 C 
ATOM     32  F4  UNL A   1      29.147  41.405  44.078  1.00  0.00    +0.000 F 
ENDBRANCH   23   24
BRANCH   40   41
ATOM     41  C30 UNL A   1      21.156  44.078  49.535  1.00  0.00    +0.000 C 
ATOM     42  C31 UNL A   1      20.526  44.994  48.680  1.00  0.00    +0.000 C 
ATOM     43  F6  UNL A   1      20.313  44.678  47.394  1.00  0.00    +0.000 F 
ATOM     44  C32 UNL A   1      20.139  46.249  49.139  1.00  0.00    +0.000 C 
ATOM     45  F7  UNL A   1      19.569  47.121  48.296  1.00  0.00    +0.000 F 
ATOM     46  C33 UNL A   1      20.350  46.602  50.464  1.00  0.00    +0.000 C 
ATOM     47  F8  UNL A   1      19.966  47.808  50.905  1.00  0.00    +0.000 F 
ATOM     48  C34 UNL A   1      20.963  45.707  51.328  1.00  0.00    +0.000 C 
ATOM     49  F9  UNL A   1      21.159  46.044  52.611  1.00  0.00    +0.000 F 
ATOM     50  C35 UNL A   1      21.374  44.461  50.867  1.00  0.00    +0.000 C 
ATOM     51  F10 UNL A   1      21.971  43.618  51.724  1.00  0.00    +0.000 F 
ENDBRANCH   40   41
BRANCH   55   56
ATOM     65  C44 UNL A   1      16.758  37.629  48.481  1.00  0.00    +0.000 C 
ATOM     66  F15 UNL A   1      17.008  37.663  47.164  1.00  0.00    +0.000 F 
ATOM     56  C39 UNL A   1      17.752  38.009  49.395  1.00  0.00    +0.000 C 
ATOM     57  C40 UNL A   1      17.437  37.959  50.760  1.00  0.00    +0.000 C 
ATOM     58  F11 UNL A   1      18.363  38.290  51.672  1.00  0.00    +0.000 F 
ATOM     59  C41 UNL A   1      16.187  37.522  51.195  1.00  0.00    +0.000 C 
ATOM     60  F12 UNL A   1      15.930  37.437  52.507  1.00  0.00    +0.000 F 
ATOM     61  C42 UNL A   1      15.218  37.156  50.272  1.00  0.00    +0.000 C 
ATOM     62  F13 UNL A   1      14.017  36.736  50.691  1.00  0.00    +0.000 F 
ATOM     63  C43 UNL A   1      15.500  37.218  48.916  1.00  0.00    +0.000 C 
ATOM     64  F14 UNL A   1      14.562  36.877  48.022  1.00  0.00    +0.000 F 
ENDBRANCH   55   56
TORSDOF 19
ENDMDL
MODEL 7
REMARK VINA RESULT:      -8.7     43.424     46.682
ROOT
ATOM     19  C15 UNL A   1      25.831  35.425  45.186  1.00  0.00    +0.000 C 
ATOM     20  C16 UNL A   1      27.175  35.430  44.516  1.00  0.00    +0.000 C 
ATOM     21  N3  UNL A   1      28.176  36.257  44.679  1.00  0.00    +0.000 N 
ATOM     22  C17 UNL A   1      29.192  35.786  43.859  1.00  0.00    +0.000 C 
ATOM     23  C18 UNL A   1      30.420  36.319  43.653  1.00  0.00    +0.000 C 
ATOM     35  C25 UNL A   1      30.887  37.542  44.253  1.00  0.00    +0.000 C 
ATOM     36  C26 UNL A   1      32.063  38.227  44.004  1.00  0.00    +0.000 C 
ATOM     37  C27 UNL A   1      32.115  39.329  44.864  1.00  0.00    +0.000 C 
ATOM     38  C28 UNL A   1      30.955  39.350  45.620  1.00  0.00    +0.000 C 
ATOM     39  N4  UNL A   1      30.204  38.254  45.225  1.00  0.00    +0.000 N 
ATOM     40  C29 UNL A   1      30.563  40.288  46.638  1.00  0.00    +0.000 C 
ATOM     52  C36 UNL A   1      29.366  40.289  47.273  1.00  0.00    +0.000 C 
ATOM     53  N5  UNL A   1      28.295  39.423  47.110  1.00  0.00    +0.000 N 
ATOM     54  C37 UNL A   1      27.379  39.821  47.958  1.00  0.00    +0.000 C 
ATOM     55  C38 UNL A   1      26.009  39.255  48.209  1.00  0.00    +0.000 C 
ATOM     67  C45 UNL A   1      25.586  38.204  47.481  1.00  0.00    +0.000 C 
ATOM     68  C46 UNL A   1      24.295  37.541  47.630  1.00  0.00    +0.000 C 
ATOM     69  C47 UNL A   1      24.256  36.472  46.818  1.00  0.00    +0.000 C 
ATOM     70  C48 UNL A   1      25.508  36.397  46.062  1.00  0.00    +0.000 C 
ATOM     71  N6  UNL A   1      26.218  37.494  46.488  1.00  0.00    +0.000 N 
ATOM     72  C49 UNL A   1      27.777  40.983  48.768  1.00  0.00    +0.000 C 
ATOM     73  C50 UNL A   1      28.984  41.247  48.287  1.00  0.00    +0.000 C 
ATOM     74  C51 UNL A   1      28.700  34.585  43.220  1.00  0.00    +0.000 C 
ATOM     75  C52 UNL A   1      27.437  34.349  43.552  1.00  0.00    +0.000 C 
ATOM    111  H21 UNL A   1      32.777  37.970  43.306  1.00  0.00    +0.000 H 
ATOM    112  H22 UNL A   1      32.888  40.010  44.924  1.00  0.00    +0.000 H 
ATOM    113  H23 UNL A   1      29.318  38.018  45.584  1.00  0.00    +0.000 H 
ATOM    114  H24 UNL A   1      23.534  37.844  48.258  1.00  0.00    +0.000 H 
ATOM    115  H25 UNL A   1      23.470  35.808  46.740  1.00  0.00    +0.000 H 
ATOM    116  H26 UNL A   1      27.095  37.746  46.119  1.00  0.00    +0.000 H 
ATOM    117  H27 UNL A   1      27.254  41.466  49.515  1.00  0.00    +0.000 H 
ATOM    118  H28 UNL A   1      29.574  42.035  48.597  1.00  0.00    +0.000 H 
ATOM    119  H29 UNL A   1      29.258  33.990  42.589  1.00  0.00    +0.000 H 
ATOM    120  H30 UNL A   1      26.805  33.604  43.222  1.00  0.00    +0.000 H 
ENDROOT
BRANCH   19   18
ATOM     76  C53 UNL A   1      24.952  33.183  45.834  1.00  0.00    +0.000 C 
ATOM    109  H19 UNL A   1      22.208  33.376  43.170  1.00  0.00    +0.000 H 
ATOM     77  C54 UNL A   1      24.025  32.151  45.713  1.00  0.00    +0.000 C 
ATOM     15  C11 UNL A   1      22.981  32.260  44.791  1.00  0.00    +0.000 C 
ATOM     16  C12 UNL A   1      22.944  33.331  43.893  1.00  0.00    +0.000 C 
ATOM     17  C13 UNL A   1      23.908  34.338  43.977  1.00  0.00    +0.000 C 
ATOM    110  H20 UNL A   1      23.896  35.119  43.302  1.00  0.00    +0.000 H 
ATOM     18  C14 UNL A   1      24.891  34.295  44.979  1.00  0.00    +0.000 C 
ATOM    121  H31 UNL A   1      25.689  33.130  46.555  1.00  0.00    +0.000 H 
ATOM    122  H32 UNL A   1      24.109  31.308  46.303  1.00  0.00    +0.000 H 
BRANCH   15   13
ATOM     13  C10 UNL A   1      21.892  31.261  44.756  1.00  0.00    +0.000 C 
ATOM     14  O2  UNL A   1      22.163  30.064  44.721  1.00  0.00    +0.000 O 
BRANCH   13   12
ATOM    108  H18 UNL A   1      20.246  32.050  45.584  1.00  0.00    +0.000 H 
ATOM     12  N2  UNL A   1      20.584  31.679  44.737  1.00  0.00    +0.000 N 
BRANCH   12   11
ATOM    106  H16 UNL A   1      20.163  31.525  42.722  1.00  0.00    +0.000 H 
ATOM     11  C9  UNL A   1      19.628  31.651  43.640  1.00  0.00    +0.000 C 
ATOM    107  H17 UNL A   1      18.954  30.838  43.816  1.00  0.00    +0.000 H 
BRANCH   11   10
ATOM    105  H15 UNL A   1      19.503  33.735  43.474  1.00  0.00    +0.000 H 
ATOM     10  C8  UNL A   1      18.802  32.931  43.556  1.00  0.00    +0.000 C 
ATOM    104  H14 UNL A   1      18.190  32.990  44.432  1.00  0.00    +0.000 H 
BRANCH   10    9
ATOM      9  C7  UNL A   1      17.889  33.029  42.331  1.00  0.00    +0.000 C 
ATOM    102  H12 UNL A   1      17.795  34.062  42.070  1.00  0.00    +0.000 H 
ATOM    103  H13 UNL A   1      18.350  32.436  41.569  1.00  0.00    +0.000 H 
BRANCH    9    8
ATOM    100  H10 UNL A   1      16.171  32.674  43.523  1.00  0.00    +0.000 H 
ATOM    101  H11 UNL A   1      15.871  32.920  41.774  1.00  0.00    +0.000 H 
ATOM      8  C6  UNL A   1      16.481  32.457  42.522  1.00  0.00    +0.000 C 
BRANCH    8    7
ATOM     98  H8  UNL A   1      15.879  30.785  41.353  1.00  0.00    +0.000 H 
ATOM     99  H9  UNL A   1      17.338  30.542  42.351  1.00  0.00    +0.000 H 
ATOM      7  C5  UNL A   1      16.348  30.944  42.301  1.00  0.00    +0.000 C 
BRANCH    7    6
ATOM     97  H7  UNL A   1      14.491  30.290  43.115  1.00  0.00    +0.000 H 
ATOM      6  C4  UNL A   1      15.528  30.218  43.370  1.00  0.00    +0.000 C 
ATOM     96  H6  UNL A   1      15.709  30.674  44.321  1.00  0.00    +0.000 H 
BRANCH    6    5
ATOM      5  N1  UNL A   1      15.893  28.819  43.438  1.00  0.00    +0.000 N 
ATOM     95  H5  UNL A   1      16.804  28.638  43.764  1.00  0.00    +0.000 H 
BRANCH    5    3
ATOM      3  C3  UNL A   1      15.160  27.714  43.115  1.00  0.00    +0.000 C 
ATOM      4  O1  UNL A   1      14.234  27.424  43.874  1.00  0.00    +0.000 O 
BRANCH    3    2
ATOM      2  C2  UNL A   1      15.521  26.893  41.869  1.00  0.00    +0.000 C 
ATOM     94  H4  UNL A   1      16.560  26.655  41.961  1.00  0.00    +0.000 H 
BRANCH    2    1
ATOM      1  C1  UNL A   1      15.341  27.689  40.574  1.00  0.00    +0.000 C 
ATOM     91  H1  UNL A   1      15.022  28.683  40.809  1.00  0.00    +0.000 H 
ATOM     92  H2  UNL A   1      14.604  27.213  39.962  1.00  0.00    +0.000 H 
ATOM     93  H3  UNL A   1      16.272  27.728  40.047  1.00  0.00    +0.000 H 
ENDBRANCH    2    1
BRANCH    2   78
ATOM    134  H44 UNL A   1      14.602  22.573  43.291  1.00  0.00    +0.000 H 
ATOM     78  C55 UNL A   1      14.738  25.591  41.805  1.00  0.00    +0.000 C 
ATOM     79  C56 UNL A   1      13.684  25.406  40.899  1.00  0.00    +0.000 C 
ATOM     80  C57 UNL A   1      12.993  24.193  40.857  1.00  0.00    +0.000 C 
ATOM     81  C58 UNL A   1      13.336  23.138  41.707  1.00  0.00    +0.000 C 
ATOM     88  C64 UNL A   1      14.355  23.328  42.633  1.00  0.00    +0.000 C 
ATOM     89  C65 UNL A   1      15.044  24.540  42.672  1.00  0.00    +0.000 C 
ATOM     90  F16 UNL A   1      16.035  24.679  43.566  1.00  0.00    +0.000 F 
ATOM    123  H33 UNL A   1      13.419  26.170  40.260  1.00  0.00    +0.000 H 
ATOM    124  H34 UNL A   1      12.216  24.074  40.188  1.00  0.00    +0.000 H 
BRANCH   81   82
ATOM     82  O3  UNL A   1      12.587  22.016  41.527  1.00  0.00    +0.000 O 
BRANCH   82   83
ATOM    129  H39 UNL A   1      13.968  18.106  40.704  1.00  0.00    +0.000 H 
ATOM    130  H40 UNL A   1      12.101  19.071  38.597  1.00  0.00    +0.000 H 
ATOM    131  H41 UNL A   1      13.821  18.919  38.508  1.00  0.00    +0.000 H 
ATOM    132  H42 UNL A   1      14.076  21.117  39.091  1.00  0.00    +0.000 H 
ATOM    133  H43 UNL A   1      12.369  21.314  39.015  1.00  0.00    +0.000 H 
ATOM     83  C59 UNL A   1      13.111  20.813  40.988  1.00  0.00    +0.000 C 
ATOM     84  C60 UNL A   1      12.512  19.500  41.484  1.00  0.00    +0.000 C 
ATOM     85  C61 UNL A   1      13.002  18.493  40.456  1.00  0.00    +0.000 C 
ATOM     86  C62 UNL A   1      13.013  19.248  39.128  1.00  0.00    +0.000 C 
ATOM     87  C63 UNL A   1      13.149  20.733  39.462  1.00  0.00    +0.000 C 
ATOM    125  H35 UNL A   1      14.103  20.900  41.380  1.00  0.00    +0.000 H 
ATOM    126  H36 UNL A   1      11.443  19.547  41.499  1.00  0.00    +0.000 H 
ATOM    127  H37 UNL A   1      12.801  19.255  42.485  1.00  0.00    +0.000 H 
ATOM    128  H38 UNL A   1      12.336  17.656  40.406  1.00  0.00    +0.000 H 
ENDBRANCH   82   83
ENDBRANCH   81   82
ENDBRANCH    2   78
ENDBRANCH    3    2
ENDBRANCH    5    3
ENDBRANCH    6    5
ENDBRANCH    7    6
ENDBRANCH    8    7
ENDBRANCH    9    8
ENDBRANCH   10    9
ENDBRANCH   11   10
ENDBRANCH   12   11
ENDBRANCH   13   12
ENDBRANCH   15   13
ENDBRANCH   19   18
BRANCH   23   24
ATOM     33  C24 UNL A   1      31.411  35.939  41.372  1.00  0.00    +0.000 C 
ATOM     34  F5  UNL A   1      30.686  36.966  40.904  1.00  0.00    +0.000 F 
ATOM     24  C19 UNL A   1      31.355  35.597  42.732  1.00  0.00    +0.000 C 
ATOM     25  C20 UNL A   1      32.127  34.513  43.170  1.00  0.00    +0.000 C 
ATOM     26  F1  UNL A   1      32.112  34.150  44.462  1.00  0.00    +0.000 F 
ATOM     27  C21 UNL A   1      32.932  33.803  42.282  1.00  0.00    +0.000 C 
ATOM     28  F2  UNL A   1      33.680  32.783  42.726  1.00  0.00    +0.000 F 
ATOM     29  C22 UNL A   1      32.961  34.149  40.939  1.00  0.00    +0.000 C 
ATOM     30  F3  UNL A   1      33.722  33.453  40.083  1.00  0.00    +0.000 F 
ATOM     31  C23 UNL A   1      32.200  35.215  40.483  1.00  0.00    +0.000 C 
ATOM     32  F4  UNL A   1      32.217  35.543  39.184  1.00  0.00    +0.000 F 
ENDBRANCH   23   24
BRANCH   40   41
ATOM     41  C30 UNL A   1      31.546  41.353  47.021  1.00  0.00    +0.000 C 
ATOM     42  C31 UNL A   1      32.674  41.056  47.799  1.00  0.00    +0.000 C 
ATOM     43  F6  UNL A   1      32.858  39.814  48.272  1.00  0.00    +0.000 F 
ATOM     44  C32 UNL A   1      33.600  42.043  48.120  1.00  0.00    +0.000 C 
ATOM     45  F7  UNL A   1      34.653  41.746  48.894  1.00  0.00    +0.000 F 
ATOM     46  C33 UNL A   1      33.431  43.337  47.648  1.00  0.00    +0.000 C 
ATOM     47  F8  UNL A   1      34.331  44.284  47.950  1.00  0.00    +0.000 F 
ATOM     48  C34 UNL A   1      32.327  43.649  46.868  1.00  0.00    +0.000 C 
ATOM     49  F9  UNL A   1      32.169  44.897  46.403  1.00  0.00    +0.000 F 
ATOM     50  C35 UNL A   1      31.386  42.671  46.566  1.00  0.00    +0.000 C 
ATOM     51  F10 UNL A   1      30.324  43.003  45.816  1.00  0.00    +0.000 F 
ENDBRANCH   40   41
BRANCH   55   56
ATOM     65  C44 UNL A   1      25.238  39.444  50.598  1.00  0.00    +0.000 C 
ATOM     66  F15 UNL A   1      26.132  38.510  50.955  1.00  0.00    +0.000 F 
ATOM     56  C39 UNL A   1      25.131  39.837  49.256  1.00  0.00    +0.000 C 
ATOM     57  C40 UNL A   1      24.177  40.813  48.936  1.00  0.00    +0.000 C 
ATOM     58  F11 UNL A   1      24.055  41.237  47.669  1.00  0.00    +0.000 F 
ATOM     59  C41 UNL A   1      23.380  41.392  49.921  1.00  0.00    +0.000 C 
ATOM     60  F12 UNL A   1      22.512  42.358  49.595  1.00  0.00    +0.000 F 
ATOM     61  C42 UNL A   1      23.501  40.984  51.242  1.00  0.00    +0.000 C 
ATOM     62  F13 UNL A   1      22.735  41.541  52.189  1.00  0.00    +0.000 F 
ATOM     63  C43 UNL A   1      24.423  40.003  51.579  1.00  0.00    +0.000 C 
ATOM     64  F14 UNL A   1      24.533  39.598  52.851  1.00  0.00    +0.000 F 
ENDBRANCH   55   56
TORSDOF 19
ENDMDL
MODEL 8
REMARK VINA RESULT:      -8.7     44.229     47.610
ROOT
ATOM     19  C15 UNL A   1      25.502  38.171  48.775  1.00  0.00    +0.000 C 
ATOM     20  C16 UNL A   1      26.787  38.900  48.508  1.00  0.00    +0.000 C 
ATOM     21  N3  UNL A   1      27.768  38.576  47.705  1.00  0.00    +0.000 N 
ATOM     22  C17 UNL A   1      28.688  39.611  47.795  1.00  0.00    +0.000 C 
ATOM     23  C18 UNL A   1      29.889  39.724  47.178  1.00  0.00    +0.000 C 
ATOM     35  C25 UNL A   1      30.454  38.725  46.310  1.00  0.00    +0.000 C 
ATOM     36  C26 UNL A   1      31.716  38.692  45.743  1.00  0.00    +0.000 C 
ATOM     37  C27 UNL A   1      31.798  37.560  44.926  1.00  0.00    +0.000 C 
ATOM     38  C28 UNL A   1      30.601  36.870  45.013  1.00  0.00    +0.000 C 
ATOM     39  N4  UNL A   1      29.789  37.589  45.876  1.00  0.00    +0.000 N 
ATOM     40  C29 UNL A   1      30.215  35.653  44.350  1.00  0.00    +0.000 C 
ATOM     52  C36 UNL A   1      29.052  34.991  44.558  1.00  0.00    +0.000 C 
ATOM     53  N5  UNL A   1      28.004  35.319  45.405  1.00  0.00    +0.000 N 
ATOM     54  C37 UNL A   1      27.101  34.383  45.240  1.00  0.00    +0.000 C 
ATOM     55  C38 UNL A   1      25.764  34.228  45.909  1.00  0.00    +0.000 C 
ATOM     67  C45 UNL A   1      25.382  35.125  46.838  1.00  0.00    +0.000 C 
ATOM     68  C46 UNL A   1      24.109  35.110  47.550  1.00  0.00    +0.000 C 
ATOM     69  C47 UNL A   1      24.025  36.209  48.318  1.00  0.00    +0.000 C 
ATOM     70  C48 UNL A   1      25.259  36.987  48.181  1.00  0.00    +0.000 C 
ATOM     71  N6  UNL A   1      26.025  36.242  47.317  1.00  0.00    +0.000 N 
ATOM     72  C49 UNL A   1      27.473  33.360  44.250  1.00  0.00    +0.000 C 
ATOM     73  C50 UNL A   1      28.684  33.762  43.890  1.00  0.00    +0.000 C 
ATOM     74  C51 UNL A   1      28.139  40.589  48.709  1.00  0.00    +0.000 C 
ATOM     75  C52 UNL A   1      26.987  40.173  49.219  1.00  0.00    +0.000 C 
ATOM    111  H21 UNL A   1      32.467  39.383  45.898  1.00  0.00    +0.000 H 
ATOM    112  H22 UNL A   1      32.613  37.287  44.354  1.00  0.00    +0.000 H 
ATOM    113  H23 UNL A   1      28.876  37.331  46.141  1.00  0.00    +0.000 H 
ATOM    114  H24 UNL A   1      23.389  34.376  47.476  1.00  0.00    +0.000 H 
ATOM    115  H25 UNL A   1      23.220  36.465  48.911  1.00  0.00    +0.000 H 
ATOM    116  H26 UNL A   1      26.945  36.484  47.065  1.00  0.00    +0.000 H 
ATOM    117  H27 UNL A   1      26.932  32.545  43.923  1.00  0.00    +0.000 H 
ATOM    118  H28 UNL A   1      29.287  33.260  43.218  1.00  0.00    +0.000 H 
ATOM    119  H29 UNL A   1      28.584  41.492  48.933  1.00  0.00    +0.000 H 
ATOM    120  H30 UNL A   1      26.388  40.624  49.927  1.00  0.00    +0.000 H 
ENDROOT
BRANCH   19   18
ATOM     76  C53 UNL A   1      23.508  39.652  48.999  1.00  0.00    +0.000 C 
ATOM    109  H19 UNL A   1      23.136  38.764  52.705  1.00  0.00    +0.000 H 
ATOM     77  C54 UNL A   1      22.453  40.181  49.739  1.00  0.00    +0.000 C 
ATOM     15  C11 UNL A   1      22.278  39.795  51.071  1.00  0.00    +0.000 C 
ATOM     16  C12 UNL A   1      23.234  38.995  51.703  1.00  0.00    +0.000 C 
ATOM     17  C13 UNL A   1      24.322  38.510  50.975  1.00  0.00    +0.000 C 
ATOM    110  H20 UNL A   1      25.041  37.937  51.445  1.00  0.00    +0.000 H 
ATOM     18  C14 UNL A   1      24.441  38.797  49.605  1.00  0.00    +0.000 C 
ATOM    121  H31 UNL A   1      23.604  39.890  47.999  1.00  0.00    +0.000 H 
ATOM    122  H32 UNL A   1      21.804  40.856  49.305  1.00  0.00    +0.000 H 
BRANCH   15   13
ATOM     13  C10 UNL A   1      21.079  40.210  51.829  1.00  0.00    +0.000 C 
ATOM     14  O2  UNL A   1      20.415  41.168  51.445  1.00  0.00    +0.000 O 
BRANCH   13   12
ATOM    108  H18 UNL A   1      21.275  39.735  53.766  1.00  0.00    +0.000 H 
ATOM     12  N2  UNL A   1      20.729  39.535  52.972  1.00  0.00    +0.000 N 
BRANCH   12   11
ATOM    106  H16 UNL A   1      19.489  38.460  54.226  1.00  0.00    +0.000 H 
ATOM     11  C9  UNL A   1      19.662  38.565  53.175  1.00  0.00    +0.000 C 
ATOM    107  H17 UNL A   1      18.792  38.926  52.669  1.00  0.00    +0.000 H 
BRANCH   11   10
ATOM    105  H15 UNL A   1      19.463  36.479  53.177  1.00  0.00    +0.000 H 
ATOM     10  C8  UNL A   1      20.004  37.196  52.595  1.00  0.00    +0.000 C 
ATOM    104  H14 UNL A   1      21.065  37.068  52.647  1.00  0.00    +0.000 H 
BRANCH   10    9
ATOM      9  C7  UNL A   1      19.570  36.986  51.142  1.00  0.00    +0.000 C 
ATOM    102  H12 UNL A   1      18.836  36.207  51.125  1.00  0.00    +0.000 H 
ATOM    103  H13 UNL A   1      19.200  37.930  50.803  1.00  0.00    +0.000 H 
BRANCH    9    8
ATOM    100  H10 UNL A   1      20.396  36.887  49.191  1.00  0.00    +0.000 H 
ATOM    101  H11 UNL A   1      21.571  37.103  50.526  1.00  0.00    +0.000 H 
ATOM      8  C6  UNL A   1      20.694  36.598  50.177  1.00  0.00    +0.000 C 
BRANCH    8    7
ATOM     98  H8  UNL A   1      22.097  35.006  50.338  1.00  0.00    +0.000 H 
ATOM     99  H9  UNL A   1      20.442  34.631  50.888  1.00  0.00    +0.000 H 
ATOM      7  C5  UNL A   1      21.050  35.105  50.145  1.00  0.00    +0.000 C 
BRANCH    7    6
ATOM     97  H7  UNL A   1      20.467  33.393  49.019  1.00  0.00    +0.000 H 
ATOM      6  C4  UNL A   1      20.739  34.408  48.818  1.00  0.00    +0.000 C 
ATOM     96  H6  UNL A   1      21.605  34.444  48.191  1.00  0.00    +0.000 H 
BRANCH    6    5
ATOM      5  N1  UNL A   1      19.636  35.058  48.141  1.00  0.00    +0.000 N 
ATOM     95  H5  UNL A   1      18.886  35.324  48.720  1.00  0.00    +0.000 H 
BRANCH    5    3
ATOM      3  C3  UNL A   1      19.485  35.355  46.818  1.00  0.00    +0.000 C 
ATOM      4  O1  UNL A   1      18.604  36.169  46.531  1.00  0.00    +0.000 O 
BRANCH    3    2
ATOM      2  C2  UNL A   1      20.375  34.670  45.772  1.00  0.00    +0.000 C 
ATOM     94  H4  UNL A   1      21.210  34.270  46.309  1.00  0.00    +0.000 H 
BRANCH    2    1
ATOM      1  C1  UNL A   1      20.920  35.656  44.736  1.00  0.00    +0.000 C 
ATOM     91  H1  UNL A   1      20.129  36.292  44.399  1.00  0.00    +0.000 H 
ATOM     92  H2  UNL A   1      21.321  35.114  43.904  1.00  0.00    +0.000 H 
ATOM     93  H3  UNL A   1      21.693  36.249  45.180  1.00  0.00    +0.000 H 
ENDBRANCH    2    1
BRANCH    2   78
ATOM    134  H44 UNL A   1      19.095  30.222  45.457  1.00  0.00    +0.000 H 
ATOM     78  C55 UNL A   1      19.655  33.520  45.085  1.00  0.00    +0.000 C 
ATOM     79  C56 UNL A   1      18.926  33.706  43.903  1.00  0.00    +0.000 C 
ATOM     80  C57 UNL A   1      18.287  32.626  43.288  1.00  0.00    +0.000 C 
ATOM     81  C58 UNL A   1      18.363  31.341  43.831  1.00  0.00    +0.000 C 
ATOM     88  C64 UNL A   1      19.054  31.157  45.024  1.00  0.00    +0.000 C 
ATOM     89  C65 UNL A   1      19.692  32.236  45.634  1.00  0.00    +0.000 C 
ATOM     90  F16 UNL A   1      20.366  32.016  46.773  1.00  0.00    +0.000 F 
ATOM    123  H33 UNL A   1      18.862  34.646  43.483  1.00  0.00    +0.000 H 
ATOM    124  H34 UNL A   1      17.750  32.780  42.421  1.00  0.00    +0.000 H 
BRANCH   81   82
ATOM     82  O3  UNL A   1      17.710  30.393  43.105  1.00  0.00    +0.000 O 
BRANCH   82   83
ATOM    129  H39 UNL A   1      14.723  27.807  44.609  1.00  0.00    +0.000 H 
ATOM    130  H40 UNL A   1      16.712  26.334  42.955  1.00  0.00    +0.000 H 
ATOM    131  H41 UNL A   1      16.555  26.341  44.677  1.00  0.00    +0.000 H 
ATOM    132  H42 UNL A   1      18.128  27.993  44.845  1.00  0.00    +0.000 H 
ATOM    133  H43 UNL A   1      18.407  27.871  43.152  1.00  0.00    +0.000 H 
ATOM     83  C59 UNL A   1      16.934  29.363  43.696  1.00  0.00    +0.000 C 
ATOM     84  C60 UNL A   1      15.579  29.053  43.065  1.00  0.00    +0.000 C 
ATOM     85  C61 UNL A   1      15.223  27.704  43.669  1.00  0.00    +0.000 C 
ATOM     86  C62 UNL A   1      16.552  26.963  43.806  1.00  0.00    +0.000 C 
ATOM     87  C63 UNL A   1      17.647  28.025  43.889  1.00  0.00    +0.000 C 
ATOM    125  H35 UNL A   1      16.765  29.835  44.642  1.00  0.00    +0.000 H 
ATOM    126  H36 UNL A   1      15.656  28.991  42.000  1.00  0.00    +0.000 H 
ATOM    127  H37 UNL A   1      14.843  29.807  43.254  1.00  0.00    +0.000 H 
ATOM    128  H38 UNL A   1      14.560  27.168  43.022  1.00  0.00    +0.000 H 
ENDBRANCH   82   83
ENDBRANCH   81   82
ENDBRANCH    2   78
ENDBRANCH    3    2
ENDBRANCH    5    3
ENDBRANCH    6    5
ENDBRANCH    7    6
ENDBRANCH    8    7
ENDBRANCH    9    8
ENDBRANCH   10    9
ENDBRANCH   11   10
ENDBRANCH   12   11
ENDBRANCH   13   12
ENDBRANCH   15   13
ENDBRANCH   19   18
BRANCH   23   24
ATOM     33  C24 UNL A   1      31.761  40.950  48.328  1.00  0.00    +0.000 C 
ATOM     34  F5  UNL A   1      32.122  39.805  48.926  1.00  0.00    +0.000 F 
ATOM     24  C19 UNL A   1      30.690  40.966  47.420  1.00  0.00    +0.000 C 
ATOM     25  C20 UNL A   1      30.349  42.190  46.828  1.00  0.00    +0.000 C 
ATOM     26  F1  UNL A   1      29.337  42.255  45.949  1.00  0.00    +0.000 F 
ATOM     27  C21 UNL A   1      31.057  43.351  47.126  1.00  0.00    +0.000 C 
ATOM     28  F2  UNL A   1      30.728  44.506  46.530  1.00  0.00    +0.000 F 
ATOM     29  C22 UNL A   1      32.102  43.315  48.037  1.00  0.00    +0.000 C 
ATOM     30  F3  UNL A   1      32.771  44.437  48.336  1.00  0.00    +0.000 F 
ATOM     31  C23 UNL A   1      32.453  42.116  48.640  1.00  0.00    +0.000 C 
ATOM     32  F4  UNL A   1      33.454  42.082  49.530  1.00  0.00    +0.000 F 
ENDBRANCH   23   24
BRANCH   40   41
ATOM     41  C30 UNL A   1      31.175  35.063  43.361  1.00  0.00    +0.000 C 
ATOM     42  C31 UNL A   1      31.260  35.553  42.049  1.00  0.00    +0.000 C 
ATOM     43  F6  UNL A   1      30.431  36.524  41.637  1.00  0.00    +0.000 F 
ATOM     44  C32 UNL A   1      32.179  35.024  41.148  1.00  0.00    +0.000 C 
ATOM     45  F7  UNL A   1      32.220  35.483  39.890  1.00  0.00    +0.000 F 
ATOM     46  C33 UNL A   1      33.046  34.017  41.547  1.00  0.00    +0.000 C 
ATOM     47  F8  UNL A   1      33.937  33.517  40.679  1.00  0.00    +0.000 F 
ATOM     48  C34 UNL A   1      32.984  33.525  42.842  1.00  0.00    +0.000 C 
ATOM     49  F9  UNL A   1      33.828  32.559  43.231  1.00  0.00    +0.000 F 
ATOM     50  C35 UNL A   1      32.050  34.034  43.739  1.00  0.00    +0.000 C 
ATOM     51  F10 UNL A   1      32.008  33.535  44.984  1.00  0.00    +0.000 F 
ENDBRANCH   40   41
BRANCH   55   56
ATOM     65  C44 UNL A   1      24.928  31.873  46.215  1.00  0.00    +0.000 C 
ATOM     66  F15 UNL A   1      25.829  31.685  47.190  1.00  0.00    +0.000 F 
ATOM     56  C39 UNL A   1      24.863  33.104  45.545  1.00  0.00    +0.000 C 
ATOM     57  C40 UNL A   1      23.906  33.247  44.532  1.00  0.00    +0.000 C 
ATOM     58  F11 UNL A   1      23.792  34.414  43.880  1.00  0.00    +0.000 F 
ATOM     59  C41 UNL A   1      23.031  32.210  44.216  1.00  0.00    +0.000 C 
ATOM     60  F12 UNL A   1      22.094  32.389  43.277  1.00  0.00    +0.000 F 
ATOM     61  C42 UNL A   1      23.117  30.999  44.889  1.00  0.00    +0.000 C 
ATOM     62  F13 UNL A   1      22.275  30.002  44.586  1.00  0.00    +0.000 F 
ATOM     63  C43 UNL A   1      24.071  30.827  45.881  1.00  0.00    +0.000 C 
ATOM     64  F14 UNL A   1      24.164  29.655  46.524  1.00  0.00    +0.000 F 
ENDBRANCH   55   56
TORSDOF 19
ENDMDL
MODEL 9
REMARK VINA RESULT:      -8.7     43.650     47.184
ROOT
ATOM     19  C15 UNL A   1      23.196  36.167  47.019  1.00  0.00    +0.000 C 
ATOM     20  C16 UNL A   1      24.200  37.280  46.931  1.00  0.00    +0.000 C 
ATOM     21  N3  UNL A   1      24.070  38.537  47.271  1.00  0.00    +0.000 N 
ATOM     22  C17 UNL A   1      25.306  39.122  47.034  1.00  0.00    +0.000 C 
ATOM     23  C18 UNL A   1      25.667  40.417  47.197  1.00  0.00    +0.000 C 
ATOM     35  C25 UNL A   1      24.777  41.462  47.632  1.00  0.00    +0.000 C 
ATOM     36  C26 UNL A   1      25.017  42.823  47.702  1.00  0.00    +0.000 C 
ATOM     37  C27 UNL A   1      23.881  43.438  48.239  1.00  0.00    +0.000 C 
ATOM     38  C28 UNL A   1      22.923  42.465  48.467  1.00  0.00    +0.000 C 
ATOM     39  N4  UNL A   1      23.481  41.258  48.078  1.00  0.00    +0.000 N 
ATOM     40  C29 UNL A   1      21.600  42.618  49.014  1.00  0.00    +0.000 C 
ATOM     52  C36 UNL A   1      20.687  41.624  49.124  1.00  0.00    +0.000 C 
ATOM     53  N5  UNL A   1      20.807  40.289  48.767  1.00  0.00    +0.000 N 
ATOM     54  C37 UNL A   1      19.666  39.727  49.084  1.00  0.00    +0.000 C 
ATOM     55  C38 UNL A   1      19.234  38.298  48.914  1.00  0.00    +0.000 C 
ATOM     67  C45 UNL A   1      20.076  37.417  48.342  1.00  0.00    +0.000 C 
ATOM     68  C46 UNL A   1      19.799  36.000  48.133  1.00  0.00    +0.000 C 
ATOM     69  C47 UNL A   1      20.898  35.408  47.637  1.00  0.00    +0.000 C 
ATOM     70  C48 UNL A   1      21.946  36.415  47.457  1.00  0.00    +0.000 C 
ATOM     71  N6  UNL A   1      21.352  37.587  47.858  1.00  0.00    +0.000 N 
ATOM     72  C49 UNL A   1      18.695  40.648  49.695  1.00  0.00    +0.000 C 
ATOM     73  C50 UNL A   1      19.357  41.797  49.666  1.00  0.00    +0.000 C 
ATOM     74  C51 UNL A   1      26.183  38.079  46.549  1.00  0.00    +0.000 C 
ATOM     75  C52 UNL A   1      25.534  36.930  46.417  1.00  0.00    +0.000 C 
ATOM    111  H21 UNL A   1      25.882  43.300  47.409  1.00  0.00    +0.000 H 
ATOM    112  H22 UNL A   1      23.777  44.447  48.433  1.00  0.00    +0.000 H 
ATOM    113  H23 UNL A   1      23.024  40.386  48.114  1.00  0.00    +0.000 H 
ATOM    114  H24 UNL A   1      18.904  35.528  48.335  1.00  0.00    +0.000 H 
ATOM    115  H25 UNL A   1      20.990  34.404  47.418  1.00  0.00    +0.000 H 
ATOM    116  H26 UNL A   1      21.796  38.464  47.805  1.00  0.00    +0.000 H 
ATOM    117  H27 UNL A   1      17.748  40.451  50.053  1.00  0.00    +0.000 H 
ATOM    118  H28 UNL A   1      18.971  42.699  49.989  1.00  0.00    +0.000 H 
ATOM    119  H29 UNL A   1      27.184  38.212  46.334  1.00  0.00    +0.000 H 
ATOM    120  H30 UNL A   1      25.874  36.028  46.051  1.00  0.00    +0.000 H 
ENDROOT
BRANCH   19   18
ATOM     76  C53 UNL A   1      23.688  34.334  45.400  1.00  0.00    +0.000 C 
ATOM    109  H19 UNL A   1      24.732  31.976  48.230  1.00  0.00    +0.000 H 
ATOM     77  C54 UNL A   1      24.147  33.053  45.105  1.00  0.00    +0.000 C 
ATOM     15  C11 UNL A   1      24.598  32.223  46.134  1.00  0.00    +0.000 C 
ATOM     16  C12 UNL A   1      24.458  32.617  47.468  1.00  0.00    +0.000 C 
ATOM     17  C13 UNL A   1      23.944  33.881  47.767  1.00  0.00    +0.000 C 
ATOM    110  H20 UNL A   1      23.819  34.166  48.751  1.00  0.00    +0.000 H 
ATOM     18  C14 UNL A   1      23.599  34.766  46.733  1.00  0.00    +0.000 C 
ATOM    121  H31 UNL A   1      23.410  34.970  44.636  1.00  0.00    +0.000 H 
ATOM    122  H32 UNL A   1      24.155  32.718  44.128  1.00  0.00    +0.000 H 
BRANCH   15   13
ATOM     13  C10 UNL A   1      25.243  30.927  45.836  1.00  0.00    +0.000 C 
ATOM     14  O2  UNL A   1      26.467  30.841  45.834  1.00  0.00    +0.000 O 
BRANCH   13   12
ATOM    108  H18 UNL A   1      24.858  29.200  44.894  1.00  0.00    +0.000 H 
ATOM     12  N2  UNL A   1      24.468  29.833  45.538  1.00  0.00    +0.000 N 
BRANCH   12   11
ATOM    106  H16 UNL A   1      23.077  28.412  46.096  1.00  0.00    +0.000 H 
ATOM     11  C9  UNL A   1      23.148  29.479  46.042  1.00  0.00    +0.000 C 
ATOM    107  H17 UNL A   1      23.036  29.929  47.006  1.00  0.00    +0.000 H 
BRANCH   11   10
ATOM    105  H15 UNL A   1      21.624  29.149  44.643  1.00  0.00    +0.000 H 
ATOM     10  C8  UNL A   1      22.026  30.001  45.150  1.00  0.00    +0.000 C 
ATOM    104  H14 UNL A   1      22.441  30.731  44.487  1.00  0.00    +0.000 H 
BRANCH   10    9
ATOM      9  C7  UNL A   1      20.857  30.647  45.898  1.00  0.00    +0.000 C 
ATOM    102  H12 UNL A   1      19.951  30.200  45.546  1.00  0.00    +0.000 H 
ATOM    103  H13 UNL A   1      21.041  30.479  46.939  1.00  0.00    +0.000 H 
BRANCH    9    8
ATOM    100  H10 UNL A   1      19.946  32.505  46.365  1.00  0.00    +0.000 H 
ATOM    101  H11 UNL A   1      21.694  32.568  45.976  1.00  0.00    +0.000 H 
ATOM      8  C6  UNL A   1      20.735  32.164  45.727  1.00  0.00    +0.000 C 
BRANCH    8    7
ATOM     98  H8  UNL A   1      21.211  33.309  43.998  1.00  0.00    +0.000 H 
ATOM     99  H9  UNL A   1      20.369  31.767  43.691  1.00  0.00    +0.000 H 
ATOM      7  C5  UNL A   1      20.430  32.645  44.301  1.00  0.00    +0.000 C 
BRANCH    7    6
ATOM     97  H7  UNL A   1      18.890  33.508  43.109  1.00  0.00    +0.000 H 
ATOM      6  C4  UNL A   1      19.093  33.375  44.151  1.00  0.00    +0.000 C 
ATOM     96  H6  UNL A   1      19.155  34.324  44.642  1.00  0.00    +0.000 H 
BRANCH    6    5
ATOM      5  N1  UNL A   1      18.017  32.605  44.739  1.00  0.00    +0.000 N 
ATOM     95  H5  UNL A   1      18.038  32.537  45.721  1.00  0.00    +0.000 H 
BRANCH    5    3
ATOM      3  C3  UNL A   1      16.979  31.961  44.132  1.00  0.00    +0.000 C 
ATOM      4  O1  UNL A   1      15.857  32.146  44.610  1.00  0.00    +0.000 O 
BRANCH    3    2
ATOM      2  C2  UNL A   1      17.244  31.045  42.929  1.00  0.00    +0.000 C 
ATOM     94  H4  UNL A   1      18.307  31.001  42.818  1.00  0.00    +0.000 H 
BRANCH    2    1
ATOM      1  C1  UNL A   1      16.664  31.608  41.629  1.00  0.00    +0.000 C 
ATOM     91  H1  UNL A   1      17.462  31.844  40.957  1.00  0.00    +0.000 H 
ATOM     92  H2  UNL A   1      16.103  32.493  41.843  1.00  0.00    +0.000 H 
ATOM     93  H3  UNL A   1      16.022  30.878  41.181  1.00  0.00    +0.000 H 
ENDBRANCH    2    1
BRANCH    2   78
ATOM    134  H44 UNL A   1      17.753  26.693  44.456  1.00  0.00    +0.000 H 
ATOM     78  C55 UNL A   1      16.733  29.633  43.172  1.00  0.00    +0.000 C 
ATOM     79  C56 UNL A   1      15.433  29.247  42.819  1.00  0.00    +0.000 C 
ATOM     80  C57 UNL A   1      14.998  27.939  43.043  1.00  0.00    +0.000 C 
ATOM     81  C58 UNL A   1      15.846  26.986  43.616  1.00  0.00    +0.000 C 
ATOM     88  C64 UNL A   1      17.124  27.373  44.002  1.00  0.00    +0.000 C 
ATOM     89  C65 UNL A   1      17.555  28.679  43.776  1.00  0.00    +0.000 C 
ATOM     90  F16 UNL A   1      18.803  29.009  44.144  1.00  0.00    +0.000 F 
ATOM    123  H33 UNL A   1      14.793  29.933  42.391  1.00  0.00    +0.000 H 
ATOM    124  H34 UNL A   1      14.036  27.671  42.783  1.00  0.00    +0.000 H 
BRANCH   81   82
ATOM     82  O3  UNL A   1      15.285  25.753  43.746  1.00  0.00    +0.000 O 
BRANCH   82   83
ATOM    129  H39 UNL A   1      13.969  23.372  40.510  1.00  0.00    +0.000 H 
ATOM    130  H40 UNL A   1      12.030  23.315  42.768  1.00  0.00    +0.000 H 
ATOM    131  H41 UNL A   1      11.890  24.157  41.264  1.00  0.00    +0.000 H 
ATOM    132  H42 UNL A   1      12.729  26.060  42.218  1.00  0.00    +0.000 H 
ATOM    133  H43 UNL A   1      12.711  25.277  43.748  1.00  0.00    +0.000 H 
ATOM     83  C59 UNL A   1      14.594  25.101  42.691  1.00  0.00    +0.000 C 
ATOM     84  C60 UNL A   1      14.939  23.639  42.422  1.00  0.00    +0.000 C 
ATOM     85  C61 UNL A   1      13.787  23.174  41.546  1.00  0.00    +0.000 C 
ATOM     86  C62 UNL A   1      12.561  23.922  42.064  1.00  0.00    +0.000 C 
ATOM     87  C63 UNL A   1      13.069  25.193  42.743  1.00  0.00    +0.000 C 
ATOM    125  H35 UNL A   1      14.975  25.692  41.884  1.00  0.00    +0.000 H 
ATOM    126  H36 UNL A   1      14.981  23.080  43.333  1.00  0.00    +0.000 H 
ATOM    127  H37 UNL A   1      15.897  23.509  41.964  1.00  0.00    +0.000 H 
ATOM    128  H38 UNL A   1      13.649  22.116  41.640  1.00  0.00    +0.000 H 
ENDBRANCH   82   83
ENDBRANCH   81   82
ENDBRANCH    2   78
ENDBRANCH    3    2
ENDBRANCH    5    3
ENDBRANCH    6    5
ENDBRANCH    7    6
ENDBRANCH    8    7
ENDBRANCH    9    8
ENDBRANCH   10    9
ENDBRANCH   11   10
ENDBRANCH   12   11
ENDBRANCH   13   12
ENDBRANCH   15   13
ENDBRANCH   19   18
BRANCH   23   24
ATOM     33  C24 UNL A   1      27.504  40.965  45.567  1.00  0.00    +0.000 C 
ATOM     34  F5  UNL A   1      26.620  40.866  44.563  1.00  0.00    +0.000 F 
ATOM     24  C19 UNL A   1      27.085  40.796  46.896  1.00  0.00    +0.000 C 
ATOM     25  C20 UNL A   1      28.049  40.903  47.908  1.00  0.00    +0.000 C 
ATOM     26  F1  UNL A   1      27.696  40.755  49.194  1.00  0.00    +0.000 F 
ATOM     27  C21 UNL A   1      29.379  41.178  47.603  1.00  0.00    +0.000 C 
ATOM     28  F2  UNL A   1      30.280  41.299  48.588  1.00  0.00    +0.000 F 
ATOM     29  C22 UNL A   1      29.774  41.327  46.281  1.00  0.00    +0.000 C 
ATOM     30  F3  UNL A   1      31.058  41.574  45.989  1.00  0.00    +0.000 F 
ATOM     31  C23 UNL A   1      28.838  41.219  45.264  1.00  0.00    +0.000 C 
ATOM     32  F4  UNL A   1      29.220  41.350  43.986  1.00  0.00    +0.000 F 
ENDBRANCH   23   24
BRANCH   40   41
ATOM     41  C30 UNL A   1      21.194  43.981  49.488  1.00  0.00    +0.000 C 
ATOM     42  C31 UNL A   1      21.432  44.392  50.808  1.00  0.00    +0.000 C 
ATOM     43  F6  UNL A   1      21.974  43.540  51.692  1.00  0.00    +0.000 F 
ATOM     44  C32 UNL A   1      21.085  45.671  51.230  1.00  0.00    +0.000 C 
ATOM     45  F7  UNL A   1      21.289  46.032  52.505  1.00  0.00    +0.000 F 
ATOM     46  C33 UNL A   1      20.520  46.570  50.338  1.00  0.00    +0.000 C 
ATOM     47  F8  UNL A   1      20.196  47.806  50.745  1.00  0.00    +0.000 F 
ATOM     48  C34 UNL A   1      20.285  46.186  49.026  1.00  0.00    +0.000 C 
ATOM     49  F9  UNL A   1      19.748  47.058  48.160  1.00  0.00    +0.000 F 
ATOM     50  C35 UNL A   1      20.608  44.900  48.606  1.00  0.00    +0.000 C 
ATOM     51  F10 UNL A   1      20.364  44.554  47.333  1.00  0.00    +0.000 F 
ENDBRANCH   40   41
BRANCH   55   56
ATOM     65  C44 UNL A   1      17.583  37.799  50.748  1.00  0.00    +0.000 C 
ATOM     66  F15 UNL A   1      18.505  38.134  51.663  1.00  0.00    +0.000 F 
ATOM     56  C39 UNL A   1      17.896  37.852  49.382  1.00  0.00    +0.000 C 
ATOM     57  C40 UNL A   1      16.898  37.488  48.468  1.00  0.00    +0.000 C 
ATOM     58  F11 UNL A   1      17.145  37.546  47.151  1.00  0.00    +0.000 F 
ATOM     59  C41 UNL A   1      15.628  37.110  48.901  1.00  0.00    +0.000 C 
ATOM     60  F12 UNL A   1      14.678  36.815  48.005  1.00  0.00    +0.000 F 
ATOM     61  C42 UNL A   1      15.343  37.060  50.258  1.00  0.00    +0.000 C 
ATOM     62  F13 UNL A   1      14.122  36.697  50.674  1.00  0.00    +0.000 F 
ATOM     63  C43 UNL A   1      16.322  37.395  51.181  1.00  0.00    +0.000 C 
ATOM     64  F14 UNL A   1      16.053  37.336  52.493  1.00  0.00    +0.000 F 
ENDBRANCH   55   56
TORSDOF 19
ENDMDL
MODEL 10
REMARK VINA RESULT:      -8.7     28.233     33.268
ROOT
ATOM     19  C15 UNL A   1      22.522  19.905   4.990  1.00  0.00    +0.000 C 
ATOM     20  C16 UNL A   1      21.358  19.189   5.613  1.00  0.00    +0.000 C 
ATOM     21  N3  UNL A   1      20.079  19.334   5.379  1.00  0.00    +0.000 N 
ATOM     22  C17 UNL A   1      19.439  18.400   6.182  1.00  0.00    +0.000 C 
ATOM     23  C18 UNL A   1      18.110  18.183   6.321  1.00  0.00    +0.000 C 
ATOM     35  C25 UNL A   1      17.086  18.943   5.654  1.00  0.00    +0.000 C 
ATOM     36  C26 UNL A   1      15.715  18.881   5.831  1.00  0.00    +0.000 C 
ATOM     37  C27 UNL A   1      15.118  19.762   4.923  1.00  0.00    +0.000 C 
ATOM     38  C28 UNL A   1      16.120  20.398   4.208  1.00  0.00    +0.000 C 
ATOM     39  N4  UNL A   1      17.323  19.895   4.676  1.00  0.00    +0.000 N 
ATOM     40  C29 UNL A   1      15.992  21.381   3.165  1.00  0.00    +0.000 C 
ATOM     52  C36 UNL A   1      17.028  22.023   2.573  1.00  0.00    +0.000 C 
ATOM     53  N5  UNL A   1      18.388  21.883   2.810  1.00  0.00    +0.000 N 
ATOM     54  C37 UNL A   1      18.984  22.702   1.979  1.00  0.00    +0.000 C 
ATOM     55  C38 UNL A   1      20.453  22.968   1.801  1.00  0.00    +0.000 C 
ATOM     67  C45 UNL A   1      21.340  22.330   2.588  1.00  0.00    +0.000 C 
ATOM     68  C46 UNL A   1      22.790  22.475   2.513  1.00  0.00    +0.000 C 
ATOM     69  C47 UNL A   1      23.360  21.612   3.371  1.00  0.00    +0.000 C 
ATOM     70  C48 UNL A   1      22.311  20.881   4.085  1.00  0.00    +0.000 C 
ATOM     71  N6  UNL A   1      21.143  21.407   3.588  1.00  0.00    +0.000 N 
ATOM     72  C49 UNL A   1      18.062  23.445   1.106  1.00  0.00    +0.000 C 
ATOM     73  C50 UNL A   1      16.882  23.017   1.533  1.00  0.00    +0.000 C 
ATOM     74  C51 UNL A   1      20.470  17.672   6.889  1.00  0.00    +0.000 C 
ATOM     75  C52 UNL A   1      21.674  18.156   6.612  1.00  0.00    +0.000 C 
ATOM    111  H21 UNL A   1      15.220  18.289   6.514  1.00  0.00    +0.000 H 
ATOM    112  H22 UNL A   1      14.104  19.912   4.806  1.00  0.00    +0.000 H 
ATOM    113  H23 UNL A   1      18.213  20.174   4.359  1.00  0.00    +0.000 H 
ATOM    114  H24 UNL A   1      23.296  23.132   1.900  1.00  0.00    +0.000 H 
ATOM    115  H25 UNL A   1      24.375  21.486   3.506  1.00  0.00    +0.000 H 
ATOM    116  H26 UNL A   1      20.252  21.147   3.915  1.00  0.00    +0.000 H 
ATOM    117  H27 UNL A   1      18.278  24.122   0.358  1.00  0.00    +0.000 H 
ATOM    118  H28 UNL A   1      15.976  23.351   1.168  1.00  0.00    +0.000 H 
ATOM    119  H29 UNL A   1      20.292  16.880   7.526  1.00  0.00    +0.000 H 
ATOM    120  H30 UNL A   1      22.591  17.881   6.996  1.00  0.00    +0.000 H 
ENDROOT
BRANCH   19   18
ATOM     76  C53 UNL A   1      24.555  19.947   6.433  1.00  0.00    +0.000 C 
ATOM    109  H19 UNL A   1      26.308  17.365   4.215  1.00  0.00    +0.000 H 
ATOM     77  C54 UNL A   1      25.826  19.488   6.771  1.00  0.00    +0.000 C 
ATOM     15  C11 UNL A   1      26.431  18.491   6.000  1.00  0.00    +0.000 C 
ATOM     16  C12 UNL A   1      25.829  18.055   4.816  1.00  0.00    +0.000 C 
ATOM     17  C13 UNL A   1      24.579  18.558   4.448  1.00  0.00    +0.000 C 
ATOM    110  H20 UNL A   1      24.144  18.254   3.563  1.00  0.00    +0.000 H 
ATOM     18  C14 UNL A   1      23.913  19.473   5.279  1.00  0.00    +0.000 C 
ATOM    121  H31 UNL A   1      24.083  20.640   7.035  1.00  0.00    +0.000 H 
ATOM    122  H32 UNL A   1      26.320  19.883   7.587  1.00  0.00    +0.000 H 
BRANCH   15   13
ATOM     13  C10 UNL A   1      27.702  17.869   6.427  1.00  0.00    +0.000 C 
ATOM     14  O2  UNL A   1      28.635  17.784   5.635  1.00  0.00    +0.000 O 
BRANCH   13   12
ATOM    108  H18 UNL A   1      27.355  16.516   7.865  1.00  0.00    +0.000 H 
ATOM     12  N2  UNL A   1      27.821  17.367   7.700  1.00  0.00    +0.000 N 
BRANCH   12   11
ATOM    106  H16 UNL A   1      29.123  17.137   9.287  1.00  0.00    +0.000 H 
ATOM     11  C9  UNL A   1      28.541  17.917   8.840  1.00  0.00    +0.000 C 
ATOM    107  H17 UNL A   1      29.161  18.712   8.481  1.00  0.00    +0.000 H 
BRANCH   11   10
ATOM    105  H15 UNL A   1      27.568  17.781  10.690  1.00  0.00    +0.000 H 
ATOM     10  C8  UNL A   1      27.604  18.496   9.895  1.00  0.00    +0.000 C 
ATOM    104  H14 UNL A   1      26.653  18.668   9.436  1.00  0.00    +0.000 H 
BRANCH   10    9
ATOM      9  C7  UNL A   1      28.074  19.812  10.521  1.00  0.00    +0.000 C 
ATOM    102  H12 UNL A   1      27.795  19.805  11.553  1.00  0.00    +0.000 H 
ATOM    103  H13 UNL A   1      29.132  19.854  10.364  1.00  0.00    +0.000 H 
BRANCH    9    8
ATOM    100  H10 UNL A   1      27.924  21.923  10.383  1.00  0.00    +0.000 H 
ATOM    101  H11 UNL A   1      27.750  21.026   8.843  1.00  0.00    +0.000 H 
ATOM      8  C6  UNL A   1      27.499  21.079   9.881  1.00  0.00    +0.000 C 
BRANCH    8    7
ATOM     98  H8  UNL A   1      25.630  21.584   8.999  1.00  0.00    +0.000 H 
ATOM     99  H9  UNL A   1      25.589  20.239  10.170  1.00  0.00    +0.000 H 
ATOM      7  C5  UNL A   1      25.971  21.212   9.942  1.00  0.00    +0.000 C 
BRANCH    7    6
ATOM     97  H7  UNL A   1      24.540  22.588  10.715  1.00  0.00    +0.000 H 
ATOM      6  C4  UNL A   1      25.460  22.149  11.040  1.00  0.00    +0.000 C 
ATOM     96  H6  UNL A   1      26.191  22.909  11.220  1.00  0.00    +0.000 H 
BRANCH    6    5
ATOM      5  N1  UNL A   1      25.220  21.421  12.268  1.00  0.00    +0.000 N 
ATOM     95  H5  UNL A   1      25.917  21.517  12.956  1.00  0.00    +0.000 H 
BRANCH    5    3
ATOM      3  C3  UNL A   1      24.168  20.621  12.610  1.00  0.00    +0.000 C 
ATOM      4  O1  UNL A   1      23.043  21.119  12.522  1.00  0.00    +0.000 O 
BRANCH    3    2
ATOM      2  C2  UNL A   1      24.423  19.188  13.097  1.00  0.00    +0.000 C 
ATOM     94  H4  UNL A   1      23.807  19.054  13.961  1.00  0.00    +0.000 H 
BRANCH    2    1
ATOM      1  C1  UNL A   1      25.876  18.968  13.525  1.00  0.00    +0.000 C 
ATOM     91  H1  UNL A   1      25.980  19.199  14.564  1.00  0.00    +0.000 H 
ATOM     92  H2  UNL A   1      26.517  19.605  12.952  1.00  0.00    +0.000 H 
ATOM     93  H3  UNL A   1      26.146  17.946  13.357  1.00  0.00    +0.000 H 
ENDBRANCH    2    1
BRANCH    2   78
ATOM    134  H44 UNL A   1      22.887  14.992  11.847  1.00  0.00    +0.000 H 
ATOM     78  C55 UNL A   1      24.014  18.158  12.056  1.00  0.00    +0.000 C 
ATOM     79  C56 UNL A   1      24.040  18.442  10.684  1.00  0.00    +0.000 C 
ATOM     80  C57 UNL A   1      23.671  17.470   9.752  1.00  0.00    +0.000 C 
ATOM     81  C58 UNL A   1      23.273  16.194  10.162  1.00  0.00    +0.000 C 
ATOM     88  C64 UNL A   1      23.209  15.917  11.523  1.00  0.00    +0.000 C 
ATOM     89  C65 UNL A   1      23.580  16.890  12.451  1.00  0.00    +0.000 C 
ATOM     90  F16 UNL A   1      23.524  16.579  13.755  1.00  0.00    +0.000 F 
ATOM    123  H33 UNL A   1      24.335  19.376  10.360  1.00  0.00    +0.000 H 
ATOM    124  H34 UNL A   1      23.690  17.696   8.746  1.00  0.00    +0.000 H 
BRANCH   81   82
ATOM     82  O3  UNL A   1      22.969  15.353   9.137  1.00  0.00    +0.000 O 
BRANCH   82   83
ATOM    129  H39 UNL A   1      25.464  15.842   5.759  1.00  0.00    +0.000 H 
ATOM    130  H40 UNL A   1      23.983  13.262   5.659  1.00  0.00    +0.000 H 
ATOM    131  H41 UNL A   1      23.684  14.699   4.744  1.00  0.00    +0.000 H 
ATOM    132  H42 UNL A   1      22.116  15.377   6.267  1.00  0.00    +0.000 H 
ATOM    133  H43 UNL A   1      22.291  13.875   7.086  1.00  0.00    +0.000 H 
ATOM     83  C59 UNL A   1      23.566  15.449   7.853  1.00  0.00    +0.000 C 
ATOM     84  C60 UNL A   1      25.040  15.071   7.732  1.00  0.00    +0.000 C 
ATOM     85  C61 UNL A   1      25.229  14.912   6.233  1.00  0.00    +0.000 C 
ATOM     86  C62 UNL A   1      23.913  14.328   5.722  1.00  0.00    +0.000 C 
ATOM     87  C63 UNL A   1      22.831  14.726   6.725  1.00  0.00    +0.000 C 
ATOM    125  H35 UNL A   1      23.480  16.509   7.733  1.00  0.00    +0.000 H 
ATOM    126  H36 UNL A   1      25.245  14.155   8.246  1.00  0.00    +0.000 H 
ATOM    127  H37 UNL A   1      25.698  15.794   8.167  1.00  0.00    +0.000 H 
ATOM    128  H38 UNL A   1      26.040  14.245   6.026  1.00  0.00    +0.000 H 
ENDBRANCH   82   83
ENDBRANCH   81   82
ENDBRANCH    2   78
ENDBRANCH    3    2
ENDBRANCH    5    3
ENDBRANCH    6    5
ENDBRANCH    7    6
ENDBRANCH    8    7
ENDBRANCH    9    8
ENDBRANCH   10    9
ENDBRANCH   11   10
ENDBRANCH   12   11
ENDBRANCH   13   12
ENDBRANCH   15   13
ENDBRANCH   19   18
BRANCH   23   24
ATOM     33  C24 UNL A   1      17.687  15.749   6.802  1.00  0.00    +0.000 C 
ATOM     34  F5  UNL A   1      18.171  15.442   5.589  1.00  0.00    +0.000 F 
ATOM     24  C19 UNL A   1      17.670  17.083   7.239  1.00  0.00    +0.000 C 
ATOM     25  C20 UNL A   1      17.149  17.351   8.512  1.00  0.00    +0.000 C 
ATOM     26  F1  UNL A   1      17.116  18.609   8.977  1.00  0.00    +0.000 F 
ATOM     27  C21 UNL A   1      16.671  16.323   9.321  1.00  0.00    +0.000 C 
ATOM     28  F2  UNL A   1      16.198  16.599  10.544  1.00  0.00    +0.000 F 
ATOM     29  C22 UNL A   1      16.684  15.013   8.863  1.00  0.00    +0.000 C 
ATOM     30  F3  UNL A   1      16.207  14.028   9.636  1.00  0.00    +0.000 F 
ATOM     31  C23 UNL A   1      17.190  14.726   7.604  1.00  0.00    +0.000 C 
ATOM     32  F4  UNL A   1      17.191  13.463   7.155  1.00  0.00    +0.000 F 
ENDBRANCH   23   24
BRANCH   40   41
ATOM     41  C30 UNL A   1      14.611  21.733   2.702  1.00  0.00    +0.000 C 
ATOM     42  C31 UNL A   1      14.033  21.102   1.591  1.00  0.00    +0.000 C 
ATOM     43  F6  UNL A   1      14.741  20.211   0.879  1.00  0.00    +0.000 F 
ATOM     44  C32 UNL A   1      12.737  21.408   1.190  1.00  0.00    +0.000 C 
ATOM     45  F7  UNL A   1      12.217  20.819   0.104  1.00  0.00    +0.000 F 
ATOM     46  C33 UNL A   1      11.985  22.328   1.905  1.00  0.00    +0.000 C 
ATOM     47  F8  UNL A   1      10.732  22.613   1.523  1.00  0.00    +0.000 F 
ATOM     48  C34 UNL A   1      12.534  22.957   3.013  1.00  0.00    +0.000 C 
ATOM     49  F9  UNL A   1      11.805  23.839   3.712  1.00  0.00    +0.000 F 
ATOM     50  C35 UNL A   1      13.839  22.672   3.403  1.00  0.00    +0.000 C 
ATOM     51  F10 UNL A   1      14.346  23.299   4.475  1.00  0.00    +0.000 F 
ENDBRANCH   40   41
BRANCH   55   56
ATOM     65  C44 UNL A   1      21.086  23.516  -0.573  1.00  0.00    +0.000 C 
ATOM     66  F15 UNL A   1      20.826  22.249  -0.929  1.00  0.00    +0.000 F 
ATOM     56  C39 UNL A   1      20.928  23.917   0.762  1.00  0.00    +0.000 C 
ATOM     57  C40 UNL A   1      21.217  25.250   1.081  1.00  0.00    +0.000 C 
ATOM     58  F11 UNL A   1      21.059  25.685   2.340  1.00  0.00    +0.000 F 
ATOM     59  C41 UNL A   1      21.623  26.154   0.101  1.00  0.00    +0.000 C 
ATOM     60  F12 UNL A   1      21.845  27.434   0.425  1.00  0.00    +0.000 F 
ATOM     61  C42 UNL A   1      21.777  25.733  -1.212  1.00  0.00    +0.000 C 
ATOM     62  F13 UNL A   1      22.166  26.602  -2.154  1.00  0.00    +0.000 F 
ATOM     63  C43 UNL A   1      21.517  24.413  -1.547  1.00  0.00    +0.000 C 
ATOM     64  F14 UNL A   1      21.676  24.000  -2.812  1.00  0.00    +0.000 F 
ENDBRANCH   55   56
TORSDOF 19
ENDMDL
