MODEL 1
REMARK VINA RESULT:      -7.5      0.000      0.000
ROOT
ATOM    129  H30 UNL A   1      10.907  -0.208  26.342  1.00  0.00    +0.000 H 
ATOM    130  H31 UNL A   1       7.066  -3.436  19.716  1.00  0.00    +0.000 H 
ATOM    131  H32 UNL A   1       8.566  -1.510  19.043  1.00  0.00    +0.000 H 
ATOM    132  H33 UNL A   1       9.357  -2.357  23.010  1.00  0.00    +0.000 H 
ATOM    133  H34 UNL A   1       9.975  -5.889  23.157  1.00  0.00    +0.000 H 
ATOM    134  H35 UNL A   1      10.928  -4.946  25.360  1.00  0.00    +0.000 H 
ATOM    135  H36 UNL A   1      13.629   1.958  23.060  1.00  0.00    +0.000 H 
ATOM    136  H37 UNL A   1      11.996   1.754  21.099  1.00  0.00    +0.000 H 
ATOM     29  C24 UNL A   1      10.477  -0.686  21.003  1.00  0.00    +0.000 C 
ATOM     30  C25 UNL A   1      11.471  -0.228  22.082  1.00  0.00    +0.000 C 
ATOM     31  N3  UNL A   1      11.903  -0.822  23.162  1.00  0.00    +0.000 N 
ATOM     32  C26 UNL A   1      12.769   0.084  23.810  1.00  0.00    +0.000 C 
ATOM     33  C27 UNL A   1      13.189  -0.015  25.106  1.00  0.00    +0.000 C 
ATOM     45  C34 UNL A   1      12.692  -1.166  25.785  1.00  0.00    +0.000 C 
ATOM     46  C35 UNL A   1      13.148  -2.395  26.198  1.00  0.00    +0.000 C 
ATOM     47  C36 UNL A   1      12.015  -3.087  26.716  1.00  0.00    +0.000 C 
ATOM     48  C37 UNL A   1      10.903  -2.306  26.428  1.00  0.00    +0.000 C 
ATOM     49  N4  UNL A   1      11.398  -1.051  26.212  1.00  0.00    +0.000 N 
ATOM     50  C38 UNL A   1       9.515  -2.503  26.133  1.00  0.00    +0.000 C 
ATOM     62  C45 UNL A   1       9.184  -3.593  25.400  1.00  0.00    +0.000 C 
ATOM     63  N5  UNL A   1       8.025  -3.635  24.656  1.00  0.00    +0.000 N 
ATOM     64  C46 UNL A   1       8.321  -4.423  23.671  1.00  0.00    +0.000 C 
ATOM     65  C47 UNL A   1       7.605  -4.470  22.385  1.00  0.00    +0.000 C 
ATOM     77  C54 UNL A   1       8.072  -3.391  21.685  1.00  0.00    +0.000 C 
ATOM     78  C55 UNL A   1       7.779  -2.998  20.321  1.00  0.00    +0.000 C 
ATOM     79  C56 UNL A   1       8.579  -1.973  19.965  1.00  0.00    +0.000 C 
ATOM     80  C57 UNL A   1       9.476  -1.605  21.075  1.00  0.00    +0.000 C 
ATOM     81  N6  UNL A   1       9.033  -2.429  22.083  1.00  0.00    +0.000 N 
ATOM     82  C58 UNL A   1       9.576  -5.167  23.777  1.00  0.00    +0.000 C 
ATOM     83  C59 UNL A   1      10.054  -4.644  24.902  1.00  0.00    +0.000 C 
ATOM     84  C60 UNL A   1      12.955   1.189  22.915  1.00  0.00    +0.000 C 
ATOM     85  C61 UNL A   1      12.136   1.084  21.871  1.00  0.00    +0.000 C 
ATOM    127  H28 UNL A   1      14.116  -2.747  26.142  1.00  0.00    +0.000 H 
ATOM    128  H29 UNL A   1      12.020  -3.993  27.211  1.00  0.00    +0.000 H 
ENDROOT
BRANCH   29   28
ATOM    137  H38 UNL A   1      12.170  -1.451  19.010  1.00  0.00    +0.000 H 
ATOM    138  H39 UNL A   1      12.333  -0.515  16.772  1.00  0.00    +0.000 H 
ATOM     86  C62 UNL A   1      11.592  -0.637  18.746  1.00  0.00    +0.000 C 
ATOM     87  C63 UNL A   1      11.682  -0.102  17.459  1.00  0.00    +0.000 C 
ATOM     25  C20 UNL A   1      10.889   0.994  17.102  1.00  0.00    +0.000 C 
ATOM     26  C21 UNL A   1      10.043   1.584  18.051  1.00  0.00    +0.000 C 
ATOM     27  C22 UNL A   1       9.955   1.058  19.334  1.00  0.00    +0.000 C 
ATOM     28  C23 UNL A   1      10.715  -0.065  19.677  1.00  0.00    +0.000 C 
ATOM    125  H26 UNL A   1       9.482   2.411  17.795  1.00  0.00    +0.000 H 
ATOM    126  H27 UNL A   1       9.332   1.496  20.032  1.00  0.00    +0.000 H 
BRANCH   25   23
ATOM     23  C19 UNL A   1      10.971   1.658  15.779  1.00  0.00    +0.000 C 
ATOM     24  O3  UNL A   1      10.945   2.876  15.714  1.00  0.00    +0.000 O 
BRANCH   23   22
ATOM    124  H25 UNL A   1      11.916   1.031  14.127  1.00  0.00    +0.000 H 
ATOM     22  N2  UNL A   1      11.065   0.941  14.613  1.00  0.00    +0.000 N 
BRANCH   22   21
ATOM    122  H23 UNL A   1       9.115   0.299  14.386  1.00  0.00    +0.000 H 
ATOM    123  H24 UNL A   1      10.105   0.218  12.938  1.00  0.00    +0.000 H 
ATOM     21  C18 UNL A   1      10.084   0.068  13.998  1.00  0.00    +0.000 C 
BRANCH   21   20
ATOM    121  H22 UNL A   1      11.130  -1.393  15.081  1.00  0.00    +0.000 H 
ATOM     20  C17 UNL A   1      10.405  -1.401  14.294  1.00  0.00    +0.000 C 
ATOM    120  H21 UNL A   1      10.762  -1.851  13.391  1.00  0.00    +0.000 H 
BRANCH   20   19
ATOM     19  C16 UNL A   1       9.222  -2.237  14.810  1.00  0.00    +0.000 C 
ATOM    118  H19 UNL A   1       8.425  -2.152  14.100  1.00  0.00    +0.000 H 
ATOM    119  H20 UNL A   1       9.597  -3.233  14.924  1.00  0.00    +0.000 H 
BRANCH   19   18
ATOM     18  C15 UNL A   1       8.673  -1.840  16.181  1.00  0.00    +0.000 C 
ATOM    116  H17 UNL A   1       8.504  -2.733  16.745  1.00  0.00    +0.000 H 
ATOM    117  H18 UNL A   1       9.402  -1.196  16.626  1.00  0.00    +0.000 H 
BRANCH   18   17
ATOM     17  C14 UNL A   1       7.368  -1.051  16.138  1.00  0.00    +0.000 C 
ATOM    114  H15 UNL A   1       7.601  -0.017  16.275  1.00  0.00    +0.000 H 
ATOM    115  H16 UNL A   1       6.922  -1.266  15.190  1.00  0.00    +0.000 H 
BRANCH   17   16
ATOM    113  H14 UNL A   1       6.845  -1.858  18.037  1.00  0.00    +0.000 H 
ATOM    112  H13 UNL A   1       5.667  -2.173  16.774  1.00  0.00    +0.000 H 
ATOM     16  C13 UNL A   1       6.334  -1.448  17.192  1.00  0.00    +0.000 C 
BRANCH   16   15
ATOM    111  H12 UNL A   1       4.747  -0.110  17.114  1.00  0.00    +0.000 H 
ATOM     15  N1  UNL A   1       5.572  -0.291  17.622  1.00  0.00    +0.000 N 
BRANCH   15   13
ATOM     13  C12 UNL A   1       5.846   0.577  18.636  1.00  0.00    +0.000 C 
ATOM     14  O2  UNL A   1       6.413   1.637  18.365  1.00  0.00    +0.000 O 
BRANCH   13   12
ATOM     12  C11 UNL A   1       5.513   0.216  20.071  1.00  0.00    +0.000 C 
ATOM    109  H10 UNL A   1       4.530   0.573  20.294  1.00  0.00    +0.000 H 
ATOM    110  H11 UNL A   1       5.578  -0.849  20.157  1.00  0.00    +0.000 H 
BRANCH   12   11
ATOM     11  C10 UNL A   1       6.493   0.820  21.076  1.00  0.00    +0.000 C 
ATOM    108  H9  UNL A   1       7.365   1.117  20.530  1.00  0.00    +0.000 H 
ATOM    107  H8  UNL A   1       6.715   0.083  21.820  1.00  0.00    +0.000 H 
BRANCH   11   10
ATOM      7  C6  UNL A   1       5.993   3.955  22.979  1.00  0.00    +0.000 C 
ATOM      8  C7  UNL A   1       4.690   3.477  22.951  1.00  0.00    +0.000 C 
ATOM      9  C8  UNL A   1       4.667   2.292  22.190  1.00  0.00    +0.000 C 
ATOM     10  C9  UNL A   1       5.956   2.048  21.764  1.00  0.00    +0.000 C 
ATOM    105  H6  UNL A   1       3.877   3.916  23.411  1.00  0.00    +0.000 H 
ATOM    106  H7  UNL A   1       3.837   1.713  21.988  1.00  0.00    +0.000 H 
ATOM     88  N7  UNL A   1       6.710   3.183  22.060  1.00  0.00    +0.000 N 
BRANCH    7    6
ATOM     98  C72 UNL A   1       7.112   5.181  24.836  1.00  0.00    +0.000 C 
ATOM      3  C2  UNL A   1       7.185   7.604  24.855  1.00  0.00    +0.000 C 
ATOM      4  C3  UNL A   1       6.503   7.621  23.638  1.00  0.00    +0.000 C 
ATOM      5  C4  UNL A   1       6.141   6.427  23.011  1.00  0.00    +0.000 C 
ATOM     99  C73 UNL A   1       7.483   6.381  25.459  1.00  0.00    +0.000 C 
ATOM    103  H4  UNL A   1       6.263   8.523  23.198  1.00  0.00    +0.000 H 
ATOM      6  C5  UNL A   1       6.446   5.198  23.605  1.00  0.00    +0.000 C 
ATOM    104  H5  UNL A   1       5.649   6.451  22.105  1.00  0.00    +0.000 H 
ATOM    146  H47 UNL A   1       7.332   4.280  25.288  1.00  0.00    +0.000 H 
ATOM    147  H48 UNL A   1       7.977   6.361  26.365  1.00  0.00    +0.000 H 
BRANCH    3    2
ATOM      2  O1  UNL A   1       7.456   8.832  25.391  1.00  0.00    +0.000 O 
BRANCH    2    1
ATOM      1  C1  UNL A   1       7.224   9.937  24.524  1.00  0.00    +0.000 C 
ATOM    100  H1  UNL A   1       8.119  10.517  24.438  1.00  0.00    +0.000 H 
ATOM    101  H2  UNL A   1       6.441  10.547  24.924  1.00  0.00    +0.000 H 
ATOM    102  H3  UNL A   1       6.938   9.578  23.558  1.00  0.00    +0.000 H 
ENDBRANCH    2    1
ENDBRANCH    3    2
ENDBRANCH    7    6
BRANCH   88   89
ATOM     97  C71 UNL A   1       9.129   3.562  21.844  1.00  0.00    +0.000 C 
ATOM    139  H40 UNL A   1       6.640   4.308  19.723  1.00  0.00    +0.000 H 
ATOM    140  H41 UNL A   1       8.461   5.351  18.513  1.00  0.00    +0.000 H 
ATOM    144  H45 UNL A   1      11.144   4.077  21.494  1.00  0.00    +0.000 H 
ATOM    145  H46 UNL A   1       9.308   3.087  22.744  1.00  0.00    +0.000 H 
ATOM     89  C64 UNL A   1       7.838   3.630  21.326  1.00  0.00    +0.000 C 
ATOM     90  C65 UNL A   1       7.598   4.275  20.107  1.00  0.00    +0.000 C 
ATOM     91  C66 UNL A   1       8.647   4.872  19.407  1.00  0.00    +0.000 C 
ATOM     92  C67 UNL A   1       9.947   4.823  19.918  1.00  0.00    +0.000 C 
ATOM     96  C70 UNL A   1      10.181   4.145  21.128  1.00  0.00    +0.000 C 
BRANCH   92   93
ATOM     93  C68 UNL A   1      11.107   5.479  19.240  1.00  0.00    +0.000 C 
ATOM     95  O4  UNL A   1      11.197   6.707  19.262  1.00  0.00    +0.000 O 
BRANCH   93   94
ATOM    143  H44 UNL A   1      13.015   4.557  19.132  1.00  0.00    +0.000 H 
ATOM    141  H42 UNL A   1      12.417   5.156  17.603  1.00  0.00    +0.000 H 
ATOM     94  C69 UNL A   1      12.148   4.662  18.513  1.00  0.00    +0.000 C 
ATOM    142  H43 UNL A   1      11.749   3.694  18.289  1.00  0.00    +0.000 H 
ENDBRANCH   93   94
ENDBRANCH   92   93
ENDBRANCH   88   89
ENDBRANCH   11   10
ENDBRANCH   12   11
ENDBRANCH   13   12
ENDBRANCH   15   13
ENDBRANCH   16   15
ENDBRANCH   17   16
ENDBRANCH   18   17
ENDBRANCH   19   18
ENDBRANCH   20   19
ENDBRANCH   21   20
ENDBRANCH   22   21
ENDBRANCH   23   22
ENDBRANCH   25   23
ENDBRANCH   29   28
BRANCH   33   34
ATOM     34  C28 UNL A   1      13.771   1.065  25.995  1.00  0.00    +0.000 C 
ATOM     35  C29 UNL A   1      15.063   0.873  26.539  1.00  0.00    +0.000 C 
ATOM     36  F1  UNL A   1      15.915  -0.004  25.985  1.00  0.00    +0.000 F 
ATOM     37  C30 UNL A   1      15.476   1.509  27.710  1.00  0.00    +0.000 C 
ATOM     38  F2  UNL A   1      16.649   1.182  28.269  1.00  0.00    +0.000 F 
ATOM     39  C31 UNL A   1      14.647   2.423  28.330  1.00  0.00    +0.000 C 
ATOM     40  F3  UNL A   1      15.015   2.992  29.487  1.00  0.00    +0.000 F 
ATOM     41  C32 UNL A   1      13.418   2.717  27.767  1.00  0.00    +0.000 C 
ATOM     42  F4  UNL A   1      12.609   3.604  28.365  1.00  0.00    +0.000 F 
ATOM     43  C33 UNL A   1      12.973   2.032  26.632  1.00  0.00    +0.000 C 
ATOM     44  F5  UNL A   1      11.708   2.248  26.249  1.00  0.00    +0.000 F 
ENDBRANCH   33   34
BRANCH   50   51
ATOM     51  C39 UNL A   1       8.484  -1.404  26.073  1.00  0.00    +0.000 C 
ATOM     52  C40 UNL A   1       8.609  -0.330  25.193  1.00  0.00    +0.000 C 
ATOM     53  F6  UNL A   1       9.608  -0.306  24.299  1.00  0.00    +0.000 F 
ATOM     54  C41 UNL A   1       7.702   0.734  25.225  1.00  0.00    +0.000 C 
ATOM     55  F7  UNL A   1       7.839   1.754  24.369  1.00  0.00    +0.000 F 
ATOM     56  C42 UNL A   1       6.650   0.746  26.135  1.00  0.00    +0.000 C 
ATOM     57  F8  UNL A   1       5.773   1.759  26.150  1.00  0.00    +0.000 F 
ATOM     58  C43 UNL A   1       6.505  -0.301  27.020  1.00  0.00    +0.000 C 
ATOM     59  F9  UNL A   1       5.484  -0.323  27.890  1.00  0.00    +0.000 F 
ATOM     60  C44 UNL A   1       7.417  -1.349  26.994  1.00  0.00    +0.000 C 
ATOM     61  F10 UNL A   1       7.231  -2.339  27.868  1.00  0.00    +0.000 F 
ENDBRANCH   50   51
BRANCH   65   66
ATOM     66  C48 UNL A   1       6.720  -5.661  22.124  1.00  0.00    +0.000 C 
ATOM     67  C49 UNL A   1       6.984  -6.695  21.217  1.00  0.00    +0.000 C 
ATOM     68  F11 UNL A   1       8.021  -6.632  20.377  1.00  0.00    +0.000 F 
ATOM     69  C50 UNL A   1       6.160  -7.831  21.115  1.00  0.00    +0.000 C 
ATOM     70  F12 UNL A   1       6.480  -8.809  20.255  1.00  0.00    +0.000 F 
ATOM     71  C51 UNL A   1       5.022  -7.961  21.891  1.00  0.00    +0.000 C 
ATOM     72  F13 UNL A   1       4.259  -9.059  21.813  1.00  0.00    +0.000 F 
ATOM     73  C52 UNL A   1       4.679  -6.935  22.740  1.00  0.00    +0.000 C 
ATOM     74  F14 UNL A   1       3.569  -7.020  23.487  1.00  0.00    +0.000 F 
ATOM     75  C53 UNL A   1       5.497  -5.807  22.838  1.00  0.00    +0.000 C 
ATOM     76  F15 UNL A   1       5.053  -4.856  23.671  1.00  0.00    +0.000 F 
ENDBRANCH   65   66
TORSDOF 23
ENDMDL
MODEL 2
REMARK VINA RESULT:      -7.4     49.311     55.579
ROOT
ATOM    129  H30 UNL A   1      15.366  50.732  -0.959  1.00  0.00    +0.000 H 
ATOM    130  H31 UNL A   1      12.037  53.746   6.034  1.00  0.00    +0.000 H 
ATOM    131  H32 UNL A   1      11.682  51.244   5.869  1.00  0.00    +0.000 H 
ATOM    132  H33 UNL A   1      14.274  52.323   2.836  1.00  0.00    +0.000 H 
ATOM    133  H34 UNL A   1      16.875  54.239   4.398  1.00  0.00    +0.000 H 
ATOM    134  H35 UNL A   1      17.831  53.551   2.105  1.00  0.00    +0.000 H 
ATOM    135  H36 UNL A   1      14.722  46.500   1.172  1.00  0.00    +0.000 H 
ATOM    136  H37 UNL A   1      12.939  47.250   2.850  1.00  0.00    +0.000 H 
ATOM     29  C24 UNL A   1      13.290  49.892   3.930  1.00  0.00    +0.000 C 
ATOM     30  C25 UNL A   1      14.133  49.186   2.855  1.00  0.00    +0.000 C 
ATOM     31  N3  UNL A   1      15.207  49.564   2.217  1.00  0.00    +0.000 N 
ATOM     32  C26 UNL A   1      15.525  48.537   1.303  1.00  0.00    +0.000 C 
ATOM     33  C27 UNL A   1      16.380  48.660   0.245  1.00  0.00    +0.000 C 
ATOM     45  C34 UNL A   1      16.979  49.950   0.135  1.00  0.00    +0.000 C 
ATOM     46  C35 UNL A   1      18.193  50.545   0.382  1.00  0.00    +0.000 C 
ATOM     47  C36 UNL A   1      18.009  51.937   0.145  1.00  0.00    +0.000 C 
ATOM     48  C37 UNL A   1      16.649  52.132  -0.063  1.00  0.00    +0.000 C 
ATOM     49  N4  UNL A   1      16.165  50.902  -0.410  1.00  0.00    +0.000 N 
ATOM     50  C38 UNL A   1      15.676  53.159   0.164  1.00  0.00    +0.000 C 
ATOM     62  C45 UNL A   1      15.812  53.906   1.286  1.00  0.00    +0.000 C 
ATOM     63  N5  UNL A   1      14.734  54.548   1.858  1.00  0.00    +0.000 N 
ATOM     64  C46 UNL A   1      15.033  54.586   3.118  1.00  0.00    +0.000 C 
ATOM     65  C47 UNL A   1      14.062  54.771   4.210  1.00  0.00    +0.000 C 
ATOM     77  C54 UNL A   1      13.477  53.544   4.368  1.00  0.00    +0.000 C 
ATOM     78  C55 UNL A   1      12.510  53.122   5.362  1.00  0.00    +0.000 C 
ATOM     79  C56 UNL A   1      12.324  51.790   5.272  1.00  0.00    +0.000 C 
ATOM     80  C57 UNL A   1      13.162  51.219   4.202  1.00  0.00    +0.000 C 
ATOM     81  N6  UNL A   1      13.732  52.346   3.657  1.00  0.00    +0.000 N 
ATOM     82  C58 UNL A   1      16.401  54.217   3.482  1.00  0.00    +0.000 C 
ATOM     83  C59 UNL A   1      16.860  53.844   2.291  1.00  0.00    +0.000 C 
ATOM     84  C60 UNL A   1      14.651  47.439   1.596  1.00  0.00    +0.000 C 
ATOM     85  C61 UNL A   1      13.735  47.801   2.492  1.00  0.00    +0.000 C 
ATOM    127  H28 UNL A   1      19.062  50.077   0.681  1.00  0.00    +0.000 H 
ATOM    128  H29 UNL A   1      18.743  52.662   0.129  1.00  0.00    +0.000 H 
ENDROOT
BRANCH   29   28
ATOM    137  H38 UNL A   1      10.668  49.153   3.937  1.00  0.00    +0.000 H 
ATOM    138  H39 UNL A   1       9.623  47.434   5.304  1.00  0.00    +0.000 H 
ATOM     86  C62 UNL A   1      11.222  48.649   4.648  1.00  0.00    +0.000 C 
ATOM     87  C63 UNL A   1      10.623  47.658   5.430  1.00  0.00    +0.000 C 
ATOM     25  C20 UNL A   1      11.380  46.970   6.384  1.00  0.00    +0.000 C 
ATOM     26  C21 UNL A   1      12.725  47.311   6.589  1.00  0.00    +0.000 C 
ATOM     27  C22 UNL A   1      13.322  48.300   5.817  1.00  0.00    +0.000 C 
ATOM     28  C23 UNL A   1      12.576  48.956   4.832  1.00  0.00    +0.000 C 
ATOM    125  H26 UNL A   1      13.273  46.824   7.314  1.00  0.00    +0.000 H 
ATOM    126  H27 UNL A   1      14.312  48.549   5.970  1.00  0.00    +0.000 H 
BRANCH   25   23
ATOM     23  C19 UNL A   1      10.806  45.951   7.295  1.00  0.00    +0.000 C 
ATOM     24  O3  UNL A   1       9.872  45.264   6.918  1.00  0.00    +0.000 O 
BRANCH   23   22
ATOM    124  H25 UNL A   1      12.025  45.113   8.646  1.00  0.00    +0.000 H 
ATOM     22  N2  UNL A   1      11.289  45.761   8.565  1.00  0.00    +0.000 N 
BRANCH   22   21
ATOM    122  H23 UNL A   1       9.869  46.757   9.688  1.00  0.00    +0.000 H 
ATOM    123  H24 UNL A   1      10.898  45.653  10.586  1.00  0.00    +0.000 H 
ATOM     21  C18 UNL A   1      10.865  46.383   9.804  1.00  0.00    +0.000 C 
BRANCH   21   20
ATOM    121  H22 UNL A   1      11.513  47.846  11.162  1.00  0.00    +0.000 H 
ATOM     20  C17 UNL A   1      11.796  47.542  10.175  1.00  0.00    +0.000 C 
ATOM    120  H21 UNL A   1      11.675  48.313   9.442  1.00  0.00    +0.000 H 
BRANCH   20   19
ATOM     19  C16 UNL A   1      13.289  47.183  10.248  1.00  0.00    +0.000 C 
ATOM    118  H19 UNL A   1      13.415  46.461  11.028  1.00  0.00    +0.000 H 
ATOM    119  H20 UNL A   1      13.549  46.821   9.275  1.00  0.00    +0.000 H 
BRANCH   19   18
ATOM     18  C15 UNL A   1      14.242  48.347  10.527  1.00  0.00    +0.000 C 
ATOM    116  H17 UNL A   1      13.839  49.226  10.071  1.00  0.00    +0.000 H 
ATOM    117  H18 UNL A   1      14.323  48.426  11.590  1.00  0.00    +0.000 H 
BRANCH   18   17
ATOM     17  C14 UNL A   1      15.660  48.146   9.999  1.00  0.00    +0.000 C 
ATOM    114  H15 UNL A   1      16.153  49.094  10.004  1.00  0.00    +0.000 H 
ATOM    115  H16 UNL A   1      16.116  47.423  10.642  1.00  0.00    +0.000 H 
BRANCH   17   16
ATOM    113  H14 UNL A   1      14.763  47.349   8.240  1.00  0.00    +0.000 H 
ATOM    112  H13 UNL A   1      16.346  46.684   8.604  1.00  0.00    +0.000 H 
ATOM     16  C13 UNL A   1      15.750  47.573   8.585  1.00  0.00    +0.000 C 
BRANCH   16   15
ATOM    111  H12 UNL A   1      16.784  48.154   6.879  1.00  0.00    +0.000 H 
ATOM     15  N1  UNL A   1      16.355  48.533   7.681  1.00  0.00    +0.000 N 
BRANCH   15   13
ATOM     13  C12 UNL A   1      16.408  49.890   7.796  1.00  0.00    +0.000 C 
ATOM     14  O2  UNL A   1      17.507  50.424   7.956  1.00  0.00    +0.000 O 
BRANCH   13   12
ATOM     12  C11 UNL A   1      15.135  50.714   7.786  1.00  0.00    +0.000 C 
ATOM    109  H10 UNL A   1      14.825  50.852   6.771  1.00  0.00    +0.000 H 
ATOM    110  H11 UNL A   1      14.402  50.180   8.356  1.00  0.00    +0.000 H 
BRANCH   12   11
ATOM     11  C10 UNL A   1      15.313  52.086   8.434  1.00  0.00    +0.000 C 
ATOM    108  H9  UNL A   1      14.573  52.734   8.014  1.00  0.00    +0.000 H 
ATOM    107  H8  UNL A   1      16.308  52.429   8.236  1.00  0.00    +0.000 H 
BRANCH   11   10
ATOM      7  C6  UNL A   1      14.210  52.649  11.922  1.00  0.00    +0.000 C 
ATOM      8  C7  UNL A   1      15.419  52.006  12.151  1.00  0.00    +0.000 C 
ATOM      9  C8  UNL A   1      15.971  51.642  10.907  1.00  0.00    +0.000 C 
ATOM     10  C9  UNL A   1      15.101  52.072   9.926  1.00  0.00    +0.000 C 
ATOM    105  H6  UNL A   1      15.841  51.827  13.075  1.00  0.00    +0.000 H 
ATOM    106  H7  UNL A   1      16.863  51.145  10.757  1.00  0.00    +0.000 H 
ATOM     88  N7  UNL A   1      13.930  52.480  10.563  1.00  0.00    +0.000 N 
BRANCH    7    6
ATOM     98  C72 UNL A   1      12.590  52.233  13.768  1.00  0.00    +0.000 C 
ATOM      3  C2  UNL A   1      11.396  54.070  14.806  1.00  0.00    +0.000 C 
ATOM      4  C3  UNL A   1      12.068  54.962  13.970  1.00  0.00    +0.000 C 
ATOM      5  C4  UNL A   1      13.010  54.498  13.050  1.00  0.00    +0.000 C 
ATOM     99  C73 UNL A   1      11.652  52.702  14.700  1.00  0.00    +0.000 C 
ATOM    103  H4  UNL A   1      11.867  55.973  14.032  1.00  0.00    +0.000 H 
ATOM      6  C5  UNL A   1      13.280  53.131  12.944  1.00  0.00    +0.000 C 
ATOM    104  H5  UNL A   1      13.511  55.168  12.446  1.00  0.00    +0.000 H 
ATOM    146  H47 UNL A   1      12.774  51.221  13.691  1.00  0.00    +0.000 H 
ATOM    147  H48 UNL A   1      11.151  52.035  15.306  1.00  0.00    +0.000 H 
BRANCH    3    2
ATOM      2  O1  UNL A   1      10.473  54.634  15.642  1.00  0.00    +0.000 O 
BRANCH    2    1
ATOM      1  C1  UNL A   1      10.198  53.898  16.828  1.00  0.00    +0.000 C 
ATOM    100  H1  UNL A   1      11.012  53.236  17.035  1.00  0.00    +0.000 H 
ATOM    101  H2  UNL A   1       9.300  53.329  16.696  1.00  0.00    +0.000 H 
ATOM    102  H3  UNL A   1      10.073  54.575  17.647  1.00  0.00    +0.000 H 
ENDBRANCH    2    1
ENDBRANCH    3    2
ENDBRANCH    7    6
BRANCH   88   89
ATOM     97  C71 UNL A   1      11.943  51.219   9.855  1.00  0.00    +0.000 C 
ATOM    139  H40 UNL A   1      12.617  54.494   9.589  1.00  0.00    +0.000 H 
ATOM    140  H41 UNL A   1      10.527  54.462   8.363  1.00  0.00    +0.000 H 
ATOM    144  H45 UNL A   1      10.197  50.328   9.077  1.00  0.00    +0.000 H 
ATOM    145  H46 UNL A   1      12.326  50.345  10.250  1.00  0.00    +0.000 H 
ATOM     89  C64 UNL A   1      12.630  52.421  10.000  1.00  0.00    +0.000 C 
ATOM     90  C65 UNL A   1      12.108  53.604   9.464  1.00  0.00    +0.000 C 
ATOM     91  C66 UNL A   1      10.903  53.588   8.761  1.00  0.00    +0.000 C 
ATOM     92  C67 UNL A   1      10.205  52.388   8.596  1.00  0.00    +0.000 C 
ATOM     96  C70 UNL A   1      10.723  51.211   9.167  1.00  0.00    +0.000 C 
BRANCH   92   93
ATOM     93  C68 UNL A   1       8.931  52.294   7.818  1.00  0.00    +0.000 C 
ATOM     95  O4  UNL A   1       7.859  52.313   8.422  1.00  0.00    +0.000 O 
BRANCH   93   94
ATOM    143  H44 UNL A   1       9.206  51.147   6.054  1.00  0.00    +0.000 H 
ATOM    141  H42 UNL A   1       9.664  52.826   5.900  1.00  0.00    +0.000 H 
ATOM     94  C69 UNL A   1       8.945  52.151   6.315  1.00  0.00    +0.000 C 
ATOM    142  H43 UNL A   1       7.974  52.381   5.926  1.00  0.00    +0.000 H 
ENDBRANCH   93   94
ENDBRANCH   92   93
ENDBRANCH   88   89
ENDBRANCH   11   10
ENDBRANCH   12   11
ENDBRANCH   13   12
ENDBRANCH   15   13
ENDBRANCH   16   15
ENDBRANCH   17   16
ENDBRANCH   18   17
ENDBRANCH   19   18
ENDBRANCH   20   19
ENDBRANCH   21   20
ENDBRANCH   22   21
ENDBRANCH   23   22
ENDBRANCH   25   23
ENDBRANCH   29   28
BRANCH   33   34
ATOM     34  C28 UNL A   1      16.486  47.785  -0.988  1.00  0.00    +0.000 C 
ATOM     35  C29 UNL A   1      17.757  47.285  -1.356  1.00  0.00    +0.000 C 
ATOM     36  F1  UNL A   1      18.754  47.222  -0.459  1.00  0.00    +0.000 F 
ATOM     37  C30 UNL A   1      18.059  46.922  -2.669  1.00  0.00    +0.000 C 
ATOM     38  F2  UNL A   1      19.316  46.597  -3.001  1.00  0.00    +0.000 F 
ATOM     39  C31 UNL A   1      17.078  46.962  -3.640  1.00  0.00    +0.000 C 
ATOM     40  F3  UNL A   1      17.377  46.671  -4.914  1.00  0.00    +0.000 F 
ATOM     41  C32 UNL A   1      15.794  47.344  -3.294  1.00  0.00    +0.000 C 
ATOM     42  F4  UNL A   1      14.838  47.386  -4.234  1.00  0.00    +0.000 F 
ATOM     43  C33 UNL A   1      15.505  47.773  -1.995  1.00  0.00    +0.000 C 
ATOM     44  F5  UNL A   1      14.288  48.288  -1.782  1.00  0.00    +0.000 F 
ENDBRANCH   33   34
BRANCH   50   51
ATOM     51  C39 UNL A   1      14.272  53.150  -0.385  1.00  0.00    +0.000 C 
ATOM     52  C40 UNL A   1      13.333  52.202   0.021  1.00  0.00    +0.000 C 
ATOM     53  F6  UNL A   1      13.634  51.332   0.996  1.00  0.00    +0.000 F 
ATOM     54  C41 UNL A   1      12.070  52.142  -0.577  1.00  0.00    +0.000 C 
ATOM     55  F7  UNL A   1      11.183  51.225  -0.170  1.00  0.00    +0.000 F 
ATOM     56  C42 UNL A   1      11.718  53.028  -1.589  1.00  0.00    +0.000 C 
ATOM     57  F8  UNL A   1      10.499  52.977  -2.146  1.00  0.00    +0.000 F 
ATOM     58  C43 UNL A   1      12.628  53.972  -2.012  1.00  0.00    +0.000 C 
ATOM     59  F9  UNL A   1      12.302  54.853  -2.971  1.00  0.00    +0.000 F 
ATOM     60  C44 UNL A   1      13.887  54.019  -1.427  1.00  0.00    +0.000 C 
ATOM     61  F10 UNL A   1      14.729  54.954  -1.870  1.00  0.00    +0.000 F 
ENDBRANCH   50   51
BRANCH   65   66
ATOM     66  C48 UNL A   1      14.050  56.104   4.912  1.00  0.00    +0.000 C 
ATOM     67  C49 UNL A   1      14.684  56.395   6.127  1.00  0.00    +0.000 C 
ATOM     68  F11 UNL A   1      15.261  55.435   6.855  1.00  0.00    +0.000 F 
ATOM     69  C50 UNL A   1      14.720  57.697   6.660  1.00  0.00    +0.000 C 
ATOM     70  F12 UNL A   1      15.374  57.926   7.808  1.00  0.00    +0.000 F 
ATOM     71  C51 UNL A   1      14.094  58.750   6.017  1.00  0.00    +0.000 C 
ATOM     72  F13 UNL A   1      14.158  59.993   6.513  1.00  0.00    +0.000 F 
ATOM     73  C52 UNL A   1      13.392  58.497   4.863  1.00  0.00    +0.000 C 
ATOM     74  F14 UNL A   1      12.754  59.493   4.230  1.00  0.00    +0.000 F 
ATOM     75  C53 UNL A   1      13.356  57.205   4.336  1.00  0.00    +0.000 C 
ATOM     76  F15 UNL A   1      12.618  57.065   3.226  1.00  0.00    +0.000 F 
ENDBRANCH   65   66
TORSDOF 23
ENDMDL
MODEL 3
REMARK VINA RESULT:      -7.3     50.327     55.606
ROOT
ATOM    129  H30 UNL A   1      13.593  49.398   8.544  1.00  0.00    +0.000 H 
ATOM    130  H31 UNL A   1      14.915  52.118   0.803  1.00  0.00    +0.000 H 
ATOM    131  H32 UNL A   1      14.354  54.040   2.353  1.00  0.00    +0.000 H 
ATOM    132  H33 UNL A   1      14.900  50.683   4.702  1.00  0.00    +0.000 H 
ATOM    133  H34 UNL A   1      18.057  49.292   3.713  1.00  0.00    +0.000 H 
ATOM    134  H35 UNL A   1      17.532  48.215   5.996  1.00  0.00    +0.000 H 
ATOM    135  H36 UNL A   1      13.944  54.031   9.677  1.00  0.00    +0.000 H 
ATOM    136  H37 UNL A   1      13.446  54.972   7.349  1.00  0.00    +0.000 H 
ATOM     29  C24 UNL A   1      14.520  53.463   5.149  1.00  0.00    +0.000 C 
ATOM     30  C25 UNL A   1      14.575  53.126   6.647  1.00  0.00    +0.000 C 
ATOM     31  N3  UNL A   1      15.139  52.139   7.288  1.00  0.00    +0.000 N 
ATOM     32  C26 UNL A   1      14.825  52.302   8.654  1.00  0.00    +0.000 C 
ATOM     33  C27 UNL A   1      14.956  51.339   9.614  1.00  0.00    +0.000 C 
ATOM     45  C34 UNL A   1      15.483  50.107   9.126  1.00  0.00    +0.000 C 
ATOM     46  C35 UNL A   1      16.668  49.412   9.151  1.00  0.00    +0.000 C 
ATOM     47  C36 UNL A   1      16.481  48.275   8.313  1.00  0.00    +0.000 C 
ATOM     48  C37 UNL A   1      15.252  48.437   7.687  1.00  0.00    +0.000 C 
ATOM     49  N4  UNL A   1      14.572  49.328   8.469  1.00  0.00    +0.000 N 
ATOM     50  C38 UNL A   1      14.642  48.090   6.438  1.00  0.00    +0.000 C 
ATOM     62  C45 UNL A   1      15.428  48.115   5.335  1.00  0.00    +0.000 C 
ATOM     63  N5  UNL A   1      14.896  48.290   4.075  1.00  0.00    +0.000 N 
ATOM     64  C46 UNL A   1      15.844  48.882   3.420  1.00  0.00    +0.000 C 
ATOM     65  C47 UNL A   1      15.656  49.666   2.188  1.00  0.00    +0.000 C 
ATOM     77  C54 UNL A   1      15.173  50.873   2.613  1.00  0.00    +0.000 C 
ATOM     78  C55 UNL A   1      14.891  52.062   1.833  1.00  0.00    +0.000 C 
ATOM     79  C56 UNL A   1      14.594  53.084   2.661  1.00  0.00    +0.000 C 
ATOM     80  C57 UNL A   1      14.658  52.648   4.068  1.00  0.00    +0.000 C 
ATOM     81  N6  UNL A   1      14.907  51.302   3.936  1.00  0.00    +0.000 N 
ATOM     82  C58 UNL A   1      17.155  48.938   4.067  1.00  0.00    +0.000 C 
ATOM     83  C59 UNL A   1      16.850  48.403   5.245  1.00  0.00    +0.000 C 
ATOM     84  C60 UNL A   1      14.186  53.579   8.780  1.00  0.00    +0.000 C 
ATOM     85  C61 UNL A   1      13.947  54.100   7.579  1.00  0.00    +0.000 C 
ATOM    127  H28 UNL A   1      17.522  49.664   9.671  1.00  0.00    +0.000 H 
ATOM    128  H29 UNL A   1      17.133  47.484   8.194  1.00  0.00    +0.000 H 
ENDROOT
BRANCH   29   28
ATOM    137  H38 UNL A   1      16.394  55.441   5.143  1.00  0.00    +0.000 H 
ATOM    138  H39 UNL A   1      16.097  57.754   4.452  1.00  0.00    +0.000 H 
ATOM     86  C62 UNL A   1      15.462  55.780   4.858  1.00  0.00    +0.000 C 
ATOM     87  C63 UNL A   1      15.292  57.107   4.456  1.00  0.00    +0.000 C 
ATOM     25  C20 UNL A   1      14.029  57.560   4.060  1.00  0.00    +0.000 C 
ATOM     26  C21 UNL A   1      12.926  56.695   4.115  1.00  0.00    +0.000 C 
ATOM     27  C22 UNL A   1      13.090  55.376   4.520  1.00  0.00    +0.000 C 
ATOM     28  C23 UNL A   1      14.362  54.912   4.873  1.00  0.00    +0.000 C 
ATOM    125  H26 UNL A   1      11.990  57.039   3.852  1.00  0.00    +0.000 H 
ATOM    126  H27 UNL A   1      12.277  54.742   4.560  1.00  0.00    +0.000 H 
BRANCH   25   23
ATOM     23  C19 UNL A   1      13.752  58.967   3.681  1.00  0.00    +0.000 C 
ATOM     24  O3  UNL A   1      13.555  59.247   2.511  1.00  0.00    +0.000 O 
BRANCH   23   22
ATOM    124  H25 UNL A   1      14.410  60.669   4.508  1.00  0.00    +0.000 H 
ATOM     22  N2  UNL A   1      13.720  59.974   4.611  1.00  0.00    +0.000 N 
BRANCH   22   21
ATOM    122  H23 UNL A   1      12.255  61.060   5.582  1.00  0.00    +0.000 H 
ATOM    123  H24 UNL A   1      12.149  59.318   5.772  1.00  0.00    +0.000 H 
ATOM     21  C18 UNL A   1      12.811  60.158   5.726  1.00  0.00    +0.000 C 
BRANCH   21   20
ATOM    121  H22 UNL A   1      12.868  60.540   7.788  1.00  0.00    +0.000 H 
ATOM     20  C17 UNL A   1      13.583  60.250   7.046  1.00  0.00    +0.000 C 
ATOM    120  H21 UNL A   1      14.376  60.957   6.918  1.00  0.00    +0.000 H 
BRANCH   20   19
ATOM     19  C16 UNL A   1      14.196  58.927   7.537  1.00  0.00    +0.000 C 
ATOM    118  H19 UNL A   1      14.909  58.605   6.808  1.00  0.00    +0.000 H 
ATOM    119  H20 UNL A   1      14.622  59.142   8.495  1.00  0.00    +0.000 H 
BRANCH   19   18
ATOM     18  C15 UNL A   1      13.210  57.781   7.769  1.00  0.00    +0.000 C 
ATOM    116  H17 UNL A   1      12.786  57.508   6.826  1.00  0.00    +0.000 H 
ATOM    117  H18 UNL A   1      13.766  56.988   8.223  1.00  0.00    +0.000 H 
BRANCH   18   17
ATOM     17  C14 UNL A   1      12.068  58.111   8.726  1.00  0.00    +0.000 C 
ATOM    114  H15 UNL A   1      12.491  58.339   9.681  1.00  0.00    +0.000 H 
ATOM    115  H16 UNL A   1      11.540  58.930   8.286  1.00  0.00    +0.000 H 
BRANCH   17   16
ATOM    113  H14 UNL A   1      10.066  57.435   8.988  1.00  0.00    +0.000 H 
ATOM    112  H13 UNL A   1      11.269  56.457   9.812  1.00  0.00    +0.000 H 
ATOM     16  C13 UNL A   1      11.039  56.997   8.917  1.00  0.00    +0.000 C 
BRANCH   16   15
ATOM    111  H12 UNL A   1      11.770  55.400   7.807  1.00  0.00    +0.000 H 
ATOM     15  N1  UNL A   1      11.060  56.082   7.791  1.00  0.00    +0.000 N 
BRANCH   15   13
ATOM     13  C12 UNL A   1      10.225  56.044   6.714  1.00  0.00    +0.000 C 
ATOM     14  O2  UNL A   1       9.753  57.103   6.298  1.00  0.00    +0.000 O 
BRANCH   13   12
ATOM     12  C11 UNL A   1       9.841  54.718   6.085  1.00  0.00    +0.000 C 
ATOM    109  H10 UNL A   1      10.668  54.362   5.506  1.00  0.00    +0.000 H 
ATOM    110  H11 UNL A   1       9.592  54.045   6.879  1.00  0.00    +0.000 H 
BRANCH   12   11
ATOM     11  C10 UNL A   1       8.619  54.828   5.173  1.00  0.00    +0.000 C 
ATOM    108  H9  UNL A   1       7.966  55.557   5.605  1.00  0.00    +0.000 H 
ATOM    107  H8  UNL A   1       8.158  53.864   5.106  1.00  0.00    +0.000 H 
BRANCH   11   10
ATOM      7  C6  UNL A   1      10.130  55.478   1.858  1.00  0.00    +0.000 C 
ATOM      8  C7  UNL A   1       9.248  56.546   1.936  1.00  0.00    +0.000 C 
ATOM      9  C8  UNL A   1       8.512  56.429   3.132  1.00  0.00    +0.000 C 
ATOM     10  C9  UNL A   1       8.955  55.296   3.781  1.00  0.00    +0.000 C 
ATOM    105  H6  UNL A   1       9.149  57.299   1.237  1.00  0.00    +0.000 H 
ATOM    106  H7  UNL A   1       7.777  57.074   3.461  1.00  0.00    +0.000 H 
ATOM     88  N7  UNL A   1       9.777  54.606   2.891  1.00  0.00    +0.000 N 
BRANCH    7    6
ATOM     98  C72 UNL A   1      10.588  54.461  -0.369  1.00  0.00    +0.000 C 
ATOM      3  C2  UNL A   1      12.819  54.504  -1.316  1.00  0.00    +0.000 C 
ATOM      4  C3  UNL A   1      13.267  55.204  -0.196  1.00  0.00    +0.000 C 
ATOM      5  C4  UNL A   1      12.380  55.548   0.826  1.00  0.00    +0.000 C 
ATOM     99  C73 UNL A   1      11.478  54.125  -1.400  1.00  0.00    +0.000 C 
ATOM    103  H4  UNL A   1      14.262  55.469  -0.121  1.00  0.00    +0.000 H 
ATOM      6  C5  UNL A   1      11.033  55.181   0.746  1.00  0.00    +0.000 C 
ATOM    104  H5  UNL A   1      12.720  56.077   1.644  1.00  0.00    +0.000 H 
ATOM    146  H47 UNL A   1       9.599  54.176  -0.434  1.00  0.00    +0.000 H 
ATOM    147  H48 UNL A   1      11.141  53.597  -2.220  1.00  0.00    +0.000 H 
BRANCH    3    2
ATOM      2  O1  UNL A   1      13.782  54.193  -2.235  1.00  0.00    +0.000 O 
BRANCH    2    1
ATOM      1  C1  UNL A   1      14.875  55.102  -2.301  1.00  0.00    +0.000 C 
ATOM    100  H1  UNL A   1      15.724  54.610  -2.729  1.00  0.00    +0.000 H 
ATOM    101  H2  UNL A   1      15.119  55.439  -1.314  1.00  0.00    +0.000 H 
ATOM    102  H3  UNL A   1      14.605  55.940  -2.907  1.00  0.00    +0.000 H 
ENDBRANCH    2    1
ENDBRANCH    3    2
ENDBRANCH    7    6
BRANCH   88   89
ATOM     97  C71 UNL A   1      11.217  52.615   2.959  1.00  0.00    +0.000 C 
ATOM    139  H40 UNL A   1       7.896  52.850   2.554  1.00  0.00    +0.000 H 
ATOM    140  H41 UNL A   1       8.125  50.462   2.219  1.00  0.00    +0.000 H 
ATOM    144  H45 UNL A   1      12.268  50.788   2.881  1.00  0.00    +0.000 H 
ATOM    145  H46 UNL A   1      12.050  53.194   3.151  1.00  0.00    +0.000 H 
ATOM     89  C64 UNL A   1       9.957  53.199   2.867  1.00  0.00    +0.000 C 
ATOM     90  C65 UNL A   1       8.829  52.411   2.606  1.00  0.00    +0.000 C 
ATOM     91  C66 UNL A   1       8.959  51.035   2.418  1.00  0.00    +0.000 C 
ATOM     92  C67 UNL A   1      10.218  50.433   2.496  1.00  0.00    +0.000 C 
ATOM     96  C70 UNL A   1      11.340  51.230   2.790  1.00  0.00    +0.000 C 
BRANCH   92   93
ATOM     93  C68 UNL A   1      10.432  48.972   2.262  1.00  0.00    +0.000 C 
ATOM     95  O4  UNL A   1       9.477  48.274   1.922  1.00  0.00    +0.000 O 
BRANCH   93   94
ATOM    143  H44 UNL A   1      12.380  48.962   3.103  1.00  0.00    +0.000 H 
ATOM    141  H42 UNL A   1      12.279  48.244   1.513  1.00  0.00    +0.000 H 
ATOM     94  C69 UNL A   1      11.791  48.342   2.460  1.00  0.00    +0.000 C 
ATOM    142  H43 UNL A   1      11.674  47.376   2.904  1.00  0.00    +0.000 H 
ENDBRANCH   93   94
ENDBRANCH   92   93
ENDBRANCH   88   89
ENDBRANCH   11   10
ENDBRANCH   12   11
ENDBRANCH   13   12
ENDBRANCH   15   13
ENDBRANCH   16   15
ENDBRANCH   17   16
ENDBRANCH   18   17
ENDBRANCH   19   18
ENDBRANCH   20   19
ENDBRANCH   21   20
ENDBRANCH   22   21
ENDBRANCH   23   22
ENDBRANCH   25   23
ENDBRANCH   29   28
BRANCH   33   34
ATOM     34  C28 UNL A   1      14.301  51.273  10.978  1.00  0.00    +0.000 C 
ATOM     35  C29 UNL A   1      12.900  51.450  11.068  1.00  0.00    +0.000 C 
ATOM     36  F1  UNL A   1      12.119  51.270   9.991  1.00  0.00    +0.000 F 
ATOM     37  C30 UNL A   1      12.283  51.898  12.235  1.00  0.00    +0.000 C 
ATOM     38  F2  UNL A   1      10.976  52.195  12.228  1.00  0.00    +0.000 F 
ATOM     39  C31 UNL A   1      13.030  52.102  13.379  1.00  0.00    +0.000 C 
ATOM     40  F3  UNL A   1      12.451  52.589  14.485  1.00  0.00    +0.000 F 
ATOM     41  C32 UNL A   1      14.388  51.836  13.360  1.00  0.00    +0.000 C 
ATOM     42  F4  UNL A   1      15.118  52.033  14.467  1.00  0.00    +0.000 F 
ATOM     43  C33 UNL A   1      15.021  51.452  12.173  1.00  0.00    +0.000 C 
ATOM     44  F5  UNL A   1      16.358  51.380  12.194  1.00  0.00    +0.000 F 
ENDBRANCH   33   34
BRANCH   50   51
ATOM     51  C39 UNL A   1      13.172  48.228   6.130  1.00  0.00    +0.000 C 
ATOM     52  C40 UNL A   1      12.544  49.472   6.097  1.00  0.00    +0.000 C 
ATOM     53  F6  UNL A   1      13.265  50.593   6.239  1.00  0.00    +0.000 F 
ATOM     54  C41 UNL A   1      11.161  49.573   5.918  1.00  0.00    +0.000 C 
ATOM     55  F7  UNL A   1      10.579  50.778   5.886  1.00  0.00    +0.000 F 
ATOM     56  C42 UNL A   1      10.377  48.435   5.764  1.00  0.00    +0.000 C 
ATOM     57  F8  UNL A   1       9.054  48.538   5.574  1.00  0.00    +0.000 F 
ATOM     58  C43 UNL A   1      10.971  47.192   5.797  1.00  0.00    +0.000 C 
ATOM     59  F9  UNL A   1      10.239  46.080   5.627  1.00  0.00    +0.000 F 
ATOM     60  C44 UNL A   1      12.344  47.095   5.991  1.00  0.00    +0.000 C 
ATOM     61  F10 UNL A   1      12.870  45.869   6.011  1.00  0.00    +0.000 F 
ENDBRANCH   50   51
BRANCH   65   66
ATOM     66  C48 UNL A   1      16.128  49.053   0.895  1.00  0.00    +0.000 C 
ATOM     67  C49 UNL A   1      17.449  49.039   0.430  1.00  0.00    +0.000 C 
ATOM     68  F11 UNL A   1      18.413  49.716   1.061  1.00  0.00    +0.000 F 
ATOM     69  C50 UNL A   1      17.826  48.346  -0.735  1.00  0.00    +0.000 C 
ATOM     70  F12 UNL A   1      19.112  48.335  -1.115  1.00  0.00    +0.000 F 
ATOM     71  C51 UNL A   1      16.891  47.670  -1.499  1.00  0.00    +0.000 C 
ATOM     72  F13 UNL A   1      17.260  46.986  -2.590  1.00  0.00    +0.000 F 
ATOM     73  C52 UNL A   1      15.569  47.722  -1.125  1.00  0.00    +0.000 C 
ATOM     74  F14 UNL A   1      14.636  47.097  -1.858  1.00  0.00    +0.000 F 
ATOM     75  C53 UNL A   1      15.197  48.412   0.031  1.00  0.00    +0.000 C 
ATOM     76  F15 UNL A   1      13.881  48.425   0.285  1.00  0.00    +0.000 F 
ENDBRANCH   65   66
TORSDOF 23
ENDMDL
MODEL 4
REMARK VINA RESULT:      -7.3     20.109     25.487
ROOT
ATOM    129  H30 UNL A   1      33.050  -8.354  23.834  1.00  0.00    +0.000 H 
ATOM    130  H31 UNL A   1      29.200 -14.152  28.376  1.00  0.00    +0.000 H 
ATOM    131  H32 UNL A   1      27.626 -13.153  26.663  1.00  0.00    +0.000 H 
ATOM    132  H33 UNL A   1      31.420 -11.754  25.811  1.00  0.00    +0.000 H 
ATOM    133  H34 UNL A   1      33.530 -14.653  25.670  1.00  0.00    +0.000 H 
ATOM    134  H35 UNL A   1      34.869 -12.788  24.498  1.00  0.00    +0.000 H 
ATOM    135  H36 UNL A   1      29.222  -8.775  20.998  1.00  0.00    +0.000 H 
ATOM    136  H37 UNL A   1      27.646  -9.807  22.732  1.00  0.00    +0.000 H 
ATOM     29  C24 UNL A   1      28.867 -11.652  24.570  1.00  0.00    +0.000 C 
ATOM     30  C25 UNL A   1      29.545 -10.815  23.474  1.00  0.00    +0.000 C 
ATOM     31  N3  UNL A   1      30.788 -10.761  23.077  1.00  0.00    +0.000 N 
ATOM     32  C26 UNL A   1      30.854  -9.777  22.068  1.00  0.00    +0.000 C 
ATOM     33  C27 UNL A   1      32.002  -9.197  21.606  1.00  0.00    +0.000 C 
ATOM     45  C34 UNL A   1      33.187  -9.695  22.223  1.00  0.00    +0.000 C 
ATOM     46  C35 UNL A   1      34.230 -10.537  21.918  1.00  0.00    +0.000 C 
ATOM     47  C36 UNL A   1      35.003 -10.660  23.108  1.00  0.00    +0.000 C 
ATOM     48  C37 UNL A   1      34.288 -10.026  24.117  1.00  0.00    +0.000 C 
ATOM     49  N4  UNL A   1      33.429  -9.185  23.467  1.00  0.00    +0.000 N 
ATOM     50  C38 UNL A   1      34.101 -10.160  25.531  1.00  0.00    +0.000 C 
ATOM     62  C45 UNL A   1      34.086 -11.416  26.040  1.00  0.00    +0.000 C 
ATOM     63  N5  UNL A   1      33.448 -11.704  27.227  1.00  0.00    +0.000 N 
ATOM     64  C46 UNL A   1      33.079 -12.938  27.086  1.00  0.00    +0.000 C 
ATOM     65  C47 UNL A   1      32.010 -13.593  27.859  1.00  0.00    +0.000 C 
ATOM     77  C54 UNL A   1      30.847 -13.161  27.284  1.00  0.00    +0.000 C 
ATOM     78  C55 UNL A   1      29.485 -13.555  27.584  1.00  0.00    +0.000 C 
ATOM     79  C56 UNL A   1      28.649 -13.023  26.669  1.00  0.00    +0.000 C 
ATOM     80  C57 UNL A   1      29.400 -12.227  25.681  1.00  0.00    +0.000 C 
ATOM     81  N6  UNL A   1      30.678 -12.283  26.185  1.00  0.00    +0.000 N 
ATOM     82  C58 UNL A   1      33.628 -13.662  25.940  1.00  0.00    +0.000 C 
ATOM     83  C59 UNL A   1      34.289 -12.675  25.343  1.00  0.00    +0.000 C 
ATOM     84  C60 UNL A   1      29.504  -9.393  21.776  1.00  0.00    +0.000 C 
ATOM     85  C61 UNL A   1      28.665  -9.947  22.649  1.00  0.00    +0.000 C 
ATOM    127  H28 UNL A   1      34.415 -10.989  21.010  1.00  0.00    +0.000 H 
ATOM    128  H29 UNL A   1      35.917 -11.129  23.204  1.00  0.00    +0.000 H 
ENDROOT
BRANCH   29   28
ATOM    137  H38 UNL A   1      26.721 -10.005  24.893  1.00  0.00    +0.000 H 
ATOM    138  H39 UNL A   1      24.421 -10.428  24.226  1.00  0.00    +0.000 H 
ATOM     86  C62 UNL A   1      26.461 -10.915  24.482  1.00  0.00    +0.000 C 
ATOM     87  C63 UNL A   1      25.140 -11.156  24.094  1.00  0.00    +0.000 C 
ATOM     25  C20 UNL A   1      24.794 -12.387  23.526  1.00  0.00    +0.000 C 
ATOM     26  C21 UNL A   1      25.762 -13.394  23.394  1.00  0.00    +0.000 C 
ATOM     27  C22 UNL A   1      27.075 -13.159  23.785  1.00  0.00    +0.000 C 
ATOM     28  C23 UNL A   1      27.430 -11.912  24.311  1.00  0.00    +0.000 C 
ATOM    125  H26 UNL A   1      25.498 -14.311  23.004  1.00  0.00    +0.000 H 
ATOM    126  H27 UNL A   1      27.784 -13.902  23.688  1.00  0.00    +0.000 H 
BRANCH   25   23
ATOM     23  C19 UNL A   1      23.406 -12.745  23.147  1.00  0.00    +0.000 C 
ATOM     24  O3  UNL A   1      23.084 -12.741  21.971  1.00  0.00    +0.000 O 
BRANCH   23   22
ATOM    124  H25 UNL A   1      21.605 -12.593  24.011  1.00  0.00    +0.000 H 
ATOM     22  N2  UNL A   1      22.461 -13.074  24.085  1.00  0.00    +0.000 N 
BRANCH   22   21
ATOM    122  H23 UNL A   1      21.585 -14.466  25.334  1.00  0.00    +0.000 H 
ATOM    123  H24 UNL A   1      23.257 -14.789  24.905  1.00  0.00    +0.000 H 
ATOM     21  C18 UNL A   1      22.549 -14.032  25.170  1.00  0.00    +0.000 C 
BRANCH   21   20
ATOM    121  H22 UNL A   1      24.083 -13.277  26.386  1.00  0.00    +0.000 H 
ATOM     20  C17 UNL A   1      23.017 -13.349  26.459  1.00  0.00    +0.000 C 
ATOM    120  H21 UNL A   1      22.686 -13.940  27.287  1.00  0.00    +0.000 H 
BRANCH   20   19
ATOM     19  C16 UNL A   1      22.504 -11.913  26.662  1.00  0.00    +0.000 C 
ATOM    118  H19 UNL A   1      22.291 -11.502  25.697  1.00  0.00    +0.000 H 
ATOM    119  H20 UNL A   1      21.647 -11.998  27.298  1.00  0.00    +0.000 H 
BRANCH   19   18
ATOM     18  C15 UNL A   1      23.460 -10.958  27.379  1.00  0.00    +0.000 C 
ATOM    116  H17 UNL A   1      23.952 -10.361  26.640  1.00  0.00    +0.000 H 
ATOM    117  H18 UNL A   1      22.865 -10.382  28.055  1.00  0.00    +0.000 H 
BRANCH   18   17
ATOM     17  C14 UNL A   1      24.529 -11.647  28.222  1.00  0.00    +0.000 C 
ATOM    114  H15 UNL A   1      24.257 -11.544  29.251  1.00  0.00    +0.000 H 
ATOM    115  H16 UNL A   1      24.562 -12.663  27.889  1.00  0.00    +0.000 H 
BRANCH   17   16
ATOM    113  H14 UNL A   1      26.229 -11.194  27.023  1.00  0.00    +0.000 H 
ATOM    112  H13 UNL A   1      26.615 -11.654  28.673  1.00  0.00    +0.000 H 
ATOM     16  C13 UNL A   1      25.945 -11.098  28.050  1.00  0.00    +0.000 C 
BRANCH   16   15
ATOM    111  H12 UNL A   1      25.180  -9.329  28.824  1.00  0.00    +0.000 H 
ATOM     15  N1  UNL A   1      26.000  -9.697  28.422  1.00  0.00    +0.000 N 
BRANCH   15   13
ATOM     13  C12 UNL A   1      27.038  -8.824  28.287  1.00  0.00    +0.000 C 
ATOM     14  O2  UNL A   1      27.089  -8.122  27.276  1.00  0.00    +0.000 O 
BRANCH   13   12
ATOM     12  C11 UNL A   1      28.134  -8.763  29.334  1.00  0.00    +0.000 C 
ATOM    109  H10 UNL A   1      28.864  -9.513  29.108  1.00  0.00    +0.000 H 
ATOM    110  H11 UNL A   1      28.553  -7.779  29.304  1.00  0.00    +0.000 H 
BRANCH   12   11
ATOM     11  C10 UNL A   1      27.613  -9.000  30.751  1.00  0.00    +0.000 C 
ATOM    108  H9  UNL A   1      26.551  -8.870  30.724  1.00  0.00    +0.000 H 
ATOM    107  H8  UNL A   1      28.088  -8.302  31.409  1.00  0.00    +0.000 H 
BRANCH   11   10
ATOM      7  C6  UNL A   1      28.148 -12.062  32.761  1.00  0.00    +0.000 C 
ATOM      8  C7  UNL A   1      28.729 -12.453  31.563  1.00  0.00    +0.000 C 
ATOM      9  C8  UNL A   1      28.558 -11.416  30.625  1.00  0.00    +0.000 C 
ATOM     10  C9  UNL A   1      27.882 -10.393  31.258  1.00  0.00    +0.000 C 
ATOM    105  H6  UNL A   1      29.206 -13.352  31.390  1.00  0.00    +0.000 H 
ATOM    106  H7  UNL A   1      28.881 -11.420  29.645  1.00  0.00    +0.000 H 
ATOM     88  N7  UNL A   1      27.441 -10.888  32.485  1.00  0.00    +0.000 N 
BRANCH    7    6
ATOM     98  C72 UNL A   1      27.109 -13.909  34.070  1.00  0.00    +0.000 C 
ATOM      3  C2  UNL A   1      27.762 -14.320  36.367  1.00  0.00    +0.000 C 
ATOM      4  C3  UNL A   1      28.677 -13.271  36.281  1.00  0.00    +0.000 C 
ATOM      5  C4  UNL A   1      28.824 -12.554  35.092  1.00  0.00    +0.000 C 
ATOM     99  C73 UNL A   1      26.971 -14.635  35.261  1.00  0.00    +0.000 C 
ATOM    103  H4  UNL A   1      29.250 -13.022  37.102  1.00  0.00    +0.000 H 
ATOM      6  C5  UNL A   1      28.042 -12.870  33.976  1.00  0.00    +0.000 C 
ATOM    104  H5  UNL A   1      29.513 -11.788  35.035  1.00  0.00    +0.000 H 
ATOM    146  H47 UNL A   1      26.520 -14.144  33.255  1.00  0.00    +0.000 H 
ATOM    147  H48 UNL A   1      26.283 -15.402  35.321  1.00  0.00    +0.000 H 
BRANCH    3    2
ATOM      2  O1  UNL A   1      27.681 -14.926  37.590  1.00  0.00    +0.000 O 
BRANCH    2    1
ATOM      1  C1  UNL A   1      27.180 -16.258  37.576  1.00  0.00    +0.000 C 
ATOM    100  H1  UNL A   1      26.110 -16.237  37.556  1.00  0.00    +0.000 H 
ATOM    101  H2  UNL A   1      27.511 -16.774  38.454  1.00  0.00    +0.000 H 
ATOM    102  H3  UNL A   1      27.542 -16.766  36.707  1.00  0.00    +0.000 H 
ENDBRANCH    2    1
ENDBRANCH    3    2
ENDBRANCH    7    6
BRANCH   88   89
ATOM     97  C71 UNL A   1      26.320  -9.516  34.189  1.00  0.00    +0.000 C 
ATOM    139  H40 UNL A   1      25.047 -11.814  32.103  1.00  0.00    +0.000 H 
ATOM    140  H41 UNL A   1      23.047 -11.360  33.392  1.00  0.00    +0.000 H 
ATOM    144  H45 UNL A   1      25.176  -8.524  35.657  1.00  0.00    +0.000 H 
ATOM    145  H46 UNL A   1      27.201  -9.025  34.408  1.00  0.00    +0.000 H 
ATOM     89  C64 UNL A   1      26.273 -10.461  33.167  1.00  0.00    +0.000 C 
ATOM     90  C65 UNL A   1      25.077 -11.126  32.871  1.00  0.00    +0.000 C 
ATOM     91  C66 UNL A   1      23.923 -10.862  33.611  1.00  0.00    +0.000 C 
ATOM     92  C67 UNL A   1      23.954  -9.925  34.647  1.00  0.00    +0.000 C 
ATOM     96  C70 UNL A   1      25.154  -9.240  34.914  1.00  0.00    +0.000 C 
BRANCH   92   93
ATOM     93  C68 UNL A   1      22.766  -9.628  35.505  1.00  0.00    +0.000 C 
ATOM     95  O4  UNL A   1      22.427  -8.456  35.672  1.00  0.00    +0.000 O 
BRANCH   93   94
ATOM    143  H44 UNL A   1      21.161 -10.323  36.707  1.00  0.00    +0.000 H 
ATOM    141  H42 UNL A   1      22.638 -11.241  36.876  1.00  0.00    +0.000 H 
ATOM     94  C69 UNL A   1      21.998 -10.737  36.183  1.00  0.00    +0.000 C 
ATOM    142  H43 UNL A   1      21.651 -11.432  35.447  1.00  0.00    +0.000 H 
ENDBRANCH   93   94
ENDBRANCH   92   93
ENDBRANCH   88   89
ENDBRANCH   11   10
ENDBRANCH   12   11
ENDBRANCH   13   12
ENDBRANCH   15   13
ENDBRANCH   16   15
ENDBRANCH   17   16
ENDBRANCH   18   17
ENDBRANCH   19   18
ENDBRANCH   20   19
ENDBRANCH   21   20
ENDBRANCH   22   21
ENDBRANCH   23   22
ENDBRANCH   25   23
ENDBRANCH   29   28
BRANCH   33   34
ATOM     34  C28 UNL A   1      32.161  -7.898  20.844  1.00  0.00    +0.000 C 
ATOM     35  C29 UNL A   1      32.758  -7.932  19.561  1.00  0.00    +0.000 C 
ATOM     36  F1  UNL A   1      32.806  -9.076  18.860  1.00  0.00    +0.000 F 
ATOM     37  C30 UNL A   1      33.393  -6.820  19.008  1.00  0.00    +0.000 C 
ATOM     38  F2  UNL A   1      34.073  -6.941  17.860  1.00  0.00    +0.000 F 
ATOM     39  C31 UNL A   1      33.378  -5.612  19.678  1.00  0.00    +0.000 C 
ATOM     40  F3  UNL A   1      34.037  -4.556  19.179  1.00  0.00    +0.000 F 
ATOM     41  C32 UNL A   1      32.711  -5.512  20.886  1.00  0.00    +0.000 C 
ATOM     42  F4  UNL A   1      32.695  -4.342  21.541  1.00  0.00    +0.000 F 
ATOM     43  C33 UNL A   1      32.133  -6.641  21.474  1.00  0.00    +0.000 C 
ATOM     44  F5  UNL A   1      31.657  -6.501  22.718  1.00  0.00    +0.000 F 
ENDBRANCH   33   34
BRANCH   50   51
ATOM     51  C39 UNL A   1      33.401  -9.151  26.406  1.00  0.00    +0.000 C 
ATOM     52  C40 UNL A   1      34.070  -8.480  27.429  1.00  0.00    +0.000 C 
ATOM     53  F6  UNL A   1      35.391  -8.645  27.590  1.00  0.00    +0.000 F 
ATOM     54  C41 UNL A   1      33.381  -7.629  28.299  1.00  0.00    +0.000 C 
ATOM     55  F7  UNL A   1      34.044  -6.993  29.273  1.00  0.00    +0.000 F 
ATOM     56  C42 UNL A   1      32.012  -7.429  28.165  1.00  0.00    +0.000 C 
ATOM     57  F8  UNL A   1      31.360  -6.598  28.991  1.00  0.00    +0.000 F 
ATOM     58  C43 UNL A   1      31.325  -8.082  27.165  1.00  0.00    +0.000 C 
ATOM     59  F9  UNL A   1      30.008  -7.886  27.001  1.00  0.00    +0.000 F 
ATOM     60  C44 UNL A   1      32.010  -8.939  26.312  1.00  0.00    +0.000 C 
ATOM     61  F10 UNL A   1      31.299  -9.544  25.359  1.00  0.00    +0.000 F 
ENDBRANCH   50   51
BRANCH   65   66
ATOM     66  C48 UNL A   1      32.423 -14.591  28.909  1.00  0.00    +0.000 C 
ATOM     67  C49 UNL A   1      32.636 -15.960  28.698  1.00  0.00    +0.000 C 
ATOM     68  F11 UNL A   1      32.344 -16.535  27.527  1.00  0.00    +0.000 F 
ATOM     69  C50 UNL A   1      33.132 -16.806  29.708  1.00  0.00    +0.000 C 
ATOM     70  F12 UNL A   1      33.352 -18.101  29.440  1.00  0.00    +0.000 F 
ATOM     71  C51 UNL A   1      33.401 -16.323  30.976  1.00  0.00    +0.000 C 
ATOM     72  F13 UNL A   1      33.901 -17.126  31.924  1.00  0.00    +0.000 F 
ATOM     73  C52 UNL A   1      33.133 -15.004  31.253  1.00  0.00    +0.000 C 
ATOM     74  F14 UNL A   1      33.360 -14.512  32.480  1.00  0.00    +0.000 F 
ATOM     75  C53 UNL A   1      32.639 -14.166  30.250  1.00  0.00    +0.000 C 
ATOM     76  F15 UNL A   1      32.384 -12.909  30.636  1.00  0.00    +0.000 F 
ENDBRANCH   65   66
TORSDOF 23
ENDMDL
MODEL 5
REMARK VINA RESULT:      -7.2     46.798     52.962
ROOT
ATOM    129  H30 UNL A   1      13.040  49.289  13.120  1.00  0.00    +0.000 H 
ATOM    130  H31 UNL A   1      11.255  54.178   6.641  1.00  0.00    +0.000 H 
ATOM    131  H32 UNL A   1       9.614  52.257   6.802  1.00  0.00    +0.000 H 
ATOM    132  H33 UNL A   1      11.902  52.215  10.244  1.00  0.00    +0.000 H 
ATOM    133  H34 UNL A   1      11.766  55.551  11.557  1.00  0.00    +0.000 H 
ATOM    134  H35 UNL A   1      12.595  54.091  13.514  1.00  0.00    +0.000 H 
ATOM    135  H36 UNL A   1       8.682  47.498  12.305  1.00  0.00    +0.000 H 
ATOM    136  H37 UNL A   1       8.463  48.272   9.875  1.00  0.00    +0.000 H 
ATOM     29  C24 UNL A   1       9.603  50.846   9.289  1.00  0.00    +0.000 C 
ATOM     30  C25 UNL A   1       9.637  50.073  10.617  1.00  0.00    +0.000 C 
ATOM     31  N3  UNL A   1      10.127  50.389  11.785  1.00  0.00    +0.000 N 
ATOM     32  C26 UNL A   1       9.922  49.277  12.630  1.00  0.00    +0.000 C 
ATOM     33  C27 UNL A   1      10.546  49.072  13.828  1.00  0.00    +0.000 C 
ATOM     45  C34 UNL A   1      11.441  50.119  14.198  1.00  0.00    +0.000 C 
ATOM     46  C35 UNL A   1      11.478  51.181  15.070  1.00  0.00    +0.000 C 
ATOM     47  C36 UNL A   1      12.682  51.888  14.785  1.00  0.00    +0.000 C 
ATOM     48  C37 UNL A   1      13.221  51.315  13.640  1.00  0.00    +0.000 C 
ATOM     49  N4  UNL A   1      12.649  50.077  13.561  1.00  0.00    +0.000 N 
ATOM     50  C38 UNL A   1      14.004  51.729  12.514  1.00  0.00    +0.000 C 
ATOM     62  C45 UNL A   1      13.780  52.973  12.025  1.00  0.00    +0.000 C 
ATOM     63  N5  UNL A   1      14.076  53.296  10.718  1.00  0.00    +0.000 N 
ATOM     64  C46 UNL A   1      13.215  54.220  10.428  1.00  0.00    +0.000 C 
ATOM     65  C47 UNL A   1      12.815  54.601   9.063  1.00  0.00    +0.000 C 
ATOM     77  C54 UNL A   1      11.932  53.632   8.674  1.00  0.00    +0.000 C 
ATOM     78  C55 UNL A   1      11.155  53.550   7.453  1.00  0.00    +0.000 C 
ATOM     79  C56 UNL A   1      10.281  52.527   7.542  1.00  0.00    +0.000 C 
ATOM     80  C57 UNL A   1      10.412  51.845   8.843  1.00  0.00    +0.000 C 
ATOM     81  N6  UNL A   1      11.481  52.504   9.402  1.00  0.00    +0.000 N 
ATOM     82  C58 UNL A   1      12.445  54.775  11.541  1.00  0.00    +0.000 C 
ATOM     83  C59 UNL A   1      12.872  53.990  12.525  1.00  0.00    +0.000 C 
ATOM     84  C60 UNL A   1       9.099  48.354  11.906  1.00  0.00    +0.000 C 
ATOM     85  C61 UNL A   1       8.946  48.757  10.646  1.00  0.00    +0.000 C 
ATOM    127  H28 UNL A   1      10.774  51.420  15.785  1.00  0.00    +0.000 H 
ATOM    128  H29 UNL A   1      13.078  52.673  15.326  1.00  0.00    +0.000 H 
ENDROOT
BRANCH   29   28
ATOM    137  H38 UNL A   1       6.997  51.633   9.405  1.00  0.00    +0.000 H 
ATOM    138  H39 UNL A   1       5.238  51.157   7.794  1.00  0.00    +0.000 H 
ATOM     86  C62 UNL A   1       7.190  51.027   8.592  1.00  0.00    +0.000 C 
ATOM     87  C63 UNL A   1       6.181  50.758   7.664  1.00  0.00    +0.000 C 
ATOM     25  C20 UNL A   1       6.451  49.946   6.557  1.00  0.00    +0.000 C 
ATOM     26  C21 UNL A   1       7.718  49.363   6.408  1.00  0.00    +0.000 C 
ATOM     27  C22 UNL A   1       8.721  49.624   7.332  1.00  0.00    +0.000 C 
ATOM     28  C23 UNL A   1       8.464  50.472   8.415  1.00  0.00    +0.000 C 
ATOM    125  H26 UNL A   1       7.905  48.740   5.608  1.00  0.00    +0.000 H 
ATOM    126  H27 UNL A   1       9.653  49.193   7.221  1.00  0.00    +0.000 H 
BRANCH   25   23
ATOM     23  C19 UNL A   1       5.421  49.562   5.562  1.00  0.00    +0.000 C 
ATOM     24  O3  UNL A   1       4.887  50.424   4.884  1.00  0.00    +0.000 O 
BRANCH   23   22
ATOM    124  H25 UNL A   1       5.557  47.749   4.719  1.00  0.00    +0.000 H 
ATOM     22  N2  UNL A   1       5.038  48.256   5.384  1.00  0.00    +0.000 N 
BRANCH   22   21
ATOM    122  H23 UNL A   1       3.079  47.605   5.460  1.00  0.00    +0.000 H 
ATOM    123  H24 UNL A   1       4.265  46.495   6.125  1.00  0.00    +0.000 H 
ATOM     21  C18 UNL A   1       3.973  47.521   6.040  1.00  0.00    +0.000 C 
BRANCH   21   20
ATOM    121  H22 UNL A   1       2.704  47.821   7.683  1.00  0.00    +0.000 H 
ATOM     20  C17 UNL A   1       3.716  48.077   7.444  1.00  0.00    +0.000 C 
ATOM    120  H21 UNL A   1       3.893  49.132   7.421  1.00  0.00    +0.000 H 
BRANCH   20   19
ATOM     19  C16 UNL A   1       4.587  47.470   8.557  1.00  0.00    +0.000 C 
ATOM    118  H19 UNL A   1       5.149  48.264   9.003  1.00  0.00    +0.000 H 
ATOM    119  H20 UNL A   1       3.906  46.989   9.228  1.00  0.00    +0.000 H 
BRANCH   19   18
ATOM     18  C15 UNL A   1       5.571  46.386   8.116  1.00  0.00    +0.000 C 
ATOM    116  H17 UNL A   1       5.177  45.437   8.410  1.00  0.00    +0.000 H 
ATOM    117  H18 UNL A   1       5.678  46.485   7.056  1.00  0.00    +0.000 H 
BRANCH   18   17
ATOM     17  C14 UNL A   1       6.972  46.523   8.707  1.00  0.00    +0.000 C 
ATOM    114  H15 UNL A   1       7.284  47.539   8.588  1.00  0.00    +0.000 H 
ATOM    115  H16 UNL A   1       6.894  46.217   9.729  1.00  0.00    +0.000 H 
BRANCH   17   16
ATOM    113  H14 UNL A   1       7.794  44.604   8.291  1.00  0.00    +0.000 H 
ATOM    112  H13 UNL A   1       8.992  45.874   8.480  1.00  0.00    +0.000 H 
ATOM     16  C13 UNL A   1       8.033  45.624   8.074  1.00  0.00    +0.000 C 
BRANCH   16   15
ATOM    111  H12 UNL A   1       7.190  45.782   6.183  1.00  0.00    +0.000 H 
ATOM     15  N1  UNL A   1       8.064  45.802   6.635  1.00  0.00    +0.000 N 
BRANCH   15   13
ATOM     13  C12 UNL A   1       9.145  45.994   5.827  1.00  0.00    +0.000 C 
ATOM     14  O2  UNL A   1       8.952  46.317   4.654  1.00  0.00    +0.000 O 
BRANCH   13   12
ATOM     12  C11 UNL A   1      10.549  45.755   6.350  1.00  0.00    +0.000 C 
ATOM    109  H10 UNL A   1      10.487  45.167   7.242  1.00  0.00    +0.000 H 
ATOM    110  H11 UNL A   1      11.097  45.253   5.580  1.00  0.00    +0.000 H 
BRANCH   12   11
ATOM     11  C10 UNL A   1      11.289  47.053   6.671  1.00  0.00    +0.000 C 
ATOM    108  H9  UNL A   1      11.505  47.044   7.719  1.00  0.00    +0.000 H 
ATOM    107  H8  UNL A   1      10.664  47.878   6.396  1.00  0.00    +0.000 H 
BRANCH   11   10
ATOM      7  C6  UNL A   1      14.014  47.534   4.213  1.00  0.00    +0.000 C 
ATOM      8  C7  UNL A   1      14.708  46.877   5.219  1.00  0.00    +0.000 C 
ATOM      9  C8  UNL A   1      13.830  46.664   6.300  1.00  0.00    +0.000 C 
ATOM     10  C9  UNL A   1      12.602  47.184   5.944  1.00  0.00    +0.000 C 
ATOM    105  H6  UNL A   1      15.699  46.593   5.180  1.00  0.00    +0.000 H 
ATOM    106  H7  UNL A   1      14.062  46.203   7.193  1.00  0.00    +0.000 H 
ATOM     88  N7  UNL A   1      12.787  47.909   4.768  1.00  0.00    +0.000 N 
BRANCH    7    6
ATOM     98  C72 UNL A   1      14.061  47.543   1.722  1.00  0.00    +0.000 C 
ATOM      3  C2  UNL A   1      15.739  48.814   0.519  1.00  0.00    +0.000 C 
ATOM      4  C3  UNL A   1      16.257  49.257   1.736  1.00  0.00    +0.000 C 
ATOM      5  C4  UNL A   1      15.673  48.862   2.942  1.00  0.00    +0.000 C 
ATOM     99  C73 UNL A   1      14.643  47.949   0.513  1.00  0.00    +0.000 C 
ATOM    103  H4  UNL A   1      17.080  49.880   1.746  1.00  0.00    +0.000 H 
ATOM      6  C5  UNL A   1      14.569  48.004   2.943  1.00  0.00    +0.000 C 
ATOM    104  H5  UNL A   1      16.057  49.206   3.835  1.00  0.00    +0.000 H 
ATOM    146  H47 UNL A   1      13.253  46.902   1.713  1.00  0.00    +0.000 H 
ATOM    147  H48 UNL A   1      14.260  47.608  -0.383  1.00  0.00    +0.000 H 
BRANCH    3    2
ATOM      2  O1  UNL A   1      16.413  49.237  -0.592  1.00  0.00    +0.000 O 
BRANCH    2    1
ATOM      1  C1  UNL A   1      15.647  50.010  -1.510  1.00  0.00    +0.000 C 
ATOM    100  H1  UNL A   1      15.638  49.526  -2.464  1.00  0.00    +0.000 H 
ATOM    101  H2  UNL A   1      16.081  50.984  -1.606  1.00  0.00    +0.000 H 
ATOM    102  H3  UNL A   1      14.644  50.102  -1.148  1.00  0.00    +0.000 H 
ENDBRANCH    2    1
ENDBRANCH    3    2
ENDBRANCH    7    6
BRANCH   88   89
ATOM     97  C71 UNL A   1      12.309  50.318   4.862  1.00  0.00    +0.000 C 
ATOM    139  H40 UNL A   1      10.701  47.872   3.226  1.00  0.00    +0.000 H 
ATOM    140  H41 UNL A   1       9.180  49.691   2.725  1.00  0.00    +0.000 H 
ATOM    144  H45 UNL A   1      11.654  52.323   4.883  1.00  0.00    +0.000 H 
ATOM    145  H46 UNL A   1      13.146  50.486   5.443  1.00  0.00    +0.000 H 
ATOM     89  C64 UNL A   1      12.029  49.043   4.378  1.00  0.00    +0.000 C 
ATOM     90  C65 UNL A   1      10.893  48.817   3.592  1.00  0.00    +0.000 C 
ATOM     91  C66 UNL A   1      10.019  49.865   3.300  1.00  0.00    +0.000 C 
ATOM     92  C67 UNL A   1      10.278  51.149   3.785  1.00  0.00    +0.000 C 
ATOM     96  C70 UNL A   1      11.440  51.371   4.549  1.00  0.00    +0.000 C 
BRANCH   92   93
ATOM     93  C68 UNL A   1       9.361  52.306   3.545  1.00  0.00    +0.000 C 
ATOM     95  O4  UNL A   1       9.589  53.064   2.603  1.00  0.00    +0.000 O 
BRANCH   93   94
ATOM    143  H44 UNL A   1       7.393  51.883   4.217  1.00  0.00    +0.000 H 
ATOM    141  H42 UNL A   1       7.839  53.570   4.311  1.00  0.00    +0.000 H 
ATOM     94  C69 UNL A   1       8.182  52.566   4.452  1.00  0.00    +0.000 C 
ATOM    142  H43 UNL A   1       8.480  52.431   5.471  1.00  0.00    +0.000 H 
ENDBRANCH   93   94
ENDBRANCH   92   93
ENDBRANCH   88   89
ENDBRANCH   11   10
ENDBRANCH   12   11
ENDBRANCH   13   12
ENDBRANCH   15   13
ENDBRANCH   16   15
ENDBRANCH   17   16
ENDBRANCH   18   17
ENDBRANCH   19   18
ENDBRANCH   20   19
ENDBRANCH   21   20
ENDBRANCH   22   21
ENDBRANCH   23   22
ENDBRANCH   25   23
ENDBRANCH   29   28
BRANCH   33   34
ATOM     34  C28 UNL A   1      10.703  47.778  14.600  1.00  0.00    +0.000 C 
ATOM     35  C29 UNL A   1       9.865  47.549  15.718  1.00  0.00    +0.000 C 
ATOM     36  F1  UNL A   1       8.712  48.223  15.857  1.00  0.00    +0.000 F 
ATOM     37  C30 UNL A   1      10.232  46.692  16.756  1.00  0.00    +0.000 C 
ATOM     38  F2  UNL A   1       9.478  46.623  17.862  1.00  0.00    +0.000 F 
ATOM     39  C31 UNL A   1      11.405  45.968  16.674  1.00  0.00    +0.000 C 
ATOM     40  F3  UNL A   1      11.790  45.190  17.694  1.00  0.00    +0.000 F 
ATOM     41  C32 UNL A   1      12.198  46.085  15.545  1.00  0.00    +0.000 C 
ATOM     42  F4  UNL A   1      13.339  45.386  15.461  1.00  0.00    +0.000 F 
ATOM     43  C33 UNL A   1      11.868  46.994  14.535  1.00  0.00    +0.000 C 
ATOM     44  F5  UNL A   1      12.770  47.173  13.562  1.00  0.00    +0.000 F 
ENDBRANCH   33   34
BRANCH   50   51
ATOM     51  C39 UNL A   1      14.628  50.793  11.510  1.00  0.00    +0.000 C 
ATOM     52  C40 UNL A   1      13.852  49.985  10.680  1.00  0.00    +0.000 C 
ATOM     53  F6  UNL A   1      12.516  50.102  10.686  1.00  0.00    +0.000 F 
ATOM     54  C41 UNL A   1      14.448  49.046   9.832  1.00  0.00    +0.000 C 
ATOM     55  F7  UNL A   1      13.683  48.283   9.041  1.00  0.00    +0.000 F 
ATOM     56  C42 UNL A   1      15.829  48.896   9.793  1.00  0.00    +0.000 C 
ATOM     57  F8  UNL A   1      16.396  48.007   8.965  1.00  0.00    +0.000 F 
ATOM     58  C43 UNL A   1      16.621  49.679  10.606  1.00  0.00    +0.000 C 
ATOM     59  F9  UNL A   1      17.957  49.568  10.569  1.00  0.00    +0.000 F 
ATOM     60  C44 UNL A   1      16.025  50.600  11.458  1.00  0.00    +0.000 C 
ATOM     61  F10 UNL A   1      16.835  51.334  12.222  1.00  0.00    +0.000 F 
ENDBRANCH   50   51
BRANCH   65   66
ATOM     66  C48 UNL A   1      13.323  55.916   8.531  1.00  0.00    +0.000 C 
ATOM     67  C49 UNL A   1      14.577  56.132   7.943  1.00  0.00    +0.000 C 
ATOM     68  F11 UNL A   1      15.511  55.177   7.932  1.00  0.00    +0.000 F 
ATOM     69  C50 UNL A   1      14.932  57.366   7.368  1.00  0.00    +0.000 C 
ATOM     70  F12 UNL A   1      16.131  57.506   6.785  1.00  0.00    +0.000 F 
ATOM     71  C51 UNL A   1      14.061  58.441   7.388  1.00  0.00    +0.000 C 
ATOM     72  F13 UNL A   1      14.392  59.604   6.811  1.00  0.00    +0.000 F 
ATOM     73  C52 UNL A   1      12.850  58.300   8.024  1.00  0.00    +0.000 C 
ATOM     74  F14 UNL A   1      11.995  59.332   8.082  1.00  0.00    +0.000 F 
ATOM     75  C53 UNL A   1      12.501  57.076   8.596  1.00  0.00    +0.000 C 
ATOM     76  F15 UNL A   1      11.313  57.058   9.216  1.00  0.00    +0.000 F 
ENDBRANCH   65   66
TORSDOF 23
ENDMDL
MODEL 6
REMARK VINA RESULT:      -7.2     47.099     53.782
ROOT
ATOM    129  H30 UNL A   1      13.076  49.330  13.201  1.00  0.00    +0.000 H 
ATOM    130  H31 UNL A   1      11.510  53.881   6.426  1.00  0.00    +0.000 H 
ATOM    131  H32 UNL A   1       9.932  51.907   6.573  1.00  0.00    +0.000 H 
ATOM    132  H33 UNL A   1      12.009  52.091  10.142  1.00  0.00    +0.000 H 
ATOM    133  H34 UNL A   1      11.676  55.471  11.301  1.00  0.00    +0.000 H 
ATOM    134  H35 UNL A   1      12.437  54.123  13.363  1.00  0.00    +0.000 H 
ATOM    135  H36 UNL A   1       8.841  47.343  12.210  1.00  0.00    +0.000 H 
ATOM    136  H37 UNL A   1       8.740  48.009   9.741  1.00  0.00    +0.000 H 
ATOM     29  C24 UNL A   1       9.821  50.599   9.113  1.00  0.00    +0.000 C 
ATOM     30  C25 UNL A   1       9.803  49.882  10.473  1.00  0.00    +0.000 C 
ATOM     31  N3  UNL A   1      10.210  50.263  11.652  1.00  0.00    +0.000 N 
ATOM     32  C26 UNL A   1       9.995  49.180  12.531  1.00  0.00    +0.000 C 
ATOM     33  C27 UNL A   1      10.553  49.047  13.771  1.00  0.00    +0.000 C 
ATOM     45  C34 UNL A   1      11.386  50.142  14.148  1.00  0.00    +0.000 C 
ATOM     46  C35 UNL A   1      11.333  51.239  14.974  1.00  0.00    +0.000 C 
ATOM     47  C36 UNL A   1      12.526  51.979  14.731  1.00  0.00    +0.000 C 
ATOM     48  C37 UNL A   1      13.153  51.381  13.644  1.00  0.00    +0.000 C 
ATOM     49  N4  UNL A   1      12.631  50.120  13.585  1.00  0.00    +0.000 N 
ATOM     50  C38 UNL A   1      13.986  51.778  12.549  1.00  0.00    +0.000 C 
ATOM     62  C45 UNL A   1      13.749  52.992  11.995  1.00  0.00    +0.000 C 
ATOM     63  N5  UNL A   1      14.111  53.273  10.695  1.00  0.00    +0.000 N 
ATOM     64  C46 UNL A   1      13.237  54.151  10.316  1.00  0.00    +0.000 C 
ATOM     65  C47 UNL A   1      12.906  54.461   8.915  1.00  0.00    +0.000 C 
ATOM     77  C54 UNL A   1      12.083  53.444   8.516  1.00  0.00    +0.000 C 
ATOM     78  C55 UNL A   1      11.384  53.283   7.257  1.00  0.00    +0.000 C 
ATOM     79  C56 UNL A   1      10.543  52.232   7.339  1.00  0.00    +0.000 C 
ATOM     80  C57 UNL A   1      10.620  51.609   8.672  1.00  0.00    +0.000 C 
ATOM     81  N6  UNL A   1      11.629  52.330   9.265  1.00  0.00    +0.000 N 
ATOM     82  C58 UNL A   1      12.382  54.721  11.357  1.00  0.00    +0.000 C 
ATOM     83  C59 UNL A   1      12.777  53.993  12.398  1.00  0.00    +0.000 C 
ATOM     84  C60 UNL A   1       9.250  48.197  11.800  1.00  0.00    +0.000 C 
ATOM     85  C61 UNL A   1       9.159  48.543  10.518  1.00  0.00    +0.000 C 
ATOM    127  H28 UNL A   1      10.579  51.479  15.636  1.00  0.00    +0.000 H 
ATOM    128  H29 UNL A   1      12.861  52.800  15.259  1.00  0.00    +0.000 H 
ENDROOT
BRANCH   29   28
ATOM    137  H38 UNL A   1       7.259  51.490   8.861  1.00  0.00    +0.000 H 
ATOM    138  H39 UNL A   1       5.636  50.856   7.165  1.00  0.00    +0.000 H 
ATOM     86  C62 UNL A   1       7.496  50.768   8.163  1.00  0.00    +0.000 C 
ATOM     87  C63 UNL A   1       6.565  50.407   7.185  1.00  0.00    +0.000 C 
ATOM     25  C20 UNL A   1       6.895  49.436   6.233  1.00  0.00    +0.000 C 
ATOM     26  C21 UNL A   1       8.139  48.792   6.292  1.00  0.00    +0.000 C 
ATOM     27  C22 UNL A   1       9.065  49.144   7.266  1.00  0.00    +0.000 C 
ATOM     28  C23 UNL A   1       8.752  50.147   8.191  1.00  0.00    +0.000 C 
ATOM    125  H26 UNL A   1       8.368  48.054   5.608  1.00  0.00    +0.000 H 
ATOM    126  H27 UNL A   1       9.979  48.667   7.308  1.00  0.00    +0.000 H 
BRANCH   25   23
ATOM     23  C19 UNL A   1       5.943  48.953   5.204  1.00  0.00    +0.000 C 
ATOM     24  O3  UNL A   1       5.044  48.194   5.524  1.00  0.00    +0.000 O 
BRANCH   23   22
ATOM    124  H25 UNL A   1       5.324  49.901   3.551  1.00  0.00    +0.000 H 
ATOM     22  N2  UNL A   1       6.049  49.327   3.888  1.00  0.00    +0.000 N 
BRANCH   22   21
ATOM    122  H23 UNL A   1       7.610  48.127   3.262  1.00  0.00    +0.000 H 
ATOM    123  H24 UNL A   1       6.621  48.802   1.978  1.00  0.00    +0.000 H 
ATOM     21  C18 UNL A   1       7.081  48.993   2.925  1.00  0.00    +0.000 C 
BRANCH   21   20
ATOM    121  H22 UNL A   1       8.082  50.663   3.709  1.00  0.00    +0.000 H 
ATOM     20  C17 UNL A   1       8.070  50.153   2.767  1.00  0.00    +0.000 C 
ATOM    120  H21 UNL A   1       7.735  50.766   1.956  1.00  0.00    +0.000 H 
BRANCH   20   19
ATOM     19  C16 UNL A   1       9.524  49.739   2.484  1.00  0.00    +0.000 C 
ATOM    118  H19 UNL A   1       9.506  48.778   2.013  1.00  0.00    +0.000 H 
ATOM    119  H20 UNL A   1       9.934  50.516   1.872  1.00  0.00    +0.000 H 
BRANCH   19   18
ATOM     18  C15 UNL A   1      10.439  49.646   3.706  1.00  0.00    +0.000 C 
ATOM    116  H17 UNL A   1      11.065  50.513   3.722  1.00  0.00    +0.000 H 
ATOM    117  H18 UNL A   1       9.800  49.574   4.561  1.00  0.00    +0.000 H 
BRANCH   18   17
ATOM     17  C14 UNL A   1      11.337  48.412   3.733  1.00  0.00    +0.000 C 
ATOM    114  H15 UNL A   1      10.722  47.558   3.923  1.00  0.00    +0.000 H 
ATOM    115  H16 UNL A   1      11.829  48.382   2.783  1.00  0.00    +0.000 H 
BRANCH   17   16
ATOM    113  H14 UNL A   1      12.030  48.168   5.731  1.00  0.00    +0.000 H 
ATOM    112  H13 UNL A   1      12.861  49.426   4.831  1.00  0.00    +0.000 H 
ATOM     16  C13 UNL A   1      12.446  48.440   4.784  1.00  0.00    +0.000 C 
BRANCH   16   15
ATOM    111  H12 UNL A   1      13.316  46.917   3.671  1.00  0.00    +0.000 H 
ATOM     15  N1  UNL A   1      13.496  47.497   4.445  1.00  0.00    +0.000 N 
BRANCH   15   13
ATOM     13  C12 UNL A   1      14.698  47.310   5.059  1.00  0.00    +0.000 C 
ATOM     14  O2  UNL A   1      15.520  46.563   4.527  1.00  0.00    +0.000 O 
BRANCH   13   12
ATOM     12  C11 UNL A   1      14.990  47.963   6.397  1.00  0.00    +0.000 C 
ATOM    109  H10 UNL A   1      14.081  48.382   6.779  1.00  0.00    +0.000 H 
ATOM    110  H11 UNL A   1      15.382  47.208   7.045  1.00  0.00    +0.000 H 
BRANCH   12   11
ATOM     11  C10 UNL A   1      16.035  49.074   6.298  1.00  0.00    +0.000 C 
ATOM    108  H9  UNL A   1      16.767  48.758   5.585  1.00  0.00    +0.000 H 
ATOM    107  H8  UNL A   1      16.459  49.230   7.269  1.00  0.00    +0.000 H 
BRANCH   11   10
ATOM      7  C6  UNL A   1      15.409  52.367   4.729  1.00  0.00    +0.000 C 
ATOM      8  C7  UNL A   1      14.389  52.349   5.669  1.00  0.00    +0.000 C 
ATOM      9  C8  UNL A   1      14.422  51.109   6.338  1.00  0.00    +0.000 C 
ATOM     10  C9  UNL A   1      15.468  50.382   5.809  1.00  0.00    +0.000 C 
ATOM    105  H6  UNL A   1      13.720  53.114   5.848  1.00  0.00    +0.000 H 
ATOM    106  H7  UNL A   1      13.782  50.802   7.087  1.00  0.00    +0.000 H 
ATOM     88  N7  UNL A   1      15.917  51.066   4.680  1.00  0.00    +0.000 N 
BRANCH    7    6
ATOM     98  C72 UNL A   1      16.296  54.632   4.188  1.00  0.00    +0.000 C 
ATOM      3  C2  UNL A   1      16.085  55.544   1.953  1.00  0.00    +0.000 C 
ATOM      4  C3  UNL A   1      15.459  54.365   1.545  1.00  0.00    +0.000 C 
ATOM      5  C4  UNL A   1      15.267  53.316   2.446  1.00  0.00    +0.000 C 
ATOM     99  C73 UNL A   1      16.497  55.680   3.279  1.00  0.00    +0.000 C 
ATOM    103  H4  UNL A   1      15.134  54.268   0.570  1.00  0.00    +0.000 H 
ATOM      6  C5  UNL A   1      15.686  53.441   3.774  1.00  0.00    +0.000 C 
ATOM    104  H5  UNL A   1      14.814  52.445   2.130  1.00  0.00    +0.000 H 
ATOM    146  H47 UNL A   1      16.600  54.738   5.168  1.00  0.00    +0.000 H 
ATOM    147  H48 UNL A   1      16.951  56.553   3.591  1.00  0.00    +0.000 H 
BRANCH    3    2
ATOM      2  O1  UNL A   1      16.187  56.513   0.994  1.00  0.00    +0.000 O 
BRANCH    2    1
ATOM      1  C1  UNL A   1      17.128  56.247  -0.040  1.00  0.00    +0.000 C 
ATOM    100  H1  UNL A   1      18.062  55.957   0.392  1.00  0.00    +0.000 H 
ATOM    101  H2  UNL A   1      17.267  57.129  -0.632  1.00  0.00    +0.000 H 
ATOM    102  H3  UNL A   1      16.761  55.457  -0.661  1.00  0.00    +0.000 H 
ENDBRANCH    2    1
ENDBRANCH    3    2
ENDBRANCH    7    6
BRANCH   88   89
ATOM     97  C71 UNL A   1      17.849  50.649   3.219  1.00  0.00    +0.000 C 
ATOM    139  H40 UNL A   1      14.666  49.638   2.912  1.00  0.00    +0.000 H 
ATOM    140  H41 UNL A   1      15.507  48.804   0.799  1.00  0.00    +0.000 H 
ATOM    144  H45 UNL A   1      19.335  50.255   1.775  1.00  0.00    +0.000 H 
ATOM    145  H46 UNL A   1      18.478  51.151   3.866  1.00  0.00    +0.000 H 
ATOM     89  C64 UNL A   1      16.506  50.464   3.539  1.00  0.00    +0.000 C 
ATOM     90  C65 UNL A   1      15.656  49.783   2.660  1.00  0.00    +0.000 C 
ATOM     91  C66 UNL A   1      16.141  49.299   1.445  1.00  0.00    +0.000 C 
ATOM     92  C67 UNL A   1      17.483  49.484   1.102  1.00  0.00    +0.000 C 
ATOM     96  C70 UNL A   1      18.335  50.143   2.007  1.00  0.00    +0.000 C 
BRANCH   92   93
ATOM     93  C68 UNL A   1      18.055  49.028  -0.202  1.00  0.00    +0.000 C 
ATOM     95  O4  UNL A   1      17.932  47.848  -0.529  1.00  0.00    +0.000 O 
BRANCH   93   94
ATOM    143  H44 UNL A   1      19.606  50.431  -0.562  1.00  0.00    +0.000 H 
ATOM    141  H42 UNL A   1      18.130  50.749  -1.441  1.00  0.00    +0.000 H 
ATOM     94  C69 UNL A   1      18.799  49.985  -1.104  1.00  0.00    +0.000 C 
ATOM    142  H43 UNL A   1      19.185  49.452  -1.947  1.00  0.00    +0.000 H 
ENDBRANCH   93   94
ENDBRANCH   92   93
ENDBRANCH   88   89
ENDBRANCH   11   10
ENDBRANCH   12   11
ENDBRANCH   13   12
ENDBRANCH   15   13
ENDBRANCH   16   15
ENDBRANCH   17   16
ENDBRANCH   18   17
ENDBRANCH   19   18
ENDBRANCH   20   19
ENDBRANCH   21   20
ENDBRANCH   22   21
ENDBRANCH   23   22
ENDBRANCH   25   23
ENDBRANCH   29   28
BRANCH   33   34
ATOM     34  C28 UNL A   1      10.709  47.793  14.606  1.00  0.00    +0.000 C 
ATOM     35  C29 UNL A   1       9.924  47.654  15.775  1.00  0.00    +0.000 C 
ATOM     36  F1  UNL A   1       8.802  48.373  15.935  1.00  0.00    +0.000 F 
ATOM     37  C30 UNL A   1      10.317  46.843  16.840  1.00  0.00    +0.000 C 
ATOM     38  F2  UNL A   1       9.621  46.859  17.985  1.00  0.00    +0.000 F 
ATOM     39  C31 UNL A   1      11.461  46.075  16.739  1.00  0.00    +0.000 C 
ATOM     40  F3  UNL A   1      11.874  45.340  17.781  1.00  0.00    +0.000 F 
ATOM     41  C32 UNL A   1      12.197  46.103  15.567  1.00  0.00    +0.000 C 
ATOM     42  F4  UNL A   1      13.309  45.361  15.465  1.00  0.00    +0.000 F 
ATOM     43  C33 UNL A   1      11.844  46.966  14.526  1.00  0.00    +0.000 C 
ATOM     44  F5  UNL A   1      12.698  47.061  13.500  1.00  0.00    +0.000 F 
ENDBRANCH   33   34
BRANCH   50   51
ATOM     51  C39 UNL A   1      14.703  50.827  11.624  1.00  0.00    +0.000 C 
ATOM     52  C40 UNL A   1      14.009  49.916  10.828  1.00  0.00    +0.000 C 
ATOM     53  F6  UNL A   1      12.669  49.940  10.792  1.00  0.00    +0.000 F 
ATOM     54  C41 UNL A   1      14.692  48.969  10.058  1.00  0.00    +0.000 C 
ATOM     55  F7  UNL A   1      14.005  48.107   9.299  1.00  0.00    +0.000 F 
ATOM     56  C42 UNL A   1      16.081  48.914  10.065  1.00  0.00    +0.000 C 
ATOM     57  F8  UNL A   1      16.731  48.016   9.312  1.00  0.00    +0.000 F 
ATOM     58  C43 UNL A   1      16.793  49.799  10.846  1.00  0.00    +0.000 C 
ATOM     59  F9  UNL A   1      18.135  49.779  10.851  1.00  0.00    +0.000 F 
ATOM     60  C44 UNL A   1      16.110  50.728  11.622  1.00  0.00    +0.000 C 
ATOM     61  F10 UNL A   1      16.845  51.564  12.357  1.00  0.00    +0.000 F 
ENDBRANCH   50   51
BRANCH   65   66
ATOM     66  C48 UNL A   1      13.398  55.771   8.358  1.00  0.00    +0.000 C 
ATOM     67  C49 UNL A   1      14.642  55.987   7.750  1.00  0.00    +0.000 C 
ATOM     68  F11 UNL A   1      15.582  55.038   7.738  1.00  0.00    +0.000 F 
ATOM     69  C50 UNL A   1      14.981  57.216   7.152  1.00  0.00    +0.000 C 
ATOM     70  F12 UNL A   1      16.171  57.355   6.551  1.00  0.00    +0.000 F 
ATOM     71  C51 UNL A   1      14.104  58.285   7.170  1.00  0.00    +0.000 C 
ATOM     72  F13 UNL A   1      14.419  59.442   6.573  1.00  0.00    +0.000 F 
ATOM     73  C52 UNL A   1      12.903  58.146   7.825  1.00  0.00    +0.000 C 
ATOM     74  F14 UNL A   1      12.042  59.172   7.881  1.00  0.00    +0.000 F 
ATOM     75  C53 UNL A   1      12.569  56.927   8.419  1.00  0.00    +0.000 C 
ATOM     76  F15 UNL A   1      11.390  56.910   9.056  1.00  0.00    +0.000 F 
ENDBRANCH   65   66
TORSDOF 23
ENDMDL
MODEL 7
REMARK VINA RESULT:      -7.2     50.436     56.260
ROOT
ATOM    129  H30 UNL A   1      13.636  49.582   8.523  1.00  0.00    +0.000 H 
ATOM    130  H31 UNL A   1      14.870  51.782   0.604  1.00  0.00    +0.000 H 
ATOM    131  H32 UNL A   1      14.254  53.792   2.015  1.00  0.00    +0.000 H 
ATOM    132  H33 UNL A   1      14.901  50.629   4.595  1.00  0.00    +0.000 H 
ATOM    133  H34 UNL A   1      18.097  49.266   3.698  1.00  0.00    +0.000 H 
ATOM    134  H35 UNL A   1      17.607  48.339   6.054  1.00  0.00    +0.000 H 
ATOM    135  H36 UNL A   1      13.849  54.292   9.322  1.00  0.00    +0.000 H 
ATOM    136  H37 UNL A   1      13.322  55.050   6.934  1.00  0.00    +0.000 H 
ATOM     29  C24 UNL A   1      14.439  53.421   4.844  1.00  0.00    +0.000 C 
ATOM     30  C25 UNL A   1      14.504  53.193   6.363  1.00  0.00    +0.000 C 
ATOM     31  N3  UNL A   1      15.098  52.271   7.070  1.00  0.00    +0.000 N 
ATOM     32  C26 UNL A   1      14.781  52.522   8.422  1.00  0.00    +0.000 C 
ATOM     33  C27 UNL A   1      14.941  51.634   9.448  1.00  0.00    +0.000 C 
ATOM     45  C34 UNL A   1      15.504  50.387   9.047  1.00  0.00    +0.000 C 
ATOM     46  C35 UNL A   1      16.710  49.730   9.118  1.00  0.00    +0.000 C 
ATOM     47  C36 UNL A   1      16.557  48.532   8.364  1.00  0.00    +0.000 C 
ATOM     48  C37 UNL A   1      15.322  48.612   7.732  1.00  0.00    +0.000 C 
ATOM     49  N4  UNL A   1      14.616  49.536   8.449  1.00  0.00    +0.000 N 
ATOM     50  C38 UNL A   1      14.722  48.160   6.512  1.00  0.00    +0.000 C 
ATOM     62  C45 UNL A   1      15.506  48.129   5.407  1.00  0.00    +0.000 C 
ATOM     63  N5  UNL A   1      14.968  48.198   4.140  1.00  0.00    +0.000 N 
ATOM     64  C46 UNL A   1      15.898  48.769   3.442  1.00  0.00    +0.000 C 
ATOM     65  C47 UNL A   1      15.686  49.458   2.158  1.00  0.00    +0.000 C 
ATOM     77  C54 UNL A   1      15.167  50.678   2.497  1.00  0.00    +0.000 C 
ATOM     78  C55 UNL A   1      14.849  51.799   1.636  1.00  0.00    +0.000 C 
ATOM     79  C56 UNL A   1      14.522  52.868   2.390  1.00  0.00    +0.000 C 
ATOM     80  C57 UNL A   1      14.600  52.535   3.824  1.00  0.00    +0.000 C 
ATOM     81  N6  UNL A   1      14.889  51.191   3.787  1.00  0.00    +0.000 N 
ATOM     82  C58 UNL A   1      17.207  48.911   4.080  1.00  0.00    +0.000 C 
ATOM     83  C59 UNL A   1      16.919  48.452   5.294  1.00  0.00    +0.000 C 
ATOM     84  C60 UNL A   1      14.103  53.785   8.459  1.00  0.00    +0.000 C 
ATOM     85  C61 UNL A   1      13.848  54.212   7.224  1.00  0.00    +0.000 C 
ATOM    127  H28 UNL A   1      17.557  50.044   9.617  1.00  0.00    +0.000 H 
ATOM    128  H29 UNL A   1      17.231  47.754   8.299  1.00  0.00    +0.000 H 
ENDROOT
BRANCH   29   28
ATOM    137  H38 UNL A   1      12.240  54.640   3.793  1.00  0.00    +0.000 H 
ATOM    138  H39 UNL A   1      11.910  57.020   3.418  1.00  0.00    +0.000 H 
ATOM     86  C62 UNL A   1      13.005  55.306   3.989  1.00  0.00    +0.000 C 
ATOM     87  C63 UNL A   1      12.813  56.673   3.778  1.00  0.00    +0.000 C 
ATOM     25  C20 UNL A   1      13.848  57.573   4.055  1.00  0.00    +0.000 C 
ATOM     26  C21 UNL A   1      15.091  57.096   4.496  1.00  0.00    +0.000 C 
ATOM     27  C22 UNL A   1      15.287  55.736   4.701  1.00  0.00    +0.000 C 
ATOM     28  C23 UNL A   1      14.237  54.841   4.466  1.00  0.00    +0.000 C 
ATOM    125  H26 UNL A   1      15.863  57.758   4.671  1.00  0.00    +0.000 H 
ATOM    126  H27 UNL A   1      16.203  55.387   5.025  1.00  0.00    +0.000 H 
BRANCH   25   23
ATOM     23  C19 UNL A   1      13.748  59.030   3.800  1.00  0.00    +0.000 C 
ATOM     24  O3  UNL A   1      13.511  59.789   4.726  1.00  0.00    +0.000 O 
BRANCH   23   22
ATOM    124  H25 UNL A   1      14.099  60.521   2.509  1.00  0.00    +0.000 H 
ATOM     22  N2  UNL A   1      13.903  59.557   2.544  1.00  0.00    +0.000 N 
BRANCH   22   21
ATOM    122  H23 UNL A   1      13.057  58.140   1.301  1.00  0.00    +0.000 H 
ATOM    123  H24 UNL A   1      13.581  59.617   0.508  1.00  0.00    +0.000 H 
ATOM     21  C18 UNL A   1      13.818  58.891   1.258  1.00  0.00    +0.000 C 
BRANCH   21   20
ATOM    121  H22 UNL A   1      15.798  58.393   1.740  1.00  0.00    +0.000 H 
ATOM     20  C17 UNL A   1      15.153  58.231   0.901  1.00  0.00    +0.000 C 
ATOM    120  H21 UNL A   1      15.512  58.676  -0.004  1.00  0.00    +0.000 H 
BRANCH   20   19
ATOM     19  C16 UNL A   1      15.095  56.708   0.693  1.00  0.00    +0.000 C 
ATOM    118  H19 UNL A   1      14.279  56.329   1.272  1.00  0.00    +0.000 H 
ATOM    119  H20 UNL A   1      14.983  56.563  -0.362  1.00  0.00    +0.000 H 
BRANCH   19   18
ATOM     18  C15 UNL A   1      16.352  55.932   1.088  1.00  0.00    +0.000 C 
ATOM    116  H17 UNL A   1      16.056  55.098   1.688  1.00  0.00    +0.000 H 
ATOM    117  H18 UNL A   1      16.831  55.643   0.176  1.00  0.00    +0.000 H 
BRANCH   18   17
ATOM     17  C14 UNL A   1      17.377  56.744   1.875  1.00  0.00    +0.000 C 
ATOM    114  H15 UNL A   1      16.990  57.733   2.002  1.00  0.00    +0.000 H 
ATOM    115  H16 UNL A   1      17.525  56.222   2.797  1.00  0.00    +0.000 H 
BRANCH   17   16
ATOM    113  H14 UNL A   1      19.102  55.873   0.983  1.00  0.00    +0.000 H 
ATOM    112  H13 UNL A   1      19.429  57.327   1.910  1.00  0.00    +0.000 H 
ATOM     16  C13 UNL A   1      18.755  56.855   1.225  1.00  0.00    +0.000 C 
BRANCH   16   15
ATOM    111  H12 UNL A   1      18.099  58.430   0.041  1.00  0.00    +0.000 H 
ATOM     15  N1  UNL A   1      18.685  57.640   0.007  1.00  0.00    +0.000 N 
BRANCH   15   13
ATOM     13  C12 UNL A   1      19.325  57.427  -1.177  1.00  0.00    +0.000 C 
ATOM     14  O2  UNL A   1      19.770  58.400  -1.788  1.00  0.00    +0.000 O 
BRANCH   13   12
ATOM     12  C11 UNL A   1      19.433  56.028  -1.753  1.00  0.00    +0.000 C 
ATOM    109  H10 UNL A   1      19.995  56.075  -2.663  1.00  0.00    +0.000 H 
ATOM    110  H11 UNL A   1      19.914  55.415  -1.020  1.00  0.00    +0.000 H 
BRANCH   12   11
ATOM     11  C10 UNL A   1      18.070  55.405  -2.053  1.00  0.00    +0.000 C 
ATOM    108  H9  UNL A   1      17.833  55.636  -3.071  1.00  0.00    +0.000 H 
ATOM    107  H8  UNL A   1      17.353  55.812  -1.371  1.00  0.00    +0.000 H 
BRANCH   11   10
ATOM      7  C6  UNL A   1      17.705  51.750  -2.506  1.00  0.00    +0.000 C 
ATOM      8  C7  UNL A   1      17.859  51.810  -1.128  1.00  0.00    +0.000 C 
ATOM      9  C8  UNL A   1      18.085  53.151  -0.763  1.00  0.00    +0.000 C 
ATOM     10  C9  UNL A   1      18.059  53.905  -1.919  1.00  0.00    +0.000 C 
ATOM    105  H6  UNL A   1      17.814  51.007  -0.482  1.00  0.00    +0.000 H 
ATOM    106  H7  UNL A   1      18.241  53.506   0.193  1.00  0.00    +0.000 H 
ATOM     88  N7  UNL A   1      18.053  53.014  -2.991  1.00  0.00    +0.000 N 
BRANCH    7    6
ATOM     98  C72 UNL A   1      18.612  49.749  -3.680  1.00  0.00    +0.000 C 
ATOM      3  C2  UNL A   1      17.153  48.291  -4.952  1.00  0.00    +0.000 C 
ATOM      4  C3  UNL A   1      16.066  49.089  -4.595  1.00  0.00    +0.000 C 
ATOM      5  C4  UNL A   1      16.244  50.201  -3.770  1.00  0.00    +0.000 C 
ATOM     99  C73 UNL A   1      18.430  48.626  -4.499  1.00  0.00    +0.000 C 
ATOM    103  H4  UNL A   1      15.123  48.856  -4.944  1.00  0.00    +0.000 H 
ATOM      6  C5  UNL A   1      17.518  50.538  -3.304  1.00  0.00    +0.000 C 
ATOM    104  H5  UNL A   1      15.431  50.777  -3.502  1.00  0.00    +0.000 H 
ATOM    146  H47 UNL A   1      19.559  49.995  -3.350  1.00  0.00    +0.000 H 
ATOM    147  H48 UNL A   1      19.241  48.047  -4.769  1.00  0.00    +0.000 H 
BRANCH    3    2
ATOM      2  O1  UNL A   1      16.864  47.250  -5.790  1.00  0.00    +0.000 O 
BRANCH    2    1
ATOM      1  C1  UNL A   1      15.829  46.381  -5.345  1.00  0.00    +0.000 C 
ATOM    100  H1  UNL A   1      15.508  45.762  -6.157  1.00  0.00    +0.000 H 
ATOM    101  H2  UNL A   1      15.002  46.963  -4.991  1.00  0.00    +0.000 H 
ATOM    102  H3  UNL A   1      16.197  45.766  -4.551  1.00  0.00    +0.000 H 
ENDBRANCH    2    1
ENDBRANCH    3    2
ENDBRANCH    7    6
BRANCH   88   89
ATOM     97  C71 UNL A   1      19.978  53.423  -4.464  1.00  0.00    +0.000 C 
ATOM    139  H40 UNL A   1      16.701  53.376  -5.176  1.00  0.00    +0.000 H 
ATOM    140  H41 UNL A   1      17.523  54.091  -7.340  1.00  0.00    +0.000 H 
ATOM    144  H45 UNL A   1      21.465  53.903  -5.880  1.00  0.00    +0.000 H 
ATOM    145  H46 UNL A   1      20.638  53.251  -3.689  1.00  0.00    +0.000 H 
ATOM     89  C64 UNL A   1      18.607  53.271  -4.272  1.00  0.00    +0.000 C 
ATOM     90  C65 UNL A   1      17.714  53.506  -5.324  1.00  0.00    +0.000 C 
ATOM     91  C66 UNL A   1      18.187  53.913  -6.571  1.00  0.00    +0.000 C 
ATOM     92  C67 UNL A   1      19.558  54.082  -6.780  1.00  0.00    +0.000 C 
ATOM     96  C70 UNL A   1      20.449  53.813  -5.724  1.00  0.00    +0.000 C 
BRANCH   92   93
ATOM     93  C68 UNL A   1      20.127  54.557  -8.079  1.00  0.00    +0.000 C 
ATOM     95  O4  UNL A   1      21.275  55.000  -8.102  1.00  0.00    +0.000 O 
BRANCH   93   94
ATOM    143  H44 UNL A   1      19.592  55.339  -9.977  1.00  0.00    +0.000 H 
ATOM    141  H42 UNL A   1      18.269  54.606  -9.102  1.00  0.00    +0.000 H 
ATOM     94  C69 UNL A   1      19.307  54.523  -9.347  1.00  0.00    +0.000 C 
ATOM    142  H43 UNL A   1      19.480  53.599  -9.858  1.00  0.00    +0.000 H 
ENDBRANCH   93   94
ENDBRANCH   92   93
ENDBRANCH   88   89
ENDBRANCH   11   10
ENDBRANCH   12   11
ENDBRANCH   13   12
ENDBRANCH   15   13
ENDBRANCH   16   15
ENDBRANCH   17   16
ENDBRANCH   18   17
ENDBRANCH   19   18
ENDBRANCH   20   19
ENDBRANCH   21   20
ENDBRANCH   22   21
ENDBRANCH   23   22
ENDBRANCH   25   23
ENDBRANCH   29   28
BRANCH   33   34
ATOM     34  C28 UNL A   1      14.290  51.645  10.815  1.00  0.00    +0.000 C 
ATOM     35  C29 UNL A   1      15.117  51.579  11.962  1.00  0.00    +0.000 C 
ATOM     36  F1  UNL A   1      16.416  51.910  11.887  1.00  0.00    +0.000 F 
ATOM     37  C30 UNL A   1      14.653  51.091  13.184  1.00  0.00    +0.000 C 
ATOM     38  F2  UNL A   1      15.510  50.906  14.198  1.00  0.00    +0.000 F 
ATOM     39  C31 UNL A   1      13.327  50.735  13.327  1.00  0.00    +0.000 C 
ATOM     40  F3  UNL A   1      12.890  50.210  14.481  1.00  0.00    +0.000 F 
ATOM     41  C32 UNL A   1      12.462  50.887  12.257  1.00  0.00    +0.000 C 
ATOM     42  F4  UNL A   1      11.173  50.541  12.391  1.00  0.00    +0.000 F 
ATOM     43  C33 UNL A   1      12.938  51.311  11.013  1.00  0.00    +0.000 C 
ATOM     44  F5  UNL A   1      12.078  51.268   9.988  1.00  0.00    +0.000 F 
ENDBRANCH   33   34
BRANCH   50   51
ATOM     51  C39 UNL A   1      13.249  48.231   6.199  1.00  0.00    +0.000 C 
ATOM     52  C40 UNL A   1      12.478  47.080   6.035  1.00  0.00    +0.000 C 
ATOM     53  F6  UNL A   1      13.018  45.873   6.257  1.00  0.00    +0.000 F 
ATOM     54  C41 UNL A   1      11.140  47.163   5.639  1.00  0.00    +0.000 C 
ATOM     55  F7  UNL A   1      10.418  46.046   5.490  1.00  0.00    +0.000 F 
ATOM     56  C42 UNL A   1      10.542  48.396   5.401  1.00  0.00    +0.000 C 
ATOM     57  F8  UNL A   1       9.254  48.471   5.039  1.00  0.00    +0.000 F 
ATOM     58  C43 UNL A   1      11.282  49.550   5.552  1.00  0.00    +0.000 C 
ATOM     59  F9  UNL A   1      10.720  50.752   5.351  1.00  0.00    +0.000 F 
ATOM     60  C44 UNL A   1      12.615  49.462   5.931  1.00  0.00    +0.000 C 
ATOM     61  F10 UNL A   1      13.285  50.607   6.066  1.00  0.00    +0.000 F 
ENDBRANCH   50   51
BRANCH   65   66
ATOM     66  C48 UNL A   1      16.174  48.769   0.910  1.00  0.00    +0.000 C 
ATOM     67  C49 UNL A   1      17.512  48.654   0.509  1.00  0.00    +0.000 C 
ATOM     68  F11 UNL A   1      18.489  49.292   1.162  1.00  0.00    +0.000 F 
ATOM     69  C50 UNL A   1      17.895  47.896  -0.613  1.00  0.00    +0.000 C 
ATOM     70  F12 UNL A   1      19.194  47.789  -0.929  1.00  0.00    +0.000 F 
ATOM     71  C51 UNL A   1      16.953  47.252  -1.396  1.00  0.00    +0.000 C 
ATOM     72  F13 UNL A   1      17.326  46.507  -2.444  1.00  0.00    +0.000 F 
ATOM     73  C52 UNL A   1      15.622  47.402  -1.087  1.00  0.00    +0.000 C 
ATOM     74  F14 UNL A   1      14.684  46.811  -1.842  1.00  0.00    +0.000 F 
ATOM     75  C53 UNL A   1      15.244  48.156   0.025  1.00  0.00    +0.000 C 
ATOM     76  F15 UNL A   1      13.921  48.262   0.215  1.00  0.00    +0.000 F 
ENDBRANCH   65   66
TORSDOF 23
ENDMDL
MODEL 8
REMARK VINA RESULT:      -7.2     44.689     50.204
ROOT
ATOM    129  H30 UNL A   1      39.147  31.276  32.887  1.00  0.00    +0.000 H 
ATOM    130  H31 UNL A   1      44.497  31.156  26.527  1.00  0.00    +0.000 H 
ATOM    131  H32 UNL A   1      44.398  33.456  27.582  1.00  0.00    +0.000 H 
ATOM    132  H33 UNL A   1      42.281  30.886  30.031  1.00  0.00    +0.000 H 
ATOM    133  H34 UNL A   1      44.456  28.099  30.647  1.00  0.00    +0.000 H 
ATOM    134  H35 UNL A   1      42.638  27.951  32.470  1.00  0.00    +0.000 H 
ATOM    135  H36 UNL A   1      41.246  35.452  33.897  1.00  0.00    +0.000 H 
ATOM    136  H37 UNL A   1      42.214  35.900  31.570  1.00  0.00    +0.000 H 
ATOM     29  C24 UNL A   1      43.167  33.583  30.160  1.00  0.00    +0.000 C 
ATOM     30  C25 UNL A   1      42.467  33.641  31.527  1.00  0.00    +0.000 C 
ATOM     31  N3  UNL A   1      42.180  32.702  32.387  1.00  0.00    +0.000 N 
ATOM     32  C26 UNL A   1      41.487  33.318  33.451  1.00  0.00    +0.000 C 
ATOM     33  C27 UNL A   1      40.749  32.664  34.396  1.00  0.00    +0.000 C 
ATOM     45  C34 UNL A   1      40.749  31.246  34.246  1.00  0.00    +0.000 C 
ATOM     46  C35 UNL A   1      41.328  30.147  34.835  1.00  0.00    +0.000 C 
ATOM     47  C36 UNL A   1      40.950  29.025  34.044  1.00  0.00    +0.000 C 
ATOM     48  C37 UNL A   1      40.308  29.526  32.919  1.00  0.00    +0.000 C 
ATOM     49  N4  UNL A   1      39.909  30.785  33.271  1.00  0.00    +0.000 N 
ATOM     50  C38 UNL A   1      40.144  29.168  31.542  1.00  0.00    +0.000 C 
ATOM     62  C45 UNL A   1      41.197  28.583  30.921  1.00  0.00    +0.000 C 
ATOM     63  N5  UNL A   1      41.352  28.644  29.553  1.00  0.00    +0.000 N 
ATOM     64  C46 UNL A   1      42.636  28.598  29.387  1.00  0.00    +0.000 C 
ATOM     65  C47 UNL A   1      43.346  29.053  28.180  1.00  0.00    +0.000 C 
ATOM     77  C54 UNL A   1      43.393  30.415  28.294  1.00  0.00    +0.000 C 
ATOM     78  C55 UNL A   1      44.054  31.376  27.433  1.00  0.00    +0.000 C 
ATOM     79  C56 UNL A   1      44.000  32.599  27.998  1.00  0.00    +0.000 C 
ATOM     80  C57 UNL A   1      43.294  32.544  29.290  1.00  0.00    +0.000 C 
ATOM     81  N6  UNL A   1      42.883  31.232  29.333  1.00  0.00    +0.000 N 
ATOM     82  C58 UNL A   1      43.440  28.258  30.560  1.00  0.00    +0.000 C 
ATOM     83  C59 UNL A   1      42.485  28.214  31.484  1.00  0.00    +0.000 C 
ATOM     84  C60 UNL A   1      41.560  34.733  33.227  1.00  0.00    +0.000 C 
ATOM     85  C61 UNL A   1      42.091  34.987  32.033  1.00  0.00    +0.000 C 
ATOM    127  H28 UNL A   1      41.919  30.139  35.681  1.00  0.00    +0.000 H 
ATOM    128  H29 UNL A   1      41.120  28.031  34.263  1.00  0.00    +0.000 H 
ENDROOT
BRANCH   29   28
ATOM    137  H38 UNL A   1      45.659  34.455  30.833  1.00  0.00    +0.000 H 
ATOM    138  H39 UNL A   1      46.807  36.431  30.002  1.00  0.00    +0.000 H 
ATOM     86  C62 UNL A   1      45.177  35.100  30.189  1.00  0.00    +0.000 C 
ATOM     87  C63 UNL A   1      45.837  36.232  29.706  1.00  0.00    +0.000 C 
ATOM     25  C20 UNL A   1      45.183  37.099  28.824  1.00  0.00    +0.000 C 
ATOM     26  C21 UNL A   1      43.850  36.856  28.464  1.00  0.00    +0.000 C 
ATOM     27  C22 UNL A   1      43.188  35.734  28.946  1.00  0.00    +0.000 C 
ATOM     28  C23 UNL A   1      43.857  34.844  29.794  1.00  0.00    +0.000 C 
ATOM    125  H26 UNL A   1      43.360  37.512  27.837  1.00  0.00    +0.000 H 
ATOM    126  H27 UNL A   1      42.206  35.558  28.681  1.00  0.00    +0.000 H 
BRANCH   25   23
ATOM     23  C19 UNL A   1      45.791  38.353  28.317  1.00  0.00    +0.000 C 
ATOM     24  O3  UNL A   1      46.610  38.944  29.000  1.00  0.00    +0.000 O 
BRANCH   23   22
ATOM    124  H25 UNL A   1      44.531  39.221  27.024  1.00  0.00    +0.000 H 
ATOM     22  N2  UNL A   1      45.452  38.880  27.097  1.00  0.00    +0.000 N 
BRANCH   22   21
ATOM    122  H23 UNL A   1      47.166  38.449  26.028  1.00  0.00    +0.000 H 
ATOM    123  H24 UNL A   1      45.707  38.624  25.067  1.00  0.00    +0.000 H 
ATOM     21  C18 UNL A   1      46.261  39.004  25.900  1.00  0.00    +0.000 C 
BRANCH   21   20
ATOM    121  H22 UNL A   1      47.498  40.675  26.190  1.00  0.00    +0.000 H 
ATOM     20  C17 UNL A   1      46.608  40.473  25.631  1.00  0.00    +0.000 C 
ATOM    120  H21 UNL A   1      45.772  41.071  25.929  1.00  0.00    +0.000 H 
BRANCH   20   19
ATOM     19  C16 UNL A   1      46.937  40.808  24.166  1.00  0.00    +0.000 C 
ATOM    118  H19 UNL A   1      47.941  40.493  23.975  1.00  0.00    +0.000 H 
ATOM    119  H20 UNL A   1      46.202  40.297  23.579  1.00  0.00    +0.000 H 
BRANCH   19   18
ATOM     18  C15 UNL A   1      46.825  42.283  23.779  1.00  0.00    +0.000 C 
ATOM    116  H17 UNL A   1      46.431  42.820  24.616  1.00  0.00    +0.000 H 
ATOM    117  H18 UNL A   1      47.809  42.601  23.504  1.00  0.00    +0.000 H 
BRANCH   18   17
ATOM     17  C14 UNL A   1      45.930  42.557  22.574  1.00  0.00    +0.000 C 
ATOM    114  H15 UNL A   1      46.468  43.187  21.898  1.00  0.00    +0.000 H 
ATOM    115  H16 UNL A   1      45.685  41.601  22.163  1.00  0.00    +0.000 H 
BRANCH   17   16
ATOM    113  H14 UNL A   1      44.754  44.291  22.952  1.00  0.00    +0.000 H 
ATOM    112  H13 UNL A   1      44.233  42.863  23.831  1.00  0.00    +0.000 H 
ATOM     16  C13 UNL A   1      44.598  43.234  22.896  1.00  0.00    +0.000 C 
BRANCH   16   15
ATOM    111  H12 UNL A   1      43.908  42.333  21.156  1.00  0.00    +0.000 H 
ATOM     15  N1  UNL A   1      43.621  42.960  21.860  1.00  0.00    +0.000 N 
BRANCH   15   13
ATOM     13  C12 UNL A   1      42.357  43.455  21.733  1.00  0.00    +0.000 C 
ATOM     14  O2  UNL A   1      41.777  43.851  22.744  1.00  0.00    +0.000 O 
BRANCH   13   12
ATOM     12  C11 UNL A   1      41.665  43.460  20.383  1.00  0.00    +0.000 C 
ATOM    109  H10 UNL A   1      40.913  42.698  20.381  1.00  0.00    +0.000 H 
ATOM    110  H11 UNL A   1      41.243  44.434  20.242  1.00  0.00    +0.000 H 
BRANCH   12   11
ATOM     11  C10 UNL A   1      42.626  43.201  19.224  1.00  0.00    +0.000 C 
ATOM    108  H9  UNL A   1      42.211  42.408  18.638  1.00  0.00    +0.000 H 
ATOM    107  H8  UNL A   1      43.584  42.945  19.627  1.00  0.00    +0.000 H 
BRANCH   11   10
ATOM      7  C6  UNL A   1      43.273  46.515  17.708  1.00  0.00    +0.000 C 
ATOM      8  C7  UNL A   1      42.504  45.937  16.708  1.00  0.00    +0.000 C 
ATOM      9  C8  UNL A   1      42.210  44.612  17.083  1.00  0.00    +0.000 C 
ATOM     10  C9  UNL A   1      42.793  44.390  18.314  1.00  0.00    +0.000 C 
ATOM    105  H6  UNL A   1      42.199  46.401  15.838  1.00  0.00    +0.000 H 
ATOM    106  H7  UNL A   1      41.659  43.931  16.537  1.00  0.00    +0.000 H 
ATOM     88  N7  UNL A   1      43.624  45.479  18.578  1.00  0.00    +0.000 N 
BRANCH    7    6
ATOM     98  C72 UNL A   1      43.217  48.923  18.343  1.00  0.00    +0.000 C 
ATOM      3  C2  UNL A   1      44.900  50.461  17.522  1.00  0.00    +0.000 C 
ATOM      4  C3  UNL A   1      45.520  49.406  16.853  1.00  0.00    +0.000 C 
ATOM      5  C4  UNL A   1      45.004  48.111  16.940  1.00  0.00    +0.000 C 
ATOM     99  C73 UNL A   1      43.742  50.221  18.263  1.00  0.00    +0.000 C 
ATOM    103  H4  UNL A   1      46.365  49.583  16.288  1.00  0.00    +0.000 H 
ATOM      6  C5  UNL A   1      43.850  47.860  17.688  1.00  0.00    +0.000 C 
ATOM    104  H5  UNL A   1      45.478  47.336  16.451  1.00  0.00    +0.000 H 
ATOM    146  H47 UNL A   1      42.359  48.751  18.889  1.00  0.00    +0.000 H 
ATOM    147  H48 UNL A   1      43.272  50.999  18.752  1.00  0.00    +0.000 H 
BRANCH    3    2
ATOM      2  O1  UNL A   1      45.474  51.689  17.337  1.00  0.00    +0.000 O 
BRANCH    2    1
ATOM      1  C1  UNL A   1      46.897  51.697  17.318  1.00  0.00    +0.000 C 
ATOM    100  H1  UNL A   1      47.267  50.936  17.972  1.00  0.00    +0.000 H 
ATOM    101  H2  UNL A   1      47.253  52.653  17.645  1.00  0.00    +0.000 H 
ATOM    102  H3  UNL A   1      47.241  51.511  16.323  1.00  0.00    +0.000 H 
ENDBRANCH    2    1
ENDBRANCH    3    2
ENDBRANCH    7    6
BRANCH   88   89
ATOM     97  C71 UNL A   1      44.930  46.127  20.556  1.00  0.00    +0.000 C 
ATOM    139  H40 UNL A   1      45.812  44.249  17.921  1.00  0.00    +0.000 H 
ATOM    140  H41 UNL A   1      47.964  44.337  19.030  1.00  0.00    +0.000 H 
ATOM    144  H45 UNL A   1      46.261  46.646  22.108  1.00  0.00    +0.000 H 
ATOM    145  H46 UNL A   1      44.116  46.615  20.964  1.00  0.00    +0.000 H 
ATOM     89  C64 UNL A   1      44.809  45.433  19.355  1.00  0.00    +0.000 C 
ATOM     90  C65 UNL A   1      45.914  44.773  18.804  1.00  0.00    +0.000 C 
ATOM     91  C66 UNL A   1      47.153  44.820  19.444  1.00  0.00    +0.000 C 
ATOM     92  C67 UNL A   1      47.296  45.521  20.645  1.00  0.00    +0.000 C 
ATOM     96  C70 UNL A   1      46.171  46.154  21.205  1.00  0.00    +0.000 C 
BRANCH   92   93
ATOM     93  C68 UNL A   1      48.604  45.645  21.359  1.00  0.00    +0.000 C 
ATOM     95  O4  UNL A   1      49.343  44.663  21.429  1.00  0.00    +0.000 O 
BRANCH   93   94
ATOM    143  H44 UNL A   1      49.652  46.738  22.845  1.00  0.00    +0.000 H 
ATOM    141  H42 UNL A   1      48.143  47.465  22.347  1.00  0.00    +0.000 H 
ATOM     94  C69 UNL A   1      49.015  46.944  22.011  1.00  0.00    +0.000 C 
ATOM    142  H43 UNL A   1      49.540  47.549  21.300  1.00  0.00    +0.000 H 
ENDBRANCH   93   94
ENDBRANCH   92   93
ENDBRANCH   88   89
ENDBRANCH   11   10
ENDBRANCH   12   11
ENDBRANCH   13   12
ENDBRANCH   15   13
ENDBRANCH   16   15
ENDBRANCH   17   16
ENDBRANCH   18   17
ENDBRANCH   19   18
ENDBRANCH   20   19
ENDBRANCH   21   20
ENDBRANCH   22   21
ENDBRANCH   23   22
ENDBRANCH   25   23
ENDBRANCH   29   28
BRANCH   33   34
ATOM     34  C28 UNL A   1      39.677  33.222  35.310  1.00  0.00    +0.000 C 
ATOM     35  C29 UNL A   1      39.797  33.011  36.704  1.00  0.00    +0.000 C 
ATOM     36  F1  UNL A   1      40.984  32.707  37.250  1.00  0.00    +0.000 F 
ATOM     37  C30 UNL A   1      38.689  33.022  37.553  1.00  0.00    +0.000 C 
ATOM     38  F2  UNL A   1      38.830  32.668  38.838  1.00  0.00    +0.000 F 
ATOM     39  C31 UNL A   1      37.439  33.329  37.054  1.00  0.00    +0.000 C 
ATOM     40  F3  UNL A   1      36.364  33.282  37.853  1.00  0.00    +0.000 F 
ATOM     41  C32 UNL A   1      37.300  33.646  35.714  1.00  0.00    +0.000 C 
ATOM     42  F4  UNL A   1      36.088  33.945  35.225  1.00  0.00    +0.000 F 
ATOM     43  C33 UNL A   1      38.395  33.571  34.848  1.00  0.00    +0.000 C 
ATOM     44  F5  UNL A   1      38.148  33.724  33.542  1.00  0.00    +0.000 F 
ENDBRANCH   33   34
BRANCH   50   51
ATOM     51  C39 UNL A   1      39.179  29.828  30.589  1.00  0.00    +0.000 C 
ATOM     52  C40 UNL A   1      39.322  31.162  30.209  1.00  0.00    +0.000 C 
ATOM     53  F6  UNL A   1      40.394  31.863  30.607  1.00  0.00    +0.000 F 
ATOM     54  C41 UNL A   1      38.359  31.789  29.412  1.00  0.00    +0.000 C 
ATOM     55  F7  UNL A   1      38.519  33.069  29.057  1.00  0.00    +0.000 F 
ATOM     56  C42 UNL A   1      37.235  31.096  28.976  1.00  0.00    +0.000 C 
ATOM     57  F8  UNL A   1      36.324  31.696  28.198  1.00  0.00    +0.000 F 
ATOM     58  C43 UNL A   1      37.065  29.778  29.341  1.00  0.00    +0.000 C 
ATOM     59  F9  UNL A   1      36.001  29.082  28.912  1.00  0.00    +0.000 F 
ATOM     60  C44 UNL A   1      38.017  29.163  30.145  1.00  0.00    +0.000 C 
ATOM     61  F10 UNL A   1      37.808  27.886  30.466  1.00  0.00    +0.000 F 
ENDBRANCH   50   51
BRANCH   65   66
ATOM     66  C48 UNL A   1      43.916  27.997  27.269  1.00  0.00    +0.000 C 
ATOM     67  C49 UNL A   1      45.212  27.469  27.336  1.00  0.00    +0.000 C 
ATOM     68  F11 UNL A   1      46.127  27.983  28.164  1.00  0.00    +0.000 F 
ATOM     69  C50 UNL A   1      45.631  26.403  26.519  1.00  0.00    +0.000 C 
ATOM     70  F12 UNL A   1      46.872  25.913  26.652  1.00  0.00    +0.000 F 
ATOM     71  C51 UNL A   1      44.781  25.845  25.580  1.00  0.00    +0.000 C 
ATOM     72  F13 UNL A   1      45.174  24.810  24.827  1.00  0.00    +0.000 F 
ATOM     73  C52 UNL A   1      43.525  26.382  25.423  1.00  0.00    +0.000 C 
ATOM     74  F14 UNL A   1      42.687  25.880  24.504  1.00  0.00    +0.000 F 
ATOM     75  C53 UNL A   1      43.112  27.442  26.233  1.00  0.00    +0.000 C 
ATOM     76  F15 UNL A   1      41.883  27.908  25.975  1.00  0.00    +0.000 F 
ENDBRANCH   65   66
TORSDOF 23
ENDMDL
MODEL 9
REMARK VINA RESULT:      -7.1     41.417     48.344
ROOT
ATOM    129  H30 UNL A   1      23.651  34.706  45.006  1.00  0.00    +0.000 H 
ATOM    130  H31 UNL A   1      18.778  36.183  51.574  1.00  0.00    +0.000 H 
ATOM    131  H32 UNL A   1      21.189  35.885  52.286  1.00  0.00    +0.000 H 
ATOM    132  H33 UNL A   1      21.140  36.078  48.158  1.00  0.00    +0.000 H 
ATOM    133  H34 UNL A   1      19.270  39.027  47.333  1.00  0.00    +0.000 H 
ATOM    134  H35 UNL A   1      20.561  38.425  45.184  1.00  0.00    +0.000 H 
ATOM    135  H36 UNL A   1      27.194  35.625  48.082  1.00  0.00    +0.000 H 
ATOM    136  H37 UNL A   1      25.875  35.195  50.234  1.00  0.00    +0.000 H 
ATOM     29  C24 UNL A   1      23.126  36.038  50.189  1.00  0.00    +0.000 C 
ATOM     30  C25 UNL A   1      24.152  36.083  49.045  1.00  0.00    +0.000 C 
ATOM     31  N3  UNL A   1      24.062  36.539  47.825  1.00  0.00    +0.000 N 
ATOM     32  C26 UNL A   1      25.296  36.275  47.195  1.00  0.00    +0.000 C 
ATOM     33  C27 UNL A   1      25.518  36.311  45.848  1.00  0.00    +0.000 C 
ATOM     45  C34 UNL A   1      24.370  36.678  45.085  1.00  0.00    +0.000 C 
ATOM     46  C35 UNL A   1      23.893  37.773  44.405  1.00  0.00    +0.000 C 
ATOM     47  C36 UNL A   1      22.575  37.436  43.983  1.00  0.00    +0.000 C 
ATOM     48  C37 UNL A   1      22.261  36.222  44.580  1.00  0.00    +0.000 C 
ATOM     49  N4  UNL A   1      23.466  35.668  44.910  1.00  0.00    +0.000 N 
ATOM     50  C38 UNL A   1      21.096  35.550  45.072  1.00  0.00    +0.000 C 
ATOM     62  C45 UNL A   1      20.143  36.311  45.663  1.00  0.00    +0.000 C 
ATOM     63  N5  UNL A   1      19.260  35.778  46.578  1.00  0.00    +0.000 N 
ATOM     64  C46 UNL A   1      18.984  36.776  47.356  1.00  0.00    +0.000 C 
ATOM     65  C47 UNL A   1      18.443  36.657  48.720  1.00  0.00    +0.000 C 
ATOM     77  C54 UNL A   1      19.521  36.328  49.496  1.00  0.00    +0.000 C 
ATOM     78  C55 UNL A   1      19.589  36.173  50.936  1.00  0.00    +0.000 C 
ATOM     79  C56 UNL A   1      20.874  36.016  51.312  1.00  0.00    +0.000 C 
ATOM     80  C57 UNL A   1      21.767  36.056  50.140  1.00  0.00    +0.000 C 
ATOM     81  N6  UNL A   1      20.868  36.142  49.102  1.00  0.00    +0.000 N 
ATOM     82  C58 UNL A   1      19.433  38.097  46.917  1.00  0.00    +0.000 C 
ATOM     83  C59 UNL A   1      20.113  37.755  45.827  1.00  0.00    +0.000 C 
ATOM     84  C60 UNL A   1      26.184  35.793  48.213  1.00  0.00    +0.000 C 
ATOM     85  C61 UNL A   1      25.522  35.594  49.351  1.00  0.00    +0.000 C 
ATOM    127  H28 UNL A   1      24.389  38.661  44.237  1.00  0.00    +0.000 H 
ATOM    128  H29 UNL A   1      21.970  37.987  43.354  1.00  0.00    +0.000 H 
ENDROOT
BRANCH   29   28
ATOM    137  H38 UNL A   1      24.165  38.120  51.606  1.00  0.00    +0.000 H 
ATOM    138  H39 UNL A   1      24.948  38.094  53.908  1.00  0.00    +0.000 H 
ATOM     86  C62 UNL A   1      24.175  37.236  52.139  1.00  0.00    +0.000 C 
ATOM     87  C63 UNL A   1      24.620  37.222  53.464  1.00  0.00    +0.000 C 
ATOM     25  C20 UNL A   1      24.621  36.024  54.186  1.00  0.00    +0.000 C 
ATOM     26  C21 UNL A   1      24.224  34.831  53.564  1.00  0.00    +0.000 C 
ATOM     27  C22 UNL A   1      23.786  34.841  52.246  1.00  0.00    +0.000 C 
ATOM     28  C23 UNL A   1      23.743  36.047  51.538  1.00  0.00    +0.000 C 
ATOM    125  H26 UNL A   1      24.255  33.944  54.089  1.00  0.00    +0.000 H 
ATOM    126  H27 UNL A   1      23.495  33.962  51.790  1.00  0.00    +0.000 H 
BRANCH   25   23
ATOM     23  C19 UNL A   1      25.135  35.912  55.572  1.00  0.00    +0.000 C 
ATOM     24  O3  UNL A   1      25.065  34.844  56.156  1.00  0.00    +0.000 O 
BRANCH   23   22
ATOM    124  H25 UNL A   1      25.040  37.627  56.604  1.00  0.00    +0.000 H 
ATOM     22  N2  UNL A   1      25.684  36.984  56.229  1.00  0.00    +0.000 N 
BRANCH   22   21
ATOM    122  H23 UNL A   1      27.193  37.758  57.409  1.00  0.00    +0.000 H 
ATOM    123  H24 UNL A   1      27.653  36.396  56.399  1.00  0.00    +0.000 H 
ATOM     21  C18 UNL A   1      27.082  37.301  56.448  1.00  0.00    +0.000 C 
BRANCH   21   20
ATOM    121  H22 UNL A   1      28.382  38.827  55.829  1.00  0.00    +0.000 H 
ATOM     20  C17 UNL A   1      27.594  38.264  55.372  1.00  0.00    +0.000 C 
ATOM    120  H21 UNL A   1      26.772  38.867  55.048  1.00  0.00    +0.000 H 
BRANCH   20   19
ATOM     19  C16 UNL A   1      28.211  37.592  54.133  1.00  0.00    +0.000 C 
ATOM    118  H19 UNL A   1      28.759  36.734  54.464  1.00  0.00    +0.000 H 
ATOM    119  H20 UNL A   1      27.389  37.360  53.489  1.00  0.00    +0.000 H 
BRANCH   19   18
ATOM     18  C15 UNL A   1      29.156  38.462  53.304  1.00  0.00    +0.000 C 
ATOM    116  H17 UNL A   1      29.613  39.176  53.956  1.00  0.00    +0.000 H 
ATOM    117  H18 UNL A   1      29.862  37.798  52.850  1.00  0.00    +0.000 H 
BRANCH   18   17
ATOM     17  C14 UNL A   1      28.483  39.223  52.165  1.00  0.00    +0.000 C 
ATOM    114  H15 UNL A   1      27.812  39.936  52.594  1.00  0.00    +0.000 H 
ATOM    115  H16 UNL A   1      29.273  39.668  51.597  1.00  0.00    +0.000 H 
BRANCH   17   16
ATOM    113  H14 UNL A   1      26.651  38.430  51.424  1.00  0.00    +0.000 H 
ATOM    112  H13 UNL A   1      28.021  37.342  51.269  1.00  0.00    +0.000 H 
ATOM     16  C13 UNL A   1      27.692  38.357  51.185  1.00  0.00    +0.000 C 
BRANCH   16   15
ATOM    111  H12 UNL A   1      28.825  38.822  49.509  1.00  0.00    +0.000 H 
ATOM     15  N1  UNL A   1      27.892  38.812  49.823  1.00  0.00    +0.000 N 
BRANCH   15   13
ATOM     13  C12 UNL A   1      26.958  39.227  48.921  1.00  0.00    +0.000 C 
ATOM     14  O2  UNL A   1      27.310  39.418  47.756  1.00  0.00    +0.000 O 
BRANCH   13   12
ATOM     12  C11 UNL A   1      25.532  39.502  49.360  1.00  0.00    +0.000 C 
ATOM    109  H10 UNL A   1      25.139  38.619  49.819  1.00  0.00    +0.000 H 
ATOM    110  H11 UNL A   1      25.560  40.326  50.043  1.00  0.00    +0.000 H 
BRANCH   12   11
ATOM     11  C10 UNL A   1      24.621  39.896  48.198  1.00  0.00    +0.000 C 
ATOM    108  H9  UNL A   1      23.710  39.347  48.309  1.00  0.00    +0.000 H 
ATOM    107  H8  UNL A   1      25.121  39.665  47.281  1.00  0.00    +0.000 H 
BRANCH   11   10
ATOM      7  C6  UNL A   1      22.948  43.197  48.261  1.00  0.00    +0.000 C 
ATOM      8  C7  UNL A   1      24.179  43.559  47.732  1.00  0.00    +0.000 C 
ATOM      9  C8  UNL A   1      25.001  42.416  47.695  1.00  0.00    +0.000 C 
ATOM     10  C9  UNL A   1      24.264  41.360  48.193  1.00  0.00    +0.000 C 
ATOM    105  H6  UNL A   1      24.445  44.506  47.419  1.00  0.00    +0.000 H 
ATOM    106  H7  UNL A   1      25.975  42.375  47.357  1.00  0.00    +0.000 H 
ATOM     88  N7  UNL A   1      23.099  41.893  48.742  1.00  0.00    +0.000 N 
BRANCH    7    6
ATOM     98  C72 UNL A   1      21.908  45.061  49.547  1.00  0.00    +0.000 C 
ATOM      3  C2  UNL A   1      19.612  45.719  49.138  1.00  0.00    +0.000 C 
ATOM      4  C3  UNL A   1      19.523  44.743  48.144  1.00  0.00    +0.000 C 
ATOM      5  C4  UNL A   1      20.624  43.941  47.838  1.00  0.00    +0.000 C 
ATOM     99  C73 UNL A   1      20.805  45.873  49.845  1.00  0.00    +0.000 C 
ATOM    103  H4  UNL A   1      18.636  44.613  47.632  1.00  0.00    +0.000 H 
ATOM      6  C5  UNL A   1      21.826  44.095  48.536  1.00  0.00    +0.000 C 
ATOM    104  H5  UNL A   1      20.551  43.231  47.093  1.00  0.00    +0.000 H 
ATOM    146  H47 UNL A   1      22.788  45.176  50.074  1.00  0.00    +0.000 H 
ATOM    147  H48 UNL A   1      20.875  46.584  50.590  1.00  0.00    +0.000 H 
BRANCH    3    2
ATOM      2  O1  UNL A   1      18.462  46.420  49.374  1.00  0.00    +0.000 O 
BRANCH    2    1
ATOM      1  C1  UNL A   1      17.433  45.693  50.036  1.00  0.00    +0.000 C 
ATOM    100  H1  UNL A   1      16.537  46.277  50.052  1.00  0.00    +0.000 H 
ATOM    101  H2  UNL A   1      17.737  45.478  51.041  1.00  0.00    +0.000 H 
ATOM    102  H3  UNL A   1      17.252  44.776  49.516  1.00  0.00    +0.000 H 
ENDBRANCH    2    1
ENDBRANCH    3    2
ENDBRANCH    7    6
BRANCH   88   89
ATOM     97  C71 UNL A   1      22.740  41.580  51.153  1.00  0.00    +0.000 C 
ATOM    139  H40 UNL A   1      21.097  40.254  48.546  1.00  0.00    +0.000 H 
ATOM    140  H41 UNL A   1      19.984  39.037  50.321  1.00  0.00    +0.000 H 
ATOM    144  H45 UNL A   1      22.321  41.084  53.160  1.00  0.00    +0.000 H 
ATOM    145  H46 UNL A   1      23.486  42.258  51.377  1.00  0.00    +0.000 H 
ATOM     89  C64 UNL A   1      22.379  41.337  49.830  1.00  0.00    +0.000 C 
ATOM     90  C65 UNL A   1      21.368  40.417  49.529  1.00  0.00    +0.000 C 
ATOM     91  C66 UNL A   1      20.724  39.719  50.551  1.00  0.00    +0.000 C 
ATOM     92  C67 UNL A   1      21.080  39.941  51.883  1.00  0.00    +0.000 C 
ATOM     96  C70 UNL A   1      22.076  40.891  52.176  1.00  0.00    +0.000 C 
BRANCH   92   93
ATOM     93  C68 UNL A   1      20.460  39.196  53.022  1.00  0.00    +0.000 C 
ATOM     95  O4  UNL A   1      19.233  39.164  53.118  1.00  0.00    +0.000 O 
BRANCH   93   94
ATOM    143  H44 UNL A   1      22.344  38.731  53.879  1.00  0.00    +0.000 H 
ATOM    141  H42 UNL A   1      21.162  37.451  54.003  1.00  0.00    +0.000 H 
ATOM     94  C69 UNL A   1      21.314  38.508  54.061  1.00  0.00    +0.000 C 
ATOM    142  H43 UNL A   1      21.038  38.856  55.035  1.00  0.00    +0.000 H 
ENDBRANCH   93   94
ENDBRANCH   92   93
ENDBRANCH   88   89
ENDBRANCH   11   10
ENDBRANCH   12   11
ENDBRANCH   13   12
ENDBRANCH   15   13
ENDBRANCH   16   15
ENDBRANCH   17   16
ENDBRANCH   18   17
ENDBRANCH   19   18
ENDBRANCH   20   19
ENDBRANCH   21   20
ENDBRANCH   22   21
ENDBRANCH   23   22
ENDBRANCH   25   23
ENDBRANCH   29   28
BRANCH   33   34
ATOM     34  C28 UNL A   1      26.649  35.680  45.061  1.00  0.00    +0.000 C 
ATOM     35  C29 UNL A   1      26.731  34.269  45.004  1.00  0.00    +0.000 C 
ATOM     36  F1  UNL A   1      25.655  33.510  45.266  1.00  0.00    +0.000 F 
ATOM     37  C30 UNL A   1      27.935  33.605  44.764  1.00  0.00    +0.000 C 
ATOM     38  F2  UNL A   1      27.994  32.271  44.869  1.00  0.00    +0.000 F 
ATOM     39  C31 UNL A   1      29.079  34.327  44.487  1.00  0.00    +0.000 C 
ATOM     40  F3  UNL A   1      30.249  33.697  44.314  1.00  0.00    +0.000 F 
ATOM     41  C32 UNL A   1      29.014  35.708  44.427  1.00  0.00    +0.000 C 
ATOM     42  F4  UNL A   1      30.122  36.414  44.159  1.00  0.00    +0.000 F 
ATOM     43  C33 UNL A   1      27.825  36.378  44.734  1.00  0.00    +0.000 C 
ATOM     44  F5  UNL A   1      27.886  37.713  44.822  1.00  0.00    +0.000 F 
ENDBRANCH   33   34
BRANCH   50   51
ATOM     51  C39 UNL A   1      21.047  34.101  45.486  1.00  0.00    +0.000 C 
ATOM     52  C40 UNL A   1      21.812  33.616  46.547  1.00  0.00    +0.000 C 
ATOM     53  F6  UNL A   1      22.536  34.462  47.295  1.00  0.00    +0.000 F 
ATOM     54  C41 UNL A   1      21.838  32.251  46.848  1.00  0.00    +0.000 C 
ATOM     55  F7  UNL A   1      22.577  31.809  47.873  1.00  0.00    +0.000 F 
ATOM     56  C42 UNL A   1      21.099  31.342  46.099  1.00  0.00    +0.000 C 
ATOM     57  F8  UNL A   1      21.113  30.037  46.403  1.00  0.00    +0.000 F 
ATOM     58  C43 UNL A   1      20.338  31.793  45.042  1.00  0.00    +0.000 C 
ATOM     59  F9  UNL A   1      19.598  30.937  44.320  1.00  0.00    +0.000 F 
ATOM     60  C44 UNL A   1      20.327  33.148  44.736  1.00  0.00    +0.000 C 
ATOM     61  F10 UNL A   1      19.572  33.533  43.707  1.00  0.00    +0.000 F 
ENDBRANCH   50   51
BRANCH   65   66
ATOM     66  C48 UNL A   1      16.998  37.026  48.930  1.00  0.00    +0.000 C 
ATOM     67  C49 UNL A   1      15.900  36.440  48.285  1.00  0.00    +0.000 C 
ATOM     68  F11 UNL A   1      16.069  35.563  47.291  1.00  0.00    +0.000 F 
ATOM     69  C50 UNL A   1      14.573  36.764  48.621  1.00  0.00    +0.000 C 
ATOM     70  F12 UNL A   1      13.560  36.144  47.997  1.00  0.00    +0.000 F 
ATOM     71  C51 UNL A   1      14.291  37.710  49.590  1.00  0.00    +0.000 C 
ATOM     72  F13 UNL A   1      13.026  37.992  49.928  1.00  0.00    +0.000 F 
ATOM     73  C52 UNL A   1      15.335  38.369  50.195  1.00  0.00    +0.000 C 
ATOM     74  F14 UNL A   1      15.094  39.310  51.120  1.00  0.00    +0.000 F 
ATOM     75  C53 UNL A   1      16.652  38.049  49.859  1.00  0.00    +0.000 C 
ATOM     76  F15 UNL A   1      17.590  38.773  50.484  1.00  0.00    +0.000 F 
ENDBRANCH   65   66
TORSDOF 23
ENDMDL
MODEL 10
REMARK VINA RESULT:      -7.1     50.475     56.365
ROOT
ATOM    129  H30 UNL A   1      13.600  49.526   8.735  1.00  0.00    +0.000 H 
ATOM    130  H31 UNL A   1      14.865  52.072   0.925  1.00  0.00    +0.000 H 
ATOM    131  H32 UNL A   1      14.204  54.011   2.413  1.00  0.00    +0.000 H 
ATOM    132  H33 UNL A   1      14.881  50.755   4.866  1.00  0.00    +0.000 H 
ATOM    133  H34 UNL A   1      18.107  49.481   3.942  1.00  0.00    +0.000 H 
ATOM    134  H35 UNL A   1      17.611  48.450   6.253  1.00  0.00    +0.000 H 
ATOM    135  H36 UNL A   1      13.729  54.201   9.730  1.00  0.00    +0.000 H 
ATOM    136  H37 UNL A   1      13.210  55.049   7.371  1.00  0.00    +0.000 H 
ATOM     29  C24 UNL A   1      14.371  53.526   5.225  1.00  0.00    +0.000 C 
ATOM     30  C25 UNL A   1      14.427  53.237   6.734  1.00  0.00    +0.000 C 
ATOM     31  N3  UNL A   1      15.030  52.296   7.408  1.00  0.00    +0.000 N 
ATOM     32  C26 UNL A   1      14.697  52.485   8.766  1.00  0.00    +0.000 C 
ATOM     33  C27 UNL A   1      14.864  51.559   9.756  1.00  0.00    +0.000 C 
ATOM     45  C34 UNL A   1      15.450  50.338   9.309  1.00  0.00    +0.000 C 
ATOM     46  C35 UNL A   1      16.666  49.699   9.364  1.00  0.00    +0.000 C 
ATOM     47  C36 UNL A   1      16.539  48.531   8.559  1.00  0.00    +0.000 C 
ATOM     48  C37 UNL A   1      15.308  48.617   7.920  1.00  0.00    +0.000 C 
ATOM     49  N4  UNL A   1      14.582  49.499   8.669  1.00  0.00    +0.000 N 
ATOM     50  C38 UNL A   1      14.726  48.206   6.677  1.00  0.00    +0.000 C 
ATOM     62  C45 UNL A   1      15.520  48.234   5.579  1.00  0.00    +0.000 C 
ATOM     63  N5  UNL A   1      14.991  48.347   4.311  1.00  0.00    +0.000 N 
ATOM     64  C46 UNL A   1      15.918  48.961   3.646  1.00  0.00    +0.000 C 
ATOM     65  C47 UNL A   1      15.705  49.699   2.390  1.00  0.00    +0.000 C 
ATOM     77  C54 UNL A   1      15.163  50.895   2.774  1.00  0.00    +0.000 C 
ATOM     78  C55 UNL A   1      14.834  52.046   1.956  1.00  0.00    +0.000 C 
ATOM     79  C56 UNL A   1      14.484  53.077   2.751  1.00  0.00    +0.000 C 
ATOM     80  C57 UNL A   1      14.555  52.687   4.171  1.00  0.00    +0.000 C 
ATOM     81  N6  UNL A   1      14.866  51.350   4.082  1.00  0.00    +0.000 N 
ATOM     82  C58 UNL A   1      17.219  49.097   4.301  1.00  0.00    +0.000 C 
ATOM     83  C59 UNL A   1      16.928  48.583   5.492  1.00  0.00    +0.000 C 
ATOM     84  C60 UNL A   1      13.999  53.735   8.849  1.00  0.00    +0.000 C 
ATOM     85  C61 UNL A   1      13.747  54.208   7.631  1.00  0.00    +0.000 C 
ATOM    127  H28 UNL A   1      17.503  50.005   9.883  1.00  0.00    +0.000 H 
ATOM    128  H29 UNL A   1      17.226  47.766   8.469  1.00  0.00    +0.000 H 
ENDROOT
BRANCH   29   28
ATOM    137  H38 UNL A   1      12.063  54.820   4.575  1.00  0.00    +0.000 H 
ATOM    138  H39 UNL A   1      11.742  57.214   4.291  1.00  0.00    +0.000 H 
ATOM     86  C62 UNL A   1      12.868  55.462   4.648  1.00  0.00    +0.000 C 
ATOM     87  C63 UNL A   1      12.683  56.838   4.489  1.00  0.00    +0.000 C 
ATOM     25  C20 UNL A   1      13.775  57.706   4.599  1.00  0.00    +0.000 C 
ATOM     26  C21 UNL A   1      15.060  57.189   4.818  1.00  0.00    +0.000 C 
ATOM     27  C22 UNL A   1      15.249  55.821   4.971  1.00  0.00    +0.000 C 
ATOM     28  C23 UNL A   1      14.149  54.957   4.905  1.00  0.00    +0.000 C 
ATOM    125  H26 UNL A   1      15.869  57.828   4.868  1.00  0.00    +0.000 H 
ATOM    126  H27 UNL A   1      16.196  55.443   5.130  1.00  0.00    +0.000 H 
BRANCH   25   23
ATOM     23  C19 UNL A   1      13.674  59.169   4.383  1.00  0.00    +0.000 C 
ATOM     24  O3  UNL A   1      13.926  59.932   5.300  1.00  0.00    +0.000 O 
BRANCH   23   22
ATOM    124  H25 UNL A   1      12.558  60.350   3.212  1.00  0.00    +0.000 H 
ATOM     22  N2  UNL A   1      13.294  59.698   3.176  1.00  0.00    +0.000 N 
BRANCH   22   21
ATOM    122  H23 UNL A   1      13.942  60.351   1.326  1.00  0.00    +0.000 H 
ATOM    123  H24 UNL A   1      14.772  58.938   1.957  1.00  0.00    +0.000 H 
ATOM     21  C18 UNL A   1      13.826  59.428   1.854  1.00  0.00    +0.000 C 
BRANCH   21   20
ATOM    121  H22 UNL A   1      12.839  58.917   0.074  1.00  0.00    +0.000 H 
ATOM     20  C17 UNL A   1      12.882  58.515   1.066  1.00  0.00    +0.000 C 
ATOM    120  H21 UNL A   1      11.935  58.507   1.564  1.00  0.00    +0.000 H 
BRANCH   20   19
ATOM     19  C16 UNL A   1      13.355  57.059   0.917  1.00  0.00    +0.000 C 
ATOM    118  H19 UNL A   1      13.365  56.615   1.890  1.00  0.00    +0.000 H 
ATOM    119  H20 UNL A   1      12.668  56.598   0.237  1.00  0.00    +0.000 H 
BRANCH   19   18
ATOM     18  C15 UNL A   1      14.742  56.868   0.299  1.00  0.00    +0.000 C 
ATOM    116  H17 UNL A   1      14.631  56.312  -0.607  1.00  0.00    +0.000 H 
ATOM    117  H18 UNL A   1      15.142  57.848   0.143  1.00  0.00    +0.000 H 
BRANCH   18   17
ATOM     17  C14 UNL A   1      15.737  56.131   1.191  1.00  0.00    +0.000 C 
ATOM    114  H15 UNL A   1      15.196  55.700   2.006  1.00  0.00    +0.000 H 
ATOM    115  H16 UNL A   1      16.216  55.407   0.566  1.00  0.00    +0.000 H 
BRANCH   17   16
ATOM    113  H14 UNL A   1      17.672  56.365   2.047  1.00  0.00    +0.000 H 
ATOM    112  H13 UNL A   1      16.485  57.522   2.626  1.00  0.00    +0.000 H 
ATOM     16  C13 UNL A   1      16.855  56.997   1.770  1.00  0.00    +0.000 C 
BRANCH   16   15
ATOM    111  H12 UNL A   1      16.646  58.601   0.466  1.00  0.00    +0.000 H 
ATOM     15  N1  UNL A   1      17.319  57.958   0.787  1.00  0.00    +0.000 N 
BRANCH   15   13
ATOM     13  C12 UNL A   1      18.565  58.087   0.250  1.00  0.00    +0.000 C 
ATOM     14  O2  UNL A   1      19.403  58.751   0.862  1.00  0.00    +0.000 O 
BRANCH   13   12
ATOM     12  C11 UNL A   1      18.890  57.475  -1.099  1.00  0.00    +0.000 C 
ATOM    109  H10 UNL A   1      17.972  57.263  -1.608  1.00  0.00    +0.000 H 
ATOM    110  H11 UNL A   1      19.488  58.181  -1.637  1.00  0.00    +0.000 H 
BRANCH   12   11
ATOM     11  C10 UNL A   1      19.695  56.181  -0.984  1.00  0.00    +0.000 C 
ATOM    108  H9  UNL A   1      20.350  56.289  -0.146  1.00  0.00    +0.000 H 
ATOM    107  H8  UNL A   1      20.232  56.033  -1.898  1.00  0.00    +0.000 H 
BRANCH   11   10
ATOM      7  C6  UNL A   1      17.094  53.548  -0.964  1.00  0.00    +0.000 C 
ATOM      8  C7  UNL A   1      17.712  53.288   0.251  1.00  0.00    +0.000 C 
ATOM      9  C8  UNL A   1      18.802  54.169   0.394  1.00  0.00    +0.000 C 
ATOM     10  C9  UNL A   1      18.838  54.969  -0.730  1.00  0.00    +0.000 C 
ATOM    105  H6  UNL A   1      17.422  52.571   0.934  1.00  0.00    +0.000 H 
ATOM    106  H7  UNL A   1      19.453  54.210   1.193  1.00  0.00    +0.000 H 
ATOM     88  N7  UNL A   1      17.935  54.431  -1.647  1.00  0.00    +0.000 N 
BRANCH    7    6
ATOM     98  C72 UNL A   1      14.659  53.318  -1.437  1.00  0.00    +0.000 C 
ATOM      3  C2  UNL A   1      13.788  51.328  -2.512  1.00  0.00    +0.000 C 
ATOM      4  C3  UNL A   1      15.085  50.818  -2.589  1.00  0.00    +0.000 C 
ATOM      5  C4  UNL A   1      16.167  51.559  -2.111  1.00  0.00    +0.000 C 
ATOM     99  C73 UNL A   1      13.575  52.577  -1.928  1.00  0.00    +0.000 C 
ATOM    103  H4  UNL A   1      15.245  49.886  -3.003  1.00  0.00    +0.000 H 
ATOM      6  C5  UNL A   1      15.963  52.815  -1.533  1.00  0.00    +0.000 C 
ATOM    104  H5  UNL A   1      17.123  51.177  -2.185  1.00  0.00    +0.000 H 
ATOM    146  H47 UNL A   1      14.496  54.240  -1.004  1.00  0.00    +0.000 H 
ATOM    147  H48 UNL A   1      12.617  52.957  -1.857  1.00  0.00    +0.000 H 
BRANCH    3    2
ATOM      2  O1  UNL A   1      12.806  50.501  -2.981  1.00  0.00    +0.000 O 
BRANCH    2    1
ATOM      1  C1  UNL A   1      13.191  49.143  -3.162  1.00  0.00    +0.000 C 
ATOM    100  H1  UNL A   1      14.183  49.103  -3.560  1.00  0.00    +0.000 H 
ATOM    101  H2  UNL A   1      12.514  48.667  -3.842  1.00  0.00    +0.000 H 
ATOM    102  H3  UNL A   1      13.164  48.636  -2.221  1.00  0.00    +0.000 H 
ENDBRANCH    2    1
ENDBRANCH    3    2
ENDBRANCH    7    6
BRANCH   88   89
ATOM     97  C71 UNL A   1      17.254  55.369  -3.814  1.00  0.00    +0.000 C 
ATOM    139  H40 UNL A   1      19.513  52.990  -3.118  1.00  0.00    +0.000 H 
ATOM    140  H41 UNL A   1      19.594  52.858  -5.536  1.00  0.00    +0.000 H 
ATOM    144  H45 UNL A   1      16.752  55.951  -5.778  1.00  0.00    +0.000 H 
ATOM    145  H46 UNL A   1      16.619  56.040  -3.352  1.00  0.00    +0.000 H 
ATOM     89  C64 UNL A   1      18.054  54.517  -3.058  1.00  0.00    +0.000 C 
ATOM     90  C65 UNL A   1      18.913  53.608  -3.687  1.00  0.00    +0.000 C 
ATOM     91  C66 UNL A   1      18.964  53.534  -5.079  1.00  0.00    +0.000 C 
ATOM     92  C67 UNL A   1      18.160  54.374  -5.855  1.00  0.00    +0.000 C 
ATOM     96  C70 UNL A   1      17.324  55.305  -5.212  1.00  0.00    +0.000 C 
BRANCH   92   93
ATOM     93  C68 UNL A   1      18.135  54.317  -7.348  1.00  0.00    +0.000 C 
ATOM     95  O4  UNL A   1      17.053  54.381  -7.931  1.00  0.00    +0.000 O 
BRANCH   93   94
ATOM    143  H44 UNL A   1      19.312  54.668  -9.079  1.00  0.00    +0.000 H 
ATOM    141  H42 UNL A   1      19.590  53.118  -8.322  1.00  0.00    +0.000 H 
ATOM     94  C69 UNL A   1      19.409  54.157  -8.144  1.00  0.00    +0.000 C 
ATOM    142  H43 UNL A   1      20.227  54.573  -7.592  1.00  0.00    +0.000 H 
ENDBRANCH   93   94
ENDBRANCH   92   93
ENDBRANCH   88   89
ENDBRANCH   11   10
ENDBRANCH   12   11
ENDBRANCH   13   12
ENDBRANCH   15   13
ENDBRANCH   16   15
ENDBRANCH   17   16
ENDBRANCH   18   17
ENDBRANCH   19   18
ENDBRANCH   20   19
ENDBRANCH   21   20
ENDBRANCH   22   21
ENDBRANCH   23   22
ENDBRANCH   25   23
ENDBRANCH   29   28
BRANCH   33   34
ATOM     34  C28 UNL A   1      14.201  51.503  11.117  1.00  0.00    +0.000 C 
ATOM     35  C29 UNL A   1      15.020  51.472  12.270  1.00  0.00    +0.000 C 
ATOM     36  F1  UNL A   1      16.294  51.890  12.214  1.00  0.00    +0.000 F 
ATOM     37  C30 UNL A   1      14.579  50.933  13.479  1.00  0.00    +0.000 C 
ATOM     38  F2  UNL A   1      15.437  50.788  14.498  1.00  0.00    +0.000 F 
ATOM     39  C31 UNL A   1      13.278  50.487  13.603  1.00  0.00    +0.000 C 
ATOM     40  F3  UNL A   1      12.867  49.914  14.743  1.00  0.00    +0.000 F 
ATOM     41  C32 UNL A   1      12.415  50.599  12.527  1.00  0.00    +0.000 C 
ATOM     42  F4  UNL A   1      11.150  50.166  12.642  1.00  0.00    +0.000 F 
ATOM     43  C33 UNL A   1      12.872  51.076  11.295  1.00  0.00    +0.000 C 
ATOM     44  F5  UNL A   1      12.027  50.994  10.260  1.00  0.00    +0.000 F 
ENDBRANCH   33   34
BRANCH   50   51
ATOM     51  C39 UNL A   1      13.254  48.266   6.354  1.00  0.00    +0.000 C 
ATOM     52  C40 UNL A   1      12.504  47.111   6.136  1.00  0.00    +0.000 C 
ATOM     53  F6  UNL A   1      13.061  45.905   6.315  1.00  0.00    +0.000 F 
ATOM     54  C41 UNL A   1      11.168  47.189   5.732  1.00  0.00    +0.000 C 
ATOM     55  F7  UNL A   1      10.466  46.067   5.532  1.00  0.00    +0.000 F 
ATOM     56  C42 UNL A   1      10.553  48.421   5.539  1.00  0.00    +0.000 C 
ATOM     57  F8  UNL A   1       9.266  48.490   5.168  1.00  0.00    +0.000 F 
ATOM     58  C43 UNL A   1      11.272  49.579   5.743  1.00  0.00    +0.000 C 
ATOM     59  F9  UNL A   1      10.692  50.779   5.586  1.00  0.00    +0.000 F 
ATOM     60  C44 UNL A   1      12.604  49.497   6.130  1.00  0.00    +0.000 C 
ATOM     61  F10 UNL A   1      13.254  50.647   6.317  1.00  0.00    +0.000 F 
ENDBRANCH   50   51
BRANCH   65   66
ATOM     66  C48 UNL A   1      16.215  49.070   1.119  1.00  0.00    +0.000 C 
ATOM     67  C49 UNL A   1      15.517  48.154   0.321  1.00  0.00    +0.000 C 
ATOM     68  F11 UNL A   1      14.348  47.642   0.715  1.00  0.00    +0.000 F 
ATOM     69  C50 UNL A   1      16.020  47.700  -0.913  1.00  0.00    +0.000 C 
ATOM     70  F12 UNL A   1      15.292  46.851  -1.654  1.00  0.00    +0.000 F 
ATOM     71  C51 UNL A   1      17.254  48.117  -1.379  1.00  0.00    +0.000 C 
ATOM     72  F13 UNL A   1      17.713  47.706  -2.569  1.00  0.00    +0.000 F 
ATOM     73  C52 UNL A   1      18.010  48.954  -0.594  1.00  0.00    +0.000 C 
ATOM     74  F14 UNL A   1      19.220  49.357  -1.007  1.00  0.00    +0.000 F 
ATOM     75  C53 UNL A   1      17.511  49.402   0.631  1.00  0.00    +0.000 C 
ATOM     76  F15 UNL A   1      18.342  50.188   1.329  1.00  0.00    +0.000 F 
ENDBRANCH   65   66
TORSDOF 23
ENDMDL
