MODEL 1
REMARK VINA RESULT:     -10.9      0.000      0.000
ROOT
ATOM    166  H62 UNL A   1      19.921  31.151  -0.638  1.00  0.00    +0.000 H 
ATOM    167  H63 UNL A   1      17.378  31.653  -0.907  1.00  0.00    +0.000 H 
ATOM    168  H64 UNL A   1      17.982  27.626  -1.634  1.00  0.00    +0.000 H 
ATOM    169  H65 UNL A   1      15.572  21.929  -3.375  1.00  0.00    +0.000 H 
ATOM    170  H66 UNL A   1      18.065  21.472  -3.172  1.00  0.00    +0.000 H 
ATOM    171  H67 UNL A   1      17.435  25.483  -2.286  1.00  0.00    +0.000 H 
ATOM    172  H68 UNL A   1      12.557  26.350  -2.772  1.00  0.00    +0.000 H 
ATOM    173  H69 UNL A   1      13.114  28.811  -2.343  1.00  0.00    +0.000 H 
ATOM     46  C41 UNL A   1      19.621  23.777  -2.529  1.00  0.00    +0.000 C 
ATOM     47  C42 UNL A   1      20.228  25.086  -2.097  1.00  0.00    +0.000 C 
ATOM     48  N3  UNL A   1      19.642  26.205  -1.763  1.00  0.00    +0.000 N 
ATOM    175  H71 UNL A   1      22.394  24.418  -2.253  1.00  0.00    +0.000 H 
ATOM     49  C43 UNL A   1      20.665  27.044  -1.341  1.00  0.00    +0.000 C 
ATOM    174  H70 UNL A   1      22.787  26.599  -0.962  1.00  0.00    +0.000 H 
ATOM     50  C44 UNL A   1      20.597  28.356  -1.020  1.00  0.00    +0.000 C 
ATOM     62  C51 UNL A   1      19.381  29.113  -1.089  1.00  0.00    +0.000 C 
ATOM     63  C52 UNL A   1      19.190  30.464  -0.875  1.00  0.00    +0.000 C 
ATOM     64  C53 UNL A   1      17.828  30.734  -1.037  1.00  0.00    +0.000 C 
ATOM     65  C54 UNL A   1      17.180  29.562  -1.403  1.00  0.00    +0.000 C 
ATOM     66  N4  UNL A   1      18.146  28.573  -1.419  1.00  0.00    +0.000 N 
ATOM     67  C55 UNL A   1      15.788  29.366  -1.713  1.00  0.00    +0.000 C 
ATOM     79  C62 UNL A   1      15.205  28.189  -2.052  1.00  0.00    +0.000 C 
ATOM     80  N5  UNL A   1      15.777  26.933  -2.197  1.00  0.00    +0.000 N 
ATOM     81  C63 UNL A   1      14.797  26.122  -2.518  1.00  0.00    +0.000 C 
ATOM     82  C64 UNL A   1      14.844  24.647  -2.828  1.00  0.00    +0.000 C 
ATOM     94  C71 UNL A   1      16.041  24.032  -2.820  1.00  0.00    +0.000 C 
ATOM     95  C72 UNL A   1      16.291  22.626  -3.124  1.00  0.00    +0.000 C 
ATOM     96  C73 UNL A   1      17.610  22.385  -3.025  1.00  0.00    +0.000 C 
ATOM     97  C74 UNL A   1      18.295  23.631  -2.678  1.00  0.00    +0.000 C 
ATOM     98  N6  UNL A   1      17.284  24.545  -2.549  1.00  0.00    +0.000 N 
ATOM     99  C75 UNL A   1      13.481  26.769  -2.583  1.00  0.00    +0.000 C 
ATOM    100  C76 UNL A   1      13.793  28.034  -2.336  1.00  0.00    +0.000 C 
ATOM    101  C77 UNL A   1      21.888  26.282  -1.360  1.00  0.00    +0.000 C 
ATOM    102  C78 UNL A   1      21.697  25.120  -1.959  1.00  0.00    +0.000 C 
ENDROOT
BRANCH   46   45
ATOM    164  H60 UNL A   1      22.173  20.853  -5.043  1.00  0.00    +0.000 H 
ATOM    165  H61 UNL A   1      20.435  22.548  -4.824  1.00  0.00    +0.000 H 
ATOM    103  C79 UNL A   1      21.136  22.099  -1.560  1.00  0.00    +0.000 C 
ATOM    104  C80 UNL A   1      22.206  21.242  -1.694  1.00  0.00    +0.000 C 
ATOM     42  C37 UNL A   1      22.566  20.781  -2.966  1.00  0.00    +0.000 C 
ATOM     43  C38 UNL A   1      21.914  21.223  -4.115  1.00  0.00    +0.000 C 
ATOM     44  C39 UNL A   1      20.906  22.175  -3.984  1.00  0.00    +0.000 C 
ATOM     45  C40 UNL A   1      20.528  22.625  -2.708  1.00  0.00    +0.000 C 
ATOM    176  H72 UNL A   1      20.785  22.352  -0.623  1.00  0.00    +0.000 H 
ATOM    177  H73 UNL A   1      22.740  20.942  -0.862  1.00  0.00    +0.000 H 
BRANCH   42   40
ATOM     41  O3  UNL A   1      23.305  18.553  -2.677  1.00  0.00    +0.000 O 
ATOM     40  C36 UNL A   1      23.549  19.675  -3.034  1.00  0.00    +0.000 C 
BRANCH   40   39
ATOM    163  H59 UNL A   1      24.830  20.448  -4.452  1.00  0.00    +0.000 H 
ATOM     39  N2  UNL A   1      24.774  20.053  -3.553  1.00  0.00    +0.000 N 
BRANCH   39   38
ATOM    161  H57 UNL A   1      25.777  20.110  -1.740  1.00  0.00    +0.000 H 
ATOM    162  H58 UNL A   1      26.292  18.842  -2.806  1.00  0.00    +0.000 H 
ATOM     38  C35 UNL A   1      25.972  19.862  -2.763  1.00  0.00    +0.000 C 
BRANCH   38   37
ATOM     37  C34 UNL A   1      27.036  20.774  -3.319  1.00  0.00    +0.000 C 
ATOM    159  H55 UNL A   1      27.362  20.380  -4.259  1.00  0.00    +0.000 H 
ATOM    160  H56 UNL A   1      26.598  21.745  -3.414  1.00  0.00    +0.000 H 
BRANCH   37   36
ATOM     36  C33 UNL A   1      28.295  20.926  -2.379  1.00  0.00    +0.000 C 
ATOM    157  H53 UNL A   1      27.906  21.143  -1.406  1.00  0.00    +0.000 H 
ATOM    158  H54 UNL A   1      28.805  20.006  -2.575  1.00  0.00    +0.000 H 
BRANCH   36   35
ATOM     35  C32 UNL A   1      29.523  22.026  -2.629  1.00  0.00    +0.000 C 
ATOM    156  H52 UNL A   1      30.314  21.332  -2.433  1.00  0.00    +0.000 H 
ATOM    155  H51 UNL A   1      29.187  22.887  -2.090  1.00  0.00    +0.000 H 
BRANCH   35   34
ATOM    153  H49 UNL A   1      31.334  22.853  -3.797  1.00  0.00    +0.000 H 
ATOM     34  C31 UNL A   1      30.317  22.762  -4.117  1.00  0.00    +0.000 C 
ATOM    154  H50 UNL A   1      29.771  22.132  -4.787  1.00  0.00    +0.000 H 
BRANCH   34   33
ATOM     33  C30 UNL A   1      30.113  24.444  -5.362  1.00  0.00    +0.000 C 
ATOM    151  H47 UNL A   1      29.076  24.404  -5.623  1.00  0.00    +0.000 H 
ATOM    152  H48 UNL A   1      30.709  25.067  -4.729  1.00  0.00    +0.000 H 
BRANCH   33   32
ATOM    150  H46 UNL A   1      31.410  25.683  -6.471  1.00  0.00    +0.000 H 
ATOM     32  N1  UNL A   1      30.737  24.985  -6.639  1.00  0.00    +0.000 N 
BRANCH   32   30
ATOM     30  C29 UNL A   1      30.573  24.721  -7.961  1.00  0.00    +0.000 C 
ATOM     31  O2  UNL A   1      29.660  25.355  -8.507  1.00  0.00    +0.000 O 
BRANCH   30   29
ATOM    149  H45 UNL A   1      31.830  23.158  -8.023  1.00  0.00    +0.000 H 
ATOM    148  H44 UNL A   1      32.028  24.403  -9.407  1.00  0.00    +0.000 H 
ATOM     29  C28 UNL A   1      31.417  23.774  -8.795  1.00  0.00    +0.000 C 
BRANCH   29   28
ATOM    146  H42 UNL A   1      31.635  21.958  -9.858  1.00  0.00    +0.000 H 
ATOM    147  H43 UNL A   1      29.973  22.351  -9.268  1.00  0.00    +0.000 H 
ATOM     28  C27 UNL A   1      30.871  22.696  -9.738  1.00  0.00    +0.000 C 
BRANCH   28   27
ATOM      3  C3  UNL A   1      31.403  24.165 -11.825  1.00  0.00    +0.000 C 
ATOM      4  C4  UNL A   1      30.777  25.553 -12.106  1.00  0.00    +0.000 C 
ATOM      6  C5  UNL A   1      29.286  25.511 -12.441  1.00  0.00    +0.000 C 
ATOM      7  C6  UNL A   1      28.509  24.912 -11.224  1.00  0.00    +0.000 C 
ATOM      8  C7  UNL A   1      28.859  23.064 -11.284  1.00  0.00    +0.000 C 
ATOM      9  C8  UNL A   1      27.681  21.753 -10.479  1.00  0.00    +0.000 C 
ATOM     10  C9  UNL A   1      26.056  22.357  -9.603  1.00  0.00    +0.000 C 
ATOM     11  C10 UNL A   1      25.658  24.278  -9.456  1.00  0.00    +0.000 C 
ATOM    139  H35 UNL A   1      27.533  27.329  -9.730  1.00  0.00    +0.000 H 
ATOM    140  H36 UNL A   1      25.794  27.338 -10.128  1.00  0.00    +0.000 H 
ATOM     13  C12 UNL A   1      25.905  25.015  -7.934  1.00  0.00    +0.000 C 
ATOM    137  H33 UNL A   1      27.080  26.802  -7.633  1.00  0.00    +0.000 H 
ATOM    144  H40 UNL A   1      29.900  22.532 -13.184  1.00  0.00    +0.000 H 
ATOM    145  H41 UNL A   1      29.869  21.231 -12.390  1.00  0.00    +0.000 H 
ATOM    138  H34 UNL A   1      25.366  27.083  -8.033  1.00  0.00    +0.000 H 
ATOM     22  C21 UNL A   1      26.248  26.515  -8.244  1.00  0.00    +0.000 C 
ATOM     23  C22 UNL A   1      26.610  26.788  -9.708  1.00  0.00    +0.000 C 
ATOM     24  C23 UNL A   1      26.775  25.516 -10.571  1.00  0.00    +0.000 C 
ATOM     26  C25 UNL A   1      29.796  22.271 -12.152  1.00  0.00    +0.000 C 
ATOM     27  C26 UNL A   1      30.442  23.131 -11.111  1.00  0.00    +0.000 C 
ATOM    108  H4  UNL A   1      31.533  23.719 -12.788  1.00  0.00    +0.000 H 
ATOM    109  H5  UNL A   1      30.905  26.090 -11.188  1.00  0.00    +0.000 H 
ATOM    111  H7  UNL A   1      29.129  24.899 -13.304  1.00  0.00    +0.000 H 
ATOM    112  H8  UNL A   1      28.932  26.501 -12.645  1.00  0.00    +0.000 H 
ATOM    113  H9  UNL A   1      28.882  25.433 -10.367  1.00  0.00    +0.000 H 
ATOM    114  H10 UNL A   1      28.254  21.225  -9.747  1.00  0.00    +0.000 H 
ATOM    115  H11 UNL A   1      27.326  21.182 -11.311  1.00  0.00    +0.000 H 
ATOM    116  H12 UNL A   1      26.084  21.972  -8.605  1.00  0.00    +0.000 H 
ATOM    117  H13 UNL A   1      25.284  22.000 -10.252  1.00  0.00    +0.000 H 
ATOM    121  H17 UNL A   1      25.014  24.721  -7.420  1.00  0.00    +0.000 H 
BRANCH    3    2
ATOM      2  C2  UNL A   1      32.816  24.250 -11.248  1.00  0.00    +0.000 C 
ATOM    107  H3  UNL A   1      32.926  23.942 -10.269  1.00  0.00    +0.000 H 
BRANCH    2    1
ATOM      1  C1  UNL A   1      33.931  24.675 -11.862  1.00  0.00    +0.000 C 
ATOM    106  H2  UNL A   1      34.186  24.300 -12.788  1.00  0.00    +0.000 H 
ATOM    105  H1  UNL A   1      34.534  25.379 -11.407  1.00  0.00    +0.000 H 
ENDBRANCH    2    1
ENDBRANCH    3    2
BRANCH    4    5
ATOM      5  O1  UNL A   1      31.437  26.206 -13.199  1.00  0.00    +0.000 O 
ATOM    110  H6  UNL A   1      32.307  25.801 -13.341  1.00  0.00    +0.000 H 
ENDBRANCH    4    5
BRANCH   11   12
ATOM     12  C11 UNL A   1      24.076  24.195  -9.322  1.00  0.00    +0.000 C 
ATOM    118  H14 UNL A   1      23.820  23.727  -8.395  1.00  0.00    +0.000 H 
ATOM    119  H15 UNL A   1      23.678  23.623 -10.132  1.00  0.00    +0.000 H 
ATOM    120  H16 UNL A   1      23.664  25.183  -9.347  1.00  0.00    +0.000 H 
ENDBRANCH   11   12
BRANCH   13   14
ATOM    122  H18 UNL A   1      26.898  25.294  -6.289  1.00  0.00    +0.000 H 
ATOM     14  C13 UNL A   1      26.419  24.364  -6.514  1.00  0.00    +0.000 C 
BRANCH   14   15
ATOM    123  H19 UNL A   1      28.254  23.269  -6.750  1.00  0.00    +0.000 H 
ATOM    124  H20 UNL A   1      26.920  22.628  -7.679  1.00  0.00    +0.000 H 
ATOM    125  H21 UNL A   1      26.987  22.369  -5.952  1.00  0.00    +0.000 H 
ATOM     15  C14 UNL A   1      27.205  23.058  -6.741  1.00  0.00    +0.000 C 
ENDBRANCH   14   15
BRANCH   14   16
ATOM    126  H22 UNL A   1      25.748  25.289  -4.684  1.00  0.00    +0.000 H 
ATOM    127  H23 UNL A   1      26.233  23.515  -4.598  1.00  0.00    +0.000 H 
ATOM     16  C15 UNL A   1      25.699  24.301  -5.090  1.00  0.00    +0.000 C 
BRANCH   16   17
ATOM     17  C16 UNL A   1      24.220  23.841  -4.942  1.00  0.00    +0.000 C 
ATOM    129  H25 UNL A   1      24.211  22.855  -5.358  1.00  0.00    +0.000 H 
ATOM    128  H24 UNL A   1      23.969  23.919  -3.904  1.00  0.00    +0.000 H 
BRANCH   17   18
ATOM     18  C17 UNL A   1      23.140  24.587  -5.725  1.00  0.00    +0.000 C 
ATOM    130  H26 UNL A   1      22.441  23.989  -6.193  1.00  0.00    +0.000 H 
BRANCH   18   19
ATOM     19  C18 UNL A   1      22.965  25.923  -5.890  1.00  0.00    +0.000 C 
BRANCH   19   20
ATOM    133  H29 UNL A   1      23.524  27.874  -5.275  1.00  0.00    +0.000 H 
ATOM    131  H27 UNL A   1      24.237  26.588  -4.329  1.00  0.00    +0.000 H 
ATOM     20  C19 UNL A   1      23.348  26.920  -4.824  1.00  0.00    +0.000 C 
ATOM    132  H28 UNL A   1      22.554  27.003  -4.111  1.00  0.00    +0.000 H 
ENDBRANCH   19   20
BRANCH   19   21
ATOM     21  C20 UNL A   1      22.331  26.620  -7.059  1.00  0.00    +0.000 C 
ATOM    134  H30 UNL A   1      21.806  25.906  -7.657  1.00  0.00    +0.000 H 
ATOM    135  H31 UNL A   1      23.090  27.090  -7.647  1.00  0.00    +0.000 H 
ATOM    136  H32 UNL A   1      21.645  27.360  -6.702  1.00  0.00    +0.000 H 
ENDBRANCH   19   21
ENDBRANCH   18   19
ENDBRANCH   17   18
ENDBRANCH   16   17
ENDBRANCH   14   16
ENDBRANCH   13   14
BRANCH   24   25
ATOM     25  C24 UNL A   1      26.558  26.160 -12.001  1.00  0.00    +0.000 C 
ATOM    141  H37 UNL A   1      27.348  25.853 -12.653  1.00  0.00    +0.000 H 
ATOM    142  H38 UNL A   1      26.559  27.227 -11.916  1.00  0.00    +0.000 H 
ATOM    143  H39 UNL A   1      25.620  25.834 -12.400  1.00  0.00    +0.000 H 
ENDBRANCH   24   25
ENDBRANCH   28   27
ENDBRANCH   29   28
ENDBRANCH   30   29
ENDBRANCH   32   30
ENDBRANCH   33   32
ENDBRANCH   34   33
ENDBRANCH   35   34
ENDBRANCH   36   35
ENDBRANCH   37   36
ENDBRANCH   38   37
ENDBRANCH   39   38
ENDBRANCH   40   39
ENDBRANCH   42   40
ENDBRANCH   46   45
BRANCH   50   51
ATOM     51  C45 UNL A   1      21.869  29.036  -0.602  1.00  0.00    +0.000 C 
ATOM     52  C46 UNL A   1      22.783  29.540  -1.541  1.00  0.00    +0.000 C 
ATOM     53  F1  UNL A   1      22.540  29.416  -2.855  1.00  0.00    +0.000 F 
ATOM     54  C47 UNL A   1      23.984  30.116  -1.138  1.00  0.00    +0.000 C 
ATOM     55  F2  UNL A   1      24.872  30.522  -2.057  1.00  0.00    +0.000 F 
ATOM     56  C48 UNL A   1      24.275  30.247   0.211  1.00  0.00    +0.000 C 
ATOM     57  F3  UNL A   1      25.430  30.804   0.599  1.00  0.00    +0.000 F 
ATOM     58  C49 UNL A   1      23.370  29.789   1.158  1.00  0.00    +0.000 C 
ATOM     59  F4  UNL A   1      23.645  29.924   2.463  1.00  0.00    +0.000 F 
ATOM     60  C50 UNL A   1      22.186  29.176   0.758  1.00  0.00    +0.000 C 
ATOM     61  F5  UNL A   1      21.350  28.712   1.699  1.00  0.00    +0.000 F 
ENDBRANCH   50   51
BRANCH   67   68
ATOM     68  C56 UNL A   1      14.909  30.580  -1.671  1.00  0.00    +0.000 C 
ATOM     69  C57 UNL A   1      14.367  31.133  -2.839  1.00  0.00    +0.000 C 
ATOM     70  F6  UNL A   1      14.696  30.633  -4.039  1.00  0.00    +0.000 F 
ATOM     71  C58 UNL A   1      13.504  32.221  -2.776  1.00  0.00    +0.000 C 
ATOM     72  F7  UNL A   1      13.026  32.761  -3.906  1.00  0.00    +0.000 F 
ATOM     73  C59 UNL A   1      13.141  32.751  -1.547  1.00  0.00    +0.000 C 
ATOM     74  F8  UNL A   1      12.294  33.790  -1.488  1.00  0.00    +0.000 F 
ATOM     75  C60 UNL A   1      13.654  32.210  -0.379  1.00  0.00    +0.000 C 
ATOM     76  F9  UNL A   1      13.288  32.707   0.810  1.00  0.00    +0.000 F 
ATOM     77  C61 UNL A   1      14.544  31.143  -0.439  1.00  0.00    +0.000 C 
ATOM     78  F10 UNL A   1      15.027  30.638   0.706  1.00  0.00    +0.000 F 
ENDBRANCH   67   68
BRANCH   82   83
ATOM     83  C65 UNL A   1      13.617  23.891  -3.191  1.00  0.00    +0.000 C 
ATOM     84  C66 UNL A   1      13.100  23.939  -4.494  1.00  0.00    +0.000 C 
ATOM     85  F11 UNL A   1      13.706  24.688  -5.426  1.00  0.00    +0.000 F 
ATOM     86  C67 UNL A   1      11.936  23.253  -4.834  1.00  0.00    +0.000 C 
ATOM     87  F12 UNL A   1      11.439  23.356  -6.074  1.00  0.00    +0.000 F 
ATOM     88  C68 UNL A   1      11.283  22.477  -3.889  1.00  0.00    +0.000 C 
ATOM     89  F13 UNL A   1      10.165  21.815  -4.217  1.00  0.00    +0.000 F 
ATOM     90  C69 UNL A   1      11.788  22.394  -2.599  1.00  0.00    +0.000 C 
ATOM     91  F14 UNL A   1      11.169  21.633  -1.687  1.00  0.00    +0.000 F 
ATOM     92  C70 UNL A   1      12.937  23.103  -2.250  1.00  0.00    +0.000 C 
ATOM     93  F15 UNL A   1      13.395  23.014  -0.993  1.00  0.00    +0.000 F 
ENDBRANCH   82   83
TORSDOF 30
ENDMDL
MODEL 2
REMARK VINA RESULT:     -10.3      2.203      4.240
ROOT
ATOM    166  H62 UNL A   1      19.896  31.261  -0.417  1.00  0.00    +0.000 H 
ATOM    167  H63 UNL A   1      17.362  31.798  -0.711  1.00  0.00    +0.000 H 
ATOM    168  H64 UNL A   1      17.925  27.770  -1.470  1.00  0.00    +0.000 H 
ATOM    169  H65 UNL A   1      15.465  22.122  -3.295  1.00  0.00    +0.000 H 
ATOM    170  H66 UNL A   1      17.949  21.631  -3.067  1.00  0.00    +0.000 H 
ATOM    171  H67 UNL A   1      17.359  25.640  -2.150  1.00  0.00    +0.000 H 
ATOM    172  H68 UNL A   1      12.498  26.574  -2.685  1.00  0.00    +0.000 H 
ATOM    173  H69 UNL A   1      13.081  29.023  -2.225  1.00  0.00    +0.000 H 
ATOM     46  C41 UNL A   1      19.527  23.909  -2.383  1.00  0.00    +0.000 C 
ATOM     47  C42 UNL A   1      20.145  25.207  -1.932  1.00  0.00    +0.000 C 
ATOM     48  N3  UNL A   1      19.569  26.329  -1.594  1.00  0.00    +0.000 N 
ATOM    175  H71 UNL A   1      22.304  24.513  -2.069  1.00  0.00    +0.000 H 
ATOM     49  C43 UNL A   1      20.597  27.152  -1.151  1.00  0.00    +0.000 C 
ATOM    174  H70 UNL A   1      22.709  26.677  -0.752  1.00  0.00    +0.000 H 
ATOM     50  C44 UNL A   1      20.542  28.461  -0.818  1.00  0.00    +0.000 C 
ATOM     62  C51 UNL A   1      19.336  29.234  -0.894  1.00  0.00    +0.000 C 
ATOM     63  C52 UNL A   1      19.159  30.585  -0.669  1.00  0.00    +0.000 C 
ATOM     64  C53 UNL A   1      17.803  30.874  -0.844  1.00  0.00    +0.000 C 
ATOM     65  C54 UNL A   1      17.145  29.714  -1.229  1.00  0.00    +0.000 C 
ATOM     66  N4  UNL A   1      18.098  28.713  -1.244  1.00  0.00    +0.000 N 
ATOM     67  C55 UNL A   1      15.754  29.538  -1.558  1.00  0.00    +0.000 C 
ATOM     79  C62 UNL A   1      15.161  28.372  -1.915  1.00  0.00    +0.000 C 
ATOM     80  N5  UNL A   1      15.719  27.111  -2.065  1.00  0.00    +0.000 N 
ATOM     81  C63 UNL A   1      14.733  26.315  -2.407  1.00  0.00    +0.000 C 
ATOM     82  C64 UNL A   1      14.765  24.843  -2.730  1.00  0.00    +0.000 C 
ATOM     94  C71 UNL A   1      15.954  24.213  -2.714  1.00  0.00    +0.000 C 
ATOM     95  C72 UNL A   1      16.190  22.806  -3.029  1.00  0.00    +0.000 C 
ATOM     96  C73 UNL A   1      17.504  22.549  -2.917  1.00  0.00    +0.000 C 
ATOM     97  C74 UNL A   1      18.200  23.782  -2.550  1.00  0.00    +0.000 C 
ATOM     98  N6  UNL A   1      17.200  24.707  -2.423  1.00  0.00    +0.000 N 
ATOM     99  C75 UNL A   1      13.426  26.979  -2.480  1.00  0.00    +0.000 C 
ATOM    100  C76 UNL A   1      13.750  28.238  -2.217  1.00  0.00    +0.000 C 
ATOM    101  C77 UNL A   1      21.811  26.375  -1.163  1.00  0.00    +0.000 C 
ATOM    102  C78 UNL A   1      21.613  25.221  -1.776  1.00  0.00    +0.000 C 
ENDROOT
BRANCH   46   45
ATOM    164  H60 UNL A   1      22.053  20.965  -4.899  1.00  0.00    +0.000 H 
ATOM    165  H61 UNL A   1      20.334  22.678  -4.680  1.00  0.00    +0.000 H 
ATOM    103  C79 UNL A   1      21.020  22.213  -1.415  1.00  0.00    +0.000 C 
ATOM    104  C80 UNL A   1      22.081  21.345  -1.548  1.00  0.00    +0.000 C 
ATOM     42  C37 UNL A   1      22.439  20.882  -2.821  1.00  0.00    +0.000 C 
ATOM     43  C38 UNL A   1      21.795  21.334  -3.970  1.00  0.00    +0.000 C 
ATOM     44  C39 UNL A   1      20.797  22.297  -3.840  1.00  0.00    +0.000 C 
ATOM     45  C40 UNL A   1      20.421  22.749  -2.563  1.00  0.00    +0.000 C 
ATOM    176  H72 UNL A   1      20.670  22.467  -0.479  1.00  0.00    +0.000 H 
ATOM    177  H73 UNL A   1      22.609  21.036  -0.716  1.00  0.00    +0.000 H 
BRANCH   42   40
ATOM     41  O3  UNL A   1      23.084  18.618  -3.034  1.00  0.00    +0.000 O 
ATOM     40  C36 UNL A   1      23.410  19.766  -2.890  1.00  0.00    +0.000 C 
BRANCH   40   39
ATOM    163  H59 UNL A   1      25.135  20.292  -1.891  1.00  0.00    +0.000 H 
ATOM     39  N2  UNL A   1      24.728  20.169  -2.778  1.00  0.00    +0.000 N 
BRANCH   39   38
ATOM    161  H57 UNL A   1      25.657  19.489  -4.502  1.00  0.00    +0.000 H 
ATOM    162  H58 UNL A   1      24.992  21.086  -4.627  1.00  0.00    +0.000 H 
ATOM     38  C35 UNL A   1      25.504  20.409  -3.976  1.00  0.00    +0.000 C 
BRANCH   38   37
ATOM     37  C34 UNL A   1      26.832  20.985  -3.553  1.00  0.00    +0.000 C 
ATOM    159  H55 UNL A   1      26.826  21.103  -2.490  1.00  0.00    +0.000 H 
ATOM    160  H56 UNL A   1      27.589  20.304  -3.883  1.00  0.00    +0.000 H 
BRANCH   37   36
ATOM     36  C33 UNL A   1      27.154  22.385  -4.208  1.00  0.00    +0.000 C 
ATOM    157  H53 UNL A   1      27.589  22.976  -3.430  1.00  0.00    +0.000 H 
ATOM    158  H54 UNL A   1      27.732  22.081  -5.057  1.00  0.00    +0.000 H 
BRANCH   36   35
ATOM     35  C32 UNL A   1      26.016  23.362  -4.936  1.00  0.00    +0.000 C 
ATOM    156  H52 UNL A   1      25.702  22.628  -5.649  1.00  0.00    +0.000 H 
ATOM    155  H51 UNL A   1      26.537  24.288  -5.056  1.00  0.00    +0.000 H 
BRANCH   35   34
ATOM    153  H49 UNL A   1      23.743  23.026  -4.717  1.00  0.00    +0.000 H 
ATOM     34  C31 UNL A   1      24.312  23.906  -4.503  1.00  0.00    +0.000 C 
ATOM    154  H50 UNL A   1      24.641  24.420  -3.624  1.00  0.00    +0.000 H 
BRANCH   34   33
ATOM     33  C30 UNL A   1      22.950  25.425  -5.011  1.00  0.00    +0.000 C 
ATOM    151  H47 UNL A   1      22.013  24.911  -4.957  1.00  0.00    +0.000 H 
ATOM    152  H48 UNL A   1      23.443  26.160  -4.410  1.00  0.00    +0.000 H 
BRANCH   33   32
ATOM    150  H46 UNL A   1      21.971  26.114  -6.747  1.00  0.00    +0.000 H 
ATOM     32  N1  UNL A   1      22.713  26.390  -6.162  1.00  0.00    +0.000 N 
BRANCH   32   30
ATOM     30  C29 UNL A   1      23.297  27.547  -6.565  1.00  0.00    +0.000 C 
ATOM     31  O2  UNL A   1      23.699  28.274  -5.646  1.00  0.00    +0.000 O 
BRANCH   30   29
ATOM    149  H45 UNL A   1      23.896  28.972  -7.844  1.00  0.00    +0.000 H 
ATOM    148  H44 UNL A   1      22.596  27.797  -8.503  1.00  0.00    +0.000 H 
ATOM     29  C28 UNL A   1      23.522  27.982  -8.002  1.00  0.00    +0.000 C 
BRANCH   29   28
ATOM    146  H42 UNL A   1      24.536  27.965  -9.860  1.00  0.00    +0.000 H 
ATOM    147  H43 UNL A   1      25.523  27.562  -8.401  1.00  0.00    +0.000 H 
ATOM     28  C27 UNL A   1      24.606  27.430  -8.937  1.00  0.00    +0.000 C 
BRANCH   28   27
ATOM      3  C3  UNL A   1      25.723  25.094  -8.636  1.00  0.00    +0.000 C 
ATOM      4  C4  UNL A   1      26.670  24.432  -9.667  1.00  0.00    +0.000 C 
ATOM      6  C5  UNL A   1      25.983  24.003 -10.964  1.00  0.00    +0.000 C 
ATOM      7  C6  UNL A   1      25.381  25.266 -11.661  1.00  0.00    +0.000 C 
ATOM      8  C7  UNL A   1      23.845  25.689 -10.660  1.00  0.00    +0.000 C 
ATOM      9  C8  UNL A   1      22.364  26.698 -11.397  1.00  0.00    +0.000 C 
ATOM     10  C9  UNL A   1      22.444  27.271 -13.252  1.00  0.00    +0.000 C 
ATOM     11  C10 UNL A   1      24.043  26.909 -14.338  1.00  0.00    +0.000 C 
ATOM    139  H35 UNL A   1      27.466  26.040 -13.681  1.00  0.00    +0.000 H 
ATOM    140  H36 UNL A   1      26.715  25.519 -15.213  1.00  0.00    +0.000 H 
ATOM     13  C12 UNL A   1      25.103  28.218 -14.632  1.00  0.00    +0.000 C 
ATOM    137  H33 UNL A   1      27.228  28.160 -14.253  1.00  0.00    +0.000 H 
ATOM    144  H40 UNL A   1      23.399  24.065  -9.196  1.00  0.00    +0.000 H 
ATOM    145  H41 UNL A   1      22.375  25.150  -8.884  1.00  0.00    +0.000 H 
ATOM    138  H34 UNL A   1      26.730  27.572 -15.860  1.00  0.00    +0.000 H 
ATOM     22  C21 UNL A   1      26.525  27.577 -14.810  1.00  0.00    +0.000 C 
ATOM     23  C22 UNL A   1      26.622  26.123 -14.334  1.00  0.00    +0.000 C 
ATOM     24  C23 UNL A   1      25.373  25.614 -13.578  1.00  0.00    +0.000 C 
ATOM     26  C25 UNL A   1      23.328  25.119  -9.368  1.00  0.00    +0.000 C 
ATOM     27  C26 UNL A   1      24.558  25.964  -9.261  1.00  0.00    +0.000 C 
ATOM    108  H4  UNL A   1      25.183  24.283  -8.195  1.00  0.00    +0.000 H 
ATOM    109  H5  UNL A   1      27.384  25.197  -9.897  1.00  0.00    +0.000 H 
ATOM    111  H7  UNL A   1      25.201  23.308 -10.743  1.00  0.00    +0.000 H 
ATOM    112  H8  UNL A   1      26.694  23.536 -11.614  1.00  0.00    +0.000 H 
ATOM    113  H9  UNL A   1      26.164  25.995 -11.650  1.00  0.00    +0.000 H 
ATOM    114  H10 UNL A   1      22.258  27.581 -10.801  1.00  0.00    +0.000 H 
ATOM    115  H11 UNL A   1      21.547  26.007 -11.377  1.00  0.00    +0.000 H 
ATOM    116  H12 UNL A   1      22.306  28.332 -13.252  1.00  0.00    +0.000 H 
ATOM    117  H13 UNL A   1      21.692  26.671 -13.722  1.00  0.00    +0.000 H 
ATOM    121  H17 UNL A   1      24.591  28.718 -15.427  1.00  0.00    +0.000 H 
BRANCH    3    2
ATOM      2  C2  UNL A   1      26.466  25.739  -7.467  1.00  0.00    +0.000 C 
ATOM    107  H3  UNL A   1      25.891  26.298  -6.817  1.00  0.00    +0.000 H 
BRANCH    2    1
ATOM      1  C1  UNL A   1      27.777  25.667  -7.184  1.00  0.00    +0.000 C 
ATOM    106  H2  UNL A   1      28.441  26.306  -7.645  1.00  0.00    +0.000 H 
ATOM    105  H1  UNL A   1      28.119  24.972  -6.502  1.00  0.00    +0.000 H 
ENDBRANCH    2    1
ENDBRANCH    3    2
BRANCH    4    5
ATOM      5  O1  UNL A   1      27.300  23.267  -9.118  1.00  0.00    +0.000 O 
ATOM    110  H6  UNL A   1      27.142  22.508  -9.702  1.00  0.00    +0.000 H 
ENDBRANCH    4    5
BRANCH   11   12
ATOM     12  C11 UNL A   1      23.376  26.937 -15.781  1.00  0.00    +0.000 C 
ATOM    118  H14 UNL A   1      23.730  26.105 -16.354  1.00  0.00    +0.000 H 
ATOM    119  H15 UNL A   1      23.635  27.848 -16.277  1.00  0.00    +0.000 H 
ATOM    120  H16 UNL A   1      22.312  26.874 -15.683  1.00  0.00    +0.000 H 
ENDBRANCH   11   12
BRANCH   13   14
ATOM    122  H18 UNL A   1      23.934  29.710 -14.209  1.00  0.00    +0.000 H 
ATOM     14  C13 UNL A   1      24.999  29.790 -14.159  1.00  0.00    +0.000 C 
BRANCH   14   15
ATOM    123  H19 UNL A   1      25.144  31.202 -15.774  1.00  0.00    +0.000 H 
ATOM    124  H20 UNL A   1      26.523  30.138 -15.635  1.00  0.00    +0.000 H 
ATOM    125  H21 UNL A   1      26.317  31.453 -14.504  1.00  0.00    +0.000 H 
ATOM     15  C14 UNL A   1      25.807  30.716 -15.089  1.00  0.00    +0.000 C 
ENDBRANCH   14   15
BRANCH   14   16
ATOM    126  H22 UNL A   1      25.647  29.856 -12.102  1.00  0.00    +0.000 H 
ATOM    127  H23 UNL A   1      23.919  30.384 -12.455  1.00  0.00    +0.000 H 
ATOM     16  C15 UNL A   1      24.961  30.424 -12.694  1.00  0.00    +0.000 C 
BRANCH   16   17
ATOM     17  C16 UNL A   1      25.302  31.921 -12.442  1.00  0.00    +0.000 C 
ATOM    129  H25 UNL A   1      26.340  31.912 -12.181  1.00  0.00    +0.000 H 
ATOM    128  H24 UNL A   1      25.043  32.457 -13.333  1.00  0.00    +0.000 H 
BRANCH   17   18
ATOM     18  C17 UNL A   1      24.629  32.639 -11.273  1.00  0.00    +0.000 C 
ATOM    130  H26 UNL A   1      23.826  33.237 -11.525  1.00  0.00    +0.000 H 
BRANCH   18   19
ATOM     19  C18 UNL A   1      24.934  32.602  -9.951  1.00  0.00    +0.000 C 
BRANCH   19   20
ATOM    133  H29 UNL A   1      25.331  31.234  -8.379  1.00  0.00    +0.000 H 
ATOM    131  H27 UNL A   1      26.753  31.775  -9.240  1.00  0.00    +0.000 H 
ATOM     20  C19 UNL A   1      25.730  31.474  -9.343  1.00  0.00    +0.000 C 
ATOM    132  H28 UNL A   1      25.673  30.614  -9.977  1.00  0.00    +0.000 H 
ENDBRANCH   19   20
BRANCH   19   21
ATOM     21  C20 UNL A   1      24.504  33.574  -8.891  1.00  0.00    +0.000 C 
ATOM    134  H30 UNL A   1      25.365  33.941  -8.374  1.00  0.00    +0.000 H 
ATOM    135  H31 UNL A   1      23.855  33.081  -8.198  1.00  0.00    +0.000 H 
ATOM    136  H32 UNL A   1      23.986  34.392  -9.346  1.00  0.00    +0.000 H 
ENDBRANCH   19   21
ENDBRANCH   18   19
ENDBRANCH   17   18
ENDBRANCH   16   17
ENDBRANCH   14   16
ENDBRANCH   13   14
BRANCH   24   25
ATOM     25  C24 UNL A   1      25.585  24.058 -13.773  1.00  0.00    +0.000 C 
ATOM    141  H37 UNL A   1      26.321  23.708 -13.080  1.00  0.00    +0.000 H 
ATOM    142  H38 UNL A   1      25.916  23.865 -14.773  1.00  0.00    +0.000 H 
ATOM    143  H39 UNL A   1      24.660  23.548 -13.599  1.00  0.00    +0.000 H 
ENDBRANCH   24   25
ENDBRANCH   28   27
ENDBRANCH   29   28
ENDBRANCH   30   29
ENDBRANCH   32   30
ENDBRANCH   33   32
ENDBRANCH   34   33
ENDBRANCH   35   34
ENDBRANCH   36   35
ENDBRANCH   37   36
ENDBRANCH   38   37
ENDBRANCH   39   38
ENDBRANCH   40   39
ENDBRANCH   42   40
ENDBRANCH   46   45
BRANCH   50   51
ATOM     51  C45 UNL A   1      21.816  29.121  -0.378  1.00  0.00    +0.000 C 
ATOM     52  C46 UNL A   1      22.752  29.617  -1.302  1.00  0.00    +0.000 C 
ATOM     53  F1  UNL A   1      22.526  29.502  -2.620  1.00  0.00    +0.000 F 
ATOM     54  C47 UNL A   1      23.955  30.174  -0.879  1.00  0.00    +0.000 C 
ATOM     55  F2  UNL A   1      24.862  30.571  -1.783  1.00  0.00    +0.000 F 
ATOM     56  C48 UNL A   1      24.227  30.294   0.475  1.00  0.00    +0.000 C 
ATOM     57  F3  UNL A   1      25.385  30.833   0.882  1.00  0.00    +0.000 F 
ATOM     58  C49 UNL A   1      23.303  29.845   1.407  1.00  0.00    +0.000 C 
ATOM     59  F4  UNL A   1      23.561  29.969   2.716  1.00  0.00    +0.000 F 
ATOM     60  C50 UNL A   1      22.116  29.251   0.986  1.00  0.00    +0.000 C 
ATOM     61  F5  UNL A   1      21.260  28.794   1.913  1.00  0.00    +0.000 F 
ENDBRANCH   50   51
BRANCH   67   68
ATOM     68  C56 UNL A   1      14.890  30.763  -1.514  1.00  0.00    +0.000 C 
ATOM     69  C57 UNL A   1      14.350  31.320  -2.681  1.00  0.00    +0.000 C 
ATOM     70  F6  UNL A   1      14.668  30.814  -3.881  1.00  0.00    +0.000 F 
ATOM     71  C58 UNL A   1      13.500  32.419  -2.616  1.00  0.00    +0.000 C 
ATOM     72  F7  UNL A   1      13.024  32.963  -3.745  1.00  0.00    +0.000 F 
ATOM     73  C59 UNL A   1      13.148  32.956  -1.386  1.00  0.00    +0.000 C 
ATOM     74  F8  UNL A   1      12.315  34.004  -1.325  1.00  0.00    +0.000 F 
ATOM     75  C60 UNL A   1      13.660  32.410  -0.219  1.00  0.00    +0.000 C 
ATOM     76  F9  UNL A   1      13.305  32.914   0.971  1.00  0.00    +0.000 F 
ATOM     77  C61 UNL A   1      14.537  31.332  -0.281  1.00  0.00    +0.000 C 
ATOM     78  F10 UNL A   1      15.019  30.824   0.862  1.00  0.00    +0.000 F 
ENDBRANCH   67   68
BRANCH   82   83
ATOM     83  C65 UNL A   1      13.533  24.105  -3.115  1.00  0.00    +0.000 C 
ATOM     84  C66 UNL A   1      13.024  24.185  -4.419  1.00  0.00    +0.000 C 
ATOM     85  F11 UNL A   1      13.642  24.947  -5.333  1.00  0.00    +0.000 F 
ATOM     86  C67 UNL A   1      11.855  23.517  -4.780  1.00  0.00    +0.000 C 
ATOM     87  F12 UNL A   1      11.366  23.649  -6.020  1.00  0.00    +0.000 F 
ATOM     88  C68 UNL A   1      11.190  22.728  -3.854  1.00  0.00    +0.000 C 
ATOM     89  F13 UNL A   1      10.068  22.084  -4.201  1.00  0.00    +0.000 F 
ATOM     90  C69 UNL A   1      11.687  22.615  -2.564  1.00  0.00    +0.000 C 
ATOM     91  F14 UNL A   1      11.056  21.841  -1.670  1.00  0.00    +0.000 F 
ATOM     92  C70 UNL A   1      12.840  23.306  -2.194  1.00  0.00    +0.000 C 
ATOM     93  F15 UNL A   1      13.290  23.187  -0.937  1.00  0.00    +0.000 F 
ENDBRANCH   82   83
TORSDOF 30
ENDMDL
MODEL 3
REMARK VINA RESULT:     -10.1     37.084     43.771
ROOT
ATOM    166  H62 UNL A   1      38.130  30.028  27.147  1.00  0.00    +0.000 H 
ATOM    167  H63 UNL A   1      40.019  28.302  26.654  1.00  0.00    +0.000 H 
ATOM    168  H64 UNL A   1      40.211  29.315  30.661  1.00  0.00    +0.000 H 
ATOM    169  H65 UNL A   1      43.189  28.790  36.330  1.00  0.00    +0.000 H 
ATOM    170  H66 UNL A   1      41.381  30.521  36.778  1.00  0.00    +0.000 H 
ATOM    171  H67 UNL A   1      41.089  29.384  32.792  1.00  0.00    +0.000 H 
ATOM    172  H68 UNL A   1      44.693  26.055  31.942  1.00  0.00    +0.000 H 
ATOM    173  H69 UNL A   1      43.970  26.137  29.488  1.00  0.00    +0.000 H 
ATOM     46  C41 UNL A   1      39.834  31.208  34.479  1.00  0.00    +0.000 C 
ATOM     47  C42 UNL A   1      39.091  31.347  33.176  1.00  0.00    +0.000 C 
ATOM     48  N3  UNL A   1      39.218  30.666  32.069  1.00  0.00    +0.000 N 
ATOM    175  H71 UNL A   1      37.772  33.078  33.828  1.00  0.00    +0.000 H 
ATOM     49  C43 UNL A   1      38.211  31.130  31.233  1.00  0.00    +0.000 C 
ATOM    174  H70 UNL A   1      36.520  32.468  31.674  1.00  0.00    +0.000 H 
ATOM     50  C44 UNL A   1      38.000  30.840  29.929  1.00  0.00    +0.000 C 
ATOM     62  C51 UNL A   1      38.853  29.965  29.178  1.00  0.00    +0.000 C 
ATOM     63  C52 UNL A   1      38.803  29.654  27.833  1.00  0.00    +0.000 C 
ATOM     64  C53 UNL A   1      39.828  28.742  27.567  1.00  0.00    +0.000 C 
ATOM     65  C54 UNL A   1      40.547  28.526  28.735  1.00  0.00    +0.000 C 
ATOM     66  N4  UNL A   1      39.929  29.275  29.718  1.00  0.00    +0.000 N 
ATOM     67  C55 UNL A   1      41.710  27.698  28.932  1.00  0.00    +0.000 C 
ATOM     79  C62 UNL A   1      42.366  27.513  30.105  1.00  0.00    +0.000 C 
ATOM     80  N5  UNL A   1      42.109  28.060  31.353  1.00  0.00    +0.000 N 
ATOM     81  C63 UNL A   1      43.013  27.560  32.163  1.00  0.00    +0.000 C 
ATOM     82  C64 UNL A   1      43.231  27.830  33.630  1.00  0.00    +0.000 C 
ATOM     94  C71 UNL A   1      42.435  28.729  34.238  1.00  0.00    +0.000 C 
ATOM     95  C72 UNL A   1      42.513  29.145  35.636  1.00  0.00    +0.000 C 
ATOM     96  C73 UNL A   1      41.564  30.067  35.870  1.00  0.00    +0.000 C 
ATOM     97  C74 UNL A   1      40.832  30.321  34.629  1.00  0.00    +0.000 C 
ATOM     98  N6  UNL A   1      41.398  29.464  33.724  1.00  0.00    +0.000 N 
ATOM     99  C75 UNL A   1      43.930  26.610  31.522  1.00  0.00    +0.000 C 
ATOM    100  C76 UNL A   1      43.521  26.653  30.261  1.00  0.00    +0.000 C 
ATOM    101  C77 UNL A   1      37.419  32.070  31.987  1.00  0.00    +0.000 C 
ATOM    102  C78 UNL A   1      38.008  32.349  33.137  1.00  0.00    +0.000 C 
ENDROOT
BRANCH   46   45
ATOM    164  H60 UNL A   1      37.342  31.986  38.295  1.00  0.00    +0.000 H 
ATOM    165  H61 UNL A   1      37.823  30.734  36.260  1.00  0.00    +0.000 H 
ATOM    103  C79 UNL A   1      40.102  33.190  35.909  1.00  0.00    +0.000 C 
ATOM    104  C80 UNL A   1      39.919  33.817  37.122  1.00  0.00    +0.000 C 
ATOM     42  C37 UNL A   1      38.899  33.382  37.977  1.00  0.00    +0.000 C 
ATOM     43  C38 UNL A   1      38.107  32.279  37.667  1.00  0.00    +0.000 C 
ATOM     44  C39 UNL A   1      38.370  31.579  36.492  1.00  0.00    +0.000 C 
ATOM     45  C40 UNL A   1      39.378  32.025  35.621  1.00  0.00    +0.000 C 
ATOM    176  H72 UNL A   1      40.767  33.573  35.220  1.00  0.00    +0.000 H 
ATOM    177  H73 UNL A   1      40.528  34.603  37.399  1.00  0.00    +0.000 H 
BRANCH   42   40
ATOM     41  O3  UNL A   1      37.966  33.845  40.099  1.00  0.00    +0.000 O 
ATOM     40  C36 UNL A   1      38.578  34.238  39.142  1.00  0.00    +0.000 C 
BRANCH   40   39
ATOM    163  H59 UNL A   1      39.405  35.856  38.169  1.00  0.00    +0.000 H 
ATOM     39  N2  UNL A   1      39.053  35.531  39.028  1.00  0.00    +0.000 N 
BRANCH   39   38
ATOM    161  H57 UNL A   1      38.317  36.044  40.897  1.00  0.00    +0.000 H 
ATOM    162  H58 UNL A   1      39.990  36.431  40.654  1.00  0.00    +0.000 H 
ATOM     38  C35 UNL A   1      39.030  36.403  40.184  1.00  0.00    +0.000 C 
BRANCH   38   37
ATOM     37  C34 UNL A   1      38.633  37.779  39.710  1.00  0.00    +0.000 C 
ATOM    159  H55 UNL A   1      38.791  37.832  38.653  1.00  0.00    +0.000 H 
ATOM    160  H56 UNL A   1      37.606  37.918  39.977  1.00  0.00    +0.000 H 
BRANCH   37   36
ATOM     36  C33 UNL A   1      39.448  38.945  40.394  1.00  0.00    +0.000 C 
ATOM    157  H53 UNL A   1      39.195  39.832  39.853  1.00  0.00    +0.000 H 
ATOM    158  H54 UNL A   1      39.157  38.821  41.417  1.00  0.00    +0.000 H 
BRANCH   36   35
ATOM     35  C32 UNL A   1      41.109  38.964  40.541  1.00  0.00    +0.000 C 
ATOM    156  H52 UNL A   1      41.129  38.437  41.472  1.00  0.00    +0.000 H 
ATOM    155  H51 UNL A   1      41.359  39.975  40.295  1.00  0.00    +0.000 H 
BRANCH   35   34
ATOM    153  H49 UNL A   1      43.235  38.065  40.545  1.00  0.00    +0.000 H 
ATOM     34  C31 UNL A   1      42.486  38.008  39.783  1.00  0.00    +0.000 C 
ATOM    154  H50 UNL A   1      41.827  37.257  39.401  1.00  0.00    +0.000 H 
BRANCH   34   33
ATOM     33  C30 UNL A   1      43.658  38.018  38.037  1.00  0.00    +0.000 C 
ATOM    151  H47 UNL A   1      44.465  37.369  38.307  1.00  0.00    +0.000 H 
ATOM    152  H48 UNL A   1      42.811  37.940  37.388  1.00  0.00    +0.000 H 
BRANCH   33   32
ATOM    150  H46 UNL A   1      44.646  39.840  37.648  1.00  0.00    +0.000 H 
ATOM     32  N1  UNL A   1      44.358  39.039  37.153  1.00  0.00    +0.000 N 
BRANCH   32   30
ATOM     30  C29 UNL A   1      44.674  39.094  35.835  1.00  0.00    +0.000 C 
ATOM     31  O2  UNL A   1      45.375  40.061  35.508  1.00  0.00    +0.000 O 
BRANCH   30   29
ATOM    149  H45 UNL A   1      43.545  37.517  35.318  1.00  0.00    +0.000 H 
ATOM    148  H44 UNL A   1      45.200  37.639  34.450  1.00  0.00    +0.000 H 
ATOM     29  C28 UNL A   1      44.281  38.077  34.778  1.00  0.00    +0.000 C 
BRANCH   29   28
ATOM    146  H42 UNL A   1      43.242  37.452  33.043  1.00  0.00    +0.000 H 
ATOM    147  H43 UNL A   1      42.668  38.980  33.820  1.00  0.00    +0.000 H 
ATOM     28  C27 UNL A   1      43.498  38.386  33.496  1.00  0.00    +0.000 C 
BRANCH   28   27
ATOM      3  C3  UNL A   1      43.576  40.667  32.235  1.00  0.00    +0.000 C 
ATOM      4  C4  UNL A   1      42.970  40.918  30.833  1.00  0.00    +0.000 C 
ATOM      6  C5  UNL A   1      43.699  40.197  29.698  1.00  0.00    +0.000 C 
ATOM      7  C6  UNL A   1      43.624  38.656  29.945  1.00  0.00    +0.000 C 
ATOM      8  C7  UNL A   1      44.859  38.322  31.324  1.00  0.00    +0.000 C 
ATOM      9  C8  UNL A   1      45.679  36.587  31.595  1.00  0.00    +0.000 C 
ATOM     10  C9  UNL A   1      45.239  35.137  30.378  1.00  0.00    +0.000 C 
ATOM     11  C10 UNL A   1      43.914  35.403  28.948  1.00  0.00    +0.000 C 
ATOM    139  H35 UNL A   1      41.299  37.767  28.263  1.00  0.00    +0.000 H 
ATOM    140  H36 UNL A   1      42.112  36.950  26.901  1.00  0.00    +0.000 H 
ATOM     13  C12 UNL A   1      42.363  34.725  29.183  1.00  0.00    +0.000 C 
ATOM    137  H33 UNL A   1      40.519  35.833  28.994  1.00  0.00    +0.000 H 
ATOM    144  H40 UNL A   1      46.076  40.147  31.735  1.00  0.00    +0.000 H 
ATOM    145  H41 UNL A   1      46.517  39.147  32.799  1.00  0.00    +0.000 H 
ATOM    138  H34 UNL A   1      41.132  35.122  27.479  1.00  0.00    +0.000 H 
ATOM     22  C21 UNL A   1      41.376  35.645  28.381  1.00  0.00    +0.000 C 
ATOM     23  C22 UNL A   1      41.973  36.993  27.962  1.00  0.00    +0.000 C 
ATOM     24  C23 UNL A   1      43.360  37.294  28.576  1.00  0.00    +0.000 C 
ATOM     26  C25 UNL A   1      45.654  39.269  32.180  1.00  0.00    +0.000 C 
ATOM     27  C26 UNL A   1      44.183  39.222  32.453  1.00  0.00    +0.000 C 
ATOM    108  H4  UNL A   1      44.449  41.283  32.275  1.00  0.00    +0.000 H 
ATOM    109  H5  UNL A   1      41.976  40.525  30.902  1.00  0.00    +0.000 H 
ATOM    111  H7  UNL A   1      44.722  40.507  29.674  1.00  0.00    +0.000 H 
ATOM    112  H8  UNL A   1      43.239  40.436  28.761  1.00  0.00    +0.000 H 
ATOM    113  H9  UNL A   1      42.598  38.456  30.175  1.00  0.00    +0.000 H 
ATOM    114  H10 UNL A   1      45.410  36.263  32.578  1.00  0.00    +0.000 H 
ATOM    115  H11 UNL A   1      46.719  36.764  31.417  1.00  0.00    +0.000 H 
ATOM    116  H12 UNL A   1      44.883  34.328  30.980  1.00  0.00    +0.000 H 
ATOM    117  H13 UNL A   1      46.151  34.991  29.837  1.00  0.00    +0.000 H 
ATOM    121  H17 UNL A   1      42.546  33.705  28.919  1.00  0.00    +0.000 H 
BRANCH    3    2
ATOM      2  C2  UNL A   1      42.692  41.182  33.371  1.00  0.00    +0.000 C 
ATOM    107  H3  UNL A   1      41.840  40.633  33.567  1.00  0.00    +0.000 H 
BRANCH    2    1
ATOM      1  C1  UNL A   1      42.890  42.261  34.144  1.00  0.00    +0.000 C 
ATOM    106  H2  UNL A   1      42.670  42.222  35.151  1.00  0.00    +0.000 H 
ATOM    105  H1  UNL A   1      43.265  43.130  33.732  1.00  0.00    +0.000 H 
ENDBRANCH    2    1
ENDBRANCH    3    2
BRANCH    4    5
ATOM      5  O1  UNL A   1      42.968  42.315  30.512  1.00  0.00    +0.000 O 
ATOM    110  H6  UNL A   1      43.606  42.778  31.078  1.00  0.00    +0.000 H 
ENDBRANCH    4    5
BRANCH   11   12
ATOM     12  C11 UNL A   1      44.410  34.281  27.937  1.00  0.00    +0.000 C 
ATOM    118  H14 UNL A   1      44.377  33.326  28.418  1.00  0.00    +0.000 H 
ATOM    119  H15 UNL A   1      45.413  34.493  27.633  1.00  0.00    +0.000 H 
ATOM    120  H16 UNL A   1      43.772  34.268  27.078  1.00  0.00    +0.000 H 
ENDBRANCH   11   12
BRANCH   13   14
ATOM    122  H18 UNL A   1      42.597  34.177  31.031  1.00  0.00    +0.000 H 
ATOM     14  C13 UNL A   1      41.773  33.840  30.438  1.00  0.00    +0.000 C 
BRANCH   14   15
ATOM    123  H19 UNL A   1      42.279  31.756  30.585  1.00  0.00    +0.000 H 
ATOM    124  H20 UNL A   1      41.740  32.246  28.996  1.00  0.00    +0.000 H 
ATOM    125  H21 UNL A   1      40.583  32.057  30.292  1.00  0.00    +0.000 H 
ATOM     15  C14 UNL A   1      41.579  32.362  30.048  1.00  0.00    +0.000 C 
ENDBRANCH   14   15
BRANCH   14   16
ATOM    126  H22 UNL A   1      40.110  33.357  31.726  1.00  0.00    +0.000 H 
ATOM    127  H23 UNL A   1      40.242  35.099  31.144  1.00  0.00    +0.000 H 
ATOM     16  C15 UNL A   1      40.706  34.230  31.561  1.00  0.00    +0.000 C 
BRANCH   16   17
ATOM     17  C16 UNL A   1      41.146  34.731  32.967  1.00  0.00    +0.000 C 
ATOM    129  H25 UNL A   1      40.882  35.768  32.969  1.00  0.00    +0.000 H 
ATOM    128  H24 UNL A   1      40.650  34.115  33.689  1.00  0.00    +0.000 H 
BRANCH   17   18
ATOM     18  C17 UNL A   1      42.634  34.724  33.315  1.00  0.00    +0.000 C 
ATOM    130  H26 UNL A   1      43.229  35.324  32.722  1.00  0.00    +0.000 H 
BRANCH   18   19
ATOM     19  C18 UNL A   1      43.286  34.042  34.291  1.00  0.00    +0.000 C 
BRANCH   19   20
ATOM    133  H29 UNL A   1      43.213  32.163  33.309  1.00  0.00    +0.000 H 
ATOM    131  H27 UNL A   1      43.646  32.076  35.001  1.00  0.00    +0.000 H 
ATOM     20  C19 UNL A   1      43.775  32.628  34.093  1.00  0.00    +0.000 C 
ATOM    132  H28 UNL A   1      44.812  32.643  33.828  1.00  0.00    +0.000 H 
ENDBRANCH   19   20
BRANCH   19   21
ATOM     21  C20 UNL A   1      43.563  34.503  35.692  1.00  0.00    +0.000 C 
ATOM    134  H30 UNL A   1      43.663  35.568  35.704  1.00  0.00    +0.000 H 
ATOM    135  H31 UNL A   1      44.470  34.055  36.041  1.00  0.00    +0.000 H 
ATOM    136  H32 UNL A   1      42.753  34.214  36.329  1.00  0.00    +0.000 H 
ENDBRANCH   19   21
ENDBRANCH   18   19
ENDBRANCH   17   18
ENDBRANCH   16   17
ENDBRANCH   14   16
ENDBRANCH   13   14
BRANCH   24   25
ATOM     25  C24 UNL A   1      43.862  38.371  27.531  1.00  0.00    +0.000 C 
ATOM    141  H37 UNL A   1      43.529  38.101  26.552  1.00  0.00    +0.000 H 
ATOM    142  H38 UNL A   1      44.932  38.411  27.546  1.00  0.00    +0.000 H 
ATOM    143  H39 UNL A   1      43.466  39.331  27.790  1.00  0.00    +0.000 H 
ENDBRANCH   24   25
ENDBRANCH   28   27
ENDBRANCH   29   28
ENDBRANCH   30   29
ENDBRANCH   32   30
ENDBRANCH   33   32
ENDBRANCH   34   33
ENDBRANCH   35   34
ENDBRANCH   36   35
ENDBRANCH   37   36
ENDBRANCH   38   37
ENDBRANCH   39   38
ENDBRANCH   40   39
ENDBRANCH   42   40
ENDBRANCH   46   45
BRANCH   50   51
ATOM     51  C45 UNL A   1      36.832  31.496  29.251  1.00  0.00    +0.000 C 
ATOM     52  C46 UNL A   1      36.821  32.869  28.957  1.00  0.00    +0.000 C 
ATOM     53  F1  UNL A   1      37.869  33.639  29.287  1.00  0.00    +0.000 F 
ATOM     54  C47 UNL A   1      35.707  33.473  28.380  1.00  0.00    +0.000 C 
ATOM     55  F2  UNL A   1      35.694  34.798  28.178  1.00  0.00    +0.000 F 
ATOM     56  C48 UNL A   1      34.601  32.709  28.040  1.00  0.00    +0.000 C 
ATOM     57  F3  UNL A   1      33.530  33.290  27.482  1.00  0.00    +0.000 F 
ATOM     58  C49 UNL A   1      34.602  31.344  28.288  1.00  0.00    +0.000 C 
ATOM     59  F4  UNL A   1      33.538  30.604  27.951  1.00  0.00    +0.000 F 
ATOM     60  C50 UNL A   1      35.700  30.744  28.901  1.00  0.00    +0.000 C 
ATOM     61  F5  UNL A   1      35.654  29.429  29.160  1.00  0.00    +0.000 F 
ENDBRANCH   50   51
BRANCH   67   68
ATOM     68  C56 UNL A   1      42.249  26.992  27.725  1.00  0.00    +0.000 C 
ATOM     69  C57 UNL A   1      43.206  27.589  26.893  1.00  0.00    +0.000 C 
ATOM     70  F6  UNL A   1      43.600  28.851  27.114  1.00  0.00    +0.000 F 
ATOM     71  C58 UNL A   1      43.740  26.895  25.813  1.00  0.00    +0.000 C 
ATOM     72  F7  UNL A   1      44.626  27.496  25.005  1.00  0.00    +0.000 F 
ATOM     73  C59 UNL A   1      43.356  25.585  25.567  1.00  0.00    +0.000 C 
ATOM     74  F8  UNL A   1      43.886  24.912  24.536  1.00  0.00    +0.000 F 
ATOM     75  C60 UNL A   1      42.421  24.972  26.387  1.00  0.00    +0.000 C 
ATOM     76  F9  UNL A   1      42.064  23.699  26.164  1.00  0.00    +0.000 F 
ATOM     77  C61 UNL A   1      41.859  25.673  27.448  1.00  0.00    +0.000 C 
ATOM     78  F10 UNL A   1      40.956  25.056  28.224  1.00  0.00    +0.000 F 
ENDBRANCH   67   68
BRANCH   82   83
ATOM     83  C65 UNL A   1      44.330  27.172  34.385  1.00  0.00    +0.000 C 
ATOM     84  C66 UNL A   1      45.594  27.771  34.486  1.00  0.00    +0.000 C 
ATOM     85  F11 UNL A   1      45.827  28.946  33.883  1.00  0.00    +0.000 F 
ATOM     86  C67 UNL A   1      46.635  27.148  35.171  1.00  0.00    +0.000 C 
ATOM     87  F12 UNL A   1      47.845  27.721  35.210  1.00  0.00    +0.000 F 
ATOM     88  C68 UNL A   1      46.425  25.929  35.798  1.00  0.00    +0.000 C 
ATOM     89  F13 UNL A   1      47.426  25.331  36.458  1.00  0.00    +0.000 F 
ATOM     90  C69 UNL A   1      45.177  25.328  35.732  1.00  0.00    +0.000 C 
ATOM     91  F14 UNL A   1      44.966  24.158  36.349  1.00  0.00    +0.000 F 
ATOM     92  C70 UNL A   1      44.143  25.937  35.023  1.00  0.00    +0.000 C 
ATOM     93  F15 UNL A   1      42.950  25.326  34.966  1.00  0.00    +0.000 F 
ENDBRANCH   82   83
TORSDOF 30
ENDMDL
MODEL 4
REMARK VINA RESULT:     -10.1      3.331      5.338
ROOT
ATOM    166  H62 UNL A   1      19.784  31.099  -0.508  1.00  0.00    +0.000 H 
ATOM    167  H63 UNL A   1      17.246  31.591  -0.843  1.00  0.00    +0.000 H 
ATOM    168  H64 UNL A   1      17.888  27.570  -1.574  1.00  0.00    +0.000 H 
ATOM    169  H65 UNL A   1      15.552  21.872  -3.408  1.00  0.00    +0.000 H 
ATOM    170  H66 UNL A   1      18.040  21.424  -3.140  1.00  0.00    +0.000 H 
ATOM    171  H67 UNL A   1      17.369  25.428  -2.252  1.00  0.00    +0.000 H 
ATOM    172  H68 UNL A   1      12.501  26.276  -2.863  1.00  0.00    +0.000 H 
ATOM    173  H69 UNL A   1      13.035  28.737  -2.407  1.00  0.00    +0.000 H 
ATOM     46  C41 UNL A   1      19.568  23.733  -2.444  1.00  0.00    +0.000 C 
ATOM     47  C42 UNL A   1      20.158  25.043  -1.990  1.00  0.00    +0.000 C 
ATOM     48  N3  UNL A   1      19.558  26.157  -1.666  1.00  0.00    +0.000 N 
ATOM    175  H71 UNL A   1      22.330  24.385  -2.091  1.00  0.00    +0.000 H 
ATOM     49  C43 UNL A   1      20.565  26.998  -1.212  1.00  0.00    +0.000 C 
ATOM    174  H70 UNL A   1      22.679  26.561  -0.780  1.00  0.00    +0.000 H 
ATOM     50  C44 UNL A   1      20.483  28.308  -0.886  1.00  0.00    +0.000 C 
ATOM     62  C51 UNL A   1      19.266  29.061  -0.984  1.00  0.00    +0.000 C 
ATOM     63  C52 UNL A   1      19.062  30.409  -0.769  1.00  0.00    +0.000 C 
ATOM     64  C53 UNL A   1      17.704  30.674  -0.965  1.00  0.00    +0.000 C 
ATOM     65  C54 UNL A   1      17.072  29.501  -1.354  1.00  0.00    +0.000 C 
ATOM     66  N4  UNL A   1      18.042  28.516  -1.350  1.00  0.00    +0.000 N 
ATOM     67  C55 UNL A   1      15.689  29.301  -1.702  1.00  0.00    +0.000 C 
ATOM     79  C62 UNL A   1      15.121  28.122  -2.064  1.00  0.00    +0.000 C 
ATOM     80  N5  UNL A   1      15.703  26.870  -2.199  1.00  0.00    +0.000 N 
ATOM     81  C63 UNL A   1      14.735  26.056  -2.551  1.00  0.00    +0.000 C 
ATOM     82  C64 UNL A   1      14.797  24.583  -2.867  1.00  0.00    +0.000 C 
ATOM     94  C71 UNL A   1      15.996  23.974  -2.830  1.00  0.00    +0.000 C 
ATOM     95  C72 UNL A   1      16.261  22.570  -3.134  1.00  0.00    +0.000 C 
ATOM     96  C73 UNL A   1      17.577  22.335  -3.002  1.00  0.00    +0.000 C 
ATOM     97  C74 UNL A   1      18.247  23.582  -2.630  1.00  0.00    +0.000 C 
ATOM     98  N6  UNL A   1      17.229  24.491  -2.523  1.00  0.00    +0.000 N 
ATOM     99  C75 UNL A   1      13.419  26.698  -2.647  1.00  0.00    +0.000 C 
ATOM    100  C76 UNL A   1      13.718  27.963  -2.385  1.00  0.00    +0.000 C 
ATOM    101  C77 UNL A   1      21.792  26.242  -1.203  1.00  0.00    +0.000 C 
ATOM    102  C78 UNL A   1      21.623  25.082  -1.813  1.00  0.00    +0.000 C 
ENDROOT
BRANCH   46   45
ATOM    164  H60 UNL A   1      22.202  20.836  -4.904  1.00  0.00    +0.000 H 
ATOM    165  H61 UNL A   1      20.452  22.522  -4.724  1.00  0.00    +0.000 H 
ATOM    103  C79 UNL A   1      21.063  22.055  -1.444  1.00  0.00    +0.000 C 
ATOM    104  C80 UNL A   1      22.140  21.204  -1.553  1.00  0.00    +0.000 C 
ATOM     42  C37 UNL A   1      22.537  20.752  -2.817  1.00  0.00    +0.000 C 
ATOM     43  C38 UNL A   1      21.916  21.198  -3.981  1.00  0.00    +0.000 C 
ATOM     44  C39 UNL A   1      20.900  22.145  -3.873  1.00  0.00    +0.000 C 
ATOM     45  C40 UNL A   1      20.485  22.586  -2.605  1.00  0.00    +0.000 C 
ATOM    176  H72 UNL A   1      20.685  22.301  -0.516  1.00  0.00    +0.000 H 
ATOM    177  H73 UNL A   1      22.652  20.901  -0.709  1.00  0.00    +0.000 H 
BRANCH   42   40
ATOM     41  O3  UNL A   1      23.224  18.490  -2.797  1.00  0.00    +0.000 O 
ATOM     40  C36 UNL A   1      23.527  19.651  -2.865  1.00  0.00    +0.000 C 
BRANCH   40   39
ATOM    163  H59 UNL A   1      25.036  20.884  -3.537  1.00  0.00    +0.000 H 
ATOM     39  N2  UNL A   1      24.833  20.084  -3.001  1.00  0.00    +0.000 N 
BRANCH   39   38
ATOM    161  H57 UNL A   1      25.663  19.208  -1.317  1.00  0.00    +0.000 H 
ATOM    162  H58 UNL A   1      26.024  18.389  -2.803  1.00  0.00    +0.000 H 
ATOM     38  C35 UNL A   1      25.899  19.351  -2.351  1.00  0.00    +0.000 C 
BRANCH   38   37
ATOM     37  C34 UNL A   1      27.161  20.166  -2.482  1.00  0.00    +0.000 C 
ATOM    159  H55 UNL A   1      27.179  20.890  -1.695  1.00  0.00    +0.000 H 
ATOM    160  H56 UNL A   1      27.982  19.482  -2.427  1.00  0.00    +0.000 H 
BRANCH   37   36
ATOM     36  C33 UNL A   1      27.285  20.925  -3.861  1.00  0.00    +0.000 C 
ATOM    157  H53 UNL A   1      28.208  20.596  -4.291  1.00  0.00    +0.000 H 
ATOM    158  H54 UNL A   1      26.347  20.676  -4.313  1.00  0.00    +0.000 H 
BRANCH   36   35
ATOM     35  C32 UNL A   1      27.279  22.585  -4.019  1.00  0.00    +0.000 C 
ATOM    156  H52 UNL A   1      28.276  22.648  -4.401  1.00  0.00    +0.000 H 
ATOM    155  H51 UNL A   1      26.853  22.912  -3.093  1.00  0.00    +0.000 H 
BRANCH   35   34
ATOM    153  H49 UNL A   1      27.183  24.625  -5.093  1.00  0.00    +0.000 H 
ATOM     34  C31 UNL A   1      26.563  23.766  -5.236  1.00  0.00    +0.000 C 
ATOM    154  H50 UNL A   1      26.449  23.010  -5.984  1.00  0.00    +0.000 H 
BRANCH   34   33
ATOM     33  C30 UNL A   1      24.712  24.650  -5.696  1.00  0.00    +0.000 C 
ATOM    151  H47 UNL A   1      24.154  23.817  -6.069  1.00  0.00    +0.000 H 
ATOM    152  H48 UNL A   1      24.692  25.232  -4.798  1.00  0.00    +0.000 H 
BRANCH   33   32
ATOM    150  H46 UNL A   1      24.746  25.958  -7.350  1.00  0.00    +0.000 H 
ATOM     32  N1  UNL A   1      24.189  25.791  -6.556  1.00  0.00    +0.000 N 
BRANCH   32   30
ATOM     30  C29 UNL A   1      23.126  26.631  -6.473  1.00  0.00    +0.000 C 
ATOM     31  O2  UNL A   1      23.129  27.376  -5.484  1.00  0.00    +0.000 O 
BRANCH   30   29
ATOM    149  H45 UNL A   1      21.315  27.360  -6.932  1.00  0.00    +0.000 H 
ATOM    148  H44 UNL A   1      21.763  25.743  -7.762  1.00  0.00    +0.000 H 
ATOM     29  C28 UNL A   1      21.998  26.748  -7.482  1.00  0.00    +0.000 C 
BRANCH   29   28
ATOM    146  H42 UNL A   1      21.091  27.498  -9.241  1.00  0.00    +0.000 H 
ATOM    147  H43 UNL A   1      22.405  28.507  -8.520  1.00  0.00    +0.000 H 
ATOM     28  C27 UNL A   1      22.064  27.532  -8.799  1.00  0.00    +0.000 C 
BRANCH   28   27
ATOM      3  C3  UNL A   1      24.349  27.949  -9.981  1.00  0.00    +0.000 C 
ATOM      4  C4  UNL A   1      24.516  28.646 -11.353  1.00  0.00    +0.000 C 
ATOM      6  C5  UNL A   1      23.985  27.834 -12.536  1.00  0.00    +0.000 C 
ATOM      7  C6  UNL A   1      22.452  27.597 -12.341  1.00  0.00    +0.000 C 
ATOM      8  C7  UNL A   1      22.329  26.268 -11.015  1.00  0.00    +0.000 C 
ATOM      9  C8  UNL A   1      20.782  25.116 -10.832  1.00  0.00    +0.000 C 
ATOM     10  C9  UNL A   1      19.309  25.310 -12.084  1.00  0.00    +0.000 C 
ATOM     11  C10 UNL A   1      19.349  26.716 -13.460  1.00  0.00    +0.000 C 
ATOM    139  H35 UNL A   1      21.172  29.767 -13.977  1.00  0.00    +0.000 H 
ATOM    140  H36 UNL A   1      20.569  28.863 -15.392  1.00  0.00    +0.000 H 
ATOM     13  C12 UNL A   1      18.374  28.095 -13.199  1.00  0.00    +0.000 C 
ATOM    137  H33 UNL A   1      19.103  30.125 -13.290  1.00  0.00    +0.000 H 
ATOM    144  H40 UNL A   1      24.345  25.417 -10.579  1.00  0.00    +0.000 H 
ATOM    145  H41 UNL A   1      23.422  24.749  -9.566  1.00  0.00    +0.000 H 
ATOM    138  H34 UNL A   1      18.569  29.443 -14.848  1.00  0.00    +0.000 H 
ATOM     22  C21 UNL A   1      19.104  29.273 -13.937  1.00  0.00    +0.000 C 
ATOM     23  C22 UNL A   1      20.554  28.966 -14.327  1.00  0.00    +0.000 C 
ATOM     24  C23 UNL A   1      21.104  27.643 -13.748  1.00  0.00    +0.000 C 
ATOM     26  C25 UNL A   1      23.390  25.642 -10.152  1.00  0.00    +0.000 C 
ATOM     27  C26 UNL A   1      23.047  27.063  -9.834  1.00  0.00    +0.000 C 
ATOM    108  H4  UNL A   1      25.124  27.212  -9.948  1.00  0.00    +0.000 H 
ATOM    109  H5  UNL A   1      23.934  29.541 -11.266  1.00  0.00    +0.000 H 
ATOM    111  H7  UNL A   1      24.490  26.893 -12.581  1.00  0.00    +0.000 H 
ATOM    112  H8  UNL A   1      24.155  28.368 -13.448  1.00  0.00    +0.000 H 
ATOM    113  H9  UNL A   1      22.049  28.555 -12.085  1.00  0.00    +0.000 H 
ATOM    114  H10 UNL A   1      20.384  25.279  -9.852  1.00  0.00    +0.000 H 
ATOM    115  H11 UNL A   1      21.165  24.138 -11.036  1.00  0.00    +0.000 H 
ATOM    116  H12 UNL A   1      18.428  25.478 -11.499  1.00  0.00    +0.000 H 
ATOM    117  H13 UNL A   1      19.360  24.409 -12.659  1.00  0.00    +0.000 H 
ATOM    121  H17 UNL A   1      17.417  27.726 -13.505  1.00  0.00    +0.000 H 
BRANCH    3    2
ATOM      2  C2  UNL A   1      24.649  28.872  -8.800  1.00  0.00    +0.000 C 
ATOM    107  H3  UNL A   1      23.975  29.637  -8.640  1.00  0.00    +0.000 H 
BRANCH    2    1
ATOM      1  C1  UNL A   1      25.682  28.808  -7.945  1.00  0.00    +0.000 C 
ATOM    106  H2  UNL A   1      26.624  28.569  -8.291  1.00  0.00    +0.000 H 
ATOM    105  H1  UNL A   1      25.534  28.998  -6.941  1.00  0.00    +0.000 H 
ENDBRANCH    2    1
ENDBRANCH    3    2
BRANCH    4    5
ATOM      5  O1  UNL A   1      25.894  28.933 -11.625  1.00  0.00    +0.000 O 
ATOM    110  H6  UNL A   1      26.457  28.364 -11.076  1.00  0.00    +0.000 H 
ENDBRANCH    4    5
BRANCH   11   12
ATOM     12  C11 UNL A   1      18.376  26.049 -14.526  1.00  0.00    +0.000 C 
ATOM    118  H14 UNL A   1      18.091  26.779 -15.255  1.00  0.00    +0.000 H 
ATOM    119  H15 UNL A   1      17.503  25.681 -14.031  1.00  0.00    +0.000 H 
ATOM    120  H16 UNL A   1      18.880  25.240 -15.011  1.00  0.00    +0.000 H 
ENDBRANCH   11   12
BRANCH   13   14
ATOM    122  H18 UNL A   1      16.531  28.312 -12.625  1.00  0.00    +0.000 H 
ATOM     14  C13 UNL A   1      17.355  28.452 -11.958  1.00  0.00    +0.000 C 
BRANCH   14   15
ATOM    123  H19 UNL A   1      17.450  30.599 -12.013  1.00  0.00    +0.000 H 
ATOM    124  H20 UNL A   1      18.733  29.855 -11.090  1.00  0.00    +0.000 H 
ATOM    125  H21 UNL A   1      17.119  29.943 -10.428  1.00  0.00    +0.000 H 
ATOM     15  C14 UNL A   1      17.690  29.816 -11.324  1.00  0.00    +0.000 C 
ENDBRANCH   14   15
BRANCH   14   16
ATOM    126  H22 UNL A   1      16.977  27.925  -9.899  1.00  0.00    +0.000 H 
ATOM    127  H23 UNL A   1      17.113  26.543 -11.108  1.00  0.00    +0.000 H 
ATOM     16  C15 UNL A   1      16.716  27.501 -10.846  1.00  0.00    +0.000 C 
BRANCH   16   17
ATOM     17  C16 UNL A   1      15.186  27.222 -10.791  1.00  0.00    +0.000 C 
ATOM    129  H25 UNL A   1      15.024  26.847  -9.802  1.00  0.00    +0.000 H 
ATOM    128  H24 UNL A   1      14.690  28.138 -11.037  1.00  0.00    +0.000 H 
BRANCH   17   18
ATOM     18  C17 UNL A   1      14.606  26.138 -11.700  1.00  0.00    +0.000 C 
ATOM    130  H26 UNL A   1      14.006  25.442 -11.231  1.00  0.00    +0.000 H 
BRANCH   18   19
ATOM     19  C18 UNL A   1      14.766  25.961 -13.037  1.00  0.00    +0.000 C 
BRANCH   19   20
ATOM    133  H29 UNL A   1      15.559  24.745 -14.584  1.00  0.00    +0.000 H 
ATOM    131  H27 UNL A   1      14.179  24.056 -13.761  1.00  0.00    +0.000 H 
ATOM     20  C19 UNL A   1      15.085  24.612 -13.633  1.00  0.00    +0.000 C 
ATOM    132  H28 UNL A   1      15.742  24.078 -12.979  1.00  0.00    +0.000 H 
ENDBRANCH   19   20
BRANCH   19   21
ATOM     21  C20 UNL A   1      14.733  27.014 -14.105  1.00  0.00    +0.000 C 
ATOM    134  H30 UNL A   1      14.233  26.630 -14.969  1.00  0.00    +0.000 H 
ATOM    135  H31 UNL A   1      15.733  27.290 -14.365  1.00  0.00    +0.000 H 
ATOM    136  H32 UNL A   1      14.208  27.873 -13.742  1.00  0.00    +0.000 H 
ENDBRANCH   19   21
ENDBRANCH   18   19
ENDBRANCH   17   18
ENDBRANCH   16   17
ENDBRANCH   14   16
ENDBRANCH   13   14
BRANCH   24   25
ATOM     25  C24 UNL A   1      22.289  27.401 -14.770  1.00  0.00    +0.000 C 
ATOM    141  H37 UNL A   1      22.489  26.353 -14.842  1.00  0.00    +0.000 H 
ATOM    142  H38 UNL A   1      23.166  27.908 -14.426  1.00  0.00    +0.000 H 
ATOM    143  H39 UNL A   1      22.012  27.778 -15.732  1.00  0.00    +0.000 H 
ENDBRANCH   24   25
ENDBRANCH   28   27
ENDBRANCH   29   28
ENDBRANCH   30   29
ENDBRANCH   32   30
ENDBRANCH   33   32
ENDBRANCH   34   33
ENDBRANCH   35   34
ENDBRANCH   36   35
ENDBRANCH   37   36
ENDBRANCH   38   37
ENDBRANCH   39   38
ENDBRANCH   40   39
ENDBRANCH   42   40
ENDBRANCH   46   45
BRANCH   50   51
ATOM     51  C45 UNL A   1      21.740  28.992  -0.431  1.00  0.00    +0.000 C 
ATOM     52  C46 UNL A   1      22.073  29.103   0.929  1.00  0.00    +0.000 C 
ATOM     53  F1  UNL A   1      21.257  28.598   1.867  1.00  0.00    +0.000 F 
ATOM     54  C47 UNL A   1      23.212  29.790   1.337  1.00  0.00    +0.000 C 
ATOM     55  F2  UNL A   1      23.467  29.945   2.644  1.00  0.00    +0.000 F 
ATOM     56  C48 UNL A   1      24.069  30.336   0.394  1.00  0.00    +0.000 C 
ATOM     57  F3  UNL A   1      25.168  30.996   0.788  1.00  0.00    +0.000 F 
ATOM     58  C49 UNL A   1      23.780  30.209  -0.956  1.00  0.00    +0.000 C 
ATOM     59  F4  UNL A   1      24.613  30.728  -1.869  1.00  0.00    +0.000 F 
ATOM     60  C50 UNL A   1      22.620  29.556  -1.366  1.00  0.00    +0.000 C 
ATOM     61  F5  UNL A   1      22.353  29.482  -2.679  1.00  0.00    +0.000 F 
ENDBRANCH   50   51
BRANCH   67   68
ATOM     68  C56 UNL A   1      14.804  30.510  -1.678  1.00  0.00    +0.000 C 
ATOM     69  C57 UNL A   1      14.433  31.122  -0.473  1.00  0.00    +0.000 C 
ATOM     70  F6  UNL A   1      14.796  30.582   0.699  1.00  0.00    +0.000 F 
ATOM     71  C58 UNL A   1      13.663  32.281  -0.473  1.00  0.00    +0.000 C 
ATOM     72  F7  UNL A   1      13.284  32.830   0.690  1.00  0.00    +0.000 F 
ATOM     73  C59 UNL A   1      13.283  32.865  -1.672  1.00  0.00    +0.000 C 
ATOM     74  F8  UNL A   1      12.555  33.991  -1.669  1.00  0.00    +0.000 F 
ATOM     75  C60 UNL A   1      13.652  32.283  -2.875  1.00  0.00    +0.000 C 
ATOM     76  F9  UNL A   1      13.303  32.857  -4.034  1.00  0.00    +0.000 F 
ATOM     77  C61 UNL A   1      14.393  31.107  -2.880  1.00  0.00    +0.000 C 
ATOM     78  F10 UNL A   1      14.737  30.564  -4.057  1.00  0.00    +0.000 F 
ENDBRANCH   67   68
BRANCH   82   83
ATOM     83  C65 UNL A   1      13.584  23.824  -3.266  1.00  0.00    +0.000 C 
ATOM     84  C66 UNL A   1      12.911  23.005  -2.346  1.00  0.00    +0.000 C 
ATOM     85  F11 UNL A   1      13.372  22.889  -1.093  1.00  0.00    +0.000 F 
ATOM     86  C67 UNL A   1      11.788  22.271  -2.721  1.00  0.00    +0.000 C 
ATOM     87  F12 UNL A   1      11.194  21.460  -1.835  1.00  0.00    +0.000 F 
ATOM     88  C68 UNL A   1      11.293  22.365  -4.013  1.00  0.00    +0.000 C 
ATOM     89  F13 UNL A   1      10.212  21.660  -4.372  1.00  0.00    +0.000 F 
ATOM     90  C69 UNL A   1      11.927  23.186  -4.934  1.00  0.00    +0.000 C 
ATOM     91  F14 UNL A   1      11.443  23.292  -6.179  1.00  0.00    +0.000 F 
ATOM     92  C70 UNL A   1      13.068  23.899  -4.568  1.00  0.00    +0.000 C 
ATOM     93  F15 UNL A   1      13.666  24.675  -5.483  1.00  0.00    +0.000 F 
ENDBRANCH   82   83
TORSDOF 30
ENDMDL
MODEL 5
REMARK VINA RESULT:     -10.0      9.630     16.795
ROOT
ATOM    166  H62 UNL A   1      12.585  20.574   8.842  1.00  0.00    +0.000 H 
ATOM    167  H63 UNL A   1      12.798  18.360  10.202  1.00  0.00    +0.000 H 
ATOM    168  H64 UNL A   1      16.136  18.716   7.784  1.00  0.00    +0.000 H 
ATOM    169  H65 UNL A   1      21.628  16.206   5.586  1.00  0.00    +0.000 H 
ATOM    170  H66 UNL A   1      21.371  18.336   4.222  1.00  0.00    +0.000 H 
ATOM    171  H67 UNL A   1      18.097  18.058   6.766  1.00  0.00    +0.000 H 
ATOM    172  H68 UNL A   1      18.602  13.838   9.359  1.00  0.00    +0.000 H 
ATOM    173  H69 UNL A   1      16.287  14.343  10.327  1.00  0.00    +0.000 H 
ATOM     46  C41 UNL A   1      18.963  19.774   4.752  1.00  0.00    +0.000 C 
ATOM     47  C42 UNL A   1      17.693  20.412   5.252  1.00  0.00    +0.000 C 
ATOM     48  N3  UNL A   1      16.923  20.063   6.248  1.00  0.00    +0.000 N 
ATOM    175  H71 UNL A   1      17.633  22.081   3.713  1.00  0.00    +0.000 H 
ATOM     49  C43 UNL A   1      15.962  21.061   6.337  1.00  0.00    +0.000 C 
ATOM    174  H70 UNL A   1      15.848  23.003   5.308  1.00  0.00    +0.000 H 
ATOM     50  C44 UNL A   1      14.859  21.098   7.118  1.00  0.00    +0.000 C 
ATOM     62  C51 UNL A   1      14.500  20.035   8.012  1.00  0.00    +0.000 C 
ATOM     63  C52 UNL A   1      13.369  19.906   8.794  1.00  0.00    +0.000 C 
ATOM     64  C53 UNL A   1      13.478  18.710   9.509  1.00  0.00    +0.000 C 
ATOM     65  C54 UNL A   1      14.650  18.069   9.133  1.00  0.00    +0.000 C 
ATOM     66  N4  UNL A   1      15.273  18.901   8.221  1.00  0.00    +0.000 N 
ATOM     67  C55 UNL A   1      15.158  16.796   9.574  1.00  0.00    +0.000 C 
ATOM     79  C62 UNL A   1      16.323  16.223   9.181  1.00  0.00    +0.000 C 
ATOM     80  N5  UNL A   1      17.272  16.687   8.282  1.00  0.00    +0.000 N 
ATOM     81  C63 UNL A   1      18.222  15.781   8.256  1.00  0.00    +0.000 C 
ATOM     82  C64 UNL A   1      19.484  15.747   7.432  1.00  0.00    +0.000 C 
ATOM     94  C71 UNL A   1      19.701  16.747   6.558  1.00  0.00    +0.000 C 
ATOM     95  C72 UNL A   1      20.842  16.872   5.655  1.00  0.00    +0.000 C 
ATOM     96  C73 UNL A   1      20.702  17.993   4.927  1.00  0.00    +0.000 C 
ATOM     97  C74 UNL A   1      19.446  18.646   5.298  1.00  0.00    +0.000 C 
ATOM     98  N6  UNL A   1      18.936  17.853   6.290  1.00  0.00    +0.000 N 
ATOM     99  C75 UNL A   1      17.995  14.651   9.165  1.00  0.00    +0.000 C 
ATOM    100  C76 UNL A   1      16.805  14.947   9.669  1.00  0.00    +0.000 C 
ATOM    101  C77 UNL A   1      16.299  22.077   5.372  1.00  0.00    +0.000 C 
ATOM    102  C78 UNL A   1      17.268  21.654   4.578  1.00  0.00    +0.000 C 
ENDROOT
BRANCH   46   45
ATOM    164  H60 UNL A   1      19.862  20.885   0.355  1.00  0.00    +0.000 H 
ATOM    165  H61 UNL A   1      18.817  19.473   2.044  1.00  0.00    +0.000 H 
ATOM    103  C79 UNL A   1      20.582  21.498   4.079  1.00  0.00    +0.000 C 
ATOM    104  C80 UNL A   1      21.063  22.374   3.131  1.00  0.00    +0.000 C 
ATOM     42  C37 UNL A   1      20.810  22.133   1.775  1.00  0.00    +0.000 C 
ATOM     43  C38 UNL A   1      20.018  21.065   1.359  1.00  0.00    +0.000 C 
ATOM     44  C39 UNL A   1      19.441  20.247   2.327  1.00  0.00    +0.000 C 
ATOM     45  C40 UNL A   1      19.710  20.473   3.687  1.00  0.00    +0.000 C 
ATOM    176  H72 UNL A   1      20.860  21.595   5.067  1.00  0.00    +0.000 H 
ATOM    177  H73 UNL A   1      21.608  23.203   3.418  1.00  0.00    +0.000 H 
BRANCH   42   40
ATOM     41  O3  UNL A   1      22.553  23.562   1.061  1.00  0.00    +0.000 O 
ATOM     40  C36 UNL A   1      21.553  22.950   0.790  1.00  0.00    +0.000 C 
BRANCH   40   39
ATOM    163  H59 UNL A   1      21.187  22.202  -1.096  1.00  0.00    +0.000 H 
ATOM     39  N2  UNL A   1      20.994  22.941  -0.475  1.00  0.00    +0.000 N 
BRANCH   39   38
ATOM    161  H57 UNL A   1      19.478  24.294  -0.068  1.00  0.00    +0.000 H 
ATOM    162  H58 UNL A   1      20.696  24.886  -1.150  1.00  0.00    +0.000 H 
ATOM     38  C35 UNL A   1      20.123  24.025  -0.878  1.00  0.00    +0.000 C 
BRANCH   38   37
ATOM     37  C34 UNL A   1      19.304  23.542  -2.048  1.00  0.00    +0.000 C 
ATOM    159  H55 UNL A   1      18.718  24.361  -2.411  1.00  0.00    +0.000 H 
ATOM    160  H56 UNL A   1      19.991  23.176  -2.782  1.00  0.00    +0.000 H 
BRANCH   37   36
ATOM     36  C33 UNL A   1      18.330  22.352  -1.693  1.00  0.00    +0.000 C 
ATOM    157  H53 UNL A   1      17.855  22.082  -2.613  1.00  0.00    +0.000 H 
ATOM    158  H54 UNL A   1      19.003  21.680  -1.203  1.00  0.00    +0.000 H 
BRANCH   36   35
ATOM     35  C32 UNL A   1      17.106  22.449  -0.564  1.00  0.00    +0.000 C 
ATOM    156  H52 UNL A   1      17.504  23.309  -0.066  1.00  0.00    +0.000 H 
ATOM    155  H51 UNL A   1      16.995  21.434  -0.244  1.00  0.00    +0.000 H 
BRANCH   35   34
ATOM    153  H49 UNL A   1      14.863  22.251  -1.066  1.00  0.00    +0.000 H 
ATOM     34  C31 UNL A   1      15.371  23.061  -0.586  1.00  0.00    +0.000 C 
ATOM    154  H50 UNL A   1      15.438  23.452   0.407  1.00  0.00    +0.000 H 
BRANCH   34   33
ATOM     33  C30 UNL A   1      14.276  24.717  -1.279  1.00  0.00    +0.000 C 
ATOM    151  H47 UNL A   1      14.949  25.145  -1.993  1.00  0.00    +0.000 H 
ATOM    152  H48 UNL A   1      13.359  24.170  -1.339  1.00  0.00    +0.000 H 
BRANCH   33   32
ATOM    150  H46 UNL A   1      13.951  26.187   0.197  1.00  0.00    +0.000 H 
ATOM     32  N1  UNL A   1      13.608  25.952  -0.695  1.00  0.00    +0.000 N 
BRANCH   32   30
ATOM     30  C29 UNL A   1      12.644  26.803  -1.129  1.00  0.00    +0.000 C 
ATOM     31  O2  UNL A   1      12.297  26.639  -2.306  1.00  0.00    +0.000 O 
BRANCH   30   29
ATOM    149  H45 UNL A   1      10.939  27.557  -0.386  1.00  0.00    +0.000 H 
ATOM    148  H44 UNL A   1      12.299  28.805  -0.700  1.00  0.00    +0.000 H 
ATOM     29  C28 UNL A   1      11.958  27.874  -0.300  1.00  0.00    +0.000 C 
BRANCH   29   28
ATOM    146  H42 UNL A   1      12.038  27.040   1.644  1.00  0.00    +0.000 H 
ATOM    147  H43 UNL A   1      12.978  28.561   1.381  1.00  0.00    +0.000 H 
ATOM     28  C27 UNL A   1      12.067  28.023   1.223  1.00  0.00    +0.000 C 
BRANCH   28   27
ATOM      3  C3  UNL A   1       9.587  28.164   2.017  1.00  0.00    +0.000 C 
ATOM      4  C4  UNL A   1       8.459  28.897   1.251  1.00  0.00    +0.000 C 
ATOM      6  C5  UNL A   1       8.602  30.420   1.230  1.00  0.00    +0.000 C 
ATOM      7  C6  UNL A   1       9.940  30.793   0.514  1.00  0.00    +0.000 C 
ATOM      8  C7  UNL A   1      11.289  30.405   1.768  1.00  0.00    +0.000 C 
ATOM      9  C8  UNL A   1      13.031  31.252   1.724  1.00  0.00    +0.000 C 
ATOM     10  C9  UNL A   1      13.398  32.582   0.355  1.00  0.00    +0.000 C 
ATOM     11  C10 UNL A   1      12.052  32.996  -1.019  1.00  0.00    +0.000 C 
ATOM    139  H35 UNL A   1       9.106  31.395  -2.308  1.00  0.00    +0.000 H 
ATOM    140  H36 UNL A   1       9.224  33.174  -2.363  1.00  0.00    +0.000 H 
ATOM     13  C12 UNL A   1      12.306  32.353  -2.582  1.00  0.00    +0.000 C 
ATOM    137  H33 UNL A   1      10.834  31.211  -3.673  1.00  0.00    +0.000 H 
ATOM    144  H40 UNL A   1      10.390  29.928   3.753  1.00  0.00    +0.000 H 
ATOM    145  H41 UNL A   1      11.882  29.682   3.942  1.00  0.00    +0.000 H 
ATOM    138  H34 UNL A   1      10.731  32.977  -3.888  1.00  0.00    +0.000 H 
ATOM     22  C21 UNL A   1      10.874  32.170  -3.200  1.00  0.00    +0.000 C 
ATOM     23  C22 UNL A   1       9.734  32.252  -2.179  1.00  0.00    +0.000 C 
ATOM     24  C23 UNL A   1      10.200  32.291  -0.705  1.00  0.00    +0.000 C 
ATOM     26  C25 UNL A   1      11.217  29.723   3.106  1.00  0.00    +0.000 C 
ATOM     27  C26 UNL A   1      11.014  28.841   1.915  1.00  0.00    +0.000 C 
ATOM    108  H4  UNL A   1       9.352  28.297   3.052  1.00  0.00    +0.000 H 
ATOM    109  H5  UNL A   1       8.544  28.534   0.247  1.00  0.00    +0.000 H 
ATOM    111  H7  UNL A   1       8.615  30.792   2.232  1.00  0.00    +0.000 H 
ATOM    112  H8  UNL A   1       7.777  30.854   0.705  1.00  0.00    +0.000 H 
ATOM    113  H9  UNL A   1       9.952  30.212  -0.384  1.00  0.00    +0.000 H 
ATOM    114  H10 UNL A   1      13.755  30.474   1.606  1.00  0.00    +0.000 H 
ATOM    115  H11 UNL A   1      13.069  31.808   2.637  1.00  0.00    +0.000 H 
ATOM    116  H12 UNL A   1      14.275  32.256  -0.163  1.00  0.00    +0.000 H 
ATOM    117  H13 UNL A   1      13.459  33.493   0.914  1.00  0.00    +0.000 H 
ATOM    121  H17 UNL A   1      13.019  33.049  -2.973  1.00  0.00    +0.000 H 
BRANCH    3    2
ATOM      2  C2  UNL A   1       9.566  26.650   1.811  1.00  0.00    +0.000 C 
ATOM    107  H3  UNL A   1       9.364  26.325   0.852  1.00  0.00    +0.000 H 
BRANCH    2    1
ATOM      1  C1  UNL A   1       9.781  25.691   2.726  1.00  0.00    +0.000 C 
ATOM    106  H2  UNL A   1       9.555  25.864   3.717  1.00  0.00    +0.000 H 
ATOM    105  H1  UNL A   1      10.170  24.780   2.437  1.00  0.00    +0.000 H 
ENDBRANCH    2    1
ENDBRANCH    3    2
BRANCH    4    5
ATOM      5  O1  UNL A   1       7.174  28.602   1.815  1.00  0.00    +0.000 O 
ATOM    110  H6  UNL A   1       7.246  27.830   2.398  1.00  0.00    +0.000 H 
ENDBRANCH    4    5
BRANCH   11   12
ATOM     12  C11 UNL A   1      12.519  34.469  -1.390  1.00  0.00    +0.000 C 
ATOM    118  H14 UNL A   1      12.628  34.552  -2.451  1.00  0.00    +0.000 H 
ATOM    119  H15 UNL A   1      13.455  34.677  -0.917  1.00  0.00    +0.000 H 
ATOM    120  H16 UNL A   1      11.785  35.171  -1.052  1.00  0.00    +0.000 H 
ENDBRANCH   11   12
BRANCH   13   14
ATOM    122  H18 UNL A   1      14.105  31.686  -2.289  1.00  0.00    +0.000 H 
ATOM     14  C13 UNL A   1      13.539  31.431  -3.160  1.00  0.00    +0.000 C 
BRANCH   14   15
ATOM    123  H19 UNL A   1      14.755  32.573  -4.515  1.00  0.00    +0.000 H 
ATOM    124  H20 UNL A   1      13.120  32.313  -5.075  1.00  0.00    +0.000 H 
ATOM    125  H21 UNL A   1      14.282  31.009  -5.132  1.00  0.00    +0.000 H 
ATOM     15  C14 UNL A   1      13.956  31.864  -4.579  1.00  0.00    +0.000 C 
ENDBRANCH   14   15
BRANCH   14   16
ATOM    126  H22 UNL A   1      13.928  29.469  -3.971  1.00  0.00    +0.000 H 
ATOM    127  H23 UNL A   1      13.000  29.552  -2.382  1.00  0.00    +0.000 H 
ATOM     16  C15 UNL A   1      13.826  29.870  -2.984  1.00  0.00    +0.000 C 
BRANCH   16   17
ATOM     17  C16 UNL A   1      15.048  29.350  -2.173  1.00  0.00    +0.000 C 
ATOM    129  H25 UNL A   1      14.691  28.454  -1.709  1.00  0.00    +0.000 H 
ATOM    128  H24 UNL A   1      15.858  29.234  -2.864  1.00  0.00    +0.000 H 
BRANCH   17   18
ATOM     18  C17 UNL A   1      15.566  30.193  -1.009  1.00  0.00    +0.000 C 
ATOM    130  H26 UNL A   1      14.842  30.687  -0.464  1.00  0.00    +0.000 H 
BRANCH   18   19
ATOM     19  C18 UNL A   1      16.842  30.384  -0.587  1.00  0.00    +0.000 C 
BRANCH   19   20
ATOM    133  H29 UNL A   1      18.184  31.634   0.479  1.00  0.00    +0.000 H 
ATOM    131  H27 UNL A   1      17.069  30.746   1.491  1.00  0.00    +0.000 H 
ATOM     20  C19 UNL A   1      17.175  31.289   0.574  1.00  0.00    +0.000 C 
ATOM    132  H28 UNL A   1      16.510  32.127   0.576  1.00  0.00    +0.000 H 
ENDBRANCH   19   20
BRANCH   19   21
ATOM     21  C20 UNL A   1      18.096  29.829  -1.197  1.00  0.00    +0.000 C 
ATOM    134  H30 UNL A   1      18.889  30.538  -1.090  1.00  0.00    +0.000 H 
ATOM    135  H31 UNL A   1      17.930  29.633  -2.236  1.00  0.00    +0.000 H 
ATOM    136  H32 UNL A   1      18.362  28.919  -0.700  1.00  0.00    +0.000 H 
ENDBRANCH   19   21
ENDBRANCH   18   19
ENDBRANCH   17   18
ENDBRANCH   16   17
ENDBRANCH   14   16
ENDBRANCH   13   14
BRANCH   24   25
ATOM     25  C24 UNL A   1       8.906  32.931  -0.056  1.00  0.00    +0.000 C 
ATOM    141  H37 UNL A   1       8.836  32.632   0.968  1.00  0.00    +0.000 H 
ATOM    142  H38 UNL A   1       8.038  32.596  -0.585  1.00  0.00    +0.000 H 
ATOM    143  H39 UNL A   1       8.970  33.998  -0.112  1.00  0.00    +0.000 H 
ENDBRANCH   24   25
ENDBRANCH   28   27
ENDBRANCH   29   28
ENDBRANCH   30   29
ENDBRANCH   32   30
ENDBRANCH   33   32
ENDBRANCH   34   33
ENDBRANCH   35   34
ENDBRANCH   36   35
ENDBRANCH   37   36
ENDBRANCH   38   37
ENDBRANCH   39   38
ENDBRANCH   40   39
ENDBRANCH   42   40
ENDBRANCH   46   45
BRANCH   50   51
ATOM     51  C45 UNL A   1      13.970  22.303   7.009  1.00  0.00    +0.000 C 
ATOM     52  C46 UNL A   1      14.014  23.345   7.950  1.00  0.00    +0.000 C 
ATOM     53  F1  UNL A   1      14.861  23.282   8.988  1.00  0.00    +0.000 F 
ATOM     54  C47 UNL A   1      13.143  24.428   7.866  1.00  0.00    +0.000 C 
ATOM     55  F2  UNL A   1      13.156  25.371   8.818  1.00  0.00    +0.000 F 
ATOM     56  C48 UNL A   1      12.245  24.517   6.814  1.00  0.00    +0.000 C 
ATOM     57  F3  UNL A   1      11.408  25.561   6.732  1.00  0.00    +0.000 F 
ATOM     58  C49 UNL A   1      12.207  23.518   5.853  1.00  0.00    +0.000 C 
ATOM     59  F4  UNL A   1      11.345  23.608   4.830  1.00  0.00    +0.000 F 
ATOM     60  C50 UNL A   1      13.050  22.414   5.955  1.00  0.00    +0.000 C 
ATOM     61  F5  UNL A   1      12.962  21.448   5.029  1.00  0.00    +0.000 F 
ENDBRANCH   50   51
BRANCH   67   68
ATOM     68  C56 UNL A   1      14.309  16.031  10.544  1.00  0.00    +0.000 C 
ATOM     69  C57 UNL A   1      13.356  15.100  10.109  1.00  0.00    +0.000 C 
ATOM     70  F6  UNL A   1      13.122  14.935   8.800  1.00  0.00    +0.000 F 
ATOM     71  C58 UNL A   1      12.622  14.354  11.025  1.00  0.00    +0.000 C 
ATOM     72  F7  UNL A   1      11.687  13.496  10.591  1.00  0.00    +0.000 F 
ATOM     73  C59 UNL A   1      12.853  14.498  12.386  1.00  0.00    +0.000 C 
ATOM     74  F8  UNL A   1      12.156  13.765  13.265  1.00  0.00    +0.000 F 
ATOM     75  C60 UNL A   1      13.801  15.403  12.836  1.00  0.00    +0.000 C 
ATOM     76  F9  UNL A   1      14.039  15.529  14.148  1.00  0.00    +0.000 F 
ATOM     77  C61 UNL A   1      14.513  16.175  11.925  1.00  0.00    +0.000 C 
ATOM     78  F10 UNL A   1      15.424  17.044  12.387  1.00  0.00    +0.000 F 
ENDBRANCH   67   68
BRANCH   82   83
ATOM     83  C65 UNL A   1      20.444  14.617   7.530  1.00  0.00    +0.000 C 
ATOM     84  C66 UNL A   1      20.286  13.467   6.742  1.00  0.00    +0.000 C 
ATOM     85  F11 UNL A   1      19.248  13.372   5.899  1.00  0.00    +0.000 F 
ATOM     86  C67 UNL A   1      21.168  12.394   6.847  1.00  0.00    +0.000 C 
ATOM     87  F12 UNL A   1      20.964  11.289   6.117  1.00  0.00    +0.000 F 
ATOM     88  C68 UNL A   1      22.246  12.461   7.716  1.00  0.00    +0.000 C 
ATOM     89  F13 UNL A   1      23.096  11.429   7.815  1.00  0.00    +0.000 F 
ATOM     90  C69 UNL A   1      22.438  13.597   8.488  1.00  0.00    +0.000 C 
ATOM     91  F14 UNL A   1      23.487  13.672   9.318  1.00  0.00    +0.000 F 
ATOM     92  C70 UNL A   1      21.540  14.660   8.405  1.00  0.00    +0.000 C 
ATOM     93  F15 UNL A   1      21.743  15.740   9.173  1.00  0.00    +0.000 F 
ENDBRANCH   82   83
TORSDOF 30
ENDMDL
MODEL 6
REMARK VINA RESULT:      -9.8     23.664     30.617
ROOT
ATOM    166  H62 UNL A   1      15.460  56.745   4.378  1.00  0.00    +0.000 H 
ATOM    167  H63 UNL A   1      16.961  57.078   2.273  1.00  0.00    +0.000 H 
ATOM    168  H64 UNL A   1      15.556  53.187   2.253  1.00  0.00    +0.000 H 
ATOM    169  H65 UNL A   1      15.511  47.370  -0.476  1.00  0.00    +0.000 H 
ATOM    170  H66 UNL A   1      14.103  47.044   1.616  1.00  0.00    +0.000 H 
ATOM    171  H67 UNL A   1      15.386  50.996   1.552  1.00  0.00    +0.000 H 
ATOM    172  H68 UNL A   1      18.199  51.566  -2.516  1.00  0.00    +0.000 H 
ATOM    173  H69 UNL A   1      18.680  53.928  -1.658  1.00  0.00    +0.000 H 
ATOM     46  C41 UNL A   1      13.926  49.364   3.270  1.00  0.00    +0.000 C 
ATOM     47  C42 UNL A   1      13.889  50.716   3.934  1.00  0.00    +0.000 C 
ATOM     48  N3  UNL A   1      14.349  51.863   3.512  1.00  0.00    +0.000 N 
ATOM    175  H71 UNL A   1      12.815  50.037   5.818  1.00  0.00    +0.000 H 
ATOM     49  C43 UNL A   1      13.943  52.794   4.459  1.00  0.00    +0.000 C 
ATOM    174  H70 UNL A   1      12.557  52.567   6.154  1.00  0.00    +0.000 H 
ATOM     50  C44 UNL A   1      14.279  54.101   4.552  1.00  0.00    +0.000 C 
ATOM     62  C51 UNL A   1      15.172  54.743   3.631  1.00  0.00    +0.000 C 
ATOM     63  C52 UNL A   1      15.662  56.033   3.659  1.00  0.00    +0.000 C 
ATOM     64  C53 UNL A   1      16.481  56.204   2.539  1.00  0.00    +0.000 C 
ATOM     65  C54 UNL A   1      16.541  55.005   1.843  1.00  0.00    +0.000 C 
ATOM     66  N4  UNL A   1      15.723  54.120   2.520  1.00  0.00    +0.000 N 
ATOM     67  C55 UNL A   1      17.290  54.696   0.652  1.00  0.00    +0.000 C 
ATOM     79  C62 UNL A   1      17.300  53.504   0.004  1.00  0.00    +0.000 C 
ATOM     80  N5  UNL A   1      16.635  52.327   0.316  1.00  0.00    +0.000 N 
ATOM     81  C63 UNL A   1      16.956  51.468  -0.624  1.00  0.00    +0.000 C 
ATOM     82  C64 UNL A   1      16.549  50.024  -0.773  1.00  0.00    +0.000 C 
ATOM     94  C71 UNL A   1      15.775  49.478   0.182  1.00  0.00    +0.000 C 
ATOM     95  C72 UNL A   1      15.307  48.095   0.229  1.00  0.00    +0.000 C 
ATOM     96  C73 UNL A   1      14.571  47.921   1.339  1.00  0.00    +0.000 C 
ATOM     97  C74 UNL A   1      14.541  49.176   2.092  1.00  0.00    +0.000 C 
ATOM     98  N6  UNL A   1      15.256  50.049   1.317  1.00  0.00    +0.000 N 
ATOM     99  C75 UNL A   1      17.839  52.017  -1.659  1.00  0.00    +0.000 C 
ATOM    100  C76 UNL A   1      18.054  53.244  -1.205  1.00  0.00    +0.000 C 
ATOM    101  C77 UNL A   1      13.116  52.106   5.418  1.00  0.00    +0.000 C 
ATOM    102  C78 UNL A   1      13.175  50.800   5.224  1.00  0.00    +0.000 C 
ENDROOT
BRANCH   46   45
ATOM    164  H60 UNL A   1      13.485  45.866   6.263  1.00  0.00    +0.000 H 
ATOM    165  H61 UNL A   1      14.831  47.461   5.002  1.00  0.00    +0.000 H 
ATOM    103  C79 UNL A   1      11.811  48.183   3.695  1.00  0.00    +0.000 C 
ATOM    104  C80 UNL A   1      11.038  47.378   4.502  1.00  0.00    +0.000 C 
ATOM     42  C37 UNL A   1      11.659  46.524   5.423  1.00  0.00    +0.000 C 
ATOM     43  C38 UNL A   1      13.040  46.520   5.599  1.00  0.00    +0.000 C 
ATOM     44  C39 UNL A   1      13.809  47.416   4.860  1.00  0.00    +0.000 C 
ATOM     45  C40 UNL A   1      13.192  48.260   3.920  1.00  0.00    +0.000 C 
ATOM    176  H72 UNL A   1      11.378  48.726   2.932  1.00  0.00    +0.000 H 
ATOM    177  H73 UNL A   1      10.009  47.402   4.428  1.00  0.00    +0.000 H 
BRANCH   42   40
ATOM     41  O3  UNL A   1      11.225  44.431   6.433  1.00  0.00    +0.000 O 
ATOM     40  C36 UNL A   1      10.811  45.504   6.081  1.00  0.00    +0.000 C 
BRANCH   40   39
ATOM    163  H59 UNL A   1       8.959  46.187   5.487  1.00  0.00    +0.000 H 
ATOM     39  N2  UNL A   1       9.499  45.903   6.259  1.00  0.00    +0.000 N 
BRANCH   39   38
ATOM    161  H57 UNL A   1       9.579  45.385   8.264  1.00  0.00    +0.000 H 
ATOM    162  H58 UNL A   1       8.794  46.898   7.945  1.00  0.00    +0.000 H 
ATOM     38  C35 UNL A   1       8.926  45.898   7.589  1.00  0.00    +0.000 C 
BRANCH   38   37
ATOM     37  C34 UNL A   1       7.601  45.183   7.514  1.00  0.00    +0.000 C 
ATOM    159  H55 UNL A   1       7.518  44.724   6.551  1.00  0.00    +0.000 H 
ATOM    160  H56 UNL A   1       7.585  44.468   8.309  1.00  0.00    +0.000 H 
BRANCH   37   36
ATOM     36  C33 UNL A   1       6.356  46.132   7.721  1.00  0.00    +0.000 C 
ATOM    157  H53 UNL A   1       5.494  45.507   7.615  1.00  0.00    +0.000 H 
ATOM    158  H54 UNL A   1       6.599  46.581   8.661  1.00  0.00    +0.000 H 
BRANCH   36   35
ATOM     35  C32 UNL A   1       6.047  47.486   6.797  1.00  0.00    +0.000 C 
ATOM    156  H52 UNL A   1       6.098  48.173   7.616  1.00  0.00    +0.000 H 
ATOM    155  H51 UNL A   1       5.228  47.175   6.183  1.00  0.00    +0.000 H 
BRANCH   35   34
ATOM    153  H49 UNL A   1       7.462  47.787   4.999  1.00  0.00    +0.000 H 
ATOM     34  C31 UNL A   1       7.044  48.525   5.651  1.00  0.00    +0.000 C 
ATOM    154  H50 UNL A   1       6.284  49.275   5.584  1.00  0.00    +0.000 H 
BRANCH   34   33
ATOM     33  C30 UNL A   1       8.591  49.946   5.729  1.00  0.00    +0.000 C 
ATOM    151  H47 UNL A   1       8.899  49.997   4.705  1.00  0.00    +0.000 H 
ATOM    152  H48 UNL A   1       8.054  50.593   6.390  1.00  0.00    +0.000 H 
BRANCH   33   32
ATOM    150  H46 UNL A   1      10.560  50.668   5.948  1.00  0.00    +0.000 H 
ATOM     32  N1  UNL A   1       9.909  50.140   6.463  1.00  0.00    +0.000 N 
BRANCH   32   30
ATOM     30  C29 UNL A   1      10.390  49.746   7.670  1.00  0.00    +0.000 C 
ATOM     31  O2  UNL A   1       9.607  49.904   8.617  1.00  0.00    +0.000 O 
BRANCH   30   29
ATOM    149  H45 UNL A   1      12.368  49.753   7.338  1.00  0.00    +0.000 H 
ATOM    148  H44 UNL A   1      11.623  48.076   7.707  1.00  0.00    +0.000 H 
ATOM     29  C28 UNL A   1      11.746  49.115   7.930  1.00  0.00    +0.000 C 
BRANCH   29   28
ATOM    146  H42 UNL A   1      11.813  49.475  10.014  1.00  0.00    +0.000 H 
ATOM    147  H43 UNL A   1      12.892  48.168   9.388  1.00  0.00    +0.000 H 
ATOM     28  C27 UNL A   1      12.504  49.157   9.263  1.00  0.00    +0.000 C 
BRANCH   28   27
ATOM      3  C3  UNL A   1      15.105  49.323   9.240  1.00  0.00    +0.000 C 
ATOM      4  C4  UNL A   1      15.992  49.421  10.505  1.00  0.00    +0.000 C 
ATOM      6  C5  UNL A   1      15.854  50.740  11.266  1.00  0.00    +0.000 C 
ATOM      7  C6  UNL A   1      14.375  50.897  11.747  1.00  0.00    +0.000 C 
ATOM      8  C7  UNL A   1      13.408  51.365  10.203  1.00  0.00    +0.000 C 
ATOM      9  C8  UNL A   1      11.720  52.315  10.276  1.00  0.00    +0.000 C 
ATOM     10  C9  UNL A   1      11.008  52.838  12.007  1.00  0.00    +0.000 C 
ATOM     11  C10 UNL A   1      11.941  52.332  13.663  1.00  0.00    +0.000 C 
ATOM    139  H35 UNL A   1      14.430  49.912  14.585  1.00  0.00    +0.000 H 
ATOM    140  H36 UNL A   1      14.309  51.433  15.511  1.00  0.00    +0.000 H 
ATOM     13  C12 UNL A   1      11.277  51.048  14.575  1.00  0.00    +0.000 C 
ATOM    137  H33 UNL A   1      12.401  49.325  15.231  1.00  0.00    +0.000 H 
ATOM    144  H40 UNL A   1      14.801  51.804   8.517  1.00  0.00    +0.000 H 
ATOM    145  H41 UNL A   1      13.412  51.893   7.895  1.00  0.00    +0.000 H 
ATOM    138  H34 UNL A   1      12.450  50.725  16.334  1.00  0.00    +0.000 H 
ATOM     22  C21 UNL A   1      12.492  50.387  15.319  1.00  0.00    +0.000 C 
ATOM     23  C22 UNL A   1      13.863  50.800  14.772  1.00  0.00    +0.000 C 
ATOM     24  C23 UNL A   1      13.806  51.622  13.464  1.00  0.00    +0.000 C 
ATOM     26  C25 UNL A   1      13.830  51.426   8.761  1.00  0.00    +0.000 C 
ATOM     27  C26 UNL A   1      13.706  50.054   9.346  1.00  0.00    +0.000 C 
ATOM    108  H4  UNL A   1      15.608  49.913   8.503  1.00  0.00    +0.000 H 
ATOM    109  H5  UNL A   1      15.641  48.627  11.133  1.00  0.00    +0.000 H 
ATOM    111  H7  UNL A   1      16.110  51.554  10.622  1.00  0.00    +0.000 H 
ATOM    112  H8  UNL A   1      16.511  50.742  12.111  1.00  0.00    +0.000 H 
ATOM    113  H9  UNL A   1      14.122  49.957  12.193  1.00  0.00    +0.000 H 
ATOM    114  H10 UNL A   1      10.988  51.688   9.813  1.00  0.00    +0.000 H 
ATOM    115  H11 UNL A   1      11.929  53.246   9.793  1.00  0.00    +0.000 H 
ATOM    116  H12 UNL A   1      10.022  52.425  12.071  1.00  0.00    +0.000 H 
ATOM    117  H13 UNL A   1      11.101  53.904  11.994  1.00  0.00    +0.000 H 
ATOM    121  H17 UNL A   1      10.488  51.553  15.092  1.00  0.00    +0.000 H 
BRANCH    3    2
ATOM      2  C2  UNL A   1      15.064  47.917   8.643  1.00  0.00    +0.000 C 
ATOM    107  H3  UNL A   1      14.383  47.266   9.063  1.00  0.00    +0.000 H 
BRANCH    2    1
ATOM      1  C1  UNL A   1      15.807  47.428   7.637  1.00  0.00    +0.000 C 
ATOM    106  H2  UNL A   1      15.697  46.445   7.345  1.00  0.00    +0.000 H 
ATOM    105  H1  UNL A   1      16.488  48.036   7.154  1.00  0.00    +0.000 H 
ENDBRANCH    2    1
ENDBRANCH    3    2
BRANCH    4    5
ATOM      5  O1  UNL A   1      17.379  49.265  10.179  1.00  0.00    +0.000 O 
ATOM    110  H6  UNL A   1      17.796  48.662  10.814  1.00  0.00    +0.000 H 
ENDBRANCH    4    5
BRANCH   11   12
ATOM     12  C11 UNL A   1      11.398  53.482  14.617  1.00  0.00    +0.000 C 
ATOM    118  H14 UNL A   1      11.376  53.129  15.626  1.00  0.00    +0.000 H 
ATOM    119  H15 UNL A   1      10.411  53.760  14.315  1.00  0.00    +0.000 H 
ATOM    120  H16 UNL A   1      12.044  54.333  14.552  1.00  0.00    +0.000 H 
ENDBRANCH   11   12
BRANCH   13   14
ATOM    122  H18 UNL A   1       9.468  51.004  13.871  1.00  0.00    +0.000 H 
ATOM     14  C13 UNL A   1       9.931  50.142  14.303  1.00  0.00    +0.000 C 
BRANCH   14   15
ATOM    123  H19 UNL A   1       9.765  50.043  16.444  1.00  0.00    +0.000 H 
ATOM    124  H20 UNL A   1       9.785  48.481  15.660  1.00  0.00    +0.000 H 
ATOM    125  H21 UNL A   1       8.348  49.473  15.595  1.00  0.00    +0.000 H 
ATOM     15  C14 UNL A   1       9.418  49.485  15.599  1.00  0.00    +0.000 C 
ENDBRANCH   14   15
BRANCH   14   16
ATOM    126  H22 UNL A   1      10.063  49.619  12.214  1.00  0.00    +0.000 H 
ATOM    127  H23 UNL A   1       8.478  49.247  13.073  1.00  0.00    +0.000 H 
ATOM     16  C15 UNL A   1       9.547  49.217  13.060  1.00  0.00    +0.000 C 
BRANCH   16   17
ATOM     17  C16 UNL A   1       9.835  47.687  13.060  1.00  0.00    +0.000 C 
ATOM    129  H25 UNL A   1      10.591  47.564  13.807  1.00  0.00    +0.000 H 
ATOM    128  H24 UNL A   1       8.904  47.192  13.243  1.00  0.00    +0.000 H 
BRANCH   17   18
ATOM     18  C17 UNL A   1      10.443  47.057  11.808  1.00  0.00    +0.000 C 
ATOM    130  H26 UNL A   1       9.939  47.248  10.928  1.00  0.00    +0.000 H 
BRANCH   18   19
ATOM     19  C18 UNL A   1      11.551  46.282  11.686  1.00  0.00    +0.000 C 
BRANCH   19   20
ATOM    133  H29 UNL A   1      13.088  45.741  10.327  1.00  0.00    +0.000 H 
ATOM    131  H27 UNL A   1      11.652  46.389   9.570  1.00  0.00    +0.000 H 
ATOM     20  C19 UNL A   1      12.018  45.755  10.351  1.00  0.00    +0.000 C 
ATOM    132  H28 UNL A   1      11.645  44.762  10.208  1.00  0.00    +0.000 H 
ENDBRANCH   19   20
BRANCH   19   21
ATOM     21  C20 UNL A   1      12.429  45.769  12.790  1.00  0.00    +0.000 C 
ATOM    134  H30 UNL A   1      12.983  46.581  13.210  1.00  0.00    +0.000 H 
ATOM    135  H31 UNL A   1      13.106  45.040  12.398  1.00  0.00    +0.000 H 
ATOM    136  H32 UNL A   1      11.822  45.322  13.549  1.00  0.00    +0.000 H 
ENDBRANCH   19   21
ENDBRANCH   18   19
ENDBRANCH   17   18
ENDBRANCH   16   17
ENDBRANCH   14   16
ENDBRANCH   13   14
BRANCH   24   25
ATOM     25  C24 UNL A   1      15.229  52.311  13.545  1.00  0.00    +0.000 C 
ATOM    141  H37 UNL A   1      15.257  52.974  14.384  1.00  0.00    +0.000 H 
ATOM    142  H38 UNL A   1      15.409  52.865  12.647  1.00  0.00    +0.000 H 
ATOM    143  H39 UNL A   1      15.983  51.560  13.659  1.00  0.00    +0.000 H 
ENDBRANCH   24   25
ENDBRANCH   28   27
ENDBRANCH   29   28
ENDBRANCH   30   29
ENDBRANCH   32   30
ENDBRANCH   33   32
ENDBRANCH   34   33
ENDBRANCH   35   34
ENDBRANCH   36   35
ENDBRANCH   37   36
ENDBRANCH   38   37
ENDBRANCH   39   38
ENDBRANCH   40   39
ENDBRANCH   42   40
ENDBRANCH   46   45
BRANCH   50   51
ATOM     51  C45 UNL A   1      13.703  54.887   5.693  1.00  0.00    +0.000 C 
ATOM     52  C46 UNL A   1      14.205  54.775   7.000  1.00  0.00    +0.000 C 
ATOM     53  F1  UNL A   1      15.223  53.942   7.263  1.00  0.00    +0.000 F 
ATOM     54  C47 UNL A   1      13.622  55.468   8.057  1.00  0.00    +0.000 C 
ATOM     55  F2  UNL A   1      14.074  55.285   9.306  1.00  0.00    +0.000 F 
ATOM     56  C48 UNL A   1      12.559  56.326   7.824  1.00  0.00    +0.000 C 
ATOM     57  F3  UNL A   1      12.000  56.995   8.841  1.00  0.00    +0.000 F 
ATOM     58  C49 UNL A   1      12.068  56.481   6.536  1.00  0.00    +0.000 C 
ATOM     59  F4  UNL A   1      11.046  57.317   6.307  1.00  0.00    +0.000 F 
ATOM     60  C50 UNL A   1      12.623  55.759   5.482  1.00  0.00    +0.000 C 
ATOM     61  F5  UNL A   1      12.101  55.905   4.255  1.00  0.00    +0.000 F 
ENDBRANCH   50   51
BRANCH   67   68
ATOM     68  C56 UNL A   1      18.149  55.789   0.092  1.00  0.00    +0.000 C 
ATOM     69  C57 UNL A   1      19.446  56.020   0.568  1.00  0.00    +0.000 C 
ATOM     70  F6  UNL A   1      19.921  55.314   1.605  1.00  0.00    +0.000 F 
ATOM     71  C58 UNL A   1      20.251  56.998  -0.007  1.00  0.00    +0.000 C 
ATOM     72  F7  UNL A   1      21.475  57.231   0.488  1.00  0.00    +0.000 F 
ATOM     73  C59 UNL A   1      19.787  57.735  -1.086  1.00  0.00    +0.000 C 
ATOM     74  F8  UNL A   1      20.572  58.665  -1.649  1.00  0.00    +0.000 F 
ATOM     75  C60 UNL A   1      18.512  57.513  -1.582  1.00  0.00    +0.000 C 
ATOM     76  F9  UNL A   1      18.070  58.210  -2.638  1.00  0.00    +0.000 F 
ATOM     77  C61 UNL A   1      17.692  56.559  -0.989  1.00  0.00    +0.000 C 
ATOM     78  F10 UNL A   1      16.462  56.365  -1.487  1.00  0.00    +0.000 F 
ENDBRANCH   67   68
BRANCH   82   83
ATOM     83  C65 UNL A   1      17.030  49.197  -1.910  1.00  0.00    +0.000 C 
ATOM     84  C66 UNL A   1      18.177  48.399  -1.786  1.00  0.00    +0.000 C 
ATOM     85  F11 UNL A   1      18.864  48.390  -0.634  1.00  0.00    +0.000 F 
ATOM     86  C67 UNL A   1      18.648  47.640  -2.855  1.00  0.00    +0.000 C 
ATOM     87  F12 UNL A   1      19.773  46.925  -2.723  1.00  0.00    +0.000 F 
ATOM     88  C68 UNL A   1      17.963  47.636  -4.061  1.00  0.00    +0.000 C 
ATOM     89  F13 UNL A   1      18.414  46.904  -5.089  1.00  0.00    +0.000 F 
ATOM     90  C69 UNL A   1      16.812  48.398  -4.201  1.00  0.00    +0.000 C 
ATOM     91  F14 UNL A   1      16.139  48.385  -5.359  1.00  0.00    +0.000 F 
ATOM     92  C70 UNL A   1      16.357  49.180  -3.141  1.00  0.00    +0.000 C 
ATOM     93  F15 UNL A   1      15.249  49.916  -3.309  1.00  0.00    +0.000 F 
ENDBRANCH   82   83
TORSDOF 30
ENDMDL
MODEL 7
REMARK VINA RESULT:      -9.8     48.785     53.550
ROOT
ATOM    166  H62 UNL A   1      20.516  34.126  47.380  1.00  0.00    +0.000 H 
ATOM    167  H63 UNL A   1      18.548  35.438  48.477  1.00  0.00    +0.000 H 
ATOM    168  H64 UNL A   1      21.666  38.082  47.840  1.00  0.00    +0.000 H 
ATOM    169  H65 UNL A   1      24.082  43.999  48.502  1.00  0.00    +0.000 H 
ATOM    170  H66 UNL A   1      26.013  42.690  47.492  1.00  0.00    +0.000 H 
ATOM    171  H67 UNL A   1      22.825  40.070  47.986  1.00  0.00    +0.000 H 
ATOM    172  H68 UNL A   1      19.097  42.657  50.036  1.00  0.00    +0.000 H 
ATOM    173  H69 UNL A   1      17.844  40.431  50.181  1.00  0.00    +0.000 H 
ATOM     46  C41 UNL A   1      25.465  39.913  47.119  1.00  0.00    +0.000 C 
ATOM     47  C42 UNL A   1      24.934  38.517  46.923  1.00  0.00    +0.000 C 
ATOM     48  N3  UNL A   1      23.725  38.055  47.095  1.00  0.00    +0.000 N 
ATOM    175  H71 UNL A   1      26.905  37.592  46.275  1.00  0.00    +0.000 H 
ATOM     49  C43 UNL A   1      23.768  36.737  46.659  1.00  0.00    +0.000 C 
ATOM    174  H70 UNL A   1      25.365  35.657  45.596  1.00  0.00    +0.000 H 
ATOM     50  C44 UNL A   1      22.810  35.788  46.754  1.00  0.00    +0.000 C 
ATOM     62  C51 UNL A   1      21.536  36.025  47.370  1.00  0.00    +0.000 C 
ATOM     63  C52 UNL A   1      20.511  35.132  47.608  1.00  0.00    +0.000 C 
ATOM     64  C53 UNL A   1      19.464  35.834  48.212  1.00  0.00    +0.000 C 
ATOM     65  C54 UNL A   1      19.858  37.152  48.397  1.00  0.00    +0.000 C 
ATOM     66  N4  UNL A   1      21.129  37.257  47.864  1.00  0.00    +0.000 N 
ATOM     67  C55 UNL A   1      19.127  38.229  49.014  1.00  0.00    +0.000 C 
ATOM     79  C62 UNL A   1      19.559  39.507  49.156  1.00  0.00    +0.000 C 
ATOM     80  N5  UNL A   1      20.766  40.075  48.775  1.00  0.00    +0.000 N 
ATOM     81  C63 UNL A   1      20.695  41.341  49.114  1.00  0.00    +0.000 C 
ATOM     82  C64 UNL A   1      21.733  42.426  48.969  1.00  0.00    +0.000 C 
ATOM     94  C71 UNL A   1      22.932  42.096  48.455  1.00  0.00    +0.000 C 
ATOM     95  C72 UNL A   1      24.068  42.994  48.268  1.00  0.00    +0.000 C 
ATOM     96  C73 UNL A   1      25.091  42.300  47.742  1.00  0.00    +0.000 C 
ATOM     97  C74 UNL A   1      24.686  40.903  47.584  1.00  0.00    +0.000 C 
ATOM     98  N6  UNL A   1      23.384  40.881  48.005  1.00  0.00    +0.000 N 
ATOM     99  C75 UNL A   1      19.416  41.726  49.722  1.00  0.00    +0.000 C 
ATOM    100  C76 UNL A   1      18.779  40.564  49.765  1.00  0.00    +0.000 C 
ATOM    101  C77 UNL A   1      25.085  36.500  46.121  1.00  0.00    +0.000 C 
ATOM    102  C78 UNL A   1      25.884  37.517  46.397  1.00  0.00    +0.000 C 
ENDROOT
BRANCH   46   45
ATOM    164  H60 UNL A   1      30.056  39.774  47.654  1.00  0.00    +0.000 H 
ATOM    165  H61 UNL A   1      27.785  39.596  48.519  1.00  0.00    +0.000 H 
ATOM    103  C79 UNL A   1      27.068  40.599  45.384  1.00  0.00    +0.000 C 
ATOM    104  C80 UNL A   1      28.341  40.570  44.861  1.00  0.00    +0.000 C 
ATOM     42  C37 UNL A   1      29.426  40.284  45.700  1.00  0.00    +0.000 C 
ATOM     43  C38 UNL A   1      29.245  39.956  47.041  1.00  0.00    +0.000 C 
ATOM     44  C39 UNL A   1      27.946  39.877  47.539  1.00  0.00    +0.000 C 
ATOM     45  C40 UNL A   1      26.857  40.183  46.706  1.00  0.00    +0.000 C 
ATOM    176  H72 UNL A   1      26.275  40.924  44.809  1.00  0.00    +0.000 H 
ATOM    177  H73 UNL A   1      28.496  40.757  43.858  1.00  0.00    +0.000 H 
BRANCH   42   40
ATOM     41  O3  UNL A   1      31.559  41.301  45.627  1.00  0.00    +0.000 O 
ATOM     40  C36 UNL A   1      30.784  40.512  45.156  1.00  0.00    +0.000 C 
BRANCH   40   39
ATOM    163  H59 UNL A   1      30.403  39.577  43.358  1.00  0.00    +0.000 H 
ATOM     39  N2  UNL A   1      31.080  39.728  44.056  1.00  0.00    +0.000 N 
BRANCH   39   38
ATOM    161  H57 UNL A   1      32.534  38.752  42.948  1.00  0.00    +0.000 H 
ATOM    162  H58 UNL A   1      33.156  39.859  44.129  1.00  0.00    +0.000 H 
ATOM     38  C35 UNL A   1      32.394  39.132  43.938  1.00  0.00    +0.000 C 
BRANCH   38   37
ATOM     37  C34 UNL A   1      32.476  38.005  44.937  1.00  0.00    +0.000 C 
ATOM    159  H55 UNL A   1      31.501  37.843  45.345  1.00  0.00    +0.000 H 
ATOM    160  H56 UNL A   1      32.847  37.149  44.413  1.00  0.00    +0.000 H 
BRANCH   37   36
ATOM     36  C33 UNL A   1      33.474  38.285  46.128  1.00  0.00    +0.000 C 
ATOM    157  H53 UNL A   1      33.988  39.187  45.869  1.00  0.00    +0.000 H 
ATOM    158  H54 UNL A   1      32.805  38.252  46.963  1.00  0.00    +0.000 H 
BRANCH   36   35
ATOM     35  C32 UNL A   1      34.655  37.220  46.630  1.00  0.00    +0.000 C 
ATOM    156  H52 UNL A   1      33.988  36.393  46.760  1.00  0.00    +0.000 H 
ATOM    155  H51 UNL A   1      35.212  37.797  47.338  1.00  0.00    +0.000 H 
BRANCH   35   34
ATOM    153  H49 UNL A   1      35.957  36.680  44.803  1.00  0.00    +0.000 H 
ATOM     34  C31 UNL A   1      35.963  36.244  45.780  1.00  0.00    +0.000 C 
ATOM    154  H50 UNL A   1      36.608  36.264  46.633  1.00  0.00    +0.000 H 
BRANCH   34   33
ATOM     33  C30 UNL A   1      36.423  34.239  45.346  1.00  0.00    +0.000 C 
ATOM    151  H47 UNL A   1      36.612  34.277  44.293  1.00  0.00    +0.000 H 
ATOM    152  H48 UNL A   1      37.031  34.120  46.218  1.00  0.00    +0.000 H 
BRANCH   33   32
ATOM    150  H46 UNL A   1      35.574  32.647  46.437  1.00  0.00    +0.000 H 
ATOM     32  N1  UNL A   1      35.773  32.873  45.500  1.00  0.00    +0.000 N 
BRANCH   32   30
ATOM     30  C29 UNL A   1      35.406  31.894  44.634  1.00  0.00    +0.000 C 
ATOM     31  O2  UNL A   1      36.081  31.838  43.597  1.00  0.00    +0.000 O 
BRANCH   30   29
ATOM    149  H45 UNL A   1      34.720  30.307  45.653  1.00  0.00    +0.000 H 
ATOM    148  H44 UNL A   1      34.112  30.453  43.888  1.00  0.00    +0.000 H 
ATOM     29  C28 UNL A   1      34.299  30.878  44.851  1.00  0.00    +0.000 C 
BRANCH   29   28
ATOM    146  H42 UNL A   1      32.747  32.235  45.328  1.00  0.00    +0.000 H 
ATOM    147  H43 UNL A   1      32.242  30.557  44.888  1.00  0.00    +0.000 H 
ATOM     28  C27 UNL A   1      32.915  31.185  45.435  1.00  0.00    +0.000 C 
BRANCH   28   27
ATOM      3  C3  UNL A   1      32.227  29.342  47.146  1.00  0.00    +0.000 C 
ATOM      4  C4  UNL A   1      30.811  29.186  47.750  1.00  0.00    +0.000 C 
ATOM      6  C5  UNL A   1      30.411  30.310  48.708  1.00  0.00    +0.000 C 
ATOM      7  C6  UNL A   1      30.417  31.665  47.931  1.00  0.00    +0.000 C 
ATOM      8  C7  UNL A   1      32.235  32.105  47.730  1.00  0.00    +0.000 C 
ATOM      9  C8  UNL A   1      32.845  33.925  47.460  1.00  0.00    +0.000 C 
ATOM     10  C9  UNL A   1      31.538  35.362  47.428  1.00  0.00    +0.000 C 
ATOM     11  C10 UNL A   1      29.617  34.966  47.577  1.00  0.00    +0.000 C 
ATOM    139  H35 UNL A   1      27.542  32.065  47.156  1.00  0.00    +0.000 H 
ATOM    140  H36 UNL A   1      27.025  33.349  48.283  1.00  0.00    +0.000 H 
ATOM     13  C12 UNL A   1      28.687  35.047  46.145  1.00  0.00    +0.000 C 
ATOM    137  H33 UNL A   1      27.395  33.463  45.452  1.00  0.00    +0.000 H 
ATOM    144  H40 UNL A   1      33.506  30.727  48.940  1.00  0.00    +0.000 H 
ATOM    145  H41 UNL A   1      34.502  31.589  48.173  1.00  0.00    +0.000 H 
ATOM    138  H34 UNL A   1      26.640  34.614  46.584  1.00  0.00    +0.000 H 
ATOM     22  C21 UNL A   1      27.507  34.033  46.351  1.00  0.00    +0.000 C 
ATOM     23  C22 UNL A   1      27.713  33.058  47.516  1.00  0.00    +0.000 C 
ATOM     24  C23 UNL A   1      29.123  33.107  48.147  1.00  0.00    +0.000 C 
ATOM     26  C25 UNL A   1      33.476  31.318  48.048  1.00  0.00    +0.000 C 
ATOM     27  C26 UNL A   1      32.680  30.834  46.877  1.00  0.00    +0.000 C 
ATOM    108  H4  UNL A   1      32.896  29.045  47.927  1.00  0.00    +0.000 H 
ATOM    109  H5  UNL A   1      30.158  29.216  46.901  1.00  0.00    +0.000 H 
ATOM    111  H7  UNL A   1      31.110  30.357  49.517  1.00  0.00    +0.000 H 
ATOM    112  H8  UNL A   1      29.433  30.121  49.101  1.00  0.00    +0.000 H 
ATOM    113  H9  UNL A   1      29.877  31.475  47.027  1.00  0.00    +0.000 H 
ATOM    114  H10 UNL A   1      33.358  33.947  46.522  1.00  0.00    +0.000 H 
ATOM    115  H11 UNL A   1      33.431  34.131  48.331  1.00  0.00    +0.000 H 
ATOM    116  H12 UNL A   1      31.674  35.880  46.501  1.00  0.00    +0.000 H 
ATOM    117  H13 UNL A   1      31.745  35.897  48.331  1.00  0.00    +0.000 H 
ATOM    121  H17 UNL A   1      28.534  36.103  46.064  1.00  0.00    +0.000 H 
BRANCH    3    2
ATOM      2  C2  UNL A   1      32.506  28.359  46.009  1.00  0.00    +0.000 C 
ATOM    107  H3  UNL A   1      32.160  28.635  45.077  1.00  0.00    +0.000 H 
BRANCH    2    1
ATOM      1  C1  UNL A   1      33.147  27.182  46.077  1.00  0.00    +0.000 C 
ATOM    106  H2  UNL A   1      33.152  26.549  45.263  1.00  0.00    +0.000 H 
ATOM    105  H1  UNL A   1      33.638  26.910  46.944  1.00  0.00    +0.000 H 
ENDBRANCH    2    1
ENDBRANCH    3    2
BRANCH    4    5
ATOM      5  O1  UNL A   1      30.688  27.954  48.472  1.00  0.00    +0.000 O 
ATOM    110  H6  UNL A   1      29.782  27.864  48.808  1.00  0.00    +0.000 H 
ENDBRANCH    4    5
BRANCH   11   12
ATOM     12  C11 UNL A   1      29.119  36.362  48.153  1.00  0.00    +0.000 C 
ATOM    118  H14 UNL A   1      28.140  36.574  47.777  1.00  0.00    +0.000 H 
ATOM    119  H15 UNL A   1      29.793  37.134  47.849  1.00  0.00    +0.000 H 
ATOM    120  H16 UNL A   1      29.087  36.315  49.221  1.00  0.00    +0.000 H 
ENDBRANCH   11   12
BRANCH   13   14
ATOM    122  H18 UNL A   1      30.088  34.980  44.802  1.00  0.00    +0.000 H 
ATOM     14  C13 UNL A   1      29.138  35.433  44.611  1.00  0.00    +0.000 C 
BRANCH   14   15
ATOM    123  H19 UNL A   1      27.938  37.188  44.291  1.00  0.00    +0.000 H 
ATOM    124  H20 UNL A   1      29.442  37.185  43.402  1.00  0.00    +0.000 H 
ATOM    125  H21 UNL A   1      29.443  37.499  45.121  1.00  0.00    +0.000 H 
ATOM     15  C14 UNL A   1      28.978  36.941  44.335  1.00  0.00    +0.000 C 
ENDBRANCH   14   15
BRANCH   14   16
ATOM    126  H22 UNL A   1      28.966  35.354  42.461  1.00  0.00    +0.000 H 
ATOM    127  H23 UNL A   1      28.029  34.096  43.425  1.00  0.00    +0.000 H 
ATOM     16  C15 UNL A   1      28.940  34.628  43.246  1.00  0.00    +0.000 C 
BRANCH   16   17
ATOM     17  C16 UNL A   1      29.911  33.489  42.822  1.00  0.00    +0.000 C 
ATOM    129  H25 UNL A   1      30.272  33.094  43.749  1.00  0.00    +0.000 H 
ATOM    128  H24 UNL A   1      29.354  32.814  42.205  1.00  0.00    +0.000 H 
BRANCH   17   18
ATOM     18  C17 UNL A   1      31.180  33.858  42.054  1.00  0.00    +0.000 C 
ATOM    130  H26 UNL A   1      31.050  34.038  41.046  1.00  0.00    +0.000 H 
BRANCH   18   19
ATOM     19  C18 UNL A   1      32.454  33.983  42.507  1.00  0.00    +0.000 C 
BRANCH   19   20
ATOM    133  H29 UNL A   1      31.856  34.810  44.367  1.00  0.00    +0.000 H 
ATOM    131  H27 UNL A   1      33.406  35.377  43.791  1.00  0.00    +0.000 H 
ATOM     20  C19 UNL A   1      32.766  34.524  43.881  1.00  0.00    +0.000 C 
ATOM    132  H28 UNL A   1      33.257  33.769  44.459  1.00  0.00    +0.000 H 
ENDBRANCH   19   20
BRANCH   19   21
ATOM     21  C20 UNL A   1      33.720  33.699  41.754  1.00  0.00    +0.000 C 
ATOM    134  H30 UNL A   1      33.481  33.407  40.753  1.00  0.00    +0.000 H 
ATOM    135  H31 UNL A   1      34.253  32.909  42.239  1.00  0.00    +0.000 H 
ATOM    136  H32 UNL A   1      34.328  34.580  41.733  1.00  0.00    +0.000 H 
ENDBRANCH   19   21
ENDBRANCH   18   19
ENDBRANCH   17   18
ENDBRANCH   16   17
ENDBRANCH   14   16
ENDBRANCH   13   14
BRANCH   24   25
ATOM     25  C24 UNL A   1      28.784  32.474  49.557  1.00  0.00    +0.000 C 
ATOM    141  H37 UNL A   1      29.678  32.086  49.998  1.00  0.00    +0.000 H 
ATOM    142  H38 UNL A   1      28.075  31.682  49.431  1.00  0.00    +0.000 H 
ATOM    143  H39 UNL A   1      28.369  33.226  50.195  1.00  0.00    +0.000 H 
ENDBRANCH   24   25
ENDBRANCH   28   27
ENDBRANCH   29   28
ENDBRANCH   30   29
ENDBRANCH   32   30
ENDBRANCH   33   32
ENDBRANCH   34   33
ENDBRANCH   35   34
ENDBRANCH   36   35
ENDBRANCH   37   36
ENDBRANCH   38   37
ENDBRANCH   39   38
ENDBRANCH   40   39
ENDBRANCH   42   40
ENDBRANCH   46   45
BRANCH   50   51
ATOM     51  C45 UNL A   1      23.124  34.425  46.208  1.00  0.00    +0.000 C 
ATOM     52  C46 UNL A   1      22.659  34.004  44.951  1.00  0.00    +0.000 C 
ATOM     53  F1  UNL A   1      21.904  34.822  44.202  1.00  0.00    +0.000 F 
ATOM     54  C47 UNL A   1      22.911  32.717  44.485  1.00  0.00    +0.000 C 
ATOM     55  F2  UNL A   1      22.392  32.317  43.315  1.00  0.00    +0.000 F 
ATOM     56  C48 UNL A   1      23.675  31.841  45.240  1.00  0.00    +0.000 C 
ATOM     57  F3  UNL A   1      23.919  30.603  44.790  1.00  0.00    +0.000 F 
ATOM     58  C49 UNL A   1      24.175  32.246  46.469  1.00  0.00    +0.000 C 
ATOM     59  F4  UNL A   1      24.922  31.404  47.196  1.00  0.00    +0.000 F 
ATOM     60  C50 UNL A   1      23.892  33.520  46.956  1.00  0.00    +0.000 C 
ATOM     61  F5  UNL A   1      24.361  33.867  48.164  1.00  0.00    +0.000 F 
ENDBRANCH   50   51
BRANCH   67   68
ATOM     68  C56 UNL A   1      17.772  37.897  49.563  1.00  0.00    +0.000 C 
ATOM     69  C57 UNL A   1      16.699  37.576  48.721  1.00  0.00    +0.000 C 
ATOM     70  F6  UNL A   1      16.841  37.642  47.390  1.00  0.00    +0.000 F 
ATOM     71  C58 UNL A   1      15.466  37.210  49.250  1.00  0.00    +0.000 C 
ATOM     72  F7  UNL A   1      14.440  36.944  48.429  1.00  0.00    +0.000 F 
ATOM     73  C59 UNL A   1      15.295  37.125  50.624  1.00  0.00    +0.000 C 
ATOM     74  F8  UNL A   1      14.110  36.755  51.131  1.00  0.00    +0.000 F 
ATOM     75  C60 UNL A   1      16.348  37.425  51.474  1.00  0.00    +0.000 C 
ATOM     76  F9  UNL A   1      16.191  37.323  52.801  1.00  0.00    +0.000 F 
ATOM     77  C61 UNL A   1      17.573  37.823  50.950  1.00  0.00    +0.000 C 
ATOM     78  F10 UNL A   1      18.575  38.109  51.794  1.00  0.00    +0.000 F 
ENDBRANCH   67   68
BRANCH   82   83
ATOM     83  C65 UNL A   1      21.473  43.814  49.430  1.00  0.00    +0.000 C 
ATOM     84  C66 UNL A   1      20.943  44.776  48.558  1.00  0.00    +0.000 C 
ATOM     85  F11 UNL A   1      20.679  44.450  47.284  1.00  0.00    +0.000 F 
ATOM     86  C67 UNL A   1      20.720  46.086  48.977  1.00  0.00    +0.000 C 
ATOM     87  F12 UNL A   1      20.258  46.995  48.108  1.00  0.00    +0.000 F 
ATOM     88  C68 UNL A   1      20.992  46.454  50.286  1.00  0.00    +0.000 C 
ATOM     89  F13 UNL A   1      20.776  47.713  50.689  1.00  0.00    +0.000 F 
ATOM     90  C69 UNL A   1      21.495  45.515  51.174  1.00  0.00    +0.000 C 
ATOM     91  F14 UNL A   1      21.743  45.862  52.444  1.00  0.00    +0.000 F 
ATOM     92  C70 UNL A   1      21.744  44.211  50.748  1.00  0.00    +0.000 C 
ATOM     93  F15 UNL A   1      22.242  43.328  51.626  1.00  0.00    +0.000 F 
ENDBRANCH   82   83
TORSDOF 30
ENDMDL
MODEL 8
REMARK VINA RESULT:      -9.8     40.937     46.516
ROOT
ATOM    166  H62 UNL A   1       3.262  -0.350  28.369  1.00  0.00    +0.000 H 
ATOM    167  H63 UNL A   1       2.759  -0.019  30.905  1.00  0.00    +0.000 H 
ATOM    168  H64 UNL A   1       4.596  -3.694  30.423  1.00  0.00    +0.000 H 
ATOM    169  H65 UNL A   1       6.641  -9.203  33.023  1.00  0.00    +0.000 H 
ATOM    170  H66 UNL A   1       7.066  -9.537  30.539  1.00  0.00    +0.000 H 
ATOM    171  H67 UNL A   1       5.366  -5.778  31.042  1.00  0.00    +0.000 H 
ATOM    172  H68 UNL A   1       4.482  -5.201  35.907  1.00  0.00    +0.000 H 
ATOM    173  H69 UNL A   1       3.343  -2.998  35.276  1.00  0.00    +0.000 H 
ATOM     46  C41 UNL A   1       6.185  -7.366  28.907  1.00  0.00    +0.000 C 
ATOM     47  C42 UNL A   1       5.740  -6.082  28.256  1.00  0.00    +0.000 C 
ATOM     48  N3  UNL A   1       5.338  -4.967  28.804  1.00  0.00    +0.000 N 
ATOM    175  H71 UNL A   1       6.005  -6.788  26.113  1.00  0.00    +0.000 H 
ATOM     49  C43 UNL A   1       5.165  -4.080  27.749  1.00  0.00    +0.000 C 
ATOM    174  H70 UNL A   1       5.723  -4.285  25.630  1.00  0.00    +0.000 H 
ATOM     50  C44 UNL A   1       4.634  -2.837  27.775  1.00  0.00    +0.000 C 
ATOM     62  C51 UNL A   1       4.129  -2.230  28.973  1.00  0.00    +0.000 C 
ATOM     63  C52 UNL A   1       3.489  -1.015  29.124  1.00  0.00    +0.000 C 
ATOM     64  C53 UNL A   1       3.205  -0.847  30.482  1.00  0.00    +0.000 C 
ATOM     65  C54 UNL A   1       3.621  -1.980  31.168  1.00  0.00    +0.000 C 
ATOM     66  N4  UNL A   1       4.197  -2.815  30.229  1.00  0.00    +0.000 N 
ATOM     67  C55 UNL A   1       3.498  -2.272  32.573  1.00  0.00    +0.000 C 
ATOM     79  C62 UNL A   1       3.938  -3.396  33.194  1.00  0.00    +0.000 C 
ATOM     80  N5  UNL A   1       4.574  -4.506  32.659  1.00  0.00    +0.000 N 
ATOM     81  C63 UNL A   1       4.810  -5.312  33.667  1.00  0.00    +0.000 C 
ATOM     82  C64 UNL A   1       5.449  -6.677  33.667  1.00  0.00    +0.000 C 
ATOM     94  C71 UNL A   1       5.819  -7.207  32.486  1.00  0.00    +0.000 C 
ATOM     95  C72 UNL A   1       6.419  -8.522  32.280  1.00  0.00    +0.000 C 
ATOM     96  C73 UNL A   1       6.636  -8.702  30.966  1.00  0.00    +0.000 C 
ATOM     97  C74 UNL A   1       6.161  -7.523  30.240  1.00  0.00    +0.000 C 
ATOM     98  N6  UNL A   1       5.720  -6.679  31.223  1.00  0.00    +0.000 N 
ATOM     99  C75 UNL A   1       4.377  -4.786  34.967  1.00  0.00    +0.000 C 
ATOM    100  C76 UNL A   1       3.812  -3.638  34.617  1.00  0.00    +0.000 C 
ATOM    101  C77 UNL A   1       5.601  -4.744  26.547  1.00  0.00    +0.000 C 
ATOM    102  C78 UNL A   1       5.822  -6.026  26.783  1.00  0.00    +0.000 C 
ENDROOT
BRANCH   46   45
ATOM    164  H60 UNL A   1       5.836 -11.072  26.164  1.00  0.00    +0.000 H 
ATOM    165  H61 UNL A   1       4.940  -9.546  27.840  1.00  0.00    +0.000 H 
ATOM    103  C79 UNL A   1       8.060  -8.294  27.614  1.00  0.00    +0.000 C 
ATOM    104  C80 UNL A   1       8.520  -9.071  26.573  1.00  0.00    +0.000 C 
ATOM     42  C37 UNL A   1       7.708 -10.092  26.063  1.00  0.00    +0.000 C 
ATOM     43  C38 UNL A   1       6.413 -10.298  26.532  1.00  0.00    +0.000 C 
ATOM     44  C39 UNL A   1       5.912  -9.438  27.506  1.00  0.00    +0.000 C 
ATOM     45  C40 UNL A   1       6.730  -8.426  28.035  1.00  0.00    +0.000 C 
ATOM    176  H72 UNL A   1       8.688  -7.620  28.078  1.00  0.00    +0.000 H 
ATOM    177  H73 UNL A   1       9.456  -8.903  26.173  1.00  0.00    +0.000 H 
BRANCH   42   40
ATOM     41  O3  UNL A   1       9.521 -11.246  25.077  1.00  0.00    +0.000 O 
ATOM     40  C36 UNL A   1       8.335 -11.054  25.129  1.00  0.00    +0.000 C 
BRANCH   40   39
ATOM    163  H59 UNL A   1       6.757 -12.318  24.723  1.00  0.00    +0.000 H 
ATOM     39  N2  UNL A   1       7.428 -11.718  24.324  1.00  0.00    +0.000 N 
BRANCH   39   38
ATOM    161  H57 UNL A   1       8.445 -11.187  22.598  1.00  0.00    +0.000 H 
ATOM    162  H58 UNL A   1       7.271 -12.445  22.380  1.00  0.00    +0.000 H 
ATOM     38  C35 UNL A   1       7.472 -11.526  22.890  1.00  0.00    +0.000 C 
BRANCH   38   37
ATOM     37  C34 UNL A   1       6.439 -10.486  22.535  1.00  0.00    +0.000 C 
ATOM    159  H55 UNL A   1       5.925 -10.807  21.653  1.00  0.00    +0.000 H 
ATOM    160  H56 UNL A   1       5.785 -10.395  23.377  1.00  0.00    +0.000 H 
BRANCH   37   36
ATOM     36  C33 UNL A   1       7.047  -9.055  22.265  1.00  0.00    +0.000 C 
ATOM    157  H53 UNL A   1       8.086  -9.214  22.067  1.00  0.00    +0.000 H 
ATOM    158  H54 UNL A   1       6.388  -8.697  21.501  1.00  0.00    +0.000 H 
BRANCH   36   35
ATOM     35  C32 UNL A   1       6.982  -7.790  23.351  1.00  0.00    +0.000 C 
ATOM    156  H52 UNL A   1       6.998  -8.412  24.222  1.00  0.00    +0.000 H 
ATOM    155  H51 UNL A   1       6.217  -7.163  22.942  1.00  0.00    +0.000 H 
BRANCH   35   34
ATOM    153  H49 UNL A   1       7.773  -6.314  24.938  1.00  0.00    +0.000 H 
ATOM     34  C31 UNL A   1       8.205  -6.575  23.995  1.00  0.00    +0.000 C 
ATOM    154  H50 UNL A   1       9.039  -7.155  23.660  1.00  0.00    +0.000 H 
BRANCH   34   33
ATOM     33  C30 UNL A   1       9.098  -4.760  23.422  1.00  0.00    +0.000 C 
ATOM    151  H47 UNL A   1       9.132  -4.855  22.357  1.00  0.00    +0.000 H 
ATOM    152  H48 UNL A   1       8.520  -4.181  24.111  1.00  0.00    +0.000 H 
BRANCH   33   32
ATOM    150  H46 UNL A   1      10.508  -3.809  24.669  1.00  0.00    +0.000 H 
ATOM     32  N1  UNL A   1      10.380  -3.993  23.710  1.00  0.00    +0.000 N 
BRANCH   32   30
ATOM     30  C29 UNL A   1      11.385  -3.504  22.941  1.00  0.00    +0.000 C 
ATOM     31  O2  UNL A   1      11.793  -4.279  22.065  1.00  0.00    +0.000 O 
BRANCH   30   29
ATOM    149  H45 UNL A   1      11.120  -1.537  23.238  1.00  0.00    +0.000 H 
ATOM    148  H44 UNL A   1      12.577  -1.997  22.155  1.00  0.00    +0.000 H 
ATOM     29  C28 UNL A   1      11.998  -2.119  23.045  1.00  0.00    +0.000 C 
BRANCH   29   28
ATOM    146  H42 UNL A   1      13.015  -2.442  24.873  1.00  0.00    +0.000 H 
ATOM    147  H43 UNL A   1      13.800  -1.309  23.704  1.00  0.00    +0.000 H 
ATOM     28  C27 UNL A   1      12.900  -1.631  24.186  1.00  0.00    +0.000 C 
BRANCH   28   27
ATOM      3  C3  UNL A   1      11.547  -0.760  26.237  1.00  0.00    +0.000 C 
ATOM      4  C4  UNL A   1      10.096  -0.226  26.172  1.00  0.00    +0.000 C 
ATOM      6  C5  UNL A   1       9.952   1.107  25.435  1.00  0.00    +0.000 C 
ATOM      7  C6  UNL A   1      10.425   0.923  23.957  1.00  0.00    +0.000 C 
ATOM      8  C7  UNL A   1      12.303   0.859  24.051  1.00  0.00    +0.000 C 
ATOM      9  C8  UNL A   1      13.439   1.307  22.546  1.00  0.00    +0.000 C 
ATOM     10  C9  UNL A   1      12.616   1.878  20.881  1.00  0.00    +0.000 C 
ATOM     11  C10 UNL A   1      10.658   1.913  20.698  1.00  0.00    +0.000 C 
ATOM    139  H35 UNL A   1       7.878   0.448  22.436  1.00  0.00    +0.000 H 
ATOM    140  H36 UNL A   1       7.652   2.002  21.588  1.00  0.00    +0.000 H 
ATOM     13  C12 UNL A   1       9.932   0.655  19.797  1.00  0.00    +0.000 C 
ATOM    137  H33 UNL A   1       8.306  -0.567  20.522  1.00  0.00    +0.000 H 
ATOM    144  H40 UNL A   1      12.997   1.396  26.102  1.00  0.00    +0.000 H 
ATOM    145  H41 UNL A   1      14.269   1.000  25.361  1.00  0.00    +0.000 H 
ATOM    138  H34 UNL A   1       7.815   0.946  19.719  1.00  0.00    +0.000 H 
ATOM     22  C21 UNL A   1       8.494   0.479  20.401  1.00  0.00    +0.000 C 
ATOM     23  C22 UNL A   1       8.296   1.163  21.759  1.00  0.00    +0.000 C 
ATOM     24  C23 UNL A   1       9.593   1.723  22.387  1.00  0.00    +0.000 C 
ATOM     26  C25 UNL A   1      13.225   0.808  25.237  1.00  0.00    +0.000 C 
ATOM     27  C26 UNL A   1      12.437  -0.436  24.970  1.00  0.00    +0.000 C 
ATOM    108  H4  UNL A   1      12.023  -0.178  26.998  1.00  0.00    +0.000 H 
ATOM    109  H5  UNL A   1       9.564  -0.977  25.624  1.00  0.00    +0.000 H 
ATOM    111  H7  UNL A   1      10.553   1.849  25.915  1.00  0.00    +0.000 H 
ATOM    112  H8  UNL A   1       8.928   1.421  25.451  1.00  0.00    +0.000 H 
ATOM    113  H9  UNL A   1       9.941   0.032  23.614  1.00  0.00    +0.000 H 
ATOM    114  H10 UNL A   1      14.023   0.439  22.325  1.00  0.00    +0.000 H 
ATOM    115  H11 UNL A   1      13.974   2.172  22.877  1.00  0.00    +0.000 H 
ATOM    116  H12 UNL A   1      12.984   1.225  20.117  1.00  0.00    +0.000 H 
ATOM    117  H13 UNL A   1      12.882   2.912  20.822  1.00  0.00    +0.000 H 
ATOM    121  H17 UNL A   1      10.101   0.998  18.798  1.00  0.00    +0.000 H 
BRANCH    3    2
ATOM      2  C2  UNL A   1      11.634  -2.199  26.746  1.00  0.00    +0.000 C 
ATOM    107  H3  UNL A   1      10.922  -2.852  26.385  1.00  0.00    +0.000 H 
BRANCH    2    1
ATOM      1  C1  UNL A   1      12.526  -2.716  27.606  1.00  0.00    +0.000 C 
ATOM    106  H2  UNL A   1      12.257  -3.498  28.222  1.00  0.00    +0.000 H 
ATOM    105  H1  UNL A   1      13.484  -2.332  27.649  1.00  0.00    +0.000 H 
ENDBRANCH    2    1
ENDBRANCH    3    2
BRANCH    4    5
ATOM      5  O1  UNL A   1       9.551  -0.043  27.485  1.00  0.00    +0.000 O 
ATOM    110  H6  UNL A   1       8.582  -0.069  27.441  1.00  0.00    +0.000 H 
ENDBRANCH    4    5
BRANCH   11   12
ATOM     12  C11 UNL A   1      10.535   3.004  19.547  1.00  0.00    +0.000 C 
ATOM    118  H14 UNL A   1      11.039   2.656  18.670  1.00  0.00    +0.000 H 
ATOM    119  H15 UNL A   1      10.979   3.920  19.875  1.00  0.00    +0.000 H 
ATOM    120  H16 UNL A   1       9.501   3.169  19.322  1.00  0.00    +0.000 H 
ENDBRANCH   11   12
BRANCH   13   14
ATOM    122  H18 UNL A   1      11.529  -0.420  19.541  1.00  0.00    +0.000 H 
ATOM     14  C13 UNL A   1      10.619  -0.617  19.013  1.00  0.00    +0.000 C 
BRANCH   14   15
ATOM    123  H19 UNL A   1       9.936  -1.293  17.090  1.00  0.00    +0.000 H 
ATOM    124  H20 UNL A   1      11.476  -0.468  17.047  1.00  0.00    +0.000 H 
ATOM    125  H21 UNL A   1      10.000   0.445  17.250  1.00  0.00    +0.000 H 
ATOM     15  C14 UNL A   1      10.499  -0.472  17.483  1.00  0.00    +0.000 C 
ENDBRANCH   14   15
BRANCH   14   16
ATOM    126  H22 UNL A   1      11.365  -2.276  20.174  1.00  0.00    +0.000 H 
ATOM    127  H23 UNL A   1      10.836  -2.632  18.446  1.00  0.00    +0.000 H 
ATOM     16  C15 UNL A   1      10.644  -2.168  19.391  1.00  0.00    +0.000 C 
BRANCH   16   17
ATOM     17  C16 UNL A   1       9.364  -2.912  19.871  1.00  0.00    +0.000 C 
ATOM    129  H25 UNL A   1       9.383  -2.804  20.935  1.00  0.00    +0.000 H 
ATOM    128  H24 UNL A   1       8.532  -2.466  19.365  1.00  0.00    +0.000 H 
BRANCH   17   18
ATOM     18  C17 UNL A   1       9.268  -4.421  19.650  1.00  0.00    +0.000 C 
ATOM    130  H26 UNL A   1       8.850  -4.956  20.428  1.00  0.00    +0.000 H 
BRANCH   18   19
ATOM     19  C18 UNL A   1       9.652  -5.160  18.578  1.00  0.00    +0.000 C 
BRANCH   19   20
ATOM    133  H29 UNL A   1      10.932  -6.601  17.692  1.00  0.00    +0.000 H 
ATOM    131  H27 UNL A   1      10.532  -6.922  19.364  1.00  0.00    +0.000 H 
ATOM     20  C19 UNL A   1      10.781  -6.159  18.655  1.00  0.00    +0.000 C 
ATOM    132  H28 UNL A   1      11.677  -5.663  18.965  1.00  0.00    +0.000 H 
ENDBRANCH   19   20
BRANCH   19   21
ATOM     21  C20 UNL A   1       9.115  -5.080  17.179  1.00  0.00    +0.000 C 
ATOM    134  H30 UNL A   1       8.960  -4.056  16.915  1.00  0.00    +0.000 H 
ATOM    135  H31 UNL A   1       8.187  -5.609  17.123  1.00  0.00    +0.000 H 
ATOM    136  H32 UNL A   1       9.818  -5.520  16.502  1.00  0.00    +0.000 H 
ENDBRANCH   19   21
ENDBRANCH   18   19
ENDBRANCH   17   18
ENDBRANCH   16   17
ENDBRANCH   14   16
ENDBRANCH   13   14
BRANCH   24   25
ATOM     25  C24 UNL A   1       8.951   2.781  23.374  1.00  0.00    +0.000 C 
ATOM    141  H37 UNL A   1       8.026   3.131  22.969  1.00  0.00    +0.000 H 
ATOM    142  H38 UNL A   1       9.622   3.606  23.497  1.00  0.00    +0.000 H 
ATOM    143  H39 UNL A   1       8.774   2.321  24.323  1.00  0.00    +0.000 H 
ENDBRANCH   24   25
ENDBRANCH   28   27
ENDBRANCH   29   28
ENDBRANCH   30   29
ENDBRANCH   32   30
ENDBRANCH   33   32
ENDBRANCH   34   33
ENDBRANCH   35   34
ENDBRANCH   36   35
ENDBRANCH   37   36
ENDBRANCH   38   37
ENDBRANCH   39   38
ENDBRANCH   40   39
ENDBRANCH   42   40
ENDBRANCH   46   45
BRANCH   50   51
ATOM     51  C45 UNL A   1       4.552  -2.089  26.476  1.00  0.00    +0.000 C 
ATOM     52  C46 UNL A   1       5.598  -1.265  26.027  1.00  0.00    +0.000 C 
ATOM     53  F1  UNL A   1       6.709  -1.122  26.766  1.00  0.00    +0.000 F 
ATOM     54  C47 UNL A   1       5.483  -0.534  24.849  1.00  0.00    +0.000 C 
ATOM     55  F2  UNL A   1       6.466   0.301  24.482  1.00  0.00    +0.000 F 
ATOM     56  C48 UNL A   1       4.342  -0.647  24.069  1.00  0.00    +0.000 C 
ATOM     57  F3  UNL A   1       4.233   0.056  22.933  1.00  0.00    +0.000 F 
ATOM     58  C49 UNL A   1       3.311  -1.481  24.473  1.00  0.00    +0.000 C 
ATOM     59  F4  UNL A   1       2.212  -1.599  23.715  1.00  0.00    +0.000 F 
ATOM     60  C50 UNL A   1       3.406  -2.185  25.672  1.00  0.00    +0.000 C 
ATOM     61  F5  UNL A   1       2.375  -2.954  26.051  1.00  0.00    +0.000 F 
ENDBRANCH   50   51
BRANCH   67   68
ATOM     68  C56 UNL A   1       2.807  -1.246  33.419  1.00  0.00    +0.000 C 
ATOM     69  C57 UNL A   1       3.523  -0.245  34.088  1.00  0.00    +0.000 C 
ATOM     70  F6  UNL A   1       4.863  -0.235  34.055  1.00  0.00    +0.000 F 
ATOM     71  C58 UNL A   1       2.860   0.737  34.817  1.00  0.00    +0.000 C 
ATOM     72  F7  UNL A   1       3.563   1.663  35.484  1.00  0.00    +0.000 F 
ATOM     73  C59 UNL A   1       1.473   0.755  34.860  1.00  0.00    +0.000 C 
ATOM     74  F8  UNL A   1       0.836   1.712  35.550  1.00  0.00    +0.000 F 
ATOM     75  C60 UNL A   1       0.746  -0.218  34.193  1.00  0.00    +0.000 C 
ATOM     76  F9  UNL A   1      -0.593  -0.190  34.216  1.00  0.00    +0.000 F 
ATOM     77  C61 UNL A   1       1.405  -1.221  33.491  1.00  0.00    +0.000 C 
ATOM     78  F10 UNL A   1       0.678  -2.151  32.855  1.00  0.00    +0.000 F 
ENDBRANCH   67   68
BRANCH   82   83
ATOM     83  C65 UNL A   1       5.620  -7.455  34.922  1.00  0.00    +0.000 C 
ATOM     84  C66 UNL A   1       6.809  -7.375  35.662  1.00  0.00    +0.000 C 
ATOM     85  F11 UNL A   1       7.815  -6.601  35.231  1.00  0.00    +0.000 F 
ATOM     86  C67 UNL A   1       6.985  -8.120  36.826  1.00  0.00    +0.000 C 
ATOM     87  F12 UNL A   1       8.149  -8.060  37.487  1.00  0.00    +0.000 F 
ATOM     88  C68 UNL A   1       5.965  -8.935  37.293  1.00  0.00    +0.000 C 
ATOM     89  F13 UNL A   1       6.135  -9.650  38.413  1.00  0.00    +0.000 F 
ATOM     90  C69 UNL A   1       4.772  -9.014  36.590  1.00  0.00    +0.000 C 
ATOM     91  F14 UNL A   1       3.778  -9.788  37.045  1.00  0.00    +0.000 F 
ATOM     92  C70 UNL A   1       4.605  -8.290  35.410  1.00  0.00    +0.000 C 
ATOM     93  F15 UNL A   1       3.445  -8.395  34.746  1.00  0.00    +0.000 F 
ENDBRANCH   82   83
TORSDOF 30
ENDMDL
MODEL 9
REMARK VINA RESULT:      -9.7     40.937     46.893
ROOT
ATOM    166  H62 UNL A   1       3.351  -3.023  35.450  1.00  0.00    +0.000 H 
ATOM    167  H63 UNL A   1       4.566  -5.294  35.856  1.00  0.00    +0.000 H 
ATOM    168  H64 UNL A   1       4.570  -4.536  31.789  1.00  0.00    +0.000 H 
ATOM    169  H65 UNL A   1       6.002  -6.480  25.834  1.00  0.00    +0.000 H 
ATOM    170  H66 UNL A   1       4.758  -4.297  25.452  1.00  0.00    +0.000 H 
ATOM    171  H67 UNL A   1       4.894  -4.979  29.549  1.00  0.00    +0.000 H 
ATOM    172  H68 UNL A   1       7.269  -9.300  30.244  1.00  0.00    +0.000 H 
ATOM    173  H69 UNL A   1       6.696  -9.033  32.724  1.00  0.00    +0.000 H 
ATOM     46  C41 UNL A   1       3.780  -3.082  27.844  1.00  0.00    +0.000 C 
ATOM     47  C42 UNL A   1       3.443  -2.575  29.221  1.00  0.00    +0.000 C 
ATOM     48  N3  UNL A   1       3.795  -3.042  30.389  1.00  0.00    +0.000 N 
ATOM    175  H71 UNL A   1       2.170  -0.823  28.535  1.00  0.00    +0.000 H 
ATOM     49  C43 UNL A   1       3.308  -2.127  31.314  1.00  0.00    +0.000 C 
ATOM    174  H70 UNL A   1       2.417  -0.140  30.995  1.00  0.00    +0.000 H 
ATOM     50  C44 UNL A   1       3.293  -2.222  32.663  1.00  0.00    +0.000 C 
ATOM     62  C51 UNL A   1       3.800  -3.363  33.369  1.00  0.00    +0.000 C 
ATOM     63  C52 UNL A   1       3.769  -3.625  34.725  1.00  0.00    +0.000 C 
ATOM     64  C53 UNL A   1       4.406  -4.851  34.938  1.00  0.00    +0.000 C 
ATOM     65  C54 UNL A   1       4.787  -5.376  33.711  1.00  0.00    +0.000 C 
ATOM     66  N4  UNL A   1       4.418  -4.445  32.758  1.00  0.00    +0.000 N 
ATOM     67  C55 UNL A   1       5.435  -6.632  33.435  1.00  0.00    +0.000 C 
ATOM     79  C62 UNL A   1       5.798  -7.089  32.210  1.00  0.00    +0.000 C 
ATOM     80  N5  UNL A   1       5.630  -6.500  30.965  1.00  0.00    +0.000 N 
ATOM     81  C63 UNL A   1       6.163  -7.327  30.096  1.00  0.00    +0.000 C 
ATOM     82  C64 UNL A   1       6.236  -7.214  28.595  1.00  0.00    +0.000 C 
ATOM     94  C71 UNL A   1       5.661  -6.149  28.007  1.00  0.00    +0.000 C 
ATOM     95  C72 UNL A   1       5.600  -5.882  26.572  1.00  0.00    +0.000 C 
ATOM     96  C73 UNL A   1       4.934  -4.733  26.370  1.00  0.00    +0.000 C 
ATOM     97  C74 UNL A   1       4.500  -4.201  27.662  1.00  0.00    +0.000 C 
ATOM     98  N6  UNL A   1       5.000  -5.090  28.576  1.00  0.00    +0.000 N 
ATOM     99  C75 UNL A   1       6.759  -8.525  30.699  1.00  0.00    +0.000 C 
ATOM    100  C76 UNL A   1       6.470  -8.352  31.981  1.00  0.00    +0.000 C 
ATOM    101  C77 UNL A   1       2.729  -1.031  30.578  1.00  0.00    +0.000 C 
ATOM    102  C78 UNL A   1       2.654  -1.330  29.292  1.00  0.00    +0.000 C 
ENDROOT
BRANCH   46   45
ATOM    164  H60 UNL A   1       4.470   0.012  24.477  1.00  0.00    +0.000 H 
ATOM    165  H61 UNL A   1       5.109  -1.073  26.564  1.00  0.00    +0.000 H 
ATOM    103  C79 UNL A   1       2.134  -2.579  26.087  1.00  0.00    +0.000 C 
ATOM    104  C80 UNL A   1       1.838  -2.065  24.844  1.00  0.00    +0.000 C 
ATOM     42  C37 UNL A   1       2.687  -1.109  24.273  1.00  0.00    +0.000 C 
ATOM     43  C38 UNL A   1       3.868  -0.714  24.898  1.00  0.00    +0.000 C 
ATOM     44  C39 UNL A   1       4.219  -1.319  26.102  1.00  0.00    +0.000 C 
ATOM     45  C40 UNL A   1       3.360  -2.264  26.689  1.00  0.00    +0.000 C 
ATOM    176  H72 UNL A   1       1.460  -3.192  26.572  1.00  0.00    +0.000 H 
ATOM    177  H73 UNL A   1       0.997  -2.382  24.337  1.00  0.00    +0.000 H 
BRANCH   42   40
ATOM     41  O3  UNL A   1       2.637  -0.608  21.963  1.00  0.00    +0.000 O 
ATOM     40  C36 UNL A   1       2.201  -0.404  23.065  1.00  0.00    +0.000 C 
BRANCH   40   39
ATOM    163  H59 UNL A   1       0.313   0.198  23.634  1.00  0.00    +0.000 H 
ATOM     39  N2  UNL A   1       1.193   0.507  23.321  1.00  0.00    +0.000 N 
BRANCH   39   38
ATOM    161  H57 UNL A   1       2.185   2.056  22.365  1.00  0.00    +0.000 H 
ATOM    162  H58 UNL A   1       0.549   2.420  22.813  1.00  0.00    +0.000 H 
ATOM     38  C35 UNL A   1       1.443   1.920  23.124  1.00  0.00    +0.000 C 
BRANCH   38   37
ATOM     37  C34 UNL A   1       1.937   2.484  24.433  1.00  0.00    +0.000 C 
ATOM    159  H55 UNL A   1       1.156   3.076  24.862  1.00  0.00    +0.000 H 
ATOM    160  H56 UNL A   1       2.204   1.653  25.051  1.00  0.00    +0.000 H 
BRANCH   37   36
ATOM     36  C33 UNL A   1       3.224   3.386  24.288  1.00  0.00    +0.000 C 
ATOM    157  H53 UNL A   1       3.716   3.048  23.400  1.00  0.00    +0.000 H 
ATOM    158  H54 UNL A   1       2.792   4.364  24.341  1.00  0.00    +0.000 H 
BRANCH   36   35
ATOM     35  C32 UNL A   1       4.417   3.507  25.447  1.00  0.00    +0.000 C 
ATOM    156  H52 UNL A   1       3.740   3.603  26.271  1.00  0.00    +0.000 H 
ATOM    155  H51 UNL A   1       5.104   4.202  25.011  1.00  0.00    +0.000 H 
BRANCH   35   34
ATOM    153  H49 UNL A   1       5.261   2.447  27.315  1.00  0.00    +0.000 H 
ATOM     34  C31 UNL A   1       5.529   2.307  26.289  1.00  0.00    +0.000 C 
ATOM    154  H50 UNL A   1       5.372   1.556  25.544  1.00  0.00    +0.000 H 
BRANCH   34   33
ATOM     33  C30 UNL A   1       7.582   1.877  26.443  1.00  0.00    +0.000 C 
ATOM    151  H47 UNL A   1       7.584   1.039  27.109  1.00  0.00    +0.000 H 
ATOM    152  H48 UNL A   1       7.756   2.010  25.396  1.00  0.00    +0.000 H 
BRANCH   33   32
ATOM    150  H46 UNL A   1       8.701   3.530  27.123  1.00  0.00    +0.000 H 
ATOM     32  N1  UNL A   1       8.859   2.600  26.841  1.00  0.00    +0.000 N 
BRANCH   32   30
ATOM     30  C29 UNL A   1      10.170   2.250  26.894  1.00  0.00    +0.000 C 
ATOM     31  O2  UNL A   1      10.710   2.428  27.994  1.00  0.00    +0.000 O 
BRANCH   30   29
ATOM    149  H45 UNL A   1      11.327   0.750  26.235  1.00  0.00    +0.000 H 
ATOM    148  H44 UNL A   1      11.648   2.417  25.447  1.00  0.00    +0.000 H 
ATOM     29  C28 UNL A   1      10.980   1.645  25.762  1.00  0.00    +0.000 C 
BRANCH   29   28
ATOM    146  H42 UNL A   1      10.432  -0.006  24.556  1.00  0.00    +0.000 H 
ATOM    147  H43 UNL A   1       9.416   1.480  24.396  1.00  0.00    +0.000 H 
ATOM     28  C27 UNL A   1      10.398   1.059  24.469  1.00  0.00    +0.000 C 
BRANCH   28   27
ATOM      3  C3  UNL A   1      10.395   2.614  22.377  1.00  0.00    +0.000 C 
ATOM      4  C4  UNL A   1       9.823   2.225  20.992  1.00  0.00    +0.000 C 
ATOM      6  C5  UNL A   1      10.625   1.146  20.264  1.00  0.00    +0.000 C 
ATOM      7  C6  UNL A   1      10.623  -0.157  21.127  1.00  0.00    +0.000 C 
ATOM      8  C7  UNL A   1      11.830   0.186  22.529  1.00  0.00    +0.000 C 
ATOM      9  C8  UNL A   1      12.731  -1.228  23.501  1.00  0.00    +0.000 C 
ATOM     10  C9  UNL A   1      12.408  -3.075  22.991  1.00  0.00    +0.000 C 
ATOM     11  C10 UNL A   1      11.117  -3.506  21.570  1.00  0.00    +0.000 C 
ATOM    139  H35 UNL A   1       8.404  -1.802  19.947  1.00  0.00    +0.000 H 
ATOM    140  H36 UNL A   1       9.302  -3.057  19.053  1.00  0.00    +0.000 H 
ATOM     13  C12 UNL A   1       9.597  -4.120  22.053  1.00  0.00    +0.000 C 
ATOM    137  H33 UNL A   1       7.705  -3.304  21.408  1.00  0.00    +0.000 H 
ATOM    144  H40 UNL A   1      12.934   2.088  22.156  1.00  0.00    +0.000 H 
ATOM    145  H41 UNL A   1      13.393   1.647  23.542  1.00  0.00    +0.000 H 
ATOM    138  H34 UNL A   1       8.403  -4.539  20.329  1.00  0.00    +0.000 H 
ATOM     22  C21 UNL A   1       8.589  -3.676  20.934  1.00  0.00    +0.000 C 
ATOM     23  C22 UNL A   1       9.128  -2.588  19.999  1.00  0.00    +0.000 C 
ATOM     24  C23 UNL A   1      10.476  -1.976  20.443  1.00  0.00    +0.000 C 
ATOM     26  C25 UNL A   1      12.545   1.449  22.921  1.00  0.00    +0.000 C 
ATOM     27  C26 UNL A   1      11.071   1.429  23.178  1.00  0.00    +0.000 C 
ATOM    108  H4  UNL A   1      11.233   3.244  22.164  1.00  0.00    +0.000 H 
ATOM    109  H5  UNL A   1       8.849   1.836  21.210  1.00  0.00    +0.000 H 
ATOM    111  H7  UNL A   1      11.631   1.481  20.121  1.00  0.00    +0.000 H 
ATOM    112  H8  UNL A   1      10.183   0.948  19.309  1.00  0.00    +0.000 H 
ATOM    113  H9  UNL A   1       9.603  -0.306  21.411  1.00  0.00    +0.000 H 
ATOM    114  H10 UNL A   1      12.448  -1.133  24.528  1.00  0.00    +0.000 H 
ATOM    115  H11 UNL A   1      13.765  -1.077  23.273  1.00  0.00    +0.000 H 
ATOM    116  H12 UNL A   1      12.076  -3.584  23.872  1.00  0.00    +0.000 H 
ATOM    117  H13 UNL A   1      13.343  -3.376  22.566  1.00  0.00    +0.000 H 
ATOM    121  H17 UNL A   1       9.842  -5.145  22.237  1.00  0.00    +0.000 H 
BRANCH    3    2
ATOM      2  C2  UNL A   1       9.450   3.497  23.190  1.00  0.00    +0.000 C 
ATOM    107  H3  UNL A   1       9.896   4.154  23.849  1.00  0.00    +0.000 H 
BRANCH    2    1
ATOM      1  C1  UNL A   1       8.108   3.523  23.150  1.00  0.00    +0.000 C 
ATOM    106  H2  UNL A   1       7.574   2.641  23.181  1.00  0.00    +0.000 H 
ATOM    105  H1  UNL A   1       7.610   4.425  23.089  1.00  0.00    +0.000 H 
ENDBRANCH    2    1
ENDBRANCH    3    2
BRANCH    4    5
ATOM      5  O1  UNL A   1       9.758   3.362  20.121  1.00  0.00    +0.000 O 
ATOM    110  H6  UNL A   1       9.637   3.062  19.206  1.00  0.00    +0.000 H 
ENDBRANCH    4    5
BRANCH   11   12
ATOM     12  C11 UNL A   1      11.704  -4.913  21.118  1.00  0.00    +0.000 C 
ATOM    118  H14 UNL A   1      10.993  -5.682  21.334  1.00  0.00    +0.000 H 
ATOM    119  H15 UNL A   1      12.612  -5.108  21.648  1.00  0.00    +0.000 H 
ATOM    120  H16 UNL A   1      11.901  -4.895  20.066  1.00  0.00    +0.000 H 
ENDBRANCH   11   12
BRANCH   13   14
ATOM    122  H18 UNL A   1       9.904  -4.011  23.967  1.00  0.00    +0.000 H 
ATOM     14  C13 UNL A   1       9.015  -4.441  23.558  1.00  0.00    +0.000 C 
BRANCH   14   15
ATOM    123  H19 UNL A   1       7.613  -6.032  23.914  1.00  0.00    +0.000 H 
ATOM    124  H20 UNL A   1       9.214  -6.342  24.542  1.00  0.00    +0.000 H 
ATOM    125  H21 UNL A   1       8.911  -6.459  22.825  1.00  0.00    +0.000 H 
ATOM     15  C14 UNL A   1       8.661  -5.932  23.723  1.00  0.00    +0.000 C 
ENDBRANCH   14   15
BRANCH   14   16
ATOM    126  H22 UNL A   1       7.296  -4.230  24.846  1.00  0.00    +0.000 H 
ATOM    127  H23 UNL A   1       7.796  -2.754  23.865  1.00  0.00    +0.000 H 
ATOM     16  C15 UNL A   1       8.065  -3.571  24.501  1.00  0.00    +0.000 C 
BRANCH   16   17
ATOM     17  C16 UNL A   1       8.613  -2.842  25.762  1.00  0.00    +0.000 C 
ATOM    129  H25 UNL A   1       8.389  -1.810  25.585  1.00  0.00    +0.000 H 
ATOM    128  H24 UNL A   1       8.141  -3.288  26.614  1.00  0.00    +0.000 H 
BRANCH   17   18
ATOM     18  C17 UNL A   1      10.119  -2.858  26.021  1.00  0.00    +0.000 C 
ATOM    130  H26 UNL A   1      10.677  -3.402  25.345  1.00  0.00    +0.000 H 
BRANCH   18   19
ATOM     19  C18 UNL A   1      10.828  -2.260  27.013  1.00  0.00    +0.000 C 
BRANCH   19   20
ATOM    133  H29 UNL A   1       9.258  -1.915  28.397  1.00  0.00    +0.000 H 
ATOM    131  H27 UNL A   1       9.937  -0.463  27.702  1.00  0.00    +0.000 H 
ATOM     20  C19 UNL A   1      10.163  -1.435  28.088  1.00  0.00    +0.000 C 
ATOM    132  H28 UNL A   1      10.822  -1.342  28.926  1.00  0.00    +0.000 H 
ENDBRANCH   19   20
BRANCH   19   21
ATOM     21  C20 UNL A   1      12.319  -2.241  27.181  1.00  0.00    +0.000 C 
ATOM    134  H30 UNL A   1      12.572  -1.668  28.048  1.00  0.00    +0.000 H 
ATOM    135  H31 UNL A   1      12.769  -1.799  26.317  1.00  0.00    +0.000 H 
ATOM    136  H32 UNL A   1      12.677  -3.243  27.299  1.00  0.00    +0.000 H 
ENDBRANCH   19   21
ENDBRANCH   18   19
ENDBRANCH   17   18
ENDBRANCH   16   17
ENDBRANCH   14   16
ENDBRANCH   13   14
BRANCH   24   25
ATOM     25  C24 UNL A   1      10.954  -1.398  19.050  1.00  0.00    +0.000 C 
ATOM    141  H37 UNL A   1      10.333  -1.786  18.270  1.00  0.00    +0.000 H 
ATOM    142  H38 UNL A   1      11.970  -1.686  18.873  1.00  0.00    +0.000 H 
ATOM    143  H39 UNL A   1      10.884  -0.330  19.063  1.00  0.00    +0.000 H 
ENDBRANCH   24   25
ENDBRANCH   28   27
ENDBRANCH   29   28
ENDBRANCH   30   29
ENDBRANCH   32   30
ENDBRANCH   33   32
ENDBRANCH   34   33
ENDBRANCH   35   34
ENDBRANCH   36   35
ENDBRANCH   37   36
ENDBRANCH   38   37
ENDBRANCH   39   38
ENDBRANCH   40   39
ENDBRANCH   42   40
ENDBRANCH   46   45
BRANCH   50   51
ATOM     51  C45 UNL A   1       2.689  -1.085  33.433  1.00  0.00    +0.000 C 
ATOM     52  C46 UNL A   1       1.298  -0.932  33.562  1.00  0.00    +0.000 C 
ATOM     53  F1  UNL A   1       0.466  -1.811  32.983  1.00  0.00    +0.000 F 
ATOM     54  C47 UNL A   1       0.753   0.160  34.231  1.00  0.00    +0.000 C 
ATOM     55  F2  UNL A   1      -0.577   0.320  34.276  1.00  0.00    +0.000 F 
ATOM     56  C48 UNL A   1       1.584   1.095  34.828  1.00  0.00    +0.000 C 
ATOM     57  F3  UNL A   1       1.059   2.145  35.474  1.00  0.00    +0.000 F 
ATOM     58  C49 UNL A   1       2.961   0.947  34.745  1.00  0.00    +0.000 C 
ATOM     59  F4  UNL A   1       3.765   1.845  35.330  1.00  0.00    +0.000 F 
ATOM     60  C50 UNL A   1       3.510  -0.124  34.043  1.00  0.00    +0.000 C 
ATOM     61  F5  UNL A   1       4.844  -0.217  33.951  1.00  0.00    +0.000 F 
ENDBRANCH   50   51
BRANCH   67   68
ATOM     68  C56 UNL A   1       5.719  -7.518  34.610  1.00  0.00    +0.000 C 
ATOM     69  C57 UNL A   1       4.868  -8.578  34.951  1.00  0.00    +0.000 C 
ATOM     70  F6  UNL A   1       3.725  -8.771  34.277  1.00  0.00    +0.000 F 
ATOM     71  C58 UNL A   1       5.180  -9.428  36.007  1.00  0.00    +0.000 C 
ATOM     72  F7  UNL A   1       4.335 -10.412  36.343  1.00  0.00    +0.000 F 
ATOM     73  C59 UNL A   1       6.361  -9.256  36.714  1.00  0.00    +0.000 C 
ATOM     74  F8  UNL A   1       6.667 -10.088  37.720  1.00  0.00    +0.000 F 
ATOM     75  C60 UNL A   1       7.223  -8.222  36.383  1.00  0.00    +0.000 C 
ATOM     76  F9  UNL A   1       8.374  -8.067  37.052  1.00  0.00    +0.000 F 
ATOM     77  C61 UNL A   1       6.899  -7.350  35.350  1.00  0.00    +0.000 C 
ATOM     78  F10 UNL A   1       7.750  -6.357  35.051  1.00  0.00    +0.000 F 
ENDBRANCH   67   68
BRANCH   82   83
ATOM     83  C65 UNL A   1       6.873  -8.271  27.767  1.00  0.00    +0.000 C 
ATOM     84  C66 UNL A   1       6.283  -9.537  27.637  1.00  0.00    +0.000 C 
ATOM     85  F11 UNL A   1       5.137  -9.810  28.276  1.00  0.00    +0.000 F 
ATOM     86  C67 UNL A   1       6.888 -10.541  26.882  1.00  0.00    +0.000 C 
ATOM     87  F12 UNL A   1       6.326 -11.755  26.815  1.00  0.00    +0.000 F 
ATOM     88  C68 UNL A   1       8.077 -10.290  26.216  1.00  0.00    +0.000 C 
ATOM     89  F13 UNL A   1       8.658 -11.255  25.489  1.00  0.00    +0.000 F 
ATOM     90  C69 UNL A   1       8.669  -9.039  26.311  1.00  0.00    +0.000 C 
ATOM     91  F14 UNL A   1       9.810  -8.788  25.656  1.00  0.00    +0.000 F 
ATOM     92  C70 UNL A   1       8.079  -8.043  27.088  1.00  0.00    +0.000 C 
ATOM     93  F15 UNL A   1       8.680  -6.847  27.171  1.00  0.00    +0.000 F 
ENDBRANCH   82   83
TORSDOF 30
ENDMDL
MODEL 10
REMARK VINA RESULT:      -9.7     49.151     54.014
ROOT
ATOM    166  H62 UNL A   1      18.686  33.859  47.757  1.00  0.00    +0.000 H 
ATOM    167  H63 UNL A   1      16.906  35.300  49.003  1.00  0.00    +0.000 H 
ATOM    168  H64 UNL A   1      20.231  37.664  48.319  1.00  0.00    +0.000 H 
ATOM    169  H65 UNL A   1      23.232  43.292  49.099  1.00  0.00    +0.000 H 
ATOM    170  H66 UNL A   1      24.980  41.854  47.942  1.00  0.00    +0.000 H 
ATOM    171  H67 UNL A   1      21.581  39.526  48.488  1.00  0.00    +0.000 H 
ATOM    172  H68 UNL A   1      18.217  42.358  50.823  1.00  0.00    +0.000 H 
ATOM    173  H69 UNL A   1      16.763  40.255  50.940  1.00  0.00    +0.000 H 
ATOM     46  C41 UNL A   1      24.152  39.160  47.485  1.00  0.00    +0.000 C 
ATOM     47  C42 UNL A   1      23.481  37.830  47.259  1.00  0.00    +0.000 C 
ATOM     48  N3  UNL A   1      22.241  37.477  47.472  1.00  0.00    +0.000 N 
ATOM    175  H71 UNL A   1      25.322  36.754  46.477  1.00  0.00    +0.000 H 
ATOM     49  C43 UNL A   1      22.138  36.182  46.982  1.00  0.00    +0.000 C 
ATOM    174  H70 UNL A   1      23.573  35.005  45.798  1.00  0.00    +0.000 H 
ATOM     50  C44 UNL A   1      21.098  35.324  47.085  1.00  0.00    +0.000 C 
ATOM     62  C51 UNL A   1      19.883  35.652  47.773  1.00  0.00    +0.000 C 
ATOM     63  C52 UNL A   1      18.788  34.850  48.025  1.00  0.00    +0.000 C 
ATOM     64  C53 UNL A   1      17.842  35.619  48.709  1.00  0.00    +0.000 C 
ATOM     65  C54 UNL A   1      18.369  36.884  48.927  1.00  0.00    +0.000 C 
ATOM     66  N4  UNL A   1      19.619  36.893  48.337  1.00  0.00    +0.000 N 
ATOM     67  C55 UNL A   1      17.774  37.996  49.623  1.00  0.00    +0.000 C 
ATOM     79  C62 UNL A   1      18.333  39.220  49.795  1.00  0.00    +0.000 C 
ATOM     80  N5  UNL A   1      19.570  39.689  49.377  1.00  0.00    +0.000 N 
ATOM     81  C63 UNL A   1      19.637  40.939  49.771  1.00  0.00    +0.000 C 
ATOM     82  C64 UNL A   1      20.766  41.927  49.618  1.00  0.00    +0.000 C 
ATOM     94  C71 UNL A   1      21.903  41.509  49.032  1.00  0.00    +0.000 C 
ATOM     95  C72 UNL A   1      23.111  42.305  48.825  1.00  0.00    +0.000 C 
ATOM     96  C73 UNL A   1      24.038  41.542  48.222  1.00  0.00    +0.000 C 
ATOM     97  C74 UNL A   1      23.494  40.197  48.028  1.00  0.00    +0.000 C 
ATOM     98  N6  UNL A   1      22.216  40.279  48.511  1.00  0.00    +0.000 N 
ATOM     99  C75 UNL A   1      18.430  41.416  50.457  1.00  0.00    +0.000 C 
ATOM    100  C76 UNL A   1      17.687  40.318  50.484  1.00  0.00    +0.000 C 
ATOM    101  C77 UNL A   1      23.400  35.847  46.370  1.00  0.00    +0.000 C 
ATOM    102  C78 UNL A   1      24.305  36.770  46.647  1.00  0.00    +0.000 C 
ENDROOT
BRANCH   46   45
ATOM    164  H60 UNL A   1      27.400  40.654  44.553  1.00  0.00    +0.000 H 
ATOM    165  H61 UNL A   1      25.084  40.148  45.119  1.00  0.00    +0.000 H 
ATOM    103  C79 UNL A   1      26.567  38.985  47.911  1.00  0.00    +0.000 C 
ATOM    104  C80 UNL A   1      27.856  39.392  47.646  1.00  0.00    +0.000 C 
ATOM     42  C37 UNL A   1      28.153  39.985  46.413  1.00  0.00    +0.000 C 
ATOM     43  C38 UNL A   1      27.162  40.241  45.468  1.00  0.00    +0.000 C 
ATOM     44  C39 UNL A   1      25.842  39.930  45.786  1.00  0.00    +0.000 C 
ATOM     45  C40 UNL A   1      25.542  39.317  47.014  1.00  0.00    +0.000 C 
ATOM    176  H72 UNL A   1      26.357  38.441  48.763  1.00  0.00    +0.000 H 
ATOM    177  H73 UNL A   1      28.598  39.262  48.352  1.00  0.00    +0.000 H 
BRANCH   42   40
ATOM     41  O3  UNL A   1      29.959  40.842  45.151  1.00  0.00    +0.000 O 
ATOM     40  C36 UNL A   1      29.582  40.171  46.076  1.00  0.00    +0.000 C 
BRANCH   40   39
ATOM    163  H59 UNL A   1      30.130  39.190  47.804  1.00  0.00    +0.000 H 
ATOM     39  N2  UNL A   1      30.445  39.507  46.927  1.00  0.00    +0.000 N 
BRANCH   39   38
ATOM    161  H57 UNL A   1      32.059  39.914  45.692  1.00  0.00    +0.000 H 
ATOM    162  H58 UNL A   1      32.489  39.503  47.321  1.00  0.00    +0.000 H 
ATOM     38  C35 UNL A   1      31.816  39.280  46.519  1.00  0.00    +0.000 C 
BRANCH   38   37
ATOM     37  C34 UNL A   1      31.939  37.833  46.112  1.00  0.00    +0.000 C 
ATOM    159  H55 UNL A   1      32.890  37.469  46.440  1.00  0.00    +0.000 H 
ATOM    160  H56 UNL A   1      31.123  37.310  46.566  1.00  0.00    +0.000 H 
BRANCH   37   36
ATOM     36  C33 UNL A   1      31.826  37.602  44.555  1.00  0.00    +0.000 C 
ATOM    157  H53 UNL A   1      32.158  38.512  44.102  1.00  0.00    +0.000 H 
ATOM    158  H54 UNL A   1      32.386  36.696  44.445  1.00  0.00    +0.000 H 
BRANCH   36   35
ATOM     35  C32 UNL A   1      30.413  37.195  43.768  1.00  0.00    +0.000 C 
ATOM    156  H52 UNL A   1      30.628  36.147  43.722  1.00  0.00    +0.000 H 
ATOM    155  H51 UNL A   1      30.344  37.938  43.001  1.00  0.00    +0.000 H 
BRANCH   35   34
ATOM    153  H49 UNL A   1      28.322  37.992  44.329  1.00  0.00    +0.000 H 
ATOM     34  C31 UNL A   1      28.661  36.979  44.286  1.00  0.00    +0.000 C 
ATOM    154  H50 UNL A   1      28.515  36.141  43.637  1.00  0.00    +0.000 H 
BRANCH   34   33
ATOM     33  C30 UNL A   1      27.559  36.098  45.845  1.00  0.00    +0.000 C 
ATOM    151  H47 UNL A   1      27.773  36.751  46.666  1.00  0.00    +0.000 H 
ATOM    152  H48 UNL A   1      26.705  35.916  45.228  1.00  0.00    +0.000 H 
BRANCH   33   32
ATOM    150  H46 UNL A   1      26.599  34.300  46.387  1.00  0.00    +0.000 H 
ATOM     32  N1  UNL A   1      27.464  34.746  46.536  1.00  0.00    +0.000 N 
BRANCH   32   30
ATOM     30  C29 UNL A   1      28.304  34.017  47.313  1.00  0.00    +0.000 C 
ATOM     31  O2  UNL A   1      27.754  33.399  48.235  1.00  0.00    +0.000 O 
BRANCH   30   29
ATOM    149  H45 UNL A   1      30.088  33.537  48.095  1.00  0.00    +0.000 H 
ATOM    148  H44 UNL A   1      30.128  34.815  46.727  1.00  0.00    +0.000 H 
ATOM     29  C28 UNL A   1      29.803  33.876  47.120  1.00  0.00    +0.000 C 
BRANCH   29   28
ATOM    146  H42 UNL A   1      30.119  31.859  46.562  1.00  0.00    +0.000 H 
ATOM    147  H43 UNL A   1      30.258  33.090  45.246  1.00  0.00    +0.000 H 
ATOM     28  C27 UNL A   1      30.491  32.813  46.253  1.00  0.00    +0.000 C 
BRANCH   28   27
ATOM      3  C3  UNL A   1      32.725  33.138  44.951  1.00  0.00    +0.000 C 
ATOM      4  C4  UNL A   1      33.535  31.994  44.294  1.00  0.00    +0.000 C 
ATOM      6  C5  UNL A   1      34.186  31.035  45.291  1.00  0.00    +0.000 C 
ATOM      7  C6  UNL A   1      33.068  30.354  46.145  1.00  0.00    +0.000 C 
ATOM      8  C7  UNL A   1      32.507  31.678  47.358  1.00  0.00    +0.000 C 
ATOM      9  C8  UNL A   1      31.660  31.253  49.049  1.00  0.00    +0.000 C 
ATOM     10  C9  UNL A   1      31.405  29.389  49.533  1.00  0.00    +0.000 C 
ATOM     11  C10 UNL A   1      31.918  27.956  48.286  1.00  0.00    +0.000 C 
ATOM    139  H35 UNL A   1      32.611  27.723  44.770  1.00  0.00    +0.000 H 
ATOM    140  H36 UNL A   1      33.393  26.574  45.889  1.00  0.00    +0.000 H 
ATOM     13  C12 UNL A   1      30.661  27.168  47.438  1.00  0.00    +0.000 C 
ATOM    137  H33 UNL A   1      30.620  26.920  45.294  1.00  0.00    +0.000 H 
ATOM    144  H40 UNL A   1      33.870  33.442  47.268  1.00  0.00    +0.000 H 
ATOM    145  H41 UNL A   1      32.764  33.864  48.229  1.00  0.00    +0.000 H 
ATOM    138  H34 UNL A   1      31.477  25.638  46.187  1.00  0.00    +0.000 H 
ATOM     22  C21 UNL A   1      31.300  26.689  46.087  1.00  0.00    +0.000 C 
ATOM     23  C22 UNL A   1      32.652  27.337  45.767  1.00  0.00    +0.000 C 
ATOM     24  C23 UNL A   1      33.046  28.491  46.716  1.00  0.00    +0.000 C 
ATOM     26  C25 UNL A   1      32.861  33.136  47.452  1.00  0.00    +0.000 C 
ATOM     27  C26 UNL A   1      31.991  32.750  46.297  1.00  0.00    +0.000 C 
ATOM    108  H4  UNL A   1      33.459  33.837  45.292  1.00  0.00    +0.000 H 
ATOM    109  H5  UNL A   1      32.809  31.451  43.724  1.00  0.00    +0.000 H 
ATOM    111  H7  UNL A   1      34.847  31.579  45.933  1.00  0.00    +0.000 H 
ATOM    112  H8  UNL A   1      34.745  30.288  44.765  1.00  0.00    +0.000 H 
ATOM    113  H9  UNL A   1      32.335  30.024  45.438  1.00  0.00    +0.000 H 
ATOM    114  H10 UNL A   1      30.692  31.709  49.037  1.00  0.00    +0.000 H 
ATOM    115  H11 UNL A   1      32.350  31.616  49.780  1.00  0.00    +0.000 H 
ATOM    116  H12 UNL A   1      30.361  29.263  49.732  1.00  0.00    +0.000 H 
ATOM    117  H13 UNL A   1      32.087  29.255  50.347  1.00  0.00    +0.000 H 
ATOM    121  H17 UNL A   1      30.309  26.487  48.185  1.00  0.00    +0.000 H 
BRANCH    3    2
ATOM      2  C2  UNL A   1      31.881  33.926  43.950  1.00  0.00    +0.000 C 
ATOM    107  H3  UNL A   1      31.604  34.877  44.240  1.00  0.00    +0.000 H 
BRANCH    2    1
ATOM      1  C1  UNL A   1      31.458  33.532  42.738  1.00  0.00    +0.000 C 
ATOM    106  H2  UNL A   1      30.927  34.182  42.140  1.00  0.00    +0.000 H 
ATOM    105  H1  UNL A   1      31.666  32.577  42.404  1.00  0.00    +0.000 H 
ENDBRANCH    2    1
ENDBRANCH    3    2
BRANCH    4    5
ATOM      5  O1  UNL A   1      34.582  32.512  43.462  1.00  0.00    +0.000 O 
ATOM    110  H6  UNL A   1      35.100  31.777  43.098  1.00  0.00    +0.000 H 
ENDBRANCH    4    5
BRANCH   11   12
ATOM     12  C11 UNL A   1      32.144  26.782  49.334  1.00  0.00    +0.000 C 
ATOM    118  H14 UNL A   1      31.882  25.847  48.885  1.00  0.00    +0.000 H 
ATOM    119  H15 UNL A   1      31.531  26.949  50.194  1.00  0.00    +0.000 H 
ATOM    120  H16 UNL A   1      33.173  26.760  49.628  1.00  0.00    +0.000 H 
ENDBRANCH   11   12
BRANCH   13   14
ATOM    122  H18 UNL A   1      29.124  27.565  48.556  1.00  0.00    +0.000 H 
ATOM     14  C13 UNL A   1      29.033  27.399  47.503  1.00  0.00    +0.000 C 
BRANCH   14   15
ATOM    123  H19 UNL A   1      28.962  25.457  46.584  1.00  0.00    +0.000 H 
ATOM    124  H20 UNL A   1      27.674  26.527  46.084  1.00  0.00    +0.000 H 
ATOM    125  H21 UNL A   1      27.628  25.781  47.664  1.00  0.00    +0.000 H 
ATOM     15  C14 UNL A   1      28.266  26.200  46.914  1.00  0.00    +0.000 C 
ENDBRANCH   14   15
BRANCH   14   16
ATOM    126  H22 UNL A   1      27.531  28.540  46.454  1.00  0.00    +0.000 H 
ATOM    127  H23 UNL A   1      28.930  29.478  47.198  1.00  0.00    +0.000 H 
ATOM     16  C15 UNL A   1      28.173  28.728  47.289  1.00  0.00    +0.000 C 
BRANCH   16   17
ATOM     17  C16 UNL A   1      27.267  29.305  48.415  1.00  0.00    +0.000 C 
ATOM    129  H25 UNL A   1      27.154  30.337  48.156  1.00  0.00    +0.000 H 
ATOM    128  H24 UNL A   1      26.371  28.719  48.428  1.00  0.00    +0.000 H 
BRANCH   17   18
ATOM     18  C17 UNL A   1      27.806  29.335  49.844  1.00  0.00    +0.000 C 
ATOM    130  H26 UNL A   1      28.377  30.161  50.084  1.00  0.00    +0.000 H 
BRANCH   18   19
ATOM     19  C18 UNL A   1      27.640  28.434  50.846  1.00  0.00    +0.000 C 
BRANCH   19   20
ATOM    133  H29 UNL A   1      27.148  28.512  52.908  1.00  0.00    +0.000 H 
ATOM    131  H27 UNL A   1      25.849  27.957  51.878  1.00  0.00    +0.000 H 
ATOM     20  C19 UNL A   1      26.655  28.656  51.968  1.00  0.00    +0.000 C 
ATOM    132  H28 UNL A   1      26.272  29.653  51.916  1.00  0.00    +0.000 H 
ENDBRANCH   19   20
BRANCH   19   21
ATOM     21  C20 UNL A   1      28.404  27.160  51.060  1.00  0.00    +0.000 C 
ATOM    134  H30 UNL A   1      29.452  27.373  51.081  1.00  0.00    +0.000 H 
ATOM    135  H31 UNL A   1      28.193  26.480  50.262  1.00  0.00    +0.000 H 
ATOM    136  H32 UNL A   1      28.110  26.721  51.991  1.00  0.00    +0.000 H 
ENDBRANCH   19   21
ENDBRANCH   18   19
ENDBRANCH   17   18
ENDBRANCH   16   17
ENDBRANCH   14   16
ENDBRANCH   13   14
BRANCH   24   25
ATOM     25  C24 UNL A   1      34.610  28.488  46.470  1.00  0.00    +0.000 C 
ATOM    141  H37 UNL A   1      35.118  28.402  47.407  1.00  0.00    +0.000 H 
ATOM    142  H38 UNL A   1      34.897  29.401  45.991  1.00  0.00    +0.000 H 
ATOM    143  H39 UNL A   1      34.871  27.660  45.845  1.00  0.00    +0.000 H 
ENDBRANCH   24   25
ENDBRANCH   28   27
ENDBRANCH   29   28
ENDBRANCH   30   29
ENDBRANCH   32   30
ENDBRANCH   33   32
ENDBRANCH   34   33
ENDBRANCH   35   34
ENDBRANCH   36   35
ENDBRANCH   37   36
ENDBRANCH   38   37
ENDBRANCH   39   38
ENDBRANCH   40   39
ENDBRANCH   42   40
ENDBRANCH   46   45
BRANCH   50   51
ATOM     51  C45 UNL A   1      21.255  33.964  46.470  1.00  0.00    +0.000 C 
ATOM     52  C46 UNL A   1      21.854  32.900  47.165  1.00  0.00    +0.000 C 
ATOM     53  F1  UNL A   1      22.313  33.082  48.412  1.00  0.00    +0.000 F 
ATOM     54  C47 UNL A   1      22.043  31.661  46.560  1.00  0.00    +0.000 C 
ATOM     55  F2  UNL A   1      22.684  30.686  47.219  1.00  0.00    +0.000 F 
ATOM     56  C48 UNL A   1      21.594  31.443  45.266  1.00  0.00    +0.000 C 
ATOM     57  F3  UNL A   1      21.774  30.250  44.685  1.00  0.00    +0.000 F 
ATOM     58  C49 UNL A   1      20.967  32.468  44.572  1.00  0.00    +0.000 C 
ATOM     59  F4  UNL A   1      20.524  32.256  43.326  1.00  0.00    +0.000 F 
ATOM     60  C50 UNL A   1      20.812  33.721  45.161  1.00  0.00    +0.000 C 
ATOM     61  F5  UNL A   1      20.234  34.700  44.449  1.00  0.00    +0.000 F 
ENDBRANCH   50   51
BRANCH   67   68
ATOM     68  C56 UNL A   1      16.420  37.769  50.224  1.00  0.00    +0.000 C 
ATOM     69  C57 UNL A   1      16.243  37.655  51.610  1.00  0.00    +0.000 C 
ATOM     70  F6  UNL A   1      17.305  37.662  52.429  1.00  0.00    +0.000 F 
ATOM     71  C58 UNL A   1      14.972  37.508  52.154  1.00  0.00    +0.000 C 
ATOM     72  F7  UNL A   1      14.826  37.361  53.479  1.00  0.00    +0.000 F 
ATOM     73  C59 UNL A   1      13.857  37.508  51.330  1.00  0.00    +0.000 C 
ATOM     74  F8  UNL A   1      12.631  37.383  51.859  1.00  0.00    +0.000 F 
ATOM     75  C60 UNL A   1      14.009  37.633  49.958  1.00  0.00    +0.000 C 
ATOM     76  F9  UNL A   1      12.931  37.654  49.161  1.00  0.00    +0.000 F 
ATOM     77  C61 UNL A   1      15.280  37.747  49.406  1.00  0.00    +0.000 C 
ATOM     78  F10 UNL A   1      15.400  37.867  48.076  1.00  0.00    +0.000 F 
ENDBRANCH   67   68
BRANCH   82   83
ATOM     83  C65 UNL A   1      20.662  43.312  50.148  1.00  0.00    +0.000 C 
ATOM     84  C66 UNL A   1      21.019  43.605  51.472  1.00  0.00    +0.000 C 
ATOM     85  F11 UNL A   1      21.445  42.626  52.283  1.00  0.00    +0.000 F 
ATOM     86  C67 UNL A   1      20.901  44.896  51.983  1.00  0.00    +0.000 C 
ATOM     87  F12 UNL A   1      21.203  45.138  53.265  1.00  0.00    +0.000 F 
ATOM     88  C68 UNL A   1      20.455  45.928  51.170  1.00  0.00    +0.000 C 
ATOM     89  F13 UNL A   1      20.343  47.170  51.660  1.00  0.00    +0.000 F 
ATOM     90  C69 UNL A   1      20.119  45.667  49.850  1.00  0.00    +0.000 C 
ATOM     91  F14 UNL A   1      19.703  46.664  49.057  1.00  0.00    +0.000 F 
ATOM     92  C70 UNL A   1      20.210  44.371  49.347  1.00  0.00    +0.000 C 
ATOM     93  F15 UNL A   1      19.867  44.147  48.070  1.00  0.00    +0.000 F 
ENDBRANCH   82   83
TORSDOF 30
ENDMDL
