MODEL 1
REMARK VINA RESULT:     -14.1      0.000      0.000
ROOT
ATOM    138  H33 UNL A   1      24.478  13.253   8.541  1.00  0.00    +0.000 H 
ATOM    139  H34 UNL A   1      23.389  13.077   6.115  1.00  0.00    +0.000 H 
ATOM    140  H35 UNL A   1      21.627  16.059   8.163  1.00  0.00    +0.000 H 
ATOM    141  H36 UNL A   1      25.377  20.143   2.033  1.00  0.00    +0.000 H 
ATOM    142  H37 UNL A   1      27.345  18.867   3.027  1.00  0.00    +0.000 H 
ATOM    143  H38 UNL A   1      24.043  18.093   5.429  1.00  0.00    +0.000 H 
ATOM    144  H39 UNL A   1      21.752  20.220   6.248  1.00  0.00    +0.000 H 
ATOM    145  H40 UNL A   1      21.666  17.888   7.345  1.00  0.00    +0.000 H 
ATOM    146  H41 UNL A   1      26.478  17.801  10.208  1.00  0.00    +0.000 H 
ATOM    147  H42 UNL A   1      27.561  18.989   8.199  1.00  0.00    +0.000 H 
ATOM     47  C36 UNL A   1      26.802  17.847   5.684  1.00  0.00    +0.000 C 
ATOM     48  C37 UNL A   1      26.293  17.503   7.042  1.00  0.00    +0.000 C 
ATOM     49  N8  UNL A   1      25.468  16.562   7.374  1.00  0.00    +0.000 N 
ATOM     50  C38 UNL A   1      25.266  16.698   8.748  1.00  0.00    +0.000 C 
ATOM     51  C39 UNL A   1      24.145  16.213   9.352  1.00  0.00    +0.000 C 
ATOM     63  C46 UNL A   1      23.516  15.198   8.547  1.00  0.00    +0.000 C 
ATOM     64  C47 UNL A   1      23.891  13.958   8.068  1.00  0.00    +0.000 C 
ATOM     65  C48 UNL A   1      23.290  13.863   6.777  1.00  0.00    +0.000 C 
ATOM     66  C49 UNL A   1      22.547  15.025   6.572  1.00  0.00    +0.000 C 
ATOM     67  N9  UNL A   1      22.396  15.540   7.832  1.00  0.00    +0.000 N 
ATOM     68  C50 UNL A   1      22.076  15.693   5.387  1.00  0.00    +0.000 C 
ATOM     80  C57 UNL A   1      21.771  17.020   5.318  1.00  0.00    +0.000 C 
ATOM     81  N10 UNL A   1      21.772  17.690   4.103  1.00  0.00    +0.000 N 
ATOM     82  C58 UNL A   1      22.035  18.930   4.410  1.00  0.00    +0.000 C 
ATOM     83  C59 UNL A   1      22.915  19.804   3.594  1.00  0.00    +0.000 C 
ATOM     95  C66 UNL A   1      24.176  19.313   3.696  1.00  0.00    +0.000 C 
ATOM     96  C67 UNL A   1      25.349  19.568   2.889  1.00  0.00    +0.000 C 
ATOM     97  C68 UNL A   1      26.402  18.928   3.441  1.00  0.00    +0.000 C 
ATOM     98  C69 UNL A   1      25.999  18.335   4.716  1.00  0.00    +0.000 C 
ATOM     99  N11 UNL A   1      24.631  18.498   4.751  1.00  0.00    +0.000 N 
ATOM    100  C70 UNL A   1      21.822  19.293   5.801  1.00  0.00    +0.000 C 
ATOM    101  C71 UNL A   1      21.741  18.070   6.333  1.00  0.00    +0.000 C 
ATOM    102  C72 UNL A   1      26.263  17.624   9.215  1.00  0.00    +0.000 C 
ATOM    103  C73 UNL A   1      26.869  18.222   8.190  1.00  0.00    +0.000 C 
ENDROOT
BRANCH   47   46
ATOM    104  C74 UNL A   1      29.083  18.718   6.103  1.00  0.00    +0.000 C 
ATOM    105  C75 UNL A   1      30.457  18.592   5.962  1.00  0.00    +0.000 C 
ATOM    136  H31 UNL A   1      30.574  15.656   4.360  1.00  0.00    +0.000 H 
ATOM     43  C32 UNL A   1      31.023  17.506   5.266  1.00  0.00    +0.000 C 
ATOM     44  C33 UNL A   1      30.175  16.500   4.800  1.00  0.00    +0.000 C 
ATOM     45  C34 UNL A   1      28.795  16.627   4.926  1.00  0.00    +0.000 C 
ATOM    137  H32 UNL A   1      28.173  15.886   4.566  1.00  0.00    +0.000 H 
ATOM     46  C35 UNL A   1      28.252  17.757   5.538  1.00  0.00    +0.000 C 
ATOM    148  H43 UNL A   1      28.682  19.517   6.620  1.00  0.00    +0.000 H 
ATOM    149  H44 UNL A   1      31.077  19.305   6.377  1.00  0.00    +0.000 H 
BRANCH   43    2
ATOM      1  O1  UNL A   1      33.061  16.643   4.494  1.00  0.00    +0.000 O 
ATOM      2  C1  UNL A   1      32.492  17.593   5.038  1.00  0.00    +0.000 C 
BRANCH    2    3
ATOM    106  H1  UNL A   1      32.849  19.496   5.376  1.00  0.00    +0.000 H 
ATOM      3  N1  UNL A   1      33.293  18.620   5.446  1.00  0.00    +0.000 N 
BRANCH    3    4
ATOM    108  H3  UNL A   1      34.563  18.961   6.995  1.00  0.00    +0.000 H 
ATOM    107  H2  UNL A   1      35.136  17.788   5.784  1.00  0.00    +0.000 H 
ATOM      4  C2  UNL A   1      34.642  18.721   5.955  1.00  0.00    +0.000 C 
BRANCH    4    5
ATOM    109  H4  UNL A   1      36.150  20.209   6.042  1.00  0.00    +0.000 H 
ATOM      5  C3  UNL A   1      35.472  19.830   5.308  1.00  0.00    +0.000 C 
ATOM    110  H5  UNL A   1      34.774  20.561   4.956  1.00  0.00    +0.000 H 
BRANCH    5    6
ATOM      6  C4  UNL A   1      36.290  19.395   4.085  1.00  0.00    +0.000 C 
ATOM    111  H6  UNL A   1      35.639  19.394   3.238  1.00  0.00    +0.000 H 
ATOM    112  H7  UNL A   1      36.688  18.431   4.330  1.00  0.00    +0.000 H 
BRANCH    6    7
ATOM    113  H8  UNL A   1      38.274  20.051   4.454  1.00  0.00    +0.000 H 
ATOM    114  H9  UNL A   1      37.153  21.281   3.790  1.00  0.00    +0.000 H 
ATOM      7  C5  UNL A   1      37.501  20.270   3.748  1.00  0.00    +0.000 C 
BRANCH    7    8
ATOM    115  H10 UNL A   1      37.450  19.398   1.813  1.00  0.00    +0.000 H 
ATOM    116  H11 UNL A   1      39.079  19.723   2.474  1.00  0.00    +0.000 H 
ATOM      8  C6  UNL A   1      38.079  20.083   2.343  1.00  0.00    +0.000 C 
BRANCH    8    9
ATOM      9  C7  UNL A   1      38.188  21.362   1.519  1.00  0.00    +0.000 C 
ATOM    117  H12 UNL A   1      37.719  22.158   2.059  1.00  0.00    +0.000 H 
ATOM    118  H13 UNL A   1      37.706  21.187   0.580  1.00  0.00    +0.000 H 
BRANCH    9   10
ATOM     10  N2  UNL A   1      39.567  21.733   1.247  1.00  0.00    +0.000 N 
ATOM    119  H14 UNL A   1      39.860  22.592   1.626  1.00  0.00    +0.000 H 
BRANCH   10   11
ATOM     11  C8  UNL A   1      40.516  21.045   0.534  1.00  0.00    +0.000 C 
ATOM     12  O2  UNL A   1      40.423  20.933  -0.688  1.00  0.00    +0.000 O 
BRANCH   11   13
ATOM    134  H29 UNL A   1      42.523  17.862   3.177  1.00  0.00    +0.000 H 
ATOM    135  H30 UNL A   1      40.623  18.756   1.951  1.00  0.00    +0.000 H 
ATOM     41  C30 UNL A   1      42.612  18.748   2.655  1.00  0.00    +0.000 C 
ATOM     42  C31 UNL A   1      41.525  19.257   1.949  1.00  0.00    +0.000 C 
ATOM     13  C9  UNL A   1      41.668  20.453   1.240  1.00  0.00    +0.000 C 
ATOM     14  C10 UNL A   1      42.901  21.113   1.187  1.00  0.00    +0.000 C 
ATOM     15  C11 UNL A   1      43.983  20.630   1.927  1.00  0.00    +0.000 C 
ATOM     16  C12 UNL A   1      43.833  19.447   2.653  1.00  0.00    +0.000 C 
ATOM    120  H15 UNL A   1      43.013  21.955   0.602  1.00  0.00    +0.000 H 
ATOM    121  H16 UNL A   1      44.879  21.141   1.938  1.00  0.00    +0.000 H 
BRANCH   16   17
ATOM     39  N6  UNL A   1      46.499  17.474   3.851  1.00  0.00    +0.000 N 
ATOM     40  N7  UNL A   1      45.371  17.611   3.152  1.00  0.00    +0.000 N 
ATOM     17  N3  UNL A   1      44.950  18.884   3.295  1.00  0.00    +0.000 N 
ATOM     18  C13 UNL A   1      45.779  19.545   4.153  1.00  0.00    +0.000 C 
ATOM     19  C14 UNL A   1      46.736  18.644   4.537  1.00  0.00    +0.000 C 
ATOM    122  H17 UNL A   1      45.701  20.530   4.452  1.00  0.00    +0.000 H 
BRANCH   19   20
ATOM    124  H19 UNL A   1      48.210  17.887   5.630  1.00  0.00    +0.000 H 
ATOM    123  H18 UNL A   1      48.640  19.393   4.622  1.00  0.00    +0.000 H 
ATOM     20  C15 UNL A   1      47.987  18.879   5.296  1.00  0.00    +0.000 C 
BRANCH   20   21
ATOM     21  S1  UNL A   1      48.075  19.784   6.843  1.00  0.00    +0.000 S 
BRANCH   21   22
ATOM    127  H22 UNL A   1      53.254  15.943  10.923  1.00  0.00    +0.000 H 
ATOM    126  H21 UNL A   1      53.105  15.129   8.638  1.00  0.00    +0.000 H 
ATOM    128  H23 UNL A   1      52.001  17.926  11.578  1.00  0.00    +0.000 H 
ATOM    125  H20 UNL A   1      51.540  16.141   7.081  1.00  0.00    +0.000 H 
ATOM     22  C16 UNL A   1      49.438  19.358   7.841  1.00  0.00    +0.000 C 
ATOM     23  N4  UNL A   1      49.865  18.149   7.604  1.00  0.00    +0.000 N 
ATOM     24  C17 UNL A   1      50.882  17.632   8.419  1.00  0.00    +0.000 C 
ATOM     25  C18 UNL A   1      51.638  16.525   8.034  1.00  0.00    +0.000 C 
ATOM     26  C19 UNL A   1      52.528  15.930   8.938  1.00  0.00    +0.000 C 
ATOM     27  C20 UNL A   1      52.640  16.418  10.242  1.00  0.00    +0.000 C 
ATOM     28  C21 UNL A   1      51.920  17.548  10.621  1.00  0.00    +0.000 C 
ATOM     29  C22 UNL A   1      51.085  18.163   9.683  1.00  0.00    +0.000 C 
ATOM     30  C23 UNL A   1      50.457  19.465   9.930  1.00  0.00    +0.000 C 
ATOM     31  O3  UNL A   1      50.323  19.843  11.093  1.00  0.00    +0.000 O 
ATOM     32  N5  UNL A   1      50.054  20.162   8.785  1.00  0.00    +0.000 N 
BRANCH   32   33
ATOM     33  C24 UNL A   1      50.263  21.595   8.748  1.00  0.00    +0.000 C 
ATOM     34  C25 UNL A   1      51.361  22.155   9.436  1.00  0.00    +0.000 C 
ATOM    129  H24 UNL A   1      52.109  21.530   9.774  1.00  0.00    +0.000 H 
ATOM     35  C26 UNL A   1      51.469  23.528   9.675  1.00  0.00    +0.000 C 
ATOM    133  H28 UNL A   1      48.755  22.163   7.388  1.00  0.00    +0.000 H 
ATOM     38  C29 UNL A   1      49.426  22.505   8.094  1.00  0.00    +0.000 C 
ATOM     37  C28 UNL A   1      49.487  23.877   8.383  1.00  0.00    +0.000 C 
ATOM    130  H25 UNL A   1      52.276  23.901  10.198  1.00  0.00    +0.000 H 
ATOM     36  C27 UNL A   1      50.486  24.383   9.204  1.00  0.00    +0.000 C 
ATOM    132  H27 UNL A   1      48.783  24.516   7.981  1.00  0.00    +0.000 H 
ATOM    131  H26 UNL A   1      50.497  25.383   9.462  1.00  0.00    +0.000 H 
ENDBRANCH   32   33
ENDBRANCH   21   22
ENDBRANCH   20   21
ENDBRANCH   19   20
ENDBRANCH   16   17
ENDBRANCH   11   13
ENDBRANCH   10   11
ENDBRANCH    9   10
ENDBRANCH    8    9
ENDBRANCH    7    8
ENDBRANCH    6    7
ENDBRANCH    5    6
ENDBRANCH    4    5
ENDBRANCH    3    4
ENDBRANCH    2    3
ENDBRANCH   43    2
ENDBRANCH   47   46
BRANCH   51   52
ATOM     52  C40 UNL A   1      23.401  16.925  10.462  1.00  0.00    +0.000 C 
ATOM     53  C41 UNL A   1      23.156  18.309  10.336  1.00  0.00    +0.000 C 
ATOM     54  F1  UNL A   1      23.286  18.923   9.151  1.00  0.00    +0.000 F 
ATOM     55  C42 UNL A   1      22.881  19.117  11.444  1.00  0.00    +0.000 C 
ATOM     56  F2  UNL A   1      22.804  20.446  11.294  1.00  0.00    +0.000 F 
ATOM     57  C43 UNL A   1      22.766  18.562  12.704  1.00  0.00    +0.000 C 
ATOM     58  F3  UNL A   1      22.580  19.340  13.777  1.00  0.00    +0.000 F 
ATOM     59  C44 UNL A   1      22.897  17.198  12.853  1.00  0.00    +0.000 C 
ATOM     60  F4  UNL A   1      22.797  16.642  14.069  1.00  0.00    +0.000 F 
ATOM     61  C45 UNL A   1      23.222  16.397  11.760  1.00  0.00    +0.000 C 
ATOM     62  F5  UNL A   1      23.458  15.114  12.052  1.00  0.00    +0.000 F 
ENDBRANCH   51   52
BRANCH   68   69
ATOM     69  C51 UNL A   1      22.167  14.930   4.096  1.00  0.00    +0.000 C 
ATOM     70  C52 UNL A   1      23.346  14.822   3.338  1.00  0.00    +0.000 C 
ATOM     71  F6  UNL A   1      24.470  15.439   3.726  1.00  0.00    +0.000 F 
ATOM     72  C53 UNL A   1      23.399  14.021   2.198  1.00  0.00    +0.000 C 
ATOM     73  F7  UNL A   1      24.533  13.941   1.485  1.00  0.00    +0.000 F 
ATOM     74  C54 UNL A   1      22.294  13.276   1.821  1.00  0.00    +0.000 C 
ATOM     75  F8  UNL A   1      22.358  12.472   0.752  1.00  0.00    +0.000 F 
ATOM     76  C55 UNL A   1      21.131  13.340   2.574  1.00  0.00    +0.000 C 
ATOM     77  F9  UNL A   1      20.078  12.580   2.244  1.00  0.00    +0.000 F 
ATOM     78  C56 UNL A   1      21.065  14.167   3.691  1.00  0.00    +0.000 C 
ATOM     79  F10 UNL A   1      19.933  14.186   4.412  1.00  0.00    +0.000 F 
ENDBRANCH   68   69
BRANCH   83   84
ATOM     84  C60 UNL A   1      22.493  21.147   3.131  1.00  0.00    +0.000 C 
ATOM     85  C61 UNL A   1      23.303  22.276   3.332  1.00  0.00    +0.000 C 
ATOM     86  F11 UNL A   1      24.377  22.201   4.133  1.00  0.00    +0.000 F 
ATOM     87  C62 UNL A   1      23.064  23.480   2.661  1.00  0.00    +0.000 C 
ATOM     88  F12 UNL A   1      23.892  24.520   2.834  1.00  0.00    +0.000 F 
ATOM     89  C63 UNL A   1      22.006  23.589   1.773  1.00  0.00    +0.000 C 
ATOM     90  F13 UNL A   1      21.811  24.722   1.083  1.00  0.00    +0.000 F 
ATOM     91  C64 UNL A   1      21.177  22.502   1.568  1.00  0.00    +0.000 C 
ATOM     92  F14 UNL A   1      20.175  22.581   0.681  1.00  0.00    +0.000 F 
ATOM     93  C65 UNL A   1      21.418  21.301   2.233  1.00  0.00    +0.000 C 
ATOM     94  F15 UNL A   1      20.639  20.258   1.911  1.00  0.00    +0.000 F 
ENDBRANCH   83   84
TORSDOF 20
ENDMDL
MODEL 2
REMARK VINA RESULT:     -13.7      1.283      2.529
ROOT
ATOM    138  H33 UNL A   1      24.660  13.511   8.592  1.00  0.00    +0.000 H 
ATOM    139  H34 UNL A   1      23.584  13.277   6.165  1.00  0.00    +0.000 H 
ATOM    140  H35 UNL A   1      21.834  16.327   8.119  1.00  0.00    +0.000 H 
ATOM    141  H36 UNL A   1      25.654  20.210   1.902  1.00  0.00    +0.000 H 
ATOM    142  H37 UNL A   1      27.606  18.948   2.943  1.00  0.00    +0.000 H 
ATOM    143  H38 UNL A   1      24.283  18.266   5.345  1.00  0.00    +0.000 H 
ATOM    144  H39 UNL A   1      22.005  20.433   6.090  1.00  0.00    +0.000 H 
ATOM    145  H40 UNL A   1      21.893  18.133   7.251  1.00  0.00    +0.000 H 
ATOM    146  H41 UNL A   1      26.687  18.087  10.146  1.00  0.00    +0.000 H 
ATOM    147  H42 UNL A   1      27.791  19.210   8.111  1.00  0.00    +0.000 H 
ATOM     47  C36 UNL A   1      27.038  18.005   5.624  1.00  0.00    +0.000 C 
ATOM     48  C37 UNL A   1      26.518  17.703   6.988  1.00  0.00    +0.000 C 
ATOM     49  N8  UNL A   1      25.684  16.778   7.341  1.00  0.00    +0.000 N 
ATOM     50  C38 UNL A   1      25.475  16.953   8.709  1.00  0.00    +0.000 C 
ATOM     51  C39 UNL A   1      24.346  16.495   9.319  1.00  0.00    +0.000 C 
ATOM     63  C46 UNL A   1      23.713  15.462   8.538  1.00  0.00    +0.000 C 
ATOM     64  C47 UNL A   1      24.081  14.207   8.096  1.00  0.00    +0.000 C 
ATOM     65  C48 UNL A   1      23.488  14.081   6.804  1.00  0.00    +0.000 C 
ATOM     66  C49 UNL A   1      22.755  15.243   6.563  1.00  0.00    +0.000 C 
ATOM     67  N9  UNL A   1      22.600  15.794   7.807  1.00  0.00    +0.000 N 
ATOM     68  C50 UNL A   1      22.297  15.881   5.356  1.00  0.00    +0.000 C 
ATOM     80  C57 UNL A   1      22.003  17.209   5.249  1.00  0.00    +0.000 C 
ATOM     81  N10 UNL A   1      22.017  17.844   4.016  1.00  0.00    +0.000 N 
ATOM     82  C58 UNL A   1      22.288  19.091   4.291  1.00  0.00    +0.000 C 
ATOM     83  C59 UNL A   1      23.180  19.935   3.456  1.00  0.00    +0.000 C 
ATOM     95  C66 UNL A   1      24.436  19.436   3.580  1.00  0.00    +0.000 C 
ATOM     96  C67 UNL A   1      25.617  19.660   2.774  1.00  0.00    +0.000 C 
ATOM     97  C68 UNL A   1      26.661  19.027   3.349  1.00  0.00    +0.000 C 
ATOM     98  C69 UNL A   1      26.245  18.473   4.638  1.00  0.00    +0.000 C 
ATOM     99  N11 UNL A   1      24.878  18.647   4.659  1.00  0.00    +0.000 N 
ATOM    100  C70 UNL A   1      22.069  19.493   5.670  1.00  0.00    +0.000 C 
ATOM    101  C71 UNL A   1      21.975  18.286   6.234  1.00  0.00    +0.000 C 
ATOM    102  C72 UNL A   1      26.476  17.884   9.156  1.00  0.00    +0.000 C 
ATOM    103  C73 UNL A   1      27.093  18.449   8.119  1.00  0.00    +0.000 C 
ENDROOT
BRANCH   47   46
ATOM    104  C74 UNL A   1      29.330  18.753   6.195  1.00  0.00    +0.000 C 
ATOM    105  C75 UNL A   1      30.704  18.612   6.060  1.00  0.00    +0.000 C 
ATOM    136  H31 UNL A   1      30.784  15.924   4.069  1.00  0.00    +0.000 H 
ATOM     43  C32 UNL A   1      31.258  17.619   5.228  1.00  0.00    +0.000 C 
ATOM     44  C33 UNL A   1      30.396  16.708   4.615  1.00  0.00    +0.000 C 
ATOM     45  C34 UNL A   1      29.017  16.852   4.736  1.00  0.00    +0.000 C 
ATOM    137  H32 UNL A   1      28.385  16.183   4.267  1.00  0.00    +0.000 H 
ATOM     46  C35 UNL A   1      28.488  17.900   5.490  1.00  0.00    +0.000 C 
ATOM    148  H43 UNL A   1      28.938  19.482   6.811  1.00  0.00    +0.000 H 
ATOM    149  H44 UNL A   1      31.331  19.245   6.579  1.00  0.00    +0.000 H 
BRANCH   43    2
ATOM      1  O1  UNL A   1      33.316  16.733   4.541  1.00  0.00    +0.000 O 
ATOM      2  C1  UNL A   1      32.732  17.699   5.038  1.00  0.00    +0.000 C 
BRANCH    2    3
ATOM    106  H1  UNL A   1      33.037  19.597   5.452  1.00  0.00    +0.000 H 
ATOM      3  N1  UNL A   1      33.522  18.740   5.434  1.00  0.00    +0.000 N 
BRANCH    3    4
ATOM    108  H3  UNL A   1      34.905  19.122   6.872  1.00  0.00    +0.000 H 
ATOM    107  H2  UNL A   1      35.406  17.953   5.626  1.00  0.00    +0.000 H 
ATOM      4  C2  UNL A   1      34.905  18.876   5.831  1.00  0.00    +0.000 C 
BRANCH    4    5
ATOM    109  H4  UNL A   1      36.373  20.406   5.789  1.00  0.00    +0.000 H 
ATOM      5  C3  UNL A   1      35.653  19.999   5.111  1.00  0.00    +0.000 C 
ATOM    110  H5  UNL A   1      34.910  20.705   4.804  1.00  0.00    +0.000 H 
BRANCH    5    6
ATOM      6  C4  UNL A   1      36.391  19.570   3.836  1.00  0.00    +0.000 C 
ATOM    111  H6  UNL A   1      35.731  19.722   3.009  1.00  0.00    +0.000 H 
ATOM    112  H7  UNL A   1      36.668  18.548   3.991  1.00  0.00    +0.000 H 
BRANCH    6    7
ATOM    113  H8  UNL A   1      38.410  20.040   4.289  1.00  0.00    +0.000 H 
ATOM    114  H9  UNL A   1      37.448  21.355   3.542  1.00  0.00    +0.000 H 
ATOM      7  C5  UNL A   1      37.697  20.314   3.540  1.00  0.00    +0.000 C 
BRANCH    7    8
ATOM    115  H10 UNL A   1      37.634  19.431   1.611  1.00  0.00    +0.000 H 
ATOM    116  H11 UNL A   1      39.254  19.545   2.359  1.00  0.00    +0.000 H 
ATOM      8  C6  UNL A   1      38.320  20.033   2.170  1.00  0.00    +0.000 C 
BRANCH    8    9
ATOM      9  C7  UNL A   1      38.644  21.276   1.347  1.00  0.00    +0.000 C 
ATOM    117  H12 UNL A   1      38.217  22.129   1.832  1.00  0.00    +0.000 H 
ATOM    118  H13 UNL A   1      38.233  21.134   0.369  1.00  0.00    +0.000 H 
BRANCH    9   10
ATOM     10  N2  UNL A   1      40.075  21.489   1.201  1.00  0.00    +0.000 N 
ATOM    119  H14 UNL A   1      40.424  22.320   1.595  1.00  0.00    +0.000 H 
BRANCH   10   11
ATOM     11  C8  UNL A   1      41.004  20.686   0.589  1.00  0.00    +0.000 C 
ATOM     12  O2  UNL A   1      40.970  20.503  -0.627  1.00  0.00    +0.000 O 
BRANCH   11   13
ATOM    134  H29 UNL A   1      42.527  18.113   4.082  1.00  0.00    +0.000 H 
ATOM    135  H30 UNL A   1      40.748  19.059   2.720  1.00  0.00    +0.000 H 
ATOM     41  C30 UNL A   1      42.755  18.715   3.275  1.00  0.00    +0.000 C 
ATOM     42  C31 UNL A   1      41.736  19.252   2.493  1.00  0.00    +0.000 C 
ATOM     13  C9  UNL A   1      42.064  20.056   1.397  1.00  0.00    +0.000 C 
ATOM     14  C10 UNL A   1      43.401  20.281   1.048  1.00  0.00    +0.000 C 
ATOM     15  C11 UNL A   1      44.426  19.780   1.853  1.00  0.00    +0.000 C 
ATOM     16  C12 UNL A   1      44.097  18.996   2.960  1.00  0.00    +0.000 C 
ATOM    120  H15 UNL A   1      43.630  20.817   0.197  1.00  0.00    +0.000 H 
ATOM    121  H16 UNL A   1      45.413  19.988   1.634  1.00  0.00    +0.000 H 
BRANCH   16   17
ATOM     39  N6  UNL A   1      46.248  16.880   4.785  1.00  0.00    +0.000 N 
ATOM     40  N7  UNL A   1      45.064  17.140   4.227  1.00  0.00    +0.000 N 
ATOM     17  N3  UNL A   1      45.122  18.380   3.700  1.00  0.00    +0.000 N 
ATOM     18  C13 UNL A   1      46.329  18.944   3.989  1.00  0.00    +0.000 C 
ATOM     19  C14 UNL A   1      47.029  18.012   4.709  1.00  0.00    +0.000 C 
ATOM    122  H17 UNL A   1      46.653  19.885   3.717  1.00  0.00    +0.000 H 
BRANCH   19   20
ATOM    124  H19 UNL A   1      48.428  17.395   5.975  1.00  0.00    +0.000 H 
ATOM    123  H18 UNL A   1      49.000  17.723   4.233  1.00  0.00    +0.000 H 
ATOM     20  C15 UNL A   1      48.457  18.019   5.106  1.00  0.00    +0.000 C 
BRANCH   20   21
ATOM     21  S1  UNL A   1      49.318  19.456   5.750  1.00  0.00    +0.000 S 
BRANCH   21   22
ATOM    127  H22 UNL A   1      53.350  19.771  12.220  1.00  0.00    +0.000 H 
ATOM    126  H21 UNL A   1      50.958  19.904  12.627  1.00  0.00    +0.000 H 
ATOM    128  H23 UNL A   1      54.165  19.335   9.967  1.00  0.00    +0.000 H 
ATOM    125  H20 UNL A   1      49.397  19.837  10.768  1.00  0.00    +0.000 H 
ATOM     22  C16 UNL A   1      50.415  19.102   7.057  1.00  0.00    +0.000 C 
ATOM     23  N4  UNL A   1      50.025  19.628   8.184  1.00  0.00    +0.000 N 
ATOM     24  C17 UNL A   1      50.873  19.524   9.295  1.00  0.00    +0.000 C 
ATOM     25  C18 UNL A   1      50.408  19.726  10.594  1.00  0.00    +0.000 C 
ATOM     26  C19 UNL A   1      51.310  19.782  11.666  1.00  0.00    +0.000 C 
ATOM     27  C20 UNL A   1      52.685  19.673  11.437  1.00  0.00    +0.000 C 
ATOM     28  C21 UNL A   1      53.153  19.429  10.149  1.00  0.00    +0.000 C 
ATOM     29  C22 UNL A   1      52.230  19.314   9.105  1.00  0.00    +0.000 C 
ATOM     30  C23 UNL A   1      52.617  18.856   7.766  1.00  0.00    +0.000 C 
ATOM     31  O3  UNL A   1      53.795  18.952   7.428  1.00  0.00    +0.000 O 
ATOM     32  N5  UNL A   1      51.573  18.349   6.983  1.00  0.00    +0.000 N 
BRANCH   32   33
ATOM     33  C24 UNL A   1      51.836  17.179   6.169  1.00  0.00    +0.000 C 
ATOM     34  C25 UNL A   1      52.330  17.342   4.857  1.00  0.00    +0.000 C 
ATOM    129  H24 UNL A   1      52.692  18.264   4.571  1.00  0.00    +0.000 H 
ATOM     35  C26 UNL A   1      52.345  16.295   3.931  1.00  0.00    +0.000 C 
ATOM    133  H28 UNL A   1      51.476  15.650   7.576  1.00  0.00    +0.000 H 
ATOM     38  C29 UNL A   1      51.607  15.860   6.574  1.00  0.00    +0.000 C 
ATOM     37  C28 UNL A   1      51.554  14.816   5.637  1.00  0.00    +0.000 C 
ATOM    130  H25 UNL A   1      52.695  16.455   2.974  1.00  0.00    +0.000 H 
ATOM     36  C27 UNL A   1      51.886  15.043   4.307  1.00  0.00    +0.000 C 
ATOM    132  H27 UNL A   1      51.266  13.872   5.938  1.00  0.00    +0.000 H 
ATOM    131  H26 UNL A   1      51.793  14.290   3.608  1.00  0.00    +0.000 H 
ENDBRANCH   32   33
ENDBRANCH   21   22
ENDBRANCH   20   21
ENDBRANCH   19   20
ENDBRANCH   16   17
ENDBRANCH   11   13
ENDBRANCH   10   11
ENDBRANCH    9   10
ENDBRANCH    8    9
ENDBRANCH    7    8
ENDBRANCH    6    7
ENDBRANCH    5    6
ENDBRANCH    4    5
ENDBRANCH    3    4
ENDBRANCH    2    3
ENDBRANCH   43    2
ENDBRANCH   47   46
BRANCH   51   52
ATOM     52  C40 UNL A   1      23.601  17.243  10.404  1.00  0.00    +0.000 C 
ATOM     53  C41 UNL A   1      23.514  18.649  10.322  1.00  0.00    +0.000 C 
ATOM     54  F1  UNL A   1      23.796  19.288   9.177  1.00  0.00    +0.000 F 
ATOM     55  C42 UNL A   1      23.244  19.441  11.442  1.00  0.00    +0.000 C 
ATOM     56  F2  UNL A   1      23.320  20.776  11.346  1.00  0.00    +0.000 F 
ATOM     57  C43 UNL A   1      22.978  18.857  12.665  1.00  0.00    +0.000 C 
ATOM     58  F3  UNL A   1      22.796  19.612  13.756  1.00  0.00    +0.000 F 
ATOM     59  C44 UNL A   1      22.952  17.483  12.764  1.00  0.00    +0.000 C 
ATOM     60  F4  UNL A   1      22.704  16.897  13.944  1.00  0.00    +0.000 F 
ATOM     61  C45 UNL A   1      23.271  16.691  11.662  1.00  0.00    +0.000 C 
ATOM     62  F5  UNL A   1      23.347  15.381  11.913  1.00  0.00    +0.000 F 
ENDBRANCH   51   52
BRANCH   68   69
ATOM     69  C51 UNL A   1      22.389  15.083   4.088  1.00  0.00    +0.000 C 
ATOM     70  C52 UNL A   1      23.539  15.036   3.280  1.00  0.00    +0.000 C 
ATOM     71  F6  UNL A   1      24.629  15.749   3.596  1.00  0.00    +0.000 F 
ATOM     72  C53 UNL A   1      23.604  14.202   2.165  1.00  0.00    +0.000 C 
ATOM     73  F7  UNL A   1      24.708  14.182   1.404  1.00  0.00    +0.000 F 
ATOM     74  C54 UNL A   1      22.543  13.363   1.864  1.00  0.00    +0.000 C 
ATOM     75  F8  UNL A   1      22.621  12.529   0.818  1.00  0.00    +0.000 F 
ATOM     76  C55 UNL A   1      21.413  13.367   2.667  1.00  0.00    +0.000 C 
ATOM     77  F9  UNL A   1      20.407  12.519   2.410  1.00  0.00    +0.000 F 
ATOM     78  C56 UNL A   1      21.332  14.226   3.759  1.00  0.00    +0.000 C 
ATOM     79  F10 UNL A   1      20.235  14.185   4.530  1.00  0.00    +0.000 F 
ENDBRANCH   68   69
BRANCH   83   84
ATOM     84  C60 UNL A   1      22.772  21.268   2.954  1.00  0.00    +0.000 C 
ATOM     85  C61 UNL A   1      21.514  21.473   2.365  1.00  0.00    +0.000 C 
ATOM     86  F11 UNL A   1      20.738  20.424   2.052  1.00  0.00    +0.000 F 
ATOM     87  C62 UNL A   1      21.004  22.758   2.152  1.00  0.00    +0.000 C 
ATOM     88  F12 UNL A   1      19.775  22.915   1.640  1.00  0.00    +0.000 F 
ATOM     89  C63 UNL A   1      21.739  23.874   2.519  1.00  0.00    +0.000 C 
ATOM     90  F13 UNL A   1      21.228  25.104   2.370  1.00  0.00    +0.000 F 
ATOM     91  C64 UNL A   1      22.991  23.707   3.082  1.00  0.00    +0.000 C 
ATOM     92  F14 UNL A   1      23.696  24.776   3.478  1.00  0.00    +0.000 F 
ATOM     93  C65 UNL A   1      23.497  22.426   3.299  1.00  0.00    +0.000 C 
ATOM     94  F15 UNL A   1      24.670  22.335   3.943  1.00  0.00    +0.000 F 
ENDBRANCH   83   84
TORSDOF 20
ENDMDL
MODEL 3
REMARK VINA RESULT:     -13.3     26.192     32.133
ROOT
ATOM    138  H33 UNL A   1      43.017  31.888  33.305  1.00  0.00    +0.000 H 
ATOM    139  H34 UNL A   1      44.493  32.115  31.098  1.00  0.00    +0.000 H 
ATOM    140  H35 UNL A   1      44.771  28.360  32.516  1.00  0.00    +0.000 H 
ATOM    141  H36 UNL A   1      40.949  27.205  25.279  1.00  0.00    +0.000 H 
ATOM    142  H37 UNL A   1      39.391  28.897  26.373  1.00  0.00    +0.000 H 
ATOM    143  H38 UNL A   1      42.306  27.925  29.172  1.00  0.00    +0.000 H 
ATOM    144  H39 UNL A   1      43.570  24.989  29.653  1.00  0.00    +0.000 H 
ATOM    145  H40 UNL A   1      44.254  26.868  31.282  1.00  0.00    +0.000 H 
ATOM    146  H41 UNL A   1      39.346  28.163  33.648  1.00  0.00    +0.000 H 
ATOM    147  H42 UNL A   1      38.280  27.868  31.325  1.00  0.00    +0.000 H 
ATOM     47  C36 UNL A   1      39.792  29.113  29.236  1.00  0.00    +0.000 C 
ATOM     48  C37 UNL A   1      40.151  28.977  30.675  1.00  0.00    +0.000 C 
ATOM     49  N8  UNL A   1      41.177  29.466  31.295  1.00  0.00    +0.000 N 
ATOM     50  C38 UNL A   1      41.087  29.003  32.608  1.00  0.00    +0.000 C 
ATOM     51  C39 UNL A   1      42.187  28.916  33.407  1.00  0.00    +0.000 C 
ATOM     63  C46 UNL A   1      43.249  29.763  32.929  1.00  0.00    +0.000 C 
ATOM     64  C47 UNL A   1      43.402  31.121  32.730  1.00  0.00    +0.000 C 
ATOM     65  C48 UNL A   1      44.207  31.236  31.558  1.00  0.00    +0.000 C 
ATOM     66  C49 UNL A   1      44.537  29.946  31.146  1.00  0.00    +0.000 C 
ATOM     67  N9  UNL A   1      44.291  29.178  32.253  1.00  0.00    +0.000 N 
ATOM     68  C50 UNL A   1      44.947  29.394  29.881  1.00  0.00    +0.000 C 
ATOM     80  C57 UNL A   1      44.792  28.087  29.521  1.00  0.00    +0.000 C 
ATOM     81  N10 UNL A   1      44.768  27.713  28.186  1.00  0.00    +0.000 N 
ATOM     82  C58 UNL A   1      44.053  26.622  28.162  1.00  0.00    +0.000 C 
ATOM     83  C59 UNL A   1      43.080  26.307  27.085  1.00  0.00    +0.000 C 
ATOM     95  C66 UNL A   1      42.062  27.198  27.191  1.00  0.00    +0.000 C 
ATOM     96  C67 UNL A   1      41.025  27.553  26.247  1.00  0.00    +0.000 C 
ATOM     97  C68 UNL A   1      40.173  28.415  26.842  1.00  0.00    +0.000 C 
ATOM     98  C69 UNL A   1      40.533  28.561  28.253  1.00  0.00    +0.000 C 
ATOM     99  N11 UNL A   1      41.739  27.903  28.367  1.00  0.00    +0.000 N 
ATOM    100  C70 UNL A   1      43.894  25.945  29.438  1.00  0.00    +0.000 C 
ATOM    101  C71 UNL A   1      44.293  26.925  30.253  1.00  0.00    +0.000 C 
ATOM    102  C72 UNL A   1      39.773  28.437  32.750  1.00  0.00    +0.000 C 
ATOM    103  C73 UNL A   1      39.181  28.313  31.561  1.00  0.00    +0.000 C 
ENDROOT
BRANCH   47   46
ATOM    104  C74 UNL A   1      38.397  31.143  28.965  1.00  0.00    +0.000 C 
ATOM    105  C75 UNL A   1      37.162  31.721  28.707  1.00  0.00    +0.000 C 
ATOM    136  H31 UNL A   1      35.373  28.953  28.126  1.00  0.00    +0.000 H 
ATOM     43  C32 UNL A   1      36.022  30.931  28.462  1.00  0.00    +0.000 C 
ATOM     44  C33 UNL A   1      36.178  29.545  28.385  1.00  0.00    +0.000 C 
ATOM     45  C34 UNL A   1      37.410  28.958  28.657  1.00  0.00    +0.000 C 
ATOM    137  H32 UNL A   1      37.514  27.931  28.613  1.00  0.00    +0.000 H 
ATOM     46  C35 UNL A   1      38.505  29.756  28.989  1.00  0.00    +0.000 C 
ATOM    148  H43 UNL A   1      39.225  31.734  29.139  1.00  0.00    +0.000 H 
ATOM    149  H44 UNL A   1      37.078  32.749  28.693  1.00  0.00    +0.000 H 
BRANCH   43    2
ATOM      1  O1  UNL A   1      33.761  31.117  27.874  1.00  0.00    +0.000 O 
ATOM      2  C1  UNL A   1      34.737  31.677  28.381  1.00  0.00    +0.000 C 
BRANCH    2    3
ATOM    106  H1  UNL A   1      34.529  33.593  27.997  1.00  0.00    +0.000 H 
ATOM      3  N1  UNL A   1      34.554  32.974  28.762  1.00  0.00    +0.000 N 
BRANCH    3    4
ATOM    108  H3  UNL A   1      35.160  34.391  30.087  1.00  0.00    +0.000 H 
ATOM    107  H2  UNL A   1      33.407  34.077  30.057  1.00  0.00    +0.000 H 
ATOM      4  C2  UNL A   1      34.388  33.651  30.029  1.00  0.00    +0.000 C 
BRANCH    4    5
ATOM    109  H4  UNL A   1      34.382  31.735  30.936  1.00  0.00    +0.000 H 
ATOM      5  C3  UNL A   1      34.552  32.743  31.248  1.00  0.00    +0.000 C 
ATOM    110  H5  UNL A   1      33.848  33.088  31.976  1.00  0.00    +0.000 H 
BRANCH    5    6
ATOM      6  C4  UNL A   1      35.930  32.806  31.920  1.00  0.00    +0.000 C 
ATOM    111  H6  UNL A   1      35.849  33.445  32.773  1.00  0.00    +0.000 H 
ATOM    112  H7  UNL A   1      36.603  33.165  31.169  1.00  0.00    +0.000 H 
BRANCH    6    7
ATOM    113  H8  UNL A   1      37.119  31.077  31.602  1.00  0.00    +0.000 H 
ATOM    114  H9  UNL A   1      35.661  30.849  32.620  1.00  0.00    +0.000 H 
ATOM      7  C5  UNL A   1      36.504  31.466  32.388  1.00  0.00    +0.000 C 
BRANCH    7    8
ATOM    115  H10 UNL A   1      38.332  31.168  33.427  1.00  0.00    +0.000 H 
ATOM    116  H11 UNL A   1      36.845  30.910  34.385  1.00  0.00    +0.000 H 
ATOM      8  C6  UNL A   1      37.349  31.520  33.663  1.00  0.00    +0.000 C 
BRANCH    8    9
ATOM      9  C7  UNL A   1      37.478  32.906  34.287  1.00  0.00    +0.000 C 
ATOM    117  H12 UNL A   1      36.830  32.961  35.137  1.00  0.00    +0.000 H 
ATOM    118  H13 UNL A   1      37.211  33.625  33.542  1.00  0.00    +0.000 H 
BRANCH    9   10
ATOM     10  N2  UNL A   1      38.836  33.197  34.718  1.00  0.00    +0.000 N 
ATOM    119  H14 UNL A   1      38.919  33.834  35.464  1.00  0.00    +0.000 H 
BRANCH   10   11
ATOM     11  C8  UNL A   1      40.017  32.704  34.225  1.00  0.00    +0.000 C 
ATOM     12  O2  UNL A   1      40.598  31.781  34.796  1.00  0.00    +0.000 O 
BRANCH   11   13
ATOM    134  H29 UNL A   1      40.426  33.015  29.656  1.00  0.00    +0.000 H 
ATOM    135  H30 UNL A   1      39.401  32.115  31.669  1.00  0.00    +0.000 H 
ATOM     41  C30 UNL A   1      40.740  33.334  30.585  1.00  0.00    +0.000 C 
ATOM     42  C31 UNL A   1      40.151  32.822  31.738  1.00  0.00    +0.000 C 
ATOM     13  C9  UNL A   1      40.583  33.273  32.988  1.00  0.00    +0.000 C 
ATOM     14  C10 UNL A   1      41.561  34.270  33.091  1.00  0.00    +0.000 C 
ATOM     15  C11 UNL A   1      42.186  34.756  31.941  1.00  0.00    +0.000 C 
ATOM     16  C12 UNL A   1      41.769  34.289  30.694  1.00  0.00    +0.000 C 
ATOM    120  H15 UNL A   1      41.820  34.646  34.017  1.00  0.00    +0.000 H 
ATOM    121  H16 UNL A   1      42.946  35.450  32.012  1.00  0.00    +0.000 H 
BRANCH   16   17
ATOM     39  N6  UNL A   1      43.428  35.110  27.693  1.00  0.00    +0.000 N 
ATOM     40  N7  UNL A   1      43.243  34.306  28.742  1.00  0.00    +0.000 N 
ATOM     17  N3  UNL A   1      42.299  34.865  29.526  1.00  0.00    +0.000 N 
ATOM     18  C13 UNL A   1      41.929  36.071  29.008  1.00  0.00    +0.000 C 
ATOM     19  C14 UNL A   1      42.671  36.247  27.870  1.00  0.00    +0.000 C 
ATOM    122  H17 UNL A   1      41.229  36.722  29.396  1.00  0.00    +0.000 H 
BRANCH   19   20
ATOM    124  H19 UNL A   1      43.074  36.824  26.014  1.00  0.00    +0.000 H 
ATOM    123  H18 UNL A   1      41.483  37.470  26.736  1.00  0.00    +0.000 H 
ATOM     20  C15 UNL A   1      42.533  37.280  26.817  1.00  0.00    +0.000 C 
BRANCH   20   21
ATOM     21  S1  UNL A   1      43.316  38.894  26.878  1.00  0.00    +0.000 S 
BRANCH   21   22
ATOM    127  H22 UNL A   1      43.492  43.019  33.294  1.00  0.00    +0.000 H 
ATOM    126  H21 UNL A   1      41.222  42.463  32.629  1.00  0.00    +0.000 H 
ATOM    128  H23 UNL A   1      45.372  42.068  32.073  1.00  0.00    +0.000 H 
ATOM    125  H20 UNL A   1      40.824  41.159  30.619  1.00  0.00    +0.000 H 
ATOM     22  C16 UNL A   1      43.644  39.467  28.491  1.00  0.00    +0.000 C 
ATOM     23  N4  UNL A   1      42.681  40.213  28.955  1.00  0.00    +0.000 N 
ATOM     24  C17 UNL A   1      42.864  40.839  30.195  1.00  0.00    +0.000 C 
ATOM     25  C18 UNL A   1      41.790  41.347  30.926  1.00  0.00    +0.000 C 
ATOM     26  C19 UNL A   1      42.020  42.114  32.077  1.00  0.00    +0.000 C 
ATOM     27  C20 UNL A   1      43.326  42.407  32.480  1.00  0.00    +0.000 C 
ATOM     28  C21 UNL A   1      44.402  41.869  31.780  1.00  0.00    +0.000 C 
ATOM     29  C22 UNL A   1      44.148  41.055  30.672  1.00  0.00    +0.000 C 
ATOM     30  C23 UNL A   1      45.206  40.286  30.008  1.00  0.00    +0.000 C 
ATOM     31  O3  UNL A   1      46.373  40.646  30.148  1.00  0.00    +0.000 O 
ATOM     32  N5  UNL A   1      44.766  39.192  29.253  1.00  0.00    +0.000 N 
BRANCH   32   33
ATOM     33  C24 UNL A   1      45.541  37.969  29.305  1.00  0.00    +0.000 C 
ATOM     34  C25 UNL A   1      46.362  37.620  28.210  1.00  0.00    +0.000 C 
ATOM    129  H24 UNL A   1      46.560  38.330  27.489  1.00  0.00    +0.000 H 
ATOM     35  C26 UNL A   1      46.915  36.344  28.071  1.00  0.00    +0.000 C 
ATOM    133  H28 UNL A   1      45.146  37.353  31.282  1.00  0.00    +0.000 H 
ATOM     38  C29 UNL A   1      45.525  37.061  30.368  1.00  0.00    +0.000 C 
ATOM     37  C28 UNL A   1      46.018  35.756  30.209  1.00  0.00    +0.000 C 
ATOM    130  H25 UNL A   1      47.494  36.117  27.248  1.00  0.00    +0.000 H 
ATOM     36  C27 UNL A   1      46.679  35.386  29.045  1.00  0.00    +0.000 C 
ATOM    132  H27 UNL A   1      45.888  35.065  30.965  1.00  0.00    +0.000 H 
ATOM    131  H26 UNL A   1      46.991  34.413  28.906  1.00  0.00    +0.000 H 
ENDBRANCH   32   33
ENDBRANCH   21   22
ENDBRANCH   20   21
ENDBRANCH   19   20
ENDBRANCH   16   17
ENDBRANCH   11   13
ENDBRANCH   10   11
ENDBRANCH    9   10
ENDBRANCH    8    9
ENDBRANCH    7    8
ENDBRANCH    6    7
ENDBRANCH    5    6
ENDBRANCH    4    5
ENDBRANCH    3    4
ENDBRANCH    2    3
ENDBRANCH   43    2
ENDBRANCH   47   46
BRANCH   51   52
ATOM     52  C40 UNL A   1      42.449  27.780  34.374  1.00  0.00    +0.000 C 
ATOM     53  C41 UNL A   1      43.013  26.584  33.881  1.00  0.00    +0.000 C 
ATOM     54  F1  UNL A   1      43.596  26.549  32.674  1.00  0.00    +0.000 F 
ATOM     55  C42 UNL A   1      42.896  25.372  34.567  1.00  0.00    +0.000 C 
ATOM     56  F2  UNL A   1      43.316  24.238  33.989  1.00  0.00    +0.000 F 
ATOM     57  C43 UNL A   1      42.278  25.322  35.801  1.00  0.00    +0.000 C 
ATOM     58  F3  UNL A   1      42.094  24.152  36.426  1.00  0.00    +0.000 F 
ATOM     59  C44 UNL A   1      41.804  26.487  36.365  1.00  0.00    +0.000 C 
ATOM     60  F4  UNL A   1      41.194  26.459  37.558  1.00  0.00    +0.000 F 
ATOM     61  C45 UNL A   1      41.874  27.689  35.661  1.00  0.00    +0.000 C 
ATOM     62  F5  UNL A   1      41.260  28.721  36.248  1.00  0.00    +0.000 F 
ENDBRANCH   51   52
BRANCH   68   69
ATOM     69  C51 UNL A   1      45.337  30.370  28.809  1.00  0.00    +0.000 C 
ATOM     70  C52 UNL A   1      44.427  30.921  27.889  1.00  0.00    +0.000 C 
ATOM     71  F6  UNL A   1      43.135  30.565  27.905  1.00  0.00    +0.000 F 
ATOM     72  C53 UNL A   1      44.826  31.896  26.976  1.00  0.00    +0.000 C 
ATOM     73  F7  UNL A   1      43.943  32.399  26.101  1.00  0.00    +0.000 F 
ATOM     74  C54 UNL A   1      46.126  32.376  26.997  1.00  0.00    +0.000 C 
ATOM     75  F8  UNL A   1      46.499  33.345  26.150  1.00  0.00    +0.000 F 
ATOM     76  C55 UNL A   1      47.031  31.872  27.918  1.00  0.00    +0.000 C 
ATOM     77  F9  UNL A   1      48.274  32.371  27.978  1.00  0.00    +0.000 F 
ATOM     78  C56 UNL A   1      46.644  30.872  28.805  1.00  0.00    +0.000 C 
ATOM     79  F10 UNL A   1      47.538  30.426  29.702  1.00  0.00    +0.000 F 
ENDBRANCH   68   69
BRANCH   83   84
ATOM     84  C60 UNL A   1      43.094  25.020  26.352  1.00  0.00    +0.000 C 
ATOM     85  C61 UNL A   1      44.026  24.770  25.332  1.00  0.00    +0.000 C 
ATOM     86  F11 UNL A   1      44.786  25.768  24.855  1.00  0.00    +0.000 F 
ATOM     87  C62 UNL A   1      44.242  23.480  24.834  1.00  0.00    +0.000 C 
ATOM     88  F12 UNL A   1      45.180  23.271  23.901  1.00  0.00    +0.000 F 
ATOM     89  C63 UNL A   1      43.529  22.406  25.341  1.00  0.00    +0.000 C 
ATOM     90  F13 UNL A   1      43.777  21.161  24.908  1.00  0.00    +0.000 F 
ATOM     91  C64 UNL A   1      42.588  22.620  26.331  1.00  0.00    +0.000 C 
ATOM     92  F14 UNL A   1      41.921  21.584  26.858  1.00  0.00    +0.000 F 
ATOM     93  C65 UNL A   1      42.377  23.905  26.830  1.00  0.00    +0.000 C 
ATOM     94  F15 UNL A   1      41.527  24.026  27.860  1.00  0.00    +0.000 F 
ENDBRANCH   83   84
TORSDOF 20
ENDMDL
MODEL 4
REMARK VINA RESULT:     -12.8     25.409     31.373
ROOT
ATOM    138  H33 UNL A   1      46.722  28.391  30.687  1.00  0.00    +0.000 H 
ATOM    139  H34 UNL A   1      45.386  28.329  32.992  1.00  0.00    +0.000 H 
ATOM    140  H35 UNL A   1      44.742  31.855  31.165  1.00  0.00    +0.000 H 
ATOM    141  H36 UNL A   1      37.210  28.453  31.077  1.00  0.00    +0.000 H 
ATOM    142  H37 UNL A   1      38.569  26.625  29.936  1.00  0.00    +0.000 H 
ATOM    143  H38 UNL A   1      41.134  29.828  30.599  1.00  0.00    +0.000 H 
ATOM    144  H39 UNL A   1      40.378  32.956  30.305  1.00  0.00    +0.000 H 
ATOM    145  H40 UNL A   1      42.842  32.361  30.781  1.00  0.00    +0.000 H 
ATOM    146  H41 UNL A   1      44.202  29.426  26.209  1.00  0.00    +0.000 H 
ATOM    147  H42 UNL A   1      41.863  28.361  26.338  1.00  0.00    +0.000 H 
ATOM     47  C36 UNL A   1      41.145  27.558  28.992  1.00  0.00    +0.000 C 
ATOM     48  C37 UNL A   1      42.358  28.305  28.552  1.00  0.00    +0.000 C 
ATOM     49  N8  UNL A   1      43.377  28.669  29.264  1.00  0.00    +0.000 N 
ATOM     50  C38 UNL A   1      44.207  29.388  28.404  1.00  0.00    +0.000 C 
ATOM     51  C39 UNL A   1      45.102  30.299  28.879  1.00  0.00    +0.000 C 
ATOM     63  C46 UNL A   1      45.402  30.062  30.267  1.00  0.00    +0.000 C 
ATOM     64  C47 UNL A   1      45.959  29.021  30.984  1.00  0.00    +0.000 C 
ATOM     65  C48 UNL A   1      45.252  29.004  32.223  1.00  0.00    +0.000 C 
ATOM     66  C49 UNL A   1      44.347  30.064  32.205  1.00  0.00    +0.000 C 
ATOM     67  N9  UNL A   1      44.814  30.874  31.205  1.00  0.00    +0.000 N 
ATOM     68  C50 UNL A   1      43.128  30.326  32.925  1.00  0.00    +0.000 C 
ATOM     80  C57 UNL A   1      42.135  31.154  32.488  1.00  0.00    +0.000 C 
ATOM     81  N10 UNL A   1      40.837  31.021  32.960  1.00  0.00    +0.000 N 
ATOM     82  C58 UNL A   1      40.088  31.480  31.995  1.00  0.00    +0.000 C 
ATOM     83  C59 UNL A   1      38.793  30.867  31.606  1.00  0.00    +0.000 C 
ATOM     95  C66 UNL A   1      39.070  29.652  31.068  1.00  0.00    +0.000 C 
ATOM     96  C67 UNL A   1      38.204  28.522  30.810  1.00  0.00    +0.000 C 
ATOM     97  C68 UNL A   1      38.913  27.570  30.166  1.00  0.00    +0.000 C 
ATOM     98  C69 UNL A   1      40.244  28.087  29.844  1.00  0.00    +0.000 C 
ATOM     99  N11 UNL A   1      40.314  29.289  30.515  1.00  0.00    +0.000 N 
ATOM    100  C70 UNL A   1      40.762  32.318  31.019  1.00  0.00    +0.000 C 
ATOM    101  C71 UNL A   1      42.030  32.019  31.317  1.00  0.00    +0.000 C 
ATOM    102  C72 UNL A   1      43.705  29.164  27.075  1.00  0.00    +0.000 C 
ATOM    103  C73 UNL A   1      42.511  28.574  27.114  1.00  0.00    +0.000 C 
ENDROOT
BRANCH   47   46
ATOM    104  C74 UNL A   1      40.190  26.217  27.141  1.00  0.00    +0.000 C 
ATOM    105  C75 UNL A   1      40.028  24.992  26.510  1.00  0.00    +0.000 C 
ATOM    136  H31 UNL A   1      41.948  23.099  28.492  1.00  0.00    +0.000 H 
ATOM     43  C32 UNL A   1      40.612  23.820  27.029  1.00  0.00    +0.000 C 
ATOM     44  C33 UNL A   1      41.445  23.930  28.145  1.00  0.00    +0.000 C 
ATOM     45  C34 UNL A   1      41.600  25.153  28.791  1.00  0.00    +0.000 C 
ATOM    137  H32 UNL A   1      42.206  25.224  29.624  1.00  0.00    +0.000 H 
ATOM     46  C35 UNL A   1      40.937  26.283  28.312  1.00  0.00    +0.000 C 
ATOM    148  H43 UNL A   1      39.760  27.068  26.747  1.00  0.00    +0.000 H 
ATOM    149  H44 UNL A   1      39.472  24.938  25.643  1.00  0.00    +0.000 H 
BRANCH   43    2
ATOM      1  O1  UNL A   1      39.014  22.251  26.339  1.00  0.00    +0.000 O 
ATOM      2  C1  UNL A   1      40.210  22.556  26.355  1.00  0.00    +0.000 C 
BRANCH    2    3
ATOM    106  H1  UNL A   1      40.826  21.420  24.873  1.00  0.00    +0.000 H 
ATOM      3  N1  UNL A   1      41.068  21.652  25.799  1.00  0.00    +0.000 N 
BRANCH    3    4
ATOM    108  H3  UNL A   1      42.135  20.808  27.309  1.00  0.00    +0.000 H 
ATOM    107  H2  UNL A   1      42.322  20.031  25.717  1.00  0.00    +0.000 H 
ATOM      4  C2  UNL A   1      42.249  20.953  26.254  1.00  0.00    +0.000 C 
BRANCH    4    5
ATOM    109  H4  UNL A   1      44.337  21.025  25.893  1.00  0.00    +0.000 H 
ATOM      5  C3  UNL A   1      43.550  21.731  26.053  1.00  0.00    +0.000 C 
ATOM    110  H5  UNL A   1      43.683  22.324  26.934  1.00  0.00    +0.000 H 
BRANCH    5    6
ATOM      6  C4  UNL A   1      43.542  22.710  24.873  1.00  0.00    +0.000 C 
ATOM    111  H6  UNL A   1      43.427  23.698  25.266  1.00  0.00    +0.000 H 
ATOM    112  H7  UNL A   1      42.737  22.397  24.241  1.00  0.00    +0.000 H 
BRANCH    6    7
ATOM    113  H8  UNL A   1      44.682  23.465  23.250  1.00  0.00    +0.000 H 
ATOM    114  H9  UNL A   1      44.855  21.712  23.580  1.00  0.00    +0.000 H 
ATOM      7  C5  UNL A   1      44.793  22.698  23.989  1.00  0.00    +0.000 C 
BRANCH    7    8
ATOM    115  H10 UNL A   1      46.696  22.036  24.659  1.00  0.00    +0.000 H 
ATOM    116  H11 UNL A   1      45.865  23.207  25.723  1.00  0.00    +0.000 H 
ATOM      8  C6  UNL A   1      46.118  22.935  24.719  1.00  0.00    +0.000 C 
BRANCH    8    9
ATOM      9  C7  UNL A   1      46.960  24.079  24.163  1.00  0.00    +0.000 C 
ATOM    117  H12 UNL A   1      46.612  24.313  23.178  1.00  0.00    +0.000 H 
ATOM    118  H13 UNL A   1      47.980  23.758  24.153  1.00  0.00    +0.000 H 
BRANCH    9   10
ATOM     10  N2  UNL A   1      46.880  25.278  24.983  1.00  0.00    +0.000 N 
ATOM    119  H14 UNL A   1      47.708  25.805  25.047  1.00  0.00    +0.000 H 
BRANCH   10   11
ATOM     11  C8  UNL A   1      45.806  25.772  25.678  1.00  0.00    +0.000 C 
ATOM     12  O2  UNL A   1      44.858  26.286  25.085  1.00  0.00    +0.000 O 
BRANCH   11   13
ATOM    134  H29 UNL A   1      47.106  27.016  29.910  1.00  0.00    +0.000 H 
ATOM    135  H30 UNL A   1      47.103  27.284  27.493  1.00  0.00    +0.000 H 
ATOM     41  C30 UNL A   1      46.552  26.378  29.318  1.00  0.00    +0.000 C 
ATOM     42  C31 UNL A   1      46.546  26.534  27.934  1.00  0.00    +0.000 C 
ATOM     13  C9  UNL A   1      45.782  25.667  27.149  1.00  0.00    +0.000 C 
ATOM     14  C10 UNL A   1      44.983  24.681  27.741  1.00  0.00    +0.000 C 
ATOM     15  C11 UNL A   1      45.017  24.492  29.124  1.00  0.00    +0.000 C 
ATOM     16  C12 UNL A   1      45.797  25.345  29.905  1.00  0.00    +0.000 C 
ATOM    120  H15 UNL A   1      44.368  24.094  27.155  1.00  0.00    +0.000 H 
ATOM    121  H16 UNL A   1      44.473  23.732  29.562  1.00  0.00    +0.000 H 
BRANCH   16   17
ATOM     39  N6  UNL A   1      46.233  25.502  33.401  1.00  0.00    +0.000 N 
ATOM     40  N7  UNL A   1      46.678  25.704  32.159  1.00  0.00    +0.000 N 
ATOM     17  N3  UNL A   1      45.738  25.248  31.307  1.00  0.00    +0.000 N 
ATOM     18  C13 UNL A   1      44.716  24.684  32.012  1.00  0.00    +0.000 C 
ATOM     19  C14 UNL A   1      45.046  24.808  33.336  1.00  0.00    +0.000 C 
ATOM    122  H17 UNL A   1      43.863  24.252  31.625  1.00  0.00    +0.000 H 
BRANCH   19   20
ATOM    124  H19 UNL A   1      43.602  25.430  34.548  1.00  0.00    +0.000 H 
ATOM    123  H18 UNL A   1      43.778  23.584  34.378  1.00  0.00    +0.000 H 
ATOM     20  C15 UNL A   1      44.211  24.550  34.533  1.00  0.00    +0.000 C 
BRANCH   20   21
ATOM     21  S1  UNL A   1      44.834  24.540  36.215  1.00  0.00    +0.000 S 
BRANCH   21   22
ATOM    127  H22 UNL A   1      52.443  24.177  36.658  1.00  0.00    +0.000 H 
ATOM    126  H21 UNL A   1      51.501  25.668  38.330  1.00  0.00    +0.000 H 
ATOM    128  H23 UNL A   1      50.958  22.847  35.259  1.00  0.00    +0.000 H 
ATOM    125  H20 UNL A   1      49.099  26.007  38.449  1.00  0.00    +0.000 H 
ATOM     22  C16 UNL A   1      46.477  23.978  36.363  1.00  0.00    +0.000 C 
ATOM     23  N4  UNL A   1      47.264  24.883  36.874  1.00  0.00    +0.000 N 
ATOM     24  C17 UNL A   1      48.637  24.608  36.941  1.00  0.00    +0.000 C 
ATOM     25  C18 UNL A   1      49.490  25.333  37.773  1.00  0.00    +0.000 C 
ATOM     26  C19 UNL A   1      50.877  25.150  37.693  1.00  0.00    +0.000 C 
ATOM     27  C20 UNL A   1      51.419  24.268  36.754  1.00  0.00    +0.000 C 
ATOM     28  C21 UNL A   1      50.573  23.510  35.949  1.00  0.00    +0.000 C 
ATOM     29  C22 UNL A   1      49.190  23.664  36.090  1.00  0.00    +0.000 C 
ATOM     30  C23 UNL A   1      48.233  22.765  35.436  1.00  0.00    +0.000 C 
ATOM     31  O3  UNL A   1      48.601  22.128  34.451  1.00  0.00    +0.000 O 
ATOM     32  N5  UNL A   1      46.957  22.728  36.013  1.00  0.00    +0.000 N 
BRANCH   32   33
ATOM     33  C24 UNL A   1      46.289  21.446  36.112  1.00  0.00    +0.000 C 
ATOM     34  C25 UNL A   1      46.393  20.700  37.306  1.00  0.00    +0.000 C 
ATOM    129  H24 UNL A   1      46.758  21.161  38.153  1.00  0.00    +0.000 H 
ATOM     35  C26 UNL A   1      46.015  19.356  37.380  1.00  0.00    +0.000 C 
ATOM    133  H28 UNL A   1      45.237  21.425  34.285  1.00  0.00    +0.000 H 
ATOM     38  C29 UNL A   1      45.551  20.851  35.084  1.00  0.00    +0.000 C 
ATOM     37  C28 UNL A   1      45.230  19.485  35.124  1.00  0.00    +0.000 C 
ATOM    130  H25 UNL A   1      46.123  18.835  38.263  1.00  0.00    +0.000 H 
ATOM     36  C27 UNL A   1      45.497  18.729  36.258  1.00  0.00    +0.000 C 
ATOM    132  H27 UNL A   1      44.791  19.039  34.303  1.00  0.00    +0.000 H 
ATOM    131  H26 UNL A   1      45.313  17.714  36.266  1.00  0.00    +0.000 H 
ENDBRANCH   32   33
ENDBRANCH   21   22
ENDBRANCH   20   21
ENDBRANCH   19   20
ENDBRANCH   16   17
ENDBRANCH   11   13
ENDBRANCH   10   11
ENDBRANCH    9   10
ENDBRANCH    8    9
ENDBRANCH    7    8
ENDBRANCH    6    7
ENDBRANCH    5    6
ENDBRANCH    4    5
ENDBRANCH    3    4
ENDBRANCH    2    3
ENDBRANCH   43    2
ENDBRANCH   47   46
BRANCH   51   52
ATOM     52  C40 UNL A   1      45.398  31.628  28.215  1.00  0.00    +0.000 C 
ATOM     53  C41 UNL A   1      44.320  32.480  27.892  1.00  0.00    +0.000 C 
ATOM     54  F1  UNL A   1      43.107  32.283  28.429  1.00  0.00    +0.000 F 
ATOM     55  C42 UNL A   1      44.434  33.485  26.927  1.00  0.00    +0.000 C 
ATOM     56  F2  UNL A   1      43.345  34.168  26.547  1.00  0.00    +0.000 F 
ATOM     57  C43 UNL A   1      45.644  33.724  26.304  1.00  0.00    +0.000 C 
ATOM     58  F3  UNL A   1      45.739  34.633  25.325  1.00  0.00    +0.000 F 
ATOM     59  C44 UNL A   1      46.746  32.981  26.666  1.00  0.00    +0.000 C 
ATOM     60  F4  UNL A   1      47.927  33.193  26.068  1.00  0.00    +0.000 F 
ATOM     61  C45 UNL A   1      46.624  31.945  27.591  1.00  0.00    +0.000 C 
ATOM     62  F5  UNL A   1      47.727  31.208  27.759  1.00  0.00    +0.000 F 
ENDBRANCH   51   52
BRANCH   68   69
ATOM     69  C51 UNL A   1      42.831  29.443  34.102  1.00  0.00    +0.000 C 
ATOM     70  C52 UNL A   1      42.122  28.232  34.007  1.00  0.00    +0.000 C 
ATOM     71  F6  UNL A   1      41.635  27.813  32.831  1.00  0.00    +0.000 F 
ATOM     72  C53 UNL A   1      41.958  27.403  35.116  1.00  0.00    +0.000 C 
ATOM     73  F7  UNL A   1      41.270  26.258  35.003  1.00  0.00    +0.000 F 
ATOM     74  C54 UNL A   1      42.542  27.741  36.327  1.00  0.00    +0.000 C 
ATOM     75  F8  UNL A   1      42.423  26.923  37.382  1.00  0.00    +0.000 F 
ATOM     76  C55 UNL A   1      43.275  28.912  36.435  1.00  0.00    +0.000 C 
ATOM     77  F9  UNL A   1      43.884  29.216  37.589  1.00  0.00    +0.000 F 
ATOM     78  C56 UNL A   1      43.407  29.759  35.339  1.00  0.00    +0.000 C 
ATOM     79  F10 UNL A   1      44.146  30.872  35.470  1.00  0.00    +0.000 F 
ENDBRANCH   68   69
BRANCH   83   84
ATOM     84  C60 UNL A   1      37.544  31.655  31.487  1.00  0.00    +0.000 C 
ATOM     85  C61 UNL A   1      36.753  31.943  32.611  1.00  0.00    +0.000 C 
ATOM     86  F11 UNL A   1      36.998  31.335  33.781  1.00  0.00    +0.000 F 
ATOM     87  C62 UNL A   1      35.744  32.912  32.569  1.00  0.00    +0.000 C 
ATOM     88  F12 UNL A   1      35.047  33.201  33.677  1.00  0.00    +0.000 F 
ATOM     89  C63 UNL A   1      35.496  33.615  31.402  1.00  0.00    +0.000 C 
ATOM     90  F13 UNL A   1      34.571  34.585  31.376  1.00  0.00    +0.000 F 
ATOM     91  C64 UNL A   1      36.242  33.341  30.271  1.00  0.00    +0.000 C 
ATOM     92  F14 UNL A   1      36.041  34.042  29.147  1.00  0.00    +0.000 F 
ATOM     93  C65 UNL A   1      37.252  32.379  30.314  1.00  0.00    +0.000 C 
ATOM     94  F15 UNL A   1      38.005  32.236  29.214  1.00  0.00    +0.000 F 
ENDBRANCH   83   84
TORSDOF 20
ENDMDL
MODEL 5
REMARK VINA RESULT:     -12.8     25.282     31.770
ROOT
ATOM    138  H33 UNL A   1      46.422  28.878  30.238  1.00  0.00    +0.000 H 
ATOM    139  H34 UNL A   1      45.208  28.805  32.610  1.00  0.00    +0.000 H 
ATOM    140  H35 UNL A   1      44.198  32.194  30.691  1.00  0.00    +0.000 H 
ATOM    141  H36 UNL A   1      36.966  28.215  31.110  1.00  0.00    +0.000 H 
ATOM    142  H37 UNL A   1      38.409  26.455  29.968  1.00  0.00    +0.000 H 
ATOM    143  H38 UNL A   1      40.740  29.871  30.384  1.00  0.00    +0.000 H 
ATOM    144  H39 UNL A   1      39.724  32.917  30.015  1.00  0.00    +0.000 H 
ATOM    145  H40 UNL A   1      42.247  32.534  30.386  1.00  0.00    +0.000 H 
ATOM    146  H41 UNL A   1      43.617  29.533  25.860  1.00  0.00    +0.000 H 
ATOM    147  H42 UNL A   1      41.379  28.296  26.146  1.00  0.00    +0.000 H 
ATOM     47  C36 UNL A   1      40.855  27.547  28.861  1.00  0.00    +0.000 C 
ATOM     48  C37 UNL A   1      41.982  28.367  28.333  1.00  0.00    +0.000 C 
ATOM     49  N8  UNL A   1      43.001  28.837  28.979  1.00  0.00    +0.000 N 
ATOM     50  C38 UNL A   1      43.729  29.584  28.052  1.00  0.00    +0.000 C 
ATOM     51  C39 UNL A   1      44.571  30.580  28.447  1.00  0.00    +0.000 C 
ATOM     63  C46 UNL A   1      44.955  30.423  29.826  1.00  0.00    +0.000 C 
ATOM     64  C47 UNL A   1      45.627  29.458  30.551  1.00  0.00    +0.000 C 
ATOM     65  C48 UNL A   1      44.984  29.436  31.824  1.00  0.00    +0.000 C 
ATOM     66  C49 UNL A   1      43.997  30.421  31.814  1.00  0.00    +0.000 C 
ATOM     67  N9  UNL A   1      44.350  31.224  30.762  1.00  0.00    +0.000 N 
ATOM     68  C50 UNL A   1      42.797  30.616  32.586  1.00  0.00    +0.000 C 
ATOM     80  C57 UNL A   1      41.722  31.345  32.170  1.00  0.00    +0.000 C 
ATOM     81  N10 UNL A   1      40.463  31.131  32.712  1.00  0.00    +0.000 N 
ATOM     82  C58 UNL A   1      39.634  31.491  31.770  1.00  0.00    +0.000 C 
ATOM     83  C59 UNL A   1      38.375  30.765  31.470  1.00  0.00    +0.000 C 
ATOM     95  C66 UNL A   1      38.721  29.554  30.962  1.00  0.00    +0.000 C 
ATOM     96  C67 UNL A   1      37.937  28.350  30.791  1.00  0.00    +0.000 C 
ATOM     97  C68 UNL A   1      38.688  27.432  30.146  1.00  0.00    +0.000 C 
ATOM     98  C69 UNL A   1      39.956  28.038  29.738  1.00  0.00    +0.000 C 
ATOM     99  N11 UNL A   1      39.962  29.267  30.361  1.00  0.00    +0.000 N 
ATOM    100  C70 UNL A   1      40.192  32.340  30.731  1.00  0.00    +0.000 C 
ATOM    101  C71 UNL A   1      41.492  32.152  30.975  1.00  0.00    +0.000 C 
ATOM    102  C72 UNL A   1      43.184  29.269  26.759  1.00  0.00    +0.000 C 
ATOM    103  C73 UNL A   1      42.044  28.589  26.880  1.00  0.00    +0.000 C 
ENDROOT
BRANCH   47   46
ATOM    104  C74 UNL A   1      39.737  26.001  27.281  1.00  0.00    +0.000 C 
ATOM    105  C75 UNL A   1      39.646  24.746  26.695  1.00  0.00    +0.000 C 
ATOM    136  H31 UNL A   1      42.280  23.276  28.143  1.00  0.00    +0.000 H 
ATOM     43  C32 UNL A   1      40.531  23.710  27.049  1.00  0.00    +0.000 C 
ATOM     44  C33 UNL A   1      41.572  23.997  27.934  1.00  0.00    +0.000 C 
ATOM     45  C34 UNL A   1      41.661  25.249  28.535  1.00  0.00    +0.000 C 
ATOM    137  H32 UNL A   1      42.425  25.450  29.200  1.00  0.00    +0.000 H 
ATOM     46  C35 UNL A   1      40.717  26.233  28.239  1.00  0.00    +0.000 C 
ATOM    148  H43 UNL A   1      39.084  26.753  27.008  1.00  0.00    +0.000 H 
ATOM    149  H44 UNL A   1      38.917  24.570  25.986  1.00  0.00    +0.000 H 
BRANCH   43    2
ATOM      1  O1  UNL A   1      39.054  21.947  26.596  1.00  0.00    +0.000 O 
ATOM      2  C1  UNL A   1      40.206  22.374  26.479  1.00  0.00    +0.000 C 
BRANCH    2    3
ATOM    106  H1  UNL A   1      40.919  21.401  24.927  1.00  0.00    +0.000 H 
ATOM      3  N1  UNL A   1      41.101  21.531  25.886  1.00  0.00    +0.000 N 
BRANCH    3    4
ATOM    108  H3  UNL A   1      42.237  20.808  27.408  1.00  0.00    +0.000 H 
ATOM    107  H2  UNL A   1      42.186  19.792  25.947  1.00  0.00    +0.000 H 
ATOM      4  C2  UNL A   1      42.254  20.785  26.338  1.00  0.00    +0.000 C 
BRANCH    4    5
ATOM    109  H4  UNL A   1      44.205  20.587  25.534  1.00  0.00    +0.000 H 
ATOM      5  C3  UNL A   1      43.593  21.381  25.904  1.00  0.00    +0.000 C 
ATOM    110  H5  UNL A   1      44.000  21.864  26.768  1.00  0.00    +0.000 H 
BRANCH    5    6
ATOM      6  C4  UNL A   1      43.499  22.457  24.815  1.00  0.00    +0.000 C 
ATOM    111  H6  UNL A   1      43.381  23.403  25.297  1.00  0.00    +0.000 H 
ATOM    112  H7  UNL A   1      42.669  22.176  24.200  1.00  0.00    +0.000 H 
BRANCH    6    7
ATOM    113  H8  UNL A   1      44.578  23.433  23.270  1.00  0.00    +0.000 H 
ATOM    114  H9  UNL A   1      44.708  21.646  23.308  1.00  0.00    +0.000 H 
ATOM      7  C5  UNL A   1      44.701  22.556  23.871  1.00  0.00    +0.000 C 
BRANCH    7    8
ATOM    115  H10 UNL A   1      46.663  21.817  24.208  1.00  0.00    +0.000 H 
ATOM    116  H11 UNL A   1      45.884  22.612  25.606  1.00  0.00    +0.000 H 
ATOM      8  C6  UNL A   1      46.069  22.639  24.552  1.00  0.00    +0.000 C 
BRANCH    8    9
ATOM      9  C7  UNL A   1      46.840  23.927  24.284  1.00  0.00    +0.000 C 
ATOM    117  H12 UNL A   1      46.502  24.344  23.359  1.00  0.00    +0.000 H 
ATOM    118  H13 UNL A   1      47.881  23.683  24.247  1.00  0.00    +0.000 H 
BRANCH    9   10
ATOM     10  N2  UNL A   1      46.655  24.915  25.336  1.00  0.00    +0.000 N 
ATOM    119  H14 UNL A   1      47.478  25.328  25.682  1.00  0.00    +0.000 H 
BRANCH   10   11
ATOM     11  C8  UNL A   1      45.487  25.350  25.909  1.00  0.00    +0.000 C 
ATOM     12  O2  UNL A   1      44.609  25.872  25.224  1.00  0.00    +0.000 O 
BRANCH   11   13
ATOM    134  H29 UNL A   1      45.027  26.885  30.219  1.00  0.00    +0.000 H 
ATOM    135  H30 UNL A   1      45.280  27.232  27.825  1.00  0.00    +0.000 H 
ATOM     41  C30 UNL A   1      45.079  26.077  29.580  1.00  0.00    +0.000 C 
ATOM     42  C31 UNL A   1      45.219  26.276  28.209  1.00  0.00    +0.000 C 
ATOM     13  C9  UNL A   1      45.278  25.169  27.358  1.00  0.00    +0.000 C 
ATOM     14  C10 UNL A   1      45.143  23.869  27.861  1.00  0.00    +0.000 C 
ATOM     15  C11 UNL A   1      45.045  23.662  29.239  1.00  0.00    +0.000 C 
ATOM     16  C12 UNL A   1      45.008  24.767  30.090  1.00  0.00    +0.000 C 
ATOM    120  H15 UNL A   1      45.116  23.065  27.216  1.00  0.00    +0.000 H 
ATOM    121  H16 UNL A   1      45.001  22.704  29.622  1.00  0.00    +0.000 H 
BRANCH   16   17
ATOM     39  N6  UNL A   1      44.144  23.672  33.329  1.00  0.00    +0.000 N 
ATOM     40  N7  UNL A   1      44.072  23.560  32.001  1.00  0.00    +0.000 N 
ATOM     17  N3  UNL A   1      44.779  24.575  31.464  1.00  0.00    +0.000 N 
ATOM     18  C13 UNL A   1      45.247  25.383  32.458  1.00  0.00    +0.000 C 
ATOM     19  C14 UNL A   1      44.812  24.836  33.637  1.00  0.00    +0.000 C 
ATOM    122  H17 UNL A   1      45.816  26.236  32.345  1.00  0.00    +0.000 H 
BRANCH   19   20
ATOM    124  H19 UNL A   1      46.153  24.721  35.095  1.00  0.00    +0.000 H 
ATOM    123  H18 UNL A   1      45.094  26.252  35.089  1.00  0.00    +0.000 H 
ATOM     20  C15 UNL A   1      45.194  25.189  35.024  1.00  0.00    +0.000 C 
BRANCH   20   21
ATOM     21  S1  UNL A   1      44.390  24.536  36.489  1.00  0.00    +0.000 S 
BRANCH   21   22
ATOM    127  H22 UNL A   1      47.769  27.965  42.409  1.00  0.00    +0.000 H 
ATOM    126  H21 UNL A   1      45.450  28.649  42.160  1.00  0.00    +0.000 H 
ATOM    128  H23 UNL A   1      48.659  26.192  40.997  1.00  0.00    +0.000 H 
ATOM    125  H20 UNL A   1      44.096  27.740  40.360  1.00  0.00    +0.000 H 
ATOM     22  C16 UNL A   1      45.246  24.854  37.974  1.00  0.00    +0.000 C 
ATOM     23  N4  UNL A   1      44.891  25.985  38.516  1.00  0.00    +0.000 N 
ATOM     24  C17 UNL A   1      45.584  26.424  39.652  1.00  0.00    +0.000 C 
ATOM     25  C18 UNL A   1      45.063  27.406  40.494  1.00  0.00    +0.000 C 
ATOM     26  C19 UNL A   1      45.850  27.943  41.522  1.00  0.00    +0.000 C 
ATOM     27  C20 UNL A   1      47.174  27.527  41.688  1.00  0.00    +0.000 C 
ATOM     28  C21 UNL A   1      47.687  26.518  40.879  1.00  0.00    +0.000 C 
ATOM     29  C22 UNL A   1      46.863  25.952  39.901  1.00  0.00    +0.000 C 
ATOM     30  C23 UNL A   1      47.251  24.753  39.149  1.00  0.00    +0.000 C 
ATOM     31  O3  UNL A   1      48.444  24.466  39.073  1.00  0.00    +0.000 O 
ATOM     32  N5  UNL A   1      46.193  24.041  38.572  1.00  0.00    +0.000 N 
BRANCH   32   33
ATOM     33  C24 UNL A   1      46.243  22.594  38.609  1.00  0.00    +0.000 C 
ATOM     34  C25 UNL A   1      45.898  21.917  39.800  1.00  0.00    +0.000 C 
ATOM    129  H24 UNL A   1      45.420  22.439  40.550  1.00  0.00    +0.000 H 
ATOM     35  C26 UNL A   1      46.183  20.563  39.996  1.00  0.00    +0.000 C 
ATOM    133  H28 UNL A   1      46.681  22.177  36.589  1.00  0.00    +0.000 H 
ATOM     38  C29 UNL A   1      46.644  21.783  37.542  1.00  0.00    +0.000 C 
ATOM     37  C28 UNL A   1      46.996  20.440  37.750  1.00  0.00    +0.000 C 
ATOM    130  H25 UNL A   1      45.935  20.105  40.886  1.00  0.00    +0.000 H 
ATOM     36  C27 UNL A   1      46.801  19.841  38.988  1.00  0.00    +0.000 C 
ATOM    132  H27 UNL A   1      47.403  19.893  36.975  1.00  0.00    +0.000 H 
ATOM    131  H26 UNL A   1      47.112  18.871  39.155  1.00  0.00    +0.000 H 
ENDBRANCH   32   33
ENDBRANCH   21   22
ENDBRANCH   20   21
ENDBRANCH   19   20
ENDBRANCH   16   17
ENDBRANCH   11   13
ENDBRANCH   10   11
ENDBRANCH    9   10
ENDBRANCH    8    9
ENDBRANCH    7    8
ENDBRANCH    6    7
ENDBRANCH    5    6
ENDBRANCH    4    5
ENDBRANCH    3    4
ENDBRANCH    2    3
ENDBRANCH   43    2
ENDBRANCH   47   46
BRANCH   51   52
ATOM     52  C40 UNL A   1      44.727  31.900  27.721  1.00  0.00    +0.000 C 
ATOM     53  C41 UNL A   1      45.906  32.132  26.981  1.00  0.00    +0.000 C 
ATOM     54  F1  UNL A   1      46.724  31.119  26.658  1.00  0.00    +0.000 F 
ATOM     55  C42 UNL A   1      46.331  33.422  26.650  1.00  0.00    +0.000 C 
ATOM     56  F2  UNL A   1      47.530  33.601  26.079  1.00  0.00    +0.000 F 
ATOM     57  C43 UNL A   1      45.560  34.520  26.980  1.00  0.00    +0.000 C 
ATOM     58  F3  UNL A   1      45.999  35.761  26.734  1.00  0.00    +0.000 F 
ATOM     59  C44 UNL A   1      44.351  34.328  27.612  1.00  0.00    +0.000 C 
ATOM     60  F4  UNL A   1      43.592  35.381  27.948  1.00  0.00    +0.000 F 
ATOM     61  C45 UNL A   1      43.948  33.047  27.989  1.00  0.00    +0.000 C 
ATOM     62  F5  UNL A   1      42.828  33.001  28.716  1.00  0.00    +0.000 F 
ENDBRANCH   51   52
BRANCH   68   69
ATOM     69  C51 UNL A   1      42.628  29.760  33.807  1.00  0.00    +0.000 C 
ATOM     70  C52 UNL A   1      42.098  28.458  33.778  1.00  0.00    +0.000 C 
ATOM     71  F6  UNL A   1      41.674  27.916  32.628  1.00  0.00    +0.000 F 
ATOM     72  C53 UNL A   1      42.053  27.671  34.928  1.00  0.00    +0.000 C 
ATOM     73  F7  UNL A   1      41.533  26.436  34.878  1.00  0.00    +0.000 F 
ATOM     74  C54 UNL A   1      42.583  28.149  36.116  1.00  0.00    +0.000 C 
ATOM     75  F8  UNL A   1      42.581  27.377  37.211  1.00  0.00    +0.000 F 
ATOM     76  C55 UNL A   1      43.143  29.416  36.160  1.00  0.00    +0.000 C 
ATOM     77  F9  UNL A   1      43.704  29.861  37.293  1.00  0.00    +0.000 F 
ATOM     78  C56 UNL A   1      43.154  30.217  35.022  1.00  0.00    +0.000 C 
ATOM     79  F10 UNL A   1      43.728  31.428  35.092  1.00  0.00    +0.000 F 
ENDBRANCH   68   69
BRANCH   83   84
ATOM     84  C60 UNL A   1      37.062  31.447  31.386  1.00  0.00    +0.000 C 
ATOM     85  C61 UNL A   1      36.379  31.859  32.542  1.00  0.00    +0.000 C 
ATOM     86  F11 UNL A   1      36.796  31.455  33.751  1.00  0.00    +0.000 F 
ATOM     87  C62 UNL A   1      35.298  32.746  32.478  1.00  0.00    +0.000 C 
ATOM     88  F12 UNL A   1      34.706  33.161  33.607  1.00  0.00    +0.000 F 
ATOM     89  C63 UNL A   1      34.871  33.243  31.258  1.00  0.00    +0.000 C 
ATOM     90  F13 UNL A   1      33.875  34.140  31.201  1.00  0.00    +0.000 F 
ATOM     91  C64 UNL A   1      35.509  32.842  30.099  1.00  0.00    +0.000 C 
ATOM     92  F14 UNL A   1      35.132  33.347  28.917  1.00  0.00    +0.000 F 
ATOM     93  C65 UNL A   1      36.589  31.961  30.163  1.00  0.00    +0.000 C 
ATOM     94  F15 UNL A   1      37.227  31.695  29.014  1.00  0.00    +0.000 F 
ENDBRANCH   83   84
TORSDOF 20
ENDMDL
MODEL 6
REMARK VINA RESULT:     -12.8     13.165     18.561
ROOT
ATOM    138  H33 UNL A   1      23.549  28.032   1.160  1.00  0.00    +0.000 H 
ATOM    139  H34 UNL A   1      23.245  25.592   2.187  1.00  0.00    +0.000 H 
ATOM    140  H35 UNL A   1      19.630  27.188   1.427  1.00  0.00    +0.000 H 
ATOM    141  H36 UNL A   1      19.857  20.818  -3.835  1.00  0.00    +0.000 H 
ATOM    142  H37 UNL A   1      21.987  22.051  -4.491  1.00  0.00    +0.000 H 
ATOM    143  H38 UNL A   1      20.070  24.359  -1.616  1.00  0.00    +0.000 H 
ATOM    144  H39 UNL A   1      16.880  24.809  -1.362  1.00  0.00    +0.000 H 
ATOM    145  H40 UNL A   1      18.408  26.165   0.212  1.00  0.00    +0.000 H 
ATOM    146  H41 UNL A   1      21.332  29.255  -3.429  1.00  0.00    +0.000 H 
ATOM    147  H42 UNL A   1      21.420  27.177  -4.944  1.00  0.00    +0.000 H 
ATOM     47  C36 UNL A   1      22.058  24.779  -3.515  1.00  0.00    +0.000 C 
ATOM     48  C37 UNL A   1      21.809  26.140  -2.963  1.00  0.00    +0.000 C 
ATOM     49  N8  UNL A   1      21.913  26.538  -1.735  1.00  0.00    +0.000 N 
ATOM     50  C38 UNL A   1      21.513  27.875  -1.732  1.00  0.00    +0.000 C 
ATOM     51  C39 UNL A   1      21.051  28.475  -0.599  1.00  0.00    +0.000 C 
ATOM     63  C46 UNL A   1      21.476  27.764   0.579  1.00  0.00    +0.000 C 
ATOM     64  C47 UNL A   1      22.696  27.451   1.146  1.00  0.00    +0.000 C 
ATOM     65  C48 UNL A   1      22.521  26.152   1.709  1.00  0.00    +0.000 C 
ATOM     66  C49 UNL A   1      21.196  25.777   1.496  1.00  0.00    +0.000 C 
ATOM     67  N9  UNL A   1      20.564  26.958   1.214  1.00  0.00    +0.000 N 
ATOM     68  C50 UNL A   1      20.532  24.499   1.451  1.00  0.00    +0.000 C 
ATOM     80  C57 UNL A   1      19.360  24.260   0.796  1.00  0.00    +0.000 C 
ATOM     81  N10 UNL A   1      19.014  22.977   0.398  1.00  0.00    +0.000 N 
ATOM     82  C58 UNL A   1      18.239  23.151  -0.637  1.00  0.00    +0.000 C 
ATOM     83  C59 UNL A   1      18.279  22.283  -1.841  1.00  0.00    +0.000 C 
ATOM     95  C66 UNL A   1      19.468  22.504  -2.456  1.00  0.00    +0.000 C 
ATOM     96  C67 UNL A   1      20.159  21.733  -3.467  1.00  0.00    +0.000 C 
ATOM     97  C68 UNL A   1      21.265  22.407  -3.847  1.00  0.00    +0.000 C 
ATOM     98  C69 UNL A   1      21.280  23.721  -3.203  1.00  0.00    +0.000 C 
ATOM     99  N11 UNL A   1      20.245  23.668  -2.295  1.00  0.00    +0.000 N 
ATOM    100  C70 UNL A   1      17.662  24.477  -0.777  1.00  0.00    +0.000 C 
ATOM    101  C71 UNL A   1      18.445  25.143   0.077  1.00  0.00    +0.000 C 
ATOM    102  C72 UNL A   1      21.439  28.280  -3.110  1.00  0.00    +0.000 C 
ATOM    103  C73 UNL A   1      21.525  27.223  -3.918  1.00  0.00    +0.000 C 
ENDROOT
BRANCH   47   46
ATOM    104  C74 UNL A   1      24.377  24.251  -4.206  1.00  0.00    +0.000 C 
ATOM    105  C75 UNL A   1      25.346  24.186  -5.198  1.00  0.00    +0.000 C 
ATOM    136  H31 UNL A   1      23.504  25.145  -7.823  1.00  0.00    +0.000 H 
ATOM     43  C32 UNL A   1      25.062  24.574  -6.522  1.00  0.00    +0.000 C 
ATOM     44  C33 UNL A   1      23.752  24.936  -6.843  1.00  0.00    +0.000 C 
ATOM     45  C34 UNL A   1      22.780  25.017  -5.851  1.00  0.00    +0.000 C 
ATOM    137  H32 UNL A   1      21.817  25.300  -6.093  1.00  0.00    +0.000 H 
ATOM     46  C35 UNL A   1      23.107  24.716  -4.528  1.00  0.00    +0.000 C 
ATOM    148  H43 UNL A   1      24.598  23.959  -3.241  1.00  0.00    +0.000 H 
ATOM    149  H44 UNL A   1      26.290  23.844  -4.962  1.00  0.00    +0.000 H 
BRANCH   43    2
ATOM      1  O1  UNL A   1      26.246  25.463  -8.339  1.00  0.00    +0.000 O 
ATOM      2  C1  UNL A   1      26.236  24.623  -7.436  1.00  0.00    +0.000 C 
BRANCH    2    3
ATOM    106  H1  UNL A   1      27.016  22.819  -7.467  1.00  0.00    +0.000 H 
ATOM      3  N1  UNL A   1      27.294  23.761  -7.406  1.00  0.00    +0.000 N 
BRANCH    3    4
ATOM    108  H3  UNL A   1      29.139  22.923  -7.252  1.00  0.00    +0.000 H 
ATOM    107  H2  UNL A   1      29.072  24.455  -8.159  1.00  0.00    +0.000 H 
ATOM      4  C2  UNL A   1      28.729  23.910  -7.304  1.00  0.00    +0.000 C 
BRANCH    4    5
ATOM    109  H4  UNL A   1      28.392  25.277  -5.718  1.00  0.00    +0.000 H 
ATOM      5  C3  UNL A   1      29.192  24.648  -6.047  1.00  0.00    +0.000 C 
ATOM    110  H5  UNL A   1      30.072  25.191  -6.325  1.00  0.00    +0.000 H 
BRANCH    5    6
ATOM      6  C4  UNL A   1      29.597  23.743  -4.878  1.00  0.00    +0.000 C 
ATOM    111  H6  UNL A   1      29.549  24.324  -3.981  1.00  0.00    +0.000 H 
ATOM    112  H7  UNL A   1      30.578  23.385  -5.114  1.00  0.00    +0.000 H 
BRANCH    6    7
ATOM    113  H8  UNL A   1      29.373  21.636  -4.762  1.00  0.00    +0.000 H 
ATOM    114  H9  UNL A   1      27.971  22.537  -5.421  1.00  0.00    +0.000 H 
ATOM      7  C5  UNL A   1      28.737  22.492  -4.675  1.00  0.00    +0.000 C 
BRANCH    7    8
ATOM    115  H10 UNL A   1      26.979  22.184  -3.524  1.00  0.00    +0.000 H 
ATOM    116  H11 UNL A   1      28.154  23.347  -2.846  1.00  0.00    +0.000 H 
ATOM      8  C6  UNL A   1      28.008  22.404  -3.331  1.00  0.00    +0.000 C 
BRANCH    8    9
ATOM      9  C7  UNL A   1      28.550  21.343  -2.378  1.00  0.00    +0.000 C 
ATOM    117  H12 UNL A   1      28.476  21.712  -1.376  1.00  0.00    +0.000 H 
ATOM    118  H13 UNL A   1      29.567  21.149  -2.650  1.00  0.00    +0.000 H 
BRANCH    9   10
ATOM     10  N2  UNL A   1      27.820  20.089  -2.468  1.00  0.00    +0.000 N 
ATOM    119  H14 UNL A   1      28.351  19.305  -2.738  1.00  0.00    +0.000 H 
BRANCH   10   11
ATOM     11  C8  UNL A   1      26.491  19.850  -2.227  1.00  0.00    +0.000 C 
ATOM     12  O2  UNL A   1      25.635  20.181  -3.046  1.00  0.00    +0.000 O 
BRANCH   11   13
ATOM    134  H29 UNL A   1      23.731  17.163   0.286  1.00  0.00    +0.000 H 
ATOM    135  H30 UNL A   1      24.410  18.190  -1.812  1.00  0.00    +0.000 H 
ATOM     41  C30 UNL A   1      24.563  17.773   0.251  1.00  0.00    +0.000 C 
ATOM     42  C31 UNL A   1      24.954  18.357  -0.951  1.00  0.00    +0.000 C 
ATOM     13  C9  UNL A   1      26.090  19.171  -0.980  1.00  0.00    +0.000 C 
ATOM     14  C10 UNL A   1      26.865  19.362   0.170  1.00  0.00    +0.000 C 
ATOM     15  C11 UNL A   1      26.454  18.814   1.387  1.00  0.00    +0.000 C 
ATOM     16  C12 UNL A   1      25.308  18.018   1.420  1.00  0.00    +0.000 C 
ATOM    120  H15 UNL A   1      27.740  19.907   0.119  1.00  0.00    +0.000 H 
ATOM    121  H16 UNL A   1      26.991  18.996   2.250  1.00  0.00    +0.000 H 
BRANCH   16   17
ATOM     39  N6  UNL A   1      24.928  16.774   4.697  1.00  0.00    +0.000 N 
ATOM     40  N7  UNL A   1      25.595  17.493   3.792  1.00  0.00    +0.000 N 
ATOM     17  N3  UNL A   1      24.959  17.357   2.610  1.00  0.00    +0.000 N 
ATOM     18  C13 UNL A   1      23.918  16.487   2.748  1.00  0.00    +0.000 C 
ATOM     19  C14 UNL A   1      23.921  16.085   4.058  1.00  0.00    +0.000 C 
ATOM    122  H17 UNL A   1      23.259  16.190   2.012  1.00  0.00    +0.000 H 
BRANCH   19   20
ATOM    124  H19 UNL A   1      23.494  14.498   5.171  1.00  0.00    +0.000 H 
ATOM    123  H18 UNL A   1      22.434  16.001   5.464  1.00  0.00    +0.000 H 
ATOM     20  C15 UNL A   1      22.900  15.306   4.797  1.00  0.00    +0.000 C 
BRANCH   20   21
ATOM     21  S1  UNL A   1      21.558  14.407   4.017  1.00  0.00    +0.000 S 
BRANCH   21   22
ATOM    127  H22 UNL A   1      16.593  19.773   1.831  1.00  0.00    +0.000 H 
ATOM    126  H21 UNL A   1      18.588  20.729   2.836  1.00  0.00    +0.000 H 
ATOM    128  H23 UNL A   1      16.483  17.374   1.423  1.00  0.00    +0.000 H 
ATOM    125  H20 UNL A   1      20.363  19.281   3.644  1.00  0.00    +0.000 H 
ATOM     22  C16 UNL A   1      20.476  15.406   3.085  1.00  0.00    +0.000 C 
ATOM     23  N4  UNL A   1      20.388  16.616   3.562  1.00  0.00    +0.000 N 
ATOM     24  C17 UNL A   1      19.463  17.494   2.982  1.00  0.00    +0.000 C 
ATOM     25  C18 UNL A   1      19.542  18.873   3.170  1.00  0.00    +0.000 C 
ATOM     26  C19 UNL A   1      18.510  19.708   2.719  1.00  0.00    +0.000 C 
ATOM     27  C20 UNL A   1      17.377  19.162   2.111  1.00  0.00    +0.000 C 
ATOM     28  C21 UNL A   1      17.309  17.790   1.881  1.00  0.00    +0.000 C 
ATOM     29  C22 UNL A   1      18.379  16.985   2.283  1.00  0.00    +0.000 C 
ATOM     30  C23 UNL A   1      18.482  15.573   1.898  1.00  0.00    +0.000 C 
ATOM     31  O3  UNL A   1      17.459  14.975   1.569  1.00  0.00    +0.000 O 
ATOM     32  N5  UNL A   1      19.772  15.031   1.955  1.00  0.00    +0.000 N 
BRANCH   32   33
ATOM     33  C24 UNL A   1      20.179  14.125   0.900  1.00  0.00    +0.000 C 
ATOM     34  C25 UNL A   1      20.163  12.733   1.134  1.00  0.00    +0.000 C 
ATOM    129  H24 UNL A   1      19.671  12.373   1.965  1.00  0.00    +0.000 H 
ATOM     35  C26 UNL A   1      20.793  11.826   0.277  1.00  0.00    +0.000 C 
ATOM    133  H28 UNL A   1      20.448  15.488  -0.686  1.00  0.00    +0.000 H 
ATOM     38  C29 UNL A   1      20.628  14.525  -0.363  1.00  0.00    +0.000 C 
ATOM     37  C28 UNL A   1      21.322  13.633  -1.197  1.00  0.00    +0.000 C 
ATOM    130  H25 UNL A   1      20.779  10.817   0.490  1.00  0.00    +0.000 H 
ATOM     36  C27 UNL A   1      21.437  12.292  -0.858  1.00  0.00    +0.000 C 
ATOM    132  H27 UNL A   1      21.749  13.979  -2.071  1.00  0.00    +0.000 H 
ATOM    131  H26 UNL A   1      21.994  11.649  -1.442  1.00  0.00    +0.000 H 
ENDBRANCH   32   33
ENDBRANCH   21   22
ENDBRANCH   20   21
ENDBRANCH   19   20
ENDBRANCH   16   17
ENDBRANCH   11   13
ENDBRANCH   10   11
ENDBRANCH    9   10
ENDBRANCH    8    9
ENDBRANCH    7    8
ENDBRANCH    6    7
ENDBRANCH    5    6
ENDBRANCH    4    5
ENDBRANCH    3    4
ENDBRANCH    2    3
ENDBRANCH   43    2
ENDBRANCH   47   46
BRANCH   51   52
ATOM     52  C40 UNL A   1      19.898  29.456  -0.565  1.00  0.00    +0.000 C 
ATOM     53  C41 UNL A   1      19.953  30.538   0.339  1.00  0.00    +0.000 C 
ATOM     54  F1  UNL A   1      21.109  30.882   0.926  1.00  0.00    +0.000 F 
ATOM     55  C42 UNL A   1      18.804  31.222   0.747  1.00  0.00    +0.000 C 
ATOM     56  F2  UNL A   1      18.888  32.141   1.719  1.00  0.00    +0.000 F 
ATOM     57  C43 UNL A   1      17.571  30.901   0.213  1.00  0.00    +0.000 C 
ATOM     58  F3  UNL A   1      16.459  31.499   0.658  1.00  0.00    +0.000 F 
ATOM     59  C44 UNL A   1      17.489  29.918  -0.750  1.00  0.00    +0.000 C 
ATOM     60  F4  UNL A   1      16.301  29.587  -1.274  1.00  0.00    +0.000 F 
ATOM     61  C45 UNL A   1      18.625  29.200  -1.121  1.00  0.00    +0.000 C 
ATOM     62  F5  UNL A   1      18.398  28.183  -1.959  1.00  0.00    +0.000 F 
ENDBRANCH   51   52
BRANCH   68   69
ATOM     69  C51 UNL A   1      21.309  23.312   1.944  1.00  0.00    +0.000 C 
ATOM     70  C52 UNL A   1      21.160  22.765   3.230  1.00  0.00    +0.000 C 
ATOM     71  F6  UNL A   1      20.315  23.312   4.115  1.00  0.00    +0.000 F 
ATOM     72  C53 UNL A   1      21.836  21.604   3.603  1.00  0.00    +0.000 C 
ATOM     73  F7  UNL A   1      21.685  21.106   4.839  1.00  0.00    +0.000 F 
ATOM     74  C54 UNL A   1      22.633  20.940   2.684  1.00  0.00    +0.000 C 
ATOM     75  F8  UNL A   1      23.248  19.800   3.027  1.00  0.00    +0.000 F 
ATOM     76  C55 UNL A   1      22.767  21.442   1.399  1.00  0.00    +0.000 C 
ATOM     77  F9  UNL A   1      23.495  20.776   0.492  1.00  0.00    +0.000 F 
ATOM     78  C56 UNL A   1      22.123  22.622   1.037  1.00  0.00    +0.000 C 
ATOM     79  F10 UNL A   1      22.253  23.066  -0.222  1.00  0.00    +0.000 F 
ENDBRANCH   68   69
BRANCH   83   84
ATOM     84  C60 UNL A   1      17.065  21.646  -2.403  1.00  0.00    +0.000 C 
ATOM     85  C61 UNL A   1      16.459  20.547  -1.774  1.00  0.00    +0.000 C 
ATOM     86  F11 UNL A   1      17.085  19.917  -0.769  1.00  0.00    +0.000 F 
ATOM     87  C62 UNL A   1      15.172  20.121  -2.121  1.00  0.00    +0.000 C 
ATOM     88  F12 UNL A   1      14.602  19.103  -1.460  1.00  0.00    +0.000 F 
ATOM     89  C63 UNL A   1      14.458  20.780  -3.108  1.00  0.00    +0.000 C 
ATOM     90  F13 UNL A   1      13.202  20.411  -3.400  1.00  0.00    +0.000 F 
ATOM     91  C64 UNL A   1      15.034  21.853  -3.762  1.00  0.00    +0.000 C 
ATOM     92  F14 UNL A   1      14.339  22.525  -4.690  1.00  0.00    +0.000 F 
ATOM     93  C65 UNL A   1      16.315  22.281  -3.413  1.00  0.00    +0.000 C 
ATOM     94  F15 UNL A   1      16.771  23.390  -4.013  1.00  0.00    +0.000 F 
ENDBRANCH   83   84
TORSDOF 20
ENDMDL
MODEL 7
REMARK VINA RESULT:     -12.5     26.167     32.064
ROOT
ATOM    138  H33 UNL A   1      43.355  31.728  33.456  1.00  0.00    +0.000 H 
ATOM    139  H34 UNL A   1      44.745  32.098  31.212  1.00  0.00    +0.000 H 
ATOM    140  H35 UNL A   1      45.127  28.277  32.412  1.00  0.00    +0.000 H 
ATOM    141  H36 UNL A   1      41.055  27.454  25.266  1.00  0.00    +0.000 H 
ATOM    142  H37 UNL A   1      39.515  29.060  26.507  1.00  0.00    +0.000 H 
ATOM    143  H38 UNL A   1      42.545  27.984  29.141  1.00  0.00    +0.000 H 
ATOM    144  H39 UNL A   1      43.867  25.047  29.415  1.00  0.00    +0.000 H 
ATOM    145  H40 UNL A   1      44.585  26.846  31.117  1.00  0.00    +0.000 H 
ATOM    146  H41 UNL A   1      39.751  27.933  33.728  1.00  0.00    +0.000 H 
ATOM    147  H42 UNL A   1      38.603  27.747  31.433  1.00  0.00    +0.000 H 
ATOM     47  C36 UNL A   1      40.019  29.128  29.361  1.00  0.00    +0.000 C 
ATOM     48  C37 UNL A   1      40.434  28.919  30.777  1.00  0.00    +0.000 C 
ATOM     49  N8  UNL A   1      41.475  29.390  31.385  1.00  0.00    +0.000 N 
ATOM     50  C38 UNL A   1      41.440  28.856  32.673  1.00  0.00    +0.000 C 
ATOM     51  C39 UNL A   1      42.571  28.743  33.425  1.00  0.00    +0.000 C 
ATOM     63  C46 UNL A   1      43.602  29.632  32.955  1.00  0.00    +0.000 C 
ATOM     64  C47 UNL A   1      43.729  31.001  32.826  1.00  0.00    +0.000 C 
ATOM     65  C48 UNL A   1      44.488  31.192  31.633  1.00  0.00    +0.000 C 
ATOM     66  C49 UNL A   1      44.820  29.931  31.140  1.00  0.00    +0.000 C 
ATOM     67  N9  UNL A   1      44.626  29.101  32.212  1.00  0.00    +0.000 N 
ATOM     68  C50 UNL A   1      45.190  29.454  29.832  1.00  0.00    +0.000 C 
ATOM     80  C57 UNL A   1      45.040  28.166  29.408  1.00  0.00    +0.000 C 
ATOM     81  N10 UNL A   1      44.972  27.865  28.056  1.00  0.00    +0.000 N 
ATOM     82  C58 UNL A   1      44.272  26.765  27.998  1.00  0.00    +0.000 C 
ATOM     83  C59 UNL A   1      43.264  26.494  26.942  1.00  0.00    +0.000 C 
ATOM     95  C66 UNL A   1      42.238  27.361  27.134  1.00  0.00    +0.000 C 
ATOM     96  C67 UNL A   1      41.162  27.751  26.249  1.00  0.00    +0.000 C 
ATOM     97  C68 UNL A   1      40.321  28.566  26.920  1.00  0.00    +0.000 C 
ATOM     98  C69 UNL A   1      40.731  28.641  28.323  1.00  0.00    +0.000 C 
ATOM     99  N11 UNL A   1      41.949  27.997  28.357  1.00  0.00    +0.000 N 
ATOM    100  C70 UNL A   1      44.170  26.018  29.241  1.00  0.00    +0.000 C 
ATOM    101  C71 UNL A   1      44.585  26.959  30.093  1.00  0.00    +0.000 C 
ATOM    102  C72 UNL A   1      40.140  28.262  32.831  1.00  0.00    +0.000 C 
ATOM    103  C73 UNL A   1      39.507  28.193  31.660  1.00  0.00    +0.000 C 
ENDROOT
BRANCH   47   46
ATOM    104  C74 UNL A   1      38.609  31.143  29.067  1.00  0.00    +0.000 C 
ATOM    105  C75 UNL A   1      37.356  31.712  28.891  1.00  0.00    +0.000 C 
ATOM    136  H31 UNL A   1      35.508  28.926  28.737  1.00  0.00    +0.000 H 
ATOM     43  C32 UNL A   1      36.194  30.917  28.835  1.00  0.00    +0.000 C 
ATOM     44  C33 UNL A   1      36.337  29.528  28.859  1.00  0.00    +0.000 C 
ATOM     45  C34 UNL A   1      37.589  28.952  29.049  1.00  0.00    +0.000 C 
ATOM    137  H32 UNL A   1      37.685  27.924  29.082  1.00  0.00    +0.000 H 
ATOM     46  C35 UNL A   1      38.715  29.762  29.196  1.00  0.00    +0.000 C 
ATOM    148  H43 UNL A   1      39.452  31.737  29.102  1.00  0.00    +0.000 H 
ATOM    149  H44 UNL A   1      37.273  32.736  28.799  1.00  0.00    +0.000 H 
BRANCH   43    2
ATOM      1  O1  UNL A   1      34.003  31.277  28.085  1.00  0.00    +0.000 O 
ATOM      2  C1  UNL A   1      34.910  31.668  28.825  1.00  0.00    +0.000 C 
BRANCH    2    3
ATOM    106  H1  UNL A   1      34.528  33.594  28.938  1.00  0.00    +0.000 H 
ATOM      3  N1  UNL A   1      34.662  32.814  29.524  1.00  0.00    +0.000 N 
BRANCH    3    4
ATOM    108  H3  UNL A   1      35.091  34.061  31.070  1.00  0.00    +0.000 H 
ATOM    107  H2  UNL A   1      33.512  33.244  31.168  1.00  0.00    +0.000 H 
ATOM      4  C2  UNL A   1      34.550  33.149  30.926  1.00  0.00    +0.000 C 
BRANCH    4    5
ATOM    109  H4  UNL A   1      35.421  31.250  31.289  1.00  0.00    +0.000 H 
ATOM      5  C3  UNL A   1      35.169  32.114  31.866  1.00  0.00    +0.000 C 
ATOM    110  H5  UNL A   1      34.437  31.921  32.623  1.00  0.00    +0.000 H 
BRANCH    5    6
ATOM      6  C4  UNL A   1      36.432  32.581  32.600  1.00  0.00    +0.000 C 
ATOM    111  H6  UNL A   1      36.125  33.108  33.478  1.00  0.00    +0.000 H 
ATOM    112  H7  UNL A   1      36.971  33.182  31.897  1.00  0.00    +0.000 H 
BRANCH    6    7
ATOM    113  H8  UNL A   1      37.047  30.550  32.621  1.00  0.00    +0.000 H 
ATOM    114  H9  UNL A   1      37.414  31.495  34.099  1.00  0.00    +0.000 H 
ATOM      7  C5  UNL A   1      37.400  31.474  33.030  1.00  0.00    +0.000 C 
BRANCH    7    8
ATOM    115  H10 UNL A   1      38.980  31.171  31.644  1.00  0.00    +0.000 H 
ATOM    116  H11 UNL A   1      39.461  31.245  33.363  1.00  0.00    +0.000 H 
ATOM      8  C6  UNL A   1      38.854  31.661  32.587  1.00  0.00    +0.000 C 
BRANCH    8    9
ATOM      9  C7  UNL A   1      39.293  33.114  32.430  1.00  0.00    +0.000 C 
ATOM    117  H12 UNL A   1      39.870  33.392  33.288  1.00  0.00    +0.000 H 
ATOM    118  H13 UNL A   1      38.412  33.713  32.338  1.00  0.00    +0.000 H 
BRANCH    9   10
ATOM     10  N2  UNL A   1      40.099  33.325  31.238  1.00  0.00    +0.000 N 
ATOM    119  H14 UNL A   1      40.836  32.687  31.104  1.00  0.00    +0.000 H 
BRANCH   10   11
ATOM     11  C8  UNL A   1      39.969  34.293  30.275  1.00  0.00    +0.000 C 
ATOM     12  O2  UNL A   1      38.857  34.689  29.931  1.00  0.00    +0.000 O 
BRANCH   11   13
ATOM    134  H29 UNL A   1      42.194  36.673  27.030  1.00  0.00    +0.000 H 
ATOM    135  H30 UNL A   1      40.166  35.808  28.056  1.00  0.00    +0.000 H 
ATOM     41  C30 UNL A   1      42.248  36.114  27.896  1.00  0.00    +0.000 C 
ATOM     42  C31 UNL A   1      41.086  35.623  28.485  1.00  0.00    +0.000 C 
ATOM     13  C9  UNL A   1      41.178  34.876  29.663  1.00  0.00    +0.000 C 
ATOM     14  C10 UNL A   1      42.415  34.663  30.282  1.00  0.00    +0.000 C 
ATOM     15  C11 UNL A   1      43.587  35.117  29.673  1.00  0.00    +0.000 C 
ATOM     16  C12 UNL A   1      43.497  35.844  28.486  1.00  0.00    +0.000 C 
ATOM    120  H15 UNL A   1      42.462  34.172  31.188  1.00  0.00    +0.000 H 
ATOM    121  H16 UNL A   1      44.508  34.916  30.095  1.00  0.00    +0.000 H 
BRANCH   16   17
ATOM     39  N6  UNL A   1      46.203  36.944  26.510  1.00  0.00    +0.000 N 
ATOM     40  N7  UNL A   1      45.142  36.157  26.703  1.00  0.00    +0.000 N 
ATOM     17  N3  UNL A   1      44.657  36.416  27.934  1.00  0.00    +0.000 N 
ATOM     18  C13 UNL A   1      45.458  37.324  28.560  1.00  0.00    +0.000 C 
ATOM     19  C14 UNL A   1      46.460  37.630  27.677  1.00  0.00    +0.000 C 
ATOM    122  H17 UNL A   1      45.334  37.707  29.510  1.00  0.00    +0.000 H 
BRANCH   19   20
ATOM    124  H19 UNL A   1      48.084  38.341  28.569  1.00  0.00    +0.000 H 
ATOM    123  H18 UNL A   1      47.885  38.790  26.773  1.00  0.00    +0.000 H 
ATOM     20  C15 UNL A   1      47.482  38.699  27.760  1.00  0.00    +0.000 C 
BRANCH   20   21
ATOM     21  S1  UNL A   1      47.147  40.375  28.304  1.00  0.00    +0.000 S 
BRANCH   21   22
ATOM    127  H22 UNL A   1      39.738  41.015  30.011  1.00  0.00    +0.000 H 
ATOM    126  H21 UNL A   1      41.163  41.689  31.861  1.00  0.00    +0.000 H 
ATOM    128  H23 UNL A   1      40.738  40.471  27.858  1.00  0.00    +0.000 H 
ATOM    125  H20 UNL A   1      43.579  41.595  31.638  1.00  0.00    +0.000 H 
ATOM     22  C16 UNL A   1      45.458  40.805  28.293  1.00  0.00    +0.000 C 
ATOM     23  N4  UNL A   1      44.938  40.792  29.488  1.00  0.00    +0.000 N 
ATOM     24  C17 UNL A   1      43.558  41.002  29.615  1.00  0.00    +0.000 C 
ATOM     25  C18 UNL A   1      42.979  41.359  30.832  1.00  0.00    +0.000 C 
ATOM     26  C19 UNL A   1      41.585  41.397  30.966  1.00  0.00    +0.000 C 
ATOM     27  C20 UNL A   1      40.763  41.041  29.893  1.00  0.00    +0.000 C 
ATOM     28  C21 UNL A   1      41.333  40.725  28.663  1.00  0.00    +0.000 C 
ATOM     29  C22 UNL A   1      42.724  40.755  28.535  1.00  0.00    +0.000 C 
ATOM     30  C23 UNL A   1      43.393  40.639  27.234  1.00  0.00    +0.000 C 
ATOM     31  O3  UNL A   1      42.784  40.117  26.303  1.00  0.00    +0.000 O 
ATOM     32  N5  UNL A   1      44.699  41.142  27.186  1.00  0.00    +0.000 N 
BRANCH   32   33
ATOM     33  C24 UNL A   1      45.107  41.872  26.003  1.00  0.00    +0.000 C 
ATOM     34  C25 UNL A   1      44.572  43.156  25.760  1.00  0.00    +0.000 C 
ATOM    129  H24 UNL A   1      44.069  43.639  26.521  1.00  0.00    +0.000 H 
ATOM     35  C26 UNL A   1      44.700  43.795  24.524  1.00  0.00    +0.000 C 
ATOM    133  H28 UNL A   1      46.593  40.579  25.253  1.00  0.00    +0.000 H 
ATOM     38  C29 UNL A   1      45.991  41.388  25.034  1.00  0.00    +0.000 C 
ATOM     37  C28 UNL A   1      46.072  41.988  23.767  1.00  0.00    +0.000 C 
ATOM    130  H25 UNL A   1      44.280  44.725  24.375  1.00  0.00    +0.000 H 
ATOM     36  C27 UNL A   1      45.395  43.171  23.501  1.00  0.00    +0.000 C 
ATOM    132  H27 UNL A   1      46.639  41.545  23.028  1.00  0.00    +0.000 H 
ATOM    131  H26 UNL A   1      45.409  43.581  22.554  1.00  0.00    +0.000 H 
ENDBRANCH   32   33
ENDBRANCH   21   22
ENDBRANCH   20   21
ENDBRANCH   19   20
ENDBRANCH   16   17
ENDBRANCH   11   13
ENDBRANCH   10   11
ENDBRANCH    9   10
ENDBRANCH    8    9
ENDBRANCH    7    8
ENDBRANCH    6    7
ENDBRANCH    5    6
ENDBRANCH    4    5
ENDBRANCH    3    4
ENDBRANCH    2    3
ENDBRANCH   43    2
ENDBRANCH   47   46
BRANCH   51   52
ATOM     52  C40 UNL A   1      42.884  27.561  34.319  1.00  0.00    +0.000 C 
ATOM     53  C41 UNL A   1      42.989  27.771  35.710  1.00  0.00    +0.000 C 
ATOM     54  F1  UNL A   1      42.522  28.897  36.271  1.00  0.00    +0.000 F 
ATOM     55  C42 UNL A   1      43.675  26.882  36.544  1.00  0.00    +0.000 C 
ATOM     56  F2  UNL A   1      43.877  27.200  37.830  1.00  0.00    +0.000 F 
ATOM     57  C43 UNL A   1      44.214  25.718  36.033  1.00  0.00    +0.000 C 
ATOM     58  F3  UNL A   1      44.938  24.903  36.812  1.00  0.00    +0.000 F 
ATOM     59  C44 UNL A   1      44.043  25.425  34.698  1.00  0.00    +0.000 C 
ATOM     60  F4  UNL A   1      44.566  24.304  34.182  1.00  0.00    +0.000 F 
ATOM     61  C45 UNL A   1      43.405  26.333  33.854  1.00  0.00    +0.000 C 
ATOM     62  F5  UNL A   1      43.421  26.005  32.558  1.00  0.00    +0.000 F 
ENDBRANCH   51   52
BRANCH   68   69
ATOM     69  C51 UNL A   1      45.527  30.493  28.801  1.00  0.00    +0.000 C 
ATOM     70  C52 UNL A   1      44.565  31.288  28.155  1.00  0.00    +0.000 C 
ATOM     71  F6  UNL A   1      43.259  31.130  28.412  1.00  0.00    +0.000 F 
ATOM     72  C53 UNL A   1      44.940  32.304  27.277  1.00  0.00    +0.000 C 
ATOM     73  F7  UNL A   1      44.004  33.043  26.664  1.00  0.00    +0.000 F 
ATOM     74  C54 UNL A   1      46.283  32.578  27.067  1.00  0.00    +0.000 C 
ATOM     75  F8  UNL A   1      46.645  33.583  26.258  1.00  0.00    +0.000 F 
ATOM     76  C55 UNL A   1      47.249  31.830  27.721  1.00  0.00    +0.000 C 
ATOM     77  F9  UNL A   1      48.546  32.126  27.562  1.00  0.00    +0.000 F 
ATOM     78  C56 UNL A   1      46.875  30.791  28.568  1.00  0.00    +0.000 C 
ATOM     79  F10 UNL A   1      47.835  30.103  29.206  1.00  0.00    +0.000 F 
ENDBRANCH   68   69
BRANCH   83   84
ATOM     84  C60 UNL A   1      43.269  25.248  26.140  1.00  0.00    +0.000 C 
ATOM     85  C61 UNL A   1      44.312  24.960  25.245  1.00  0.00    +0.000 C 
ATOM     86  F11 UNL A   1      45.217  25.901  24.940  1.00  0.00    +0.000 F 
ATOM     87  C62 UNL A   1      44.480  23.681  24.703  1.00  0.00    +0.000 C 
ATOM     88  F12 UNL A   1      45.521  23.427  23.897  1.00  0.00    +0.000 F 
ATOM     89  C63 UNL A   1      43.610  22.657  25.039  1.00  0.00    +0.000 C 
ATOM     90  F13 UNL A   1      43.806  21.417  24.568  1.00  0.00    +0.000 F 
ATOM     91  C64 UNL A   1      42.560  22.913  25.901  1.00  0.00    +0.000 C 
ATOM     92  F14 UNL A   1      41.735  21.922  26.265  1.00  0.00    +0.000 F 
ATOM     93  C65 UNL A   1      42.394  24.186  26.445  1.00  0.00    +0.000 C 
ATOM     94  F15 UNL A   1      41.420  24.339  27.353  1.00  0.00    +0.000 F 
ENDBRANCH   83   84
TORSDOF 20
ENDMDL
MODEL 8
REMARK VINA RESULT:     -12.5     23.936     31.647
ROOT
ATOM    138  H33 UNL A   1      39.060  34.767  28.090  1.00  0.00    +0.000 H 
ATOM    139  H34 UNL A   1      41.506  35.317  28.995  1.00  0.00    +0.000 H 
ATOM    140  H35 UNL A   1      39.040  34.667  32.107  1.00  0.00    +0.000 H 
ATOM    141  H36 UNL A   1      44.341  28.358  32.744  1.00  0.00    +0.000 H 
ATOM    142  H37 UNL A   1      43.524  28.051  30.351  1.00  0.00    +0.000 H 
ATOM    143  H38 UNL A   1      41.353  31.190  31.995  1.00  0.00    +0.000 H 
ATOM    144  H39 UNL A   1      40.251  31.351  35.029  1.00  0.00    +0.000 H 
ATOM    145  H40 UNL A   1      39.549  33.224  33.400  1.00  0.00    +0.000 H 
ATOM    146  H41 UNL A   1      36.632  30.364  29.569  1.00  0.00    +0.000 H 
ATOM    147  H42 UNL A   1      38.398  28.504  29.782  1.00  0.00    +0.000 H 
ATOM     47  C36 UNL A   1      41.080  29.507  29.797  1.00  0.00    +0.000 C 
ATOM     48  C37 UNL A   1      39.808  30.283  29.804  1.00  0.00    +0.000 C 
ATOM     49  N8  UNL A   1      39.651  31.566  29.732  1.00  0.00    +0.000 N 
ATOM     50  C38 UNL A   1      38.279  31.790  29.839  1.00  0.00    +0.000 C 
ATOM     51  C39 UNL A   1      37.787  32.987  30.267  1.00  0.00    +0.000 C 
ATOM     63  C46 UNL A   1      38.759  34.038  30.112  1.00  0.00    +0.000 C 
ATOM     64  C47 UNL A   1      39.425  34.603  29.042  1.00  0.00    +0.000 C 
ATOM     65  C48 UNL A   1      40.727  34.911  29.537  1.00  0.00    +0.000 C 
ATOM     66  C49 UNL A   1      40.757  34.563  30.887  1.00  0.00    +0.000 C 
ATOM     67  N9  UNL A   1      39.434  34.467  31.227  1.00  0.00    +0.000 N 
ATOM     68  C50 UNL A   1      41.828  34.251  31.797  1.00  0.00    +0.000 C 
ATOM     80  C57 UNL A   1      41.688  33.502  32.929  1.00  0.00    +0.000 C 
ATOM     81  N10 UNL A   1      42.777  32.861  33.499  1.00  0.00    +0.000 N 
ATOM     82  C58 UNL A   1      42.267  31.834  34.121  1.00  0.00    +0.000 C 
ATOM     83  C59 UNL A   1      42.911  30.497  34.155  1.00  0.00    +0.000 C 
ATOM     95  C66 UNL A   1      42.862  29.997  32.894  1.00  0.00    +0.000 C 
ATOM     96  C67 UNL A   1      43.591  28.902  32.291  1.00  0.00    +0.000 C 
ATOM     97  C68 UNL A   1      43.127  28.710  31.038  1.00  0.00    +0.000 C 
ATOM     98  C69 UNL A   1      41.974  29.580  30.805  1.00  0.00    +0.000 C 
ATOM     99  N11 UNL A   1      41.944  30.408  31.908  1.00  0.00    +0.000 N 
ATOM    100  C70 UNL A   1      40.840  31.907  34.390  1.00  0.00    +0.000 C 
ATOM    101  C71 UNL A   1      40.517  32.907  33.567  1.00  0.00    +0.000 C 
ATOM    102  C72 UNL A   1      37.646  30.507  29.700  1.00  0.00    +0.000 C 
ATOM    103  C73 UNL A   1      38.547  29.526  29.765  1.00  0.00    +0.000 C 
ENDROOT
BRANCH   47   46
ATOM    104  C74 UNL A   1      41.080  27.190  28.921  1.00  0.00    +0.000 C 
ATOM    105  C75 UNL A   1      41.186  26.316  27.848  1.00  0.00    +0.000 C 
ATOM    136  H31 UNL A   1      41.512  28.535  25.364  1.00  0.00    +0.000 H 
ATOM     43  C32 UNL A   1      41.412  26.788  26.541  1.00  0.00    +0.000 C 
ATOM     44  C33 UNL A   1      41.430  28.167  26.325  1.00  0.00    +0.000 C 
ATOM     45  C34 UNL A   1      41.338  29.050  27.398  1.00  0.00    +0.000 C 
ATOM    137  H32 UNL A   1      41.367  30.068  27.232  1.00  0.00    +0.000 H 
ATOM     46  C35 UNL A   1      41.207  28.557  28.696  1.00  0.00    +0.000 C 
ATOM    148  H43 UNL A   1      40.910  26.831  29.873  1.00  0.00    +0.000 H 
ATOM    149  H44 UNL A   1      41.096  25.301  28.011  1.00  0.00    +0.000 H 
BRANCH   43    2
ATOM      1  O1  UNL A   1      40.845  24.846  25.357  1.00  0.00    +0.000 O 
ATOM      2  C1  UNL A   1      41.683  25.736  25.523  1.00  0.00    +0.000 C 
BRANCH    2    3
ATOM    106  H1  UNL A   1      42.696  25.864  23.843  1.00  0.00    +0.000 H 
ATOM      3  N1  UNL A   1      42.829  25.627  24.789  1.00  0.00    +0.000 N 
BRANCH    3    4
ATOM    108  H3  UNL A   1      44.179  24.746  26.026  1.00  0.00    +0.000 H 
ATOM    107  H2  UNL A   1      44.539  24.611  24.287  1.00  0.00    +0.000 H 
ATOM      4  C2  UNL A   1      44.193  25.243  25.078  1.00  0.00    +0.000 C 
BRANCH    4    5
ATOM    109  H4  UNL A   1      45.080  27.015  24.324  1.00  0.00    +0.000 H 
ATOM      5  C3  UNL A   1      45.158  26.421  25.210  1.00  0.00    +0.000 C 
ATOM    110  H5  UNL A   1      46.131  25.997  25.352  1.00  0.00    +0.000 H 
BRANCH    5    6
ATOM      6  C4  UNL A   1      44.906  27.332  26.418  1.00  0.00    +0.000 C 
ATOM    111  H6  UNL A   1      43.862  27.294  26.645  1.00  0.00    +0.000 H 
ATOM    112  H7  UNL A   1      45.254  28.302  26.127  1.00  0.00    +0.000 H 
BRANCH    6    7
ATOM    113  H8  UNL A   1      46.211  27.850  28.009  1.00  0.00    +0.000 H 
ATOM    114  H9  UNL A   1      46.314  26.157  27.432  1.00  0.00    +0.000 H 
ATOM      7  C5  UNL A   1      45.679  26.978  27.692  1.00  0.00    +0.000 C 
BRANCH    7    8
ATOM    115  H10 UNL A   1      43.871  26.195  28.484  1.00  0.00    +0.000 H 
ATOM    116  H11 UNL A   1      44.767  27.311  29.555  1.00  0.00    +0.000 H 
ATOM      8  C6  UNL A   1      44.825  26.493  28.867  1.00  0.00    +0.000 C 
BRANCH    8    9
ATOM      9  C7  UNL A   1      45.413  25.319  29.644  1.00  0.00    +0.000 C 
ATOM    117  H12 UNL A   1      45.286  25.502  30.691  1.00  0.00    +0.000 H 
ATOM    118  H13 UNL A   1      46.448  25.240  29.382  1.00  0.00    +0.000 H 
BRANCH    9   10
ATOM     10  N2  UNL A   1      44.774  24.056  29.311  1.00  0.00    +0.000 N 
ATOM    119  H14 UNL A   1      44.270  23.629  30.040  1.00  0.00    +0.000 H 
BRANCH   10   11
ATOM     11  C8  UNL A   1      44.779  23.380  28.117  1.00  0.00    +0.000 C 
ATOM     12  O2  UNL A   1      45.825  23.221  27.491  1.00  0.00    +0.000 O 
BRANCH   11   13
ATOM    134  H29 UNL A   1      40.261  22.544  28.310  1.00  0.00    +0.000 H 
ATOM    135  H30 UNL A   1      42.301  23.557  29.162  1.00  0.00    +0.000 H 
ATOM     41  C30 UNL A   1      41.153  22.416  27.808  1.00  0.00    +0.000 C 
ATOM     42  C31 UNL A   1      42.320  23.000  28.293  1.00  0.00    +0.000 C 
ATOM     13  C9  UNL A   1      43.517  22.823  27.593  1.00  0.00    +0.000 C 
ATOM     14  C10 UNL A   1      43.544  22.114  26.387  1.00  0.00    +0.000 C 
ATOM     15  C11 UNL A   1      42.386  21.491  25.918  1.00  0.00    +0.000 C 
ATOM     16  C12 UNL A   1      41.196  21.649  26.628  1.00  0.00    +0.000 C 
ATOM    120  H15 UNL A   1      44.419  22.051  25.843  1.00  0.00    +0.000 H 
ATOM    121  H16 UNL A   1      42.410  20.920  25.058  1.00  0.00    +0.000 H 
BRANCH   16   17
ATOM     39  N6  UNL A   1      38.525  19.736  25.347  1.00  0.00    +0.000 N 
ATOM     40  N7  UNL A   1      39.800  19.856  25.722  1.00  0.00    +0.000 N 
ATOM     17  N3  UNL A   1      39.999  21.135  26.098  1.00  0.00    +0.000 N 
ATOM     18  C13 UNL A   1      38.859  21.855  25.894  1.00  0.00    +0.000 C 
ATOM     19  C14 UNL A   1      37.937  20.980  25.381  1.00  0.00    +0.000 C 
ATOM    122  H17 UNL A   1      38.718  22.858  26.088  1.00  0.00    +0.000 H 
BRANCH   19   20
ATOM    124  H19 UNL A   1      36.479  21.552  24.161  1.00  0.00    +0.000 H 
ATOM    123  H18 UNL A   1      36.027  20.241  25.405  1.00  0.00    +0.000 H 
ATOM     20  C15 UNL A   1      36.484  21.178  25.164  1.00  0.00    +0.000 C 
BRANCH   20   21
ATOM     21  S1  UNL A   1      35.500  22.427  25.996  1.00  0.00    +0.000 S 
BRANCH   21   22
ATOM    127  H22 UNL A   1      29.574  26.193  23.009  1.00  0.00    +0.000 H 
ATOM    126  H21 UNL A   1      31.701  27.059  22.214  1.00  0.00    +0.000 H 
ATOM    128  H23 UNL A   1      29.533  24.189  24.393  1.00  0.00    +0.000 H 
ATOM    125  H20 UNL A   1      33.784  26.078  22.985  1.00  0.00    +0.000 H 
ATOM     22  C16 UNL A   1      34.021  22.835  25.170  1.00  0.00    +0.000 C 
ATOM     23  N4  UNL A   1      34.037  24.051  24.700  1.00  0.00    +0.000 N 
ATOM     24  C17 UNL A   1      32.866  24.553  24.115  1.00  0.00    +0.000 C 
ATOM     25  C18 UNL A   1      32.884  25.672  23.284  1.00  0.00    +0.000 C 
ATOM     26  C19 UNL A   1      31.681  26.249  22.852  1.00  0.00    +0.000 C 
ATOM     27  C20 UNL A   1      30.457  25.731  23.282  1.00  0.00    +0.000 C 
ATOM     28  C21 UNL A   1      30.430  24.590  24.078  1.00  0.00    +0.000 C 
ATOM     29  C22 UNL A   1      31.641  23.994  24.444  1.00  0.00    +0.000 C 
ATOM     30  C23 UNL A   1      31.700  22.684  25.101  1.00  0.00    +0.000 C 
ATOM     31  O3  UNL A   1      30.704  22.277  25.697  1.00  0.00    +0.000 O 
ATOM     32  N5  UNL A   1      32.924  22.012  24.986  1.00  0.00    +0.000 N 
BRANCH   32   33
ATOM     33  C24 UNL A   1      32.899  20.581  24.762  1.00  0.00    +0.000 C 
ATOM     34  C25 UNL A   1      32.672  20.085  23.460  1.00  0.00    +0.000 C 
ATOM    129  H24 UNL A   1      32.736  20.734  22.661  1.00  0.00    +0.000 H 
ATOM     35  C26 UNL A   1      32.363  18.744  23.217  1.00  0.00    +0.000 C 
ATOM    133  H28 UNL A   1      33.454  19.888  26.675  1.00  0.00    +0.000 H 
ATOM     38  C29 UNL A   1      33.057  19.616  25.762  1.00  0.00    +0.000 C 
ATOM     37  C28 UNL A   1      32.683  18.280  25.541  1.00  0.00    +0.000 C 
ATOM    130  H25 UNL A   1      32.184  18.420  22.254  1.00  0.00    +0.000 H 
ATOM     36  C27 UNL A   1      32.299  17.854  24.276  1.00  0.00    +0.000 C 
ATOM    132  H27 UNL A   1      32.694  17.610  26.326  1.00  0.00    +0.000 H 
ATOM    131  H26 UNL A   1      31.971  16.887  24.126  1.00  0.00    +0.000 H 
ENDBRANCH   32   33
ENDBRANCH   21   22
ENDBRANCH   20   21
ENDBRANCH   19   20
ENDBRANCH   16   17
ENDBRANCH   11   13
ENDBRANCH   10   11
ENDBRANCH    9   10
ENDBRANCH    8    9
ENDBRANCH    7    8
ENDBRANCH    6    7
ENDBRANCH    5    6
ENDBRANCH    4    5
ENDBRANCH    3    4
ENDBRANCH    2    3
ENDBRANCH   43    2
ENDBRANCH   47   46
BRANCH   51   52
ATOM     52  C40 UNL A   1      36.592  33.136  31.186  1.00  0.00    +0.000 C 
ATOM     53  C41 UNL A   1      35.478  33.877  30.737  1.00  0.00    +0.000 C 
ATOM     54  F1  UNL A   1      35.333  34.175  29.438  1.00  0.00    +0.000 F 
ATOM     55  C42 UNL A   1      34.546  34.425  31.624  1.00  0.00    +0.000 C 
ATOM     56  F2  UNL A   1      33.593  35.245  31.163  1.00  0.00    +0.000 F 
ATOM     57  C43 UNL A   1      34.650  34.191  32.982  1.00  0.00    +0.000 C 
ATOM     58  F3  UNL A   1      33.806  34.776  33.841  1.00  0.00    +0.000 F 
ATOM     59  C44 UNL A   1      35.665  33.386  33.451  1.00  0.00    +0.000 C 
ATOM     60  F4  UNL A   1      35.788  33.154  34.765  1.00  0.00    +0.000 F 
ATOM     61  C45 UNL A   1      36.625  32.880  32.575  1.00  0.00    +0.000 C 
ATOM     62  F5  UNL A   1      37.636  32.231  33.162  1.00  0.00    +0.000 F 
ENDBRANCH   51   52
BRANCH   68   69
ATOM     69  C51 UNL A   1      43.223  34.562  31.336  1.00  0.00    +0.000 C 
ATOM     70  C52 UNL A   1      43.937  33.765  30.425  1.00  0.00    +0.000 C 
ATOM     71  F6  UNL A   1      43.403  32.638  29.934  1.00  0.00    +0.000 F 
ATOM     72  C53 UNL A   1      45.192  34.152  29.956  1.00  0.00    +0.000 C 
ATOM     73  F7  UNL A   1      45.859  33.369  29.095  1.00  0.00    +0.000 F 
ATOM     74  C54 UNL A   1      45.735  35.365  30.349  1.00  0.00    +0.000 C 
ATOM     75  F8  UNL A   1      46.921  35.758  29.865  1.00  0.00    +0.000 F 
ATOM     76  C55 UNL A   1      45.033  36.184  31.219  1.00  0.00    +0.000 C 
ATOM     77  F9  UNL A   1      45.530  37.381  31.560  1.00  0.00    +0.000 F 
ATOM     78  C56 UNL A   1      43.797  35.782  31.717  1.00  0.00    +0.000 C 
ATOM     79  F10 UNL A   1      43.132  36.610  32.537  1.00  0.00    +0.000 F 
ENDBRANCH   68   69
BRANCH   83   84
ATOM     84  C60 UNL A   1      43.158  29.765  35.418  1.00  0.00    +0.000 C 
ATOM     85  C61 UNL A   1      42.402  28.634  35.767  1.00  0.00    +0.000 C 
ATOM     86  F11 UNL A   1      41.301  28.319  35.069  1.00  0.00    +0.000 F 
ATOM     87  C62 UNL A   1      42.802  27.772  36.794  1.00  0.00    +0.000 C 
ATOM     88  F12 UNL A   1      42.086  26.671  37.062  1.00  0.00    +0.000 F 
ATOM     89  C63 UNL A   1      43.967  28.018  37.502  1.00  0.00    +0.000 C 
ATOM     90  F13 UNL A   1      44.384  27.162  38.445  1.00  0.00    +0.000 F 
ATOM     91  C64 UNL A   1      44.724  29.135  37.198  1.00  0.00    +0.000 C 
ATOM     92  F14 UNL A   1      45.874  29.363  37.847  1.00  0.00    +0.000 F 
ATOM     93  C65 UNL A   1      44.328  29.991  36.171  1.00  0.00    +0.000 C 
ATOM     94  F15 UNL A   1      45.160  30.995  35.859  1.00  0.00    +0.000 F 
ENDBRANCH   83   84
TORSDOF 20
ENDMDL
MODEL 9
REMARK VINA RESULT:     -12.5     12.737     21.107
ROOT
ATOM    138  H33 UNL A   1      28.312  16.191   6.329  1.00  0.00    +0.000 H 
ATOM    139  H34 UNL A   1      26.551  14.200   6.515  1.00  0.00    +0.000 H 
ATOM    140  H35 UNL A   1      25.588  17.090   9.142  1.00  0.00    +0.000 H 
ATOM    141  H36 UNL A   1      19.153  17.241   3.957  1.00  0.00    +0.000 H 
ATOM    142  H37 UNL A   1      21.083  17.557   2.326  1.00  0.00    +0.000 H 
ATOM    143  H38 UNL A   1      22.703  17.534   6.153  1.00  0.00    +0.000 H 
ATOM    144  H39 UNL A   1      21.383  18.877   8.780  1.00  0.00    +0.000 H 
ATOM    145  H40 UNL A   1      23.753  17.885   9.006  1.00  0.00    +0.000 H 
ATOM    146  H41 UNL A   1      26.667  21.090   5.456  1.00  0.00    +0.000 H 
ATOM    147  H42 UNL A   1      24.637  20.988   3.879  1.00  0.00    +0.000 H 
ATOM     47  C36 UNL A   1      23.546  18.351   3.632  1.00  0.00    +0.000 C 
ATOM     48  C37 UNL A   1      24.638  18.814   4.533  1.00  0.00    +0.000 C 
ATOM     49  N8  UNL A   1      25.376  18.106   5.327  1.00  0.00    +0.000 N 
ATOM     50  C38 UNL A   1      26.202  19.013   5.992  1.00  0.00    +0.000 C 
ATOM     51  C39 UNL A   1      26.758  18.713   7.199  1.00  0.00    +0.000 C 
ATOM     63  C46 UNL A   1      26.792  17.290   7.420  1.00  0.00    +0.000 C 
ATOM     64  C47 UNL A   1      27.387  16.216   6.788  1.00  0.00    +0.000 C 
ATOM     65  C48 UNL A   1      26.448  15.149   6.905  1.00  0.00    +0.000 C 
ATOM     66  C49 UNL A   1      25.365  15.623   7.644  1.00  0.00    +0.000 C 
ATOM     67  N9  UNL A   1      25.856  16.743   8.261  1.00  0.00    +0.000 N 
ATOM     68  C50 UNL A   1      23.991  15.204   7.750  1.00  0.00    +0.000 C 
ATOM     80  C57 UNL A   1      22.964  16.014   8.141  1.00  0.00    +0.000 C 
ATOM     81  N10 UNL A   1      21.654  15.720   7.795  1.00  0.00    +0.000 N 
ATOM     82  C58 UNL A   1      21.052  16.878   7.771  1.00  0.00    +0.000 C 
ATOM     83  C59 UNL A   1      20.033  17.248   6.756  1.00  0.00    +0.000 C 
ATOM     95  C66 UNL A   1      20.672  17.343   5.562  1.00  0.00    +0.000 C 
ATOM     96  C67 UNL A   1      20.143  17.367   4.216  1.00  0.00    +0.000 C 
ATOM     97  C68 UNL A   1      21.160  17.578   3.354  1.00  0.00    +0.000 C 
ATOM     98  C69 UNL A   1      22.389  17.843   4.104  1.00  0.00    +0.000 C 
ATOM     99  N11 UNL A   1      22.054  17.569   5.413  1.00  0.00    +0.000 N 
ATOM    100  C70 UNL A   1      21.730  17.954   8.475  1.00  0.00    +0.000 C 
ATOM    101  C71 UNL A   1      22.936  17.396   8.612  1.00  0.00    +0.000 C 
ATOM    102  C72 UNL A   1      26.061  20.269   5.306  1.00  0.00    +0.000 C 
ATOM    103  C73 UNL A   1      25.040  20.228   4.450  1.00  0.00    +0.000 C 
ENDROOT
BRANCH   47   46
ATOM    104  C74 UNL A   1      23.316  19.820   1.650  1.00  0.00    +0.000 C 
ATOM    105  C75 UNL A   1      23.560  20.064   0.306  1.00  0.00    +0.000 C 
ATOM    136  H31 UNL A   1      25.376  17.349  -0.421  1.00  0.00    +0.000 H 
ATOM     43  C32 UNL A   1      24.258  19.135  -0.490  1.00  0.00    +0.000 C 
ATOM     44  C33 UNL A   1      24.792  18.001   0.125  1.00  0.00    +0.000 C 
ATOM     45  C34 UNL A   1      24.539  17.743   1.470  1.00  0.00    +0.000 C 
ATOM    137  H32 UNL A   1      24.924  16.894   1.914  1.00  0.00    +0.000 H 
ATOM     46  C35 UNL A   1      23.766  18.632   2.216  1.00  0.00    +0.000 C 
ATOM    148  H43 UNL A   1      22.806  20.511   2.222  1.00  0.00    +0.000 H 
ATOM    149  H44 UNL A   1      23.225  20.942  -0.118  1.00  0.00    +0.000 H 
BRANCH   43    2
ATOM      1  O1  UNL A   1      25.367  19.365  -2.542  1.00  0.00    +0.000 O 
ATOM      2  C1  UNL A   1      24.289  19.441  -1.946  1.00  0.00    +0.000 C 
BRANCH    2    3
ATOM    106  H1  UNL A   1      22.365  19.725  -2.227  1.00  0.00    +0.000 H 
ATOM      3  N1  UNL A   1      23.225  19.874  -2.683  1.00  0.00    +0.000 N 
BRANCH    3    4
ATOM    108  H3  UNL A   1      23.949  21.079  -4.150  1.00  0.00    +0.000 H 
ATOM    107  H2  UNL A   1      22.932  19.728  -4.707  1.00  0.00    +0.000 H 
ATOM      4  C2  UNL A   1      23.067  20.498  -3.977  1.00  0.00    +0.000 C 
BRANCH    4    5
ATOM    109  H4  UNL A   1      21.106  20.978  -4.627  1.00  0.00    +0.000 H 
ATOM      5  C3  UNL A   1      21.880  21.458  -4.066  1.00  0.00    +0.000 C 
ATOM    110  H5  UNL A   1      22.249  22.349  -4.529  1.00  0.00    +0.000 H 
BRANCH    5    6
ATOM      6  C4  UNL A   1      21.292  21.886  -2.716  1.00  0.00    +0.000 C 
ATOM    111  H6  UNL A   1      21.574  21.154  -1.989  1.00  0.00    +0.000 H 
ATOM    112  H7  UNL A   1      20.235  21.961  -2.870  1.00  0.00    +0.000 H 
BRANCH    6    7
ATOM    113  H8  UNL A   1      22.561  23.584  -2.799  1.00  0.00    +0.000 H 
ATOM    114  H9  UNL A   1      21.980  23.119  -1.168  1.00  0.00    +0.000 H 
ATOM      7  C5  UNL A   1      21.736  23.258  -2.201  1.00  0.00    +0.000 C 
BRANCH    7    8
ATOM    115  H10 UNL A   1      19.708  23.885  -2.150  1.00  0.00    +0.000 H 
ATOM    116  H11 UNL A   1      20.800  24.875  -3.161  1.00  0.00    +0.000 H 
ATOM      8  C6  UNL A   1      20.667  24.353  -2.236  1.00  0.00    +0.000 C 
BRANCH    8    9
ATOM      9  C7  UNL A   1      20.786  25.400  -1.132  1.00  0.00    +0.000 C 
ATOM    117  H12 UNL A   1      21.823  25.608  -0.968  1.00  0.00    +0.000 H 
ATOM    118  H13 UNL A   1      20.321  25.001  -0.255  1.00  0.00    +0.000 H 
BRANCH    9   10
ATOM     10  N2  UNL A   1      20.108  26.642  -1.468  1.00  0.00    +0.000 N 
ATOM    119  H14 UNL A   1      19.199  26.546  -1.832  1.00  0.00    +0.000 H 
BRANCH   10   11
ATOM     11  C8  UNL A   1      20.565  27.929  -1.344  1.00  0.00    +0.000 C 
ATOM     12  O2  UNL A   1      21.674  28.244  -1.771  1.00  0.00    +0.000 O 
BRANCH   11   13
ATOM    134  H29 UNL A   1      16.722  30.433  -1.012  1.00  0.00    +0.000 H 
ATOM    135  H30 UNL A   1      18.070  28.683  -2.029  1.00  0.00    +0.000 H 
ATOM     41  C30 UNL A   1      17.665  30.226  -0.647  1.00  0.00    +0.000 C 
ATOM     42  C31 UNL A   1      18.434  29.221  -1.226  1.00  0.00    +0.000 C 
ATOM     13  C9  UNL A   1      19.705  28.947  -0.711  1.00  0.00    +0.000 C 
ATOM     14  C10 UNL A   1      20.187  29.633   0.409  1.00  0.00    +0.000 C 
ATOM     15  C11 UNL A   1      19.438  30.671   0.968  1.00  0.00    +0.000 C 
ATOM     16  C12 UNL A   1      18.179  30.958   0.440  1.00  0.00    +0.000 C 
ATOM    120  H15 UNL A   1      21.096  29.373   0.823  1.00  0.00    +0.000 H 
ATOM    121  H16 UNL A   1      19.811  31.218   1.760  1.00  0.00    +0.000 H 
BRANCH   16   17
ATOM     39  N6  UNL A   1      16.748  33.663   2.192  1.00  0.00    +0.000 N 
ATOM     40  N7  UNL A   1      17.806  32.935   1.832  1.00  0.00    +0.000 N 
ATOM     17  N3  UNL A   1      17.363  31.911   1.075  1.00  0.00    +0.000 N 
ATOM     18  C13 UNL A   1      16.001  31.946   1.011  1.00  0.00    +0.000 C 
ATOM     19  C14 UNL A   1      15.607  33.030   1.750  1.00  0.00    +0.000 C 
ATOM    122  H17 UNL A   1      15.389  31.287   0.505  1.00  0.00    +0.000 H 
BRANCH   19   20
ATOM    124  H19 UNL A   1      13.884  33.157   2.727  1.00  0.00    +0.000 H 
ATOM    123  H18 UNL A   1      14.433  34.705   1.848  1.00  0.00    +0.000 H 
ATOM     20  C15 UNL A   1      14.265  33.648   1.856  1.00  0.00    +0.000 C 
BRANCH   20   21
ATOM     21  S1  UNL A   1      12.927  33.361   0.695  1.00  0.00    +0.000 S 
BRANCH   21   22
ATOM    127  H22 UNL A   1      11.202  26.078   2.179  1.00  0.00    +0.000 H 
ATOM    126  H21 UNL A   1       9.857  27.620   3.489  1.00  0.00    +0.000 H 
ATOM    128  H23 UNL A   1      12.695  26.944   0.461  1.00  0.00    +0.000 H 
ATOM    125  H20 UNL A   1      10.169  30.017   3.253  1.00  0.00    +0.000 H 
ATOM     22  C16 UNL A   1      12.457  31.689   0.549  1.00  0.00    +0.000 C 
ATOM     23  N4  UNL A   1      11.911  31.233   1.641  1.00  0.00    +0.000 N 
ATOM     24  C17 UNL A   1      11.593  29.869   1.706  1.00  0.00    +0.000 C 
ATOM     25  C18 UNL A   1      10.704  29.368   2.656  1.00  0.00    +0.000 C 
ATOM     26  C19 UNL A   1      10.536  27.984   2.805  1.00  0.00    +0.000 C 
ATOM     27  C20 UNL A   1      11.285  27.096   2.028  1.00  0.00    +0.000 C 
ATOM     28  C21 UNL A   1      12.143  27.588   1.049  1.00  0.00    +0.000 C 
ATOM     29  C22 UNL A   1      12.248  28.972   0.876  1.00  0.00    +0.000 C 
ATOM     30  C23 UNL A   1      12.963  29.567  -0.259  1.00  0.00    +0.000 C 
ATOM     31  O3  UNL A   1      13.809  28.891  -0.841  1.00  0.00    +0.000 O 
ATOM     32  N5  UNL A   1      12.603  30.884  -0.567  1.00  0.00    +0.000 N 
BRANCH   32   33
ATOM     33  C24 UNL A   1      12.495  31.253  -1.964  1.00  0.00    +0.000 C 
ATOM     34  C25 UNL A   1      11.301  30.976  -2.665  1.00  0.00    +0.000 C 
ATOM    129  H24 UNL A   1      10.459  30.711  -2.132  1.00  0.00    +0.000 H 
ATOM     35  C26 UNL A   1      11.222  31.048  -4.058  1.00  0.00    +0.000 C 
ATOM    133  H28 UNL A   1      14.310  32.295  -2.223  1.00  0.00    +0.000 H 
ATOM     38  C29 UNL A   1      13.514  31.854  -2.710  1.00  0.00    +0.000 C 
ATOM     37  C28 UNL A   1      13.468  31.867  -4.114  1.00  0.00    +0.000 C 
ATOM    130  H25 UNL A   1      10.339  30.819  -4.540  1.00  0.00    +0.000 H 
ATOM     36  C27 UNL A   1      12.337  31.428  -4.789  1.00  0.00    +0.000 C 
ATOM    132  H27 UNL A   1      14.284  32.206  -4.648  1.00  0.00    +0.000 H 
ATOM    131  H26 UNL A   1      12.325  31.384  -5.819  1.00  0.00    +0.000 H 
ENDBRANCH   32   33
ENDBRANCH   21   22
ENDBRANCH   20   21
ENDBRANCH   19   20
ENDBRANCH   16   17
ENDBRANCH   11   13
ENDBRANCH   10   11
ENDBRANCH    9   10
ENDBRANCH    8    9
ENDBRANCH    7    8
ENDBRANCH    6    7
ENDBRANCH    5    6
ENDBRANCH    4    5
ENDBRANCH    3    4
ENDBRANCH    2    3
ENDBRANCH   43    2
ENDBRANCH   47   46
BRANCH   51   52
ATOM     52  C40 UNL A   1      26.902  19.700   8.339  1.00  0.00    +0.000 C 
ATOM     53  C41 UNL A   1      28.050  19.629   9.158  1.00  0.00    +0.000 C 
ATOM     54  F1  UNL A   1      29.128  18.934   8.767  1.00  0.00    +0.000 F 
ATOM     55  C42 UNL A   1      28.077  20.176  10.444  1.00  0.00    +0.000 C 
ATOM     56  F2  UNL A   1      29.133  19.953  11.238  1.00  0.00    +0.000 F 
ATOM     57  C43 UNL A   1      26.990  20.876  10.930  1.00  0.00    +0.000 C 
ATOM     58  F3  UNL A   1      26.982  21.335  12.188  1.00  0.00    +0.000 F 
ATOM     59  C44 UNL A   1      25.889  21.056  10.122  1.00  0.00    +0.000 C 
ATOM     60  F4  UNL A   1      24.821  21.726  10.579  1.00  0.00    +0.000 F 
ATOM     61  C45 UNL A   1      25.838  20.469   8.859  1.00  0.00    +0.000 C 
ATOM     62  F5  UNL A   1      24.668  20.597   8.225  1.00  0.00    +0.000 F 
ENDBRANCH   51   52
BRANCH   68   69
ATOM     69  C51 UNL A   1      23.639  13.871   7.157  1.00  0.00    +0.000 C 
ATOM     70  C52 UNL A   1      23.289  12.745   7.924  1.00  0.00    +0.000 C 
ATOM     71  F6  UNL A   1      23.284  12.803   9.263  1.00  0.00    +0.000 F 
ATOM     72  C53 UNL A   1      22.879  11.559   7.318  1.00  0.00    +0.000 C 
ATOM     73  F7  UNL A   1      22.559  10.496   8.071  1.00  0.00    +0.000 F 
ATOM     74  C54 UNL A   1      22.760  11.489   5.939  1.00  0.00    +0.000 C 
ATOM     75  F8  UNL A   1      22.322  10.364   5.359  1.00  0.00    +0.000 F 
ATOM     76  C55 UNL A   1      23.066  12.597   5.165  1.00  0.00    +0.000 C 
ATOM     77  F9  UNL A   1      22.902  12.550   3.836  1.00  0.00    +0.000 F 
ATOM     78  C56 UNL A   1      23.512  13.770   5.766  1.00  0.00    +0.000 C 
ATOM     79  F10 UNL A   1      23.774  14.833   4.989  1.00  0.00    +0.000 F 
ENDBRANCH   68   69
BRANCH   83   84
ATOM     84  C60 UNL A   1      18.702  17.784   7.124  1.00  0.00    +0.000 C 
ATOM     85  C61 UNL A   1      17.873  17.115   8.040  1.00  0.00    +0.000 C 
ATOM     86  F11 UNL A   1      18.178  15.871   8.439  1.00  0.00    +0.000 F 
ATOM     87  C62 UNL A   1      16.759  17.738   8.611  1.00  0.00    +0.000 C 
ATOM     88  F12 UNL A   1      16.023  17.089   9.525  1.00  0.00    +0.000 F 
ATOM     89  C63 UNL A   1      16.440  19.045   8.282  1.00  0.00    +0.000 C 
ATOM     90  F13 UNL A   1      15.409  19.664   8.873  1.00  0.00    +0.000 F 
ATOM     91  C64 UNL A   1      17.224  19.725   7.367  1.00  0.00    +0.000 C 
ATOM     92  F14 UNL A   1      16.951  21.003   7.070  1.00  0.00    +0.000 F 
ATOM     93  C65 UNL A   1      18.338  19.106   6.801  1.00  0.00    +0.000 C 
ATOM     94  F15 UNL A   1      19.112  19.855   6.003  1.00  0.00    +0.000 F 
ENDBRANCH   83   84
TORSDOF 20
ENDMDL
MODEL 10
REMARK VINA RESULT:     -12.4     25.245     31.165
ROOT
ATOM    138  H33 UNL A   1      46.434  28.940  30.067  1.00  0.00    +0.000 H 
ATOM    139  H34 UNL A   1      45.205  28.918  32.431  1.00  0.00    +0.000 H 
ATOM    140  H35 UNL A   1      44.192  32.255  30.426  1.00  0.00    +0.000 H 
ATOM    141  H36 UNL A   1      36.975  28.254  30.893  1.00  0.00    +0.000 H 
ATOM    142  H37 UNL A   1      38.434  26.474  29.803  1.00  0.00    +0.000 H 
ATOM    143  H38 UNL A   1      40.746  29.910  30.152  1.00  0.00    +0.000 H 
ATOM    144  H39 UNL A   1      39.719  32.941  29.704  1.00  0.00    +0.000 H 
ATOM    145  H40 UNL A   1      42.242  32.579  30.100  1.00  0.00    +0.000 H 
ATOM    146  H41 UNL A   1      43.654  29.478  25.656  1.00  0.00    +0.000 H 
ATOM    147  H42 UNL A   1      41.420  28.237  25.957  1.00  0.00    +0.000 H 
ATOM     47  C36 UNL A   1      40.882  27.550  28.685  1.00  0.00    +0.000 C 
ATOM     48  C37 UNL A   1      42.009  28.363  28.146  1.00  0.00    +0.000 C 
ATOM     49  N8  UNL A   1      43.022  28.854  28.786  1.00  0.00    +0.000 N 
ATOM     50  C38 UNL A   1      43.752  29.581  27.847  1.00  0.00    +0.000 C 
ATOM     51  C39 UNL A   1      44.587  30.590  28.223  1.00  0.00    +0.000 C 
ATOM     63  C46 UNL A   1      44.963  30.468  29.609  1.00  0.00    +0.000 C 
ATOM     64  C47 UNL A   1      45.634  29.524  30.360  1.00  0.00    +0.000 C 
ATOM     65  C48 UNL A   1      44.983  29.529  31.629  1.00  0.00    +0.000 C 
ATOM     66  C49 UNL A   1      43.992  30.509  31.589  1.00  0.00    +0.000 C 
ATOM     67  N9  UNL A   1      44.348  31.288  30.521  1.00  0.00    +0.000 N 
ATOM     68  C50 UNL A   1      42.786  30.717  32.349  1.00  0.00    +0.000 C 
ATOM     80  C57 UNL A   1      41.710  31.431  31.909  1.00  0.00    +0.000 C 
ATOM     81  N10 UNL A   1      40.449  31.223  32.447  1.00  0.00    +0.000 N 
ATOM     82  C58 UNL A   1      39.624  31.557  31.493  1.00  0.00    +0.000 C 
ATOM     83  C59 UNL A   1      38.370  30.818  31.201  1.00  0.00    +0.000 C 
ATOM     95  C66 UNL A   1      38.726  29.597  30.725  1.00  0.00    +0.000 C 
ATOM     96  C67 UNL A   1      37.948  28.386  30.577  1.00  0.00    +0.000 C 
ATOM     97  C68 UNL A   1      38.707  27.456  29.959  1.00  0.00    +0.000 C 
ATOM     98  C69 UNL A   1      39.975  28.058  29.546  1.00  0.00    +0.000 C 
ATOM     99  N11 UNL A   1      39.972  29.302  30.139  1.00  0.00    +0.000 N 
ATOM    100  C70 UNL A   1      40.185  32.383  30.437  1.00  0.00    +0.000 C 
ATOM    101  C71 UNL A   1      41.484  32.208  30.693  1.00  0.00    +0.000 C 
ATOM    102  C72 UNL A   1      43.217  29.233  26.558  1.00  0.00    +0.000 C 
ATOM    103  C73 UNL A   1      42.079  28.551  26.688  1.00  0.00    +0.000 C 
ENDROOT
BRANCH   47   46
ATOM    104  C74 UNL A   1      40.176  26.055  26.841  1.00  0.00    +0.000 C 
ATOM    105  C75 UNL A   1      40.088  24.781  26.300  1.00  0.00    +0.000 C 
ATOM    136  H31 UNL A   1      41.689  23.064  28.685  1.00  0.00    +0.000 H 
ATOM     43  C32 UNL A   1      40.579  23.657  26.994  1.00  0.00    +0.000 C 
ATOM     44  C33 UNL A   1      41.250  23.862  28.201  1.00  0.00    +0.000 C 
ATOM     45  C34 UNL A   1      41.329  25.136  28.756  1.00  0.00    +0.000 C 
ATOM    137  H32 UNL A   1      41.814  25.278  29.657  1.00  0.00    +0.000 H 
ATOM     46  C35 UNL A   1      40.754  26.222  28.095  1.00  0.00    +0.000 C 
ATOM    148  H43 UNL A   1      39.816  26.870  26.319  1.00  0.00    +0.000 H 
ATOM    149  H44 UNL A   1      39.657  24.653  25.371  1.00  0.00    +0.000 H 
BRANCH   43    2
ATOM      1  O1  UNL A   1      39.091  21.941  26.417  1.00  0.00    +0.000 O 
ATOM      2  C1  UNL A   1      40.258  22.340  26.380  1.00  0.00    +0.000 C 
BRANCH    2    3
ATOM    106  H1  UNL A   1      40.857  21.102  24.975  1.00  0.00    +0.000 H 
ATOM      3  N1  UNL A   1      41.167  21.485  25.828  1.00  0.00    +0.000 N 
BRANCH    3    4
ATOM    108  H3  UNL A   1      42.408  20.676  27.218  1.00  0.00    +0.000 H 
ATOM    107  H2  UNL A   1      42.760  20.228  25.531  1.00  0.00    +0.000 H 
ATOM      4  C2  UNL A   1      42.480  21.011  26.204  1.00  0.00    +0.000 C 
BRANCH    4    5
ATOM    109  H4  UNL A   1      44.517  21.597  26.148  1.00  0.00    +0.000 H 
ATOM      5  C3  UNL A   1      43.566  22.086  26.169  1.00  0.00    +0.000 C 
ATOM    110  H5  UNL A   1      43.418  22.690  27.040  1.00  0.00    +0.000 H 
BRANCH    5    6
ATOM      6  C4  UNL A   1      43.495  23.038  24.969  1.00  0.00    +0.000 C 
ATOM    111  H6  UNL A   1      43.399  24.034  25.346  1.00  0.00    +0.000 H 
ATOM    112  H7  UNL A   1      42.658  22.710  24.387  1.00  0.00    +0.000 H 
BRANCH    6    7
ATOM    113  H8  UNL A   1      44.600  23.824  23.337  1.00  0.00    +0.000 H 
ATOM    114  H9  UNL A   1      44.675  22.047  23.550  1.00  0.00    +0.000 H 
ATOM      7  C5  UNL A   1      44.697  23.007  24.021  1.00  0.00    +0.000 C 
BRANCH    7    8
ATOM    115  H10 UNL A   1      46.524  22.145  24.676  1.00  0.00    +0.000 H 
ATOM    116  H11 UNL A   1      45.892  23.479  25.683  1.00  0.00    +0.000 H 
ATOM      8  C6  UNL A   1      46.069  23.113  24.692  1.00  0.00    +0.000 C 
BRANCH    8    9
ATOM      9  C7  UNL A   1      47.029  24.100  24.035  1.00  0.00    +0.000 C 
ATOM    117  H12 UNL A   1      46.629  24.385  23.084  1.00  0.00    +0.000 H 
ATOM    118  H13 UNL A   1      47.976  23.614  23.933  1.00  0.00    +0.000 H 
BRANCH    9   10
ATOM     10  N2  UNL A   1      47.229  25.298  24.835  1.00  0.00    +0.000 N 
ATOM    119  H14 UNL A   1      48.161  25.599  24.925  1.00  0.00    +0.000 H 
BRANCH   10   11
ATOM     11  C8  UNL A   1      46.293  26.066  25.479  1.00  0.00    +0.000 C 
ATOM     12  O2  UNL A   1      45.664  26.930  24.871  1.00  0.00    +0.000 O 
BRANCH   11   13
ATOM    134  H29 UNL A   1      47.578  25.379  29.841  1.00  0.00    +0.000 H 
ATOM    135  H30 UNL A   1      48.058  25.851  27.504  1.00  0.00    +0.000 H 
ATOM     41  C30 UNL A   1      46.809  25.454  29.158  1.00  0.00    +0.000 C 
ATOM     42  C31 UNL A   1      47.083  25.729  27.821  1.00  0.00    +0.000 C 
ATOM     13  C9  UNL A   1      46.026  25.836  26.912  1.00  0.00    +0.000 C 
ATOM     14  C10 UNL A   1      44.698  25.724  27.340  1.00  0.00    +0.000 C 
ATOM     15  C11 UNL A   1      44.419  25.406  28.671  1.00  0.00    +0.000 C 
ATOM     16  C12 UNL A   1      45.475  25.278  29.573  1.00  0.00    +0.000 C 
ATOM    120  H15 UNL A   1      43.926  25.876  26.673  1.00  0.00    +0.000 H 
ATOM    121  H16 UNL A   1      43.445  25.267  28.982  1.00  0.00    +0.000 H 
BRANCH   16   17
ATOM     39  N6  UNL A   1      45.164  25.392  33.084  1.00  0.00    +0.000 N 
ATOM     40  N7  UNL A   1      45.720  25.816  31.947  1.00  0.00    +0.000 N 
ATOM     17  N3  UNL A   1      45.200  25.087  30.939  1.00  0.00    +0.000 N 
ATOM     18  C13 UNL A   1      44.357  24.142  31.445  1.00  0.00    +0.000 C 
ATOM     19  C14 UNL A   1      44.364  24.307  32.805  1.00  0.00    +0.000 C 
ATOM    122  H17 UNL A   1      43.820  23.442  30.910  1.00  0.00    +0.000 H 
BRANCH   19   20
ATOM    124  H19 UNL A   1      42.602  24.284  33.719  1.00  0.00    +0.000 H 
ATOM    123  H18 UNL A   1      43.472  22.641  33.596  1.00  0.00    +0.000 H 
ATOM     20  C15 UNL A   1      43.484  23.687  33.824  1.00  0.00    +0.000 C 
BRANCH   20   21
ATOM     21  S1  UNL A   1      43.757  23.795  35.594  1.00  0.00    +0.000 S 
BRANCH   21   22
ATOM    127  H22 UNL A   1      50.097  19.675  36.617  1.00  0.00    +0.000 H 
ATOM    126  H21 UNL A   1      49.661  20.111  34.267  1.00  0.00    +0.000 H 
ATOM    128  H23 UNL A   1      48.704  20.728  38.315  1.00  0.00    +0.000 H 
ATOM    125  H20 UNL A   1      47.709  21.395  33.605  1.00  0.00    +0.000 H 
ATOM     22  C16 UNL A   1      45.326  23.238  36.109  1.00  0.00    +0.000 C 
ATOM     23  N4  UNL A   1      45.877  22.441  35.237  1.00  0.00    +0.000 N 
ATOM     24  C17 UNL A   1      47.090  21.824  35.574  1.00  0.00    +0.000 C 
ATOM     25  C18 UNL A   1      47.919  21.258  34.606  1.00  0.00    +0.000 C 
ATOM     26  C19 UNL A   1      49.036  20.503  34.987  1.00  0.00    +0.000 C 
ATOM     27  C20 UNL A   1      49.307  20.279  36.340  1.00  0.00    +0.000 C 
ATOM     28  C21 UNL A   1      48.509  20.875  37.312  1.00  0.00    +0.000 C 
ATOM     29  C22 UNL A   1      47.437  21.676  36.908  1.00  0.00    +0.000 C 
ATOM     30  C23 UNL A   1      46.678  22.502  37.854  1.00  0.00    +0.000 C 
ATOM     31  O3  UNL A   1      46.701  22.204  39.046  1.00  0.00    +0.000 O 
ATOM     32  N5  UNL A   1      45.976  23.572  37.284  1.00  0.00    +0.000 N 
BRANCH   32   33
ATOM     33  C24 UNL A   1      45.961  24.834  37.995  1.00  0.00    +0.000 C 
ATOM     34  C25 UNL A   1      44.917  25.105  38.907  1.00  0.00    +0.000 C 
ATOM    129  H24 UNL A   1      44.306  24.331  39.209  1.00  0.00    +0.000 H 
ATOM     35  C26 UNL A   1      44.685  26.386  39.414  1.00  0.00    +0.000 C 
ATOM    133  H28 UNL A   1      47.806  25.643  37.373  1.00  0.00    +0.000 H 
ATOM     38  C29 UNL A   1      46.905  25.853  37.830  1.00  0.00    +0.000 C 
ATOM     37  C28 UNL A   1      46.643  27.157  38.279  1.00  0.00    +0.000 C 
ATOM    130  H25 UNL A   1      43.901  26.552  40.063  1.00  0.00    +0.000 H 
ATOM     36  C27 UNL A   1      45.513  27.431  39.038  1.00  0.00    +0.000 C 
ATOM    132  H27 UNL A   1      47.297  27.919  38.042  1.00  0.00    +0.000 H 
ATOM    131  H26 UNL A   1      45.293  28.399  39.319  1.00  0.00    +0.000 H 
ENDBRANCH   32   33
ENDBRANCH   21   22
ENDBRANCH   20   21
ENDBRANCH   19   20
ENDBRANCH   16   17
ENDBRANCH   11   13
ENDBRANCH   10   11
ENDBRANCH    9   10
ENDBRANCH    8    9
ENDBRANCH    7    8
ENDBRANCH    6    7
ENDBRANCH    5    6
ENDBRANCH    4    5
ENDBRANCH    3    4
ENDBRANCH    2    3
ENDBRANCH   43    2
ENDBRANCH   47   46
BRANCH   51   52
ATOM     52  C40 UNL A   1      44.742  31.893  27.467  1.00  0.00    +0.000 C 
ATOM     53  C41 UNL A   1      45.949  32.138  26.777  1.00  0.00    +0.000 C 
ATOM     54  F1  UNL A   1      46.808  31.140  26.524  1.00  0.00    +0.000 F 
ATOM     55  C42 UNL A   1      46.354  33.430  26.429  1.00  0.00    +0.000 C 
ATOM     56  F2  UNL A   1      47.574  33.627  25.911  1.00  0.00    +0.000 F 
ATOM     57  C43 UNL A   1      45.538  34.514  26.689  1.00  0.00    +0.000 C 
ATOM     58  F3  UNL A   1      45.954  35.760  26.428  1.00  0.00    +0.000 F 
ATOM     59  C44 UNL A   1      44.305  34.305  27.269  1.00  0.00    +0.000 C 
ATOM     60  F4  UNL A   1      43.502  35.345  27.537  1.00  0.00    +0.000 F 
ATOM     61  C45 UNL A   1      43.920  33.025  27.664  1.00  0.00    +0.000 C 
ATOM     62  F5  UNL A   1      42.768  32.967  28.338  1.00  0.00    +0.000 F 
ENDBRANCH   51   52
BRANCH   68   69
ATOM     69  C51 UNL A   1      42.613  29.889  33.589  1.00  0.00    +0.000 C 
ATOM     70  C52 UNL A   1      42.777  30.395  34.891  1.00  0.00    +0.000 C 
ATOM     71  F6  UNL A   1      43.137  31.670  35.091  1.00  0.00    +0.000 F 
ATOM     72  C53 UNL A   1      42.510  29.607  36.010  1.00  0.00    +0.000 C 
ATOM     73  F7  UNL A   1      42.683  30.108  37.242  1.00  0.00    +0.000 F 
ATOM     74  C54 UNL A   1      42.027  28.318  35.851  1.00  0.00    +0.000 C 
ATOM     75  F8  UNL A   1      41.727  27.576  36.926  1.00  0.00    +0.000 F 
ATOM     76  C55 UNL A   1      41.824  27.810  34.578  1.00  0.00    +0.000 C 
ATOM     77  F9  UNL A   1      41.307  26.584  34.420  1.00  0.00    +0.000 F 
ATOM     78  C56 UNL A   1      42.126  28.582  33.460  1.00  0.00    +0.000 C 
ATOM     79  F10 UNL A   1      41.893  28.070  32.241  1.00  0.00    +0.000 F 
ENDBRANCH   68   69
BRANCH   83   84
ATOM     84  C60 UNL A   1      37.056  31.492  31.093  1.00  0.00    +0.000 C 
ATOM     85  C61 UNL A   1      36.292  31.791  32.233  1.00  0.00    +0.000 C 
ATOM     86  F11 UNL A   1      36.637  31.284  33.426  1.00  0.00    +0.000 F 
ATOM     87  C62 UNL A   1      35.204  32.669  32.179  1.00  0.00    +0.000 C 
ATOM     88  F12 UNL A   1      34.534  32.975  33.298  1.00  0.00    +0.000 F 
ATOM     89  C63 UNL A   1      34.849  33.271  30.983  1.00  0.00    +0.000 C 
ATOM     90  F13 UNL A   1      33.845  34.158  30.940  1.00  0.00    +0.000 F 
ATOM     91  C64 UNL A   1      35.567  32.982  29.837  1.00  0.00    +0.000 C 
ATOM     92  F14 UNL A   1      35.259  33.588  28.682  1.00  0.00    +0.000 F 
ATOM     93  C65 UNL A   1      36.654  32.110  29.892  1.00  0.00    +0.000 C 
ATOM     94  F15 UNL A   1      37.369  31.955  28.768  1.00  0.00    +0.000 F 
ENDBRANCH   83   84
TORSDOF 20
ENDMDL
