MODEL 1
REMARK VINA RESULT:      -9.2      0.000      0.000
ROOT
ATOM     21  C17 UNL A   1      14.006  54.021   4.627  1.00  0.00    +0.000 C 
ATOM     22  C18 UNL A   1      14.985  54.463   3.574  1.00  0.00    +0.000 C 
ATOM     23  N3  UNL A   1      15.516  53.769   2.597  1.00  0.00    +0.000 N 
ATOM     24  C19 UNL A   1      16.340  54.649   1.908  1.00  0.00    +0.000 C 
ATOM     25  C20 UNL A   1      17.132  54.400   0.838  1.00  0.00    +0.000 C 
ATOM     37  C27 UNL A   1      17.262  53.114   0.203  1.00  0.00    +0.000 C 
ATOM     38  C28 UNL A   1      18.047  52.764  -0.883  1.00  0.00    +0.000 C 
ATOM     39  C29 UNL A   1      17.828  51.412  -1.164  1.00  0.00    +0.000 C 
ATOM     40  C30 UNL A   1      16.939  50.908  -0.228  1.00  0.00    +0.000 C 
ATOM     41  N4  UNL A   1      16.595  51.965   0.600  1.00  0.00    +0.000 N 
ATOM     42  C31 UNL A   1      16.439  49.564  -0.101  1.00  0.00    +0.000 C 
ATOM     54  C38 UNL A   1      15.587  49.139   0.861  1.00  0.00    +0.000 C 
ATOM     55  N5  UNL A   1      15.015  49.862   1.899  1.00  0.00    +0.000 N 
ATOM     56  C39 UNL A   1      14.247  49.020   2.544  1.00  0.00    +0.000 C 
ATOM     57  C40 UNL A   1      13.392  49.257   3.755  1.00  0.00    +0.000 C 
ATOM     69  C47 UNL A   1      13.309  50.499   4.269  1.00  0.00    +0.000 C 
ATOM     70  C48 UNL A   1      12.515  50.877   5.434  1.00  0.00    +0.000 C 
ATOM     71  C49 UNL A   1      12.645  52.196   5.641  1.00  0.00    +0.000 C 
ATOM     72  C50 UNL A   1      13.580  52.744   4.659  1.00  0.00    +0.000 C 
ATOM     73  N6  UNL A   1      13.898  51.671   3.865  1.00  0.00    +0.000 N 
ATOM     74  C51 UNL A   1      14.236  47.662   1.982  1.00  0.00    +0.000 C 
ATOM     75  C52 UNL A   1      15.092  47.782   0.976  1.00  0.00    +0.000 C 
ATOM     76  C53 UNL A   1      16.221  55.935   2.559  1.00  0.00    +0.000 C 
ATOM     77  C54 UNL A   1      15.429  55.865   3.619  1.00  0.00    +0.000 C 
ATOM    119  H22 UNL A   1      18.684  53.393  -1.397  1.00  0.00    +0.000 H 
ATOM    120  H23 UNL A   1      18.255  50.880  -1.938  1.00  0.00    +0.000 H 
ATOM    121  H24 UNL A   1      15.970  51.908   1.359  1.00  0.00    +0.000 H 
ATOM    122  H25 UNL A   1      11.945  50.234   6.005  1.00  0.00    +0.000 H 
ATOM    123  H26 UNL A   1      12.163  52.736   6.376  1.00  0.00    +0.000 H 
ATOM    124  H27 UNL A   1      14.491  51.736   3.081  1.00  0.00    +0.000 H 
ATOM    125  H28 UNL A   1      13.703  46.834   2.289  1.00  0.00    +0.000 H 
ATOM    126  H29 UNL A   1      15.370  47.007   0.353  1.00  0.00    +0.000 H 
ATOM    127  H30 UNL A   1      16.694  56.796   2.240  1.00  0.00    +0.000 H 
ATOM    128  H31 UNL A   1      15.186  56.601   4.300  1.00  0.00    +0.000 H 
ENDROOT
BRANCH   21   20
ATOM    129  H32 UNL A   1      15.378  55.045   6.741  1.00  0.00    +0.000 H 
ATOM    130  H33 UNL A   1      14.523  56.431   8.544  1.00  0.00    +0.000 H 
ATOM     78  C55 UNL A   1      14.395  55.356   6.729  1.00  0.00    +0.000 C 
ATOM     79  C56 UNL A   1      13.909  56.169   7.757  1.00  0.00    +0.000 C 
ATOM     17  C13 UNL A   1      12.588  56.627   7.717  1.00  0.00    +0.000 C 
ATOM     18  C14 UNL A   1      11.781  56.341   6.614  1.00  0.00    +0.000 C 
ATOM     19  C15 UNL A   1      12.239  55.470   5.632  1.00  0.00    +0.000 C 
ATOM     20  C16 UNL A   1      13.549  54.962   5.681  1.00  0.00    +0.000 C 
ATOM    117  H20 UNL A   1      10.848  56.774   6.528  1.00  0.00    +0.000 H 
ATOM    118  H21 UNL A   1      11.612  55.193   4.859  1.00  0.00    +0.000 H 
BRANCH   17   15
ATOM     15  C12 UNL A   1      12.056  57.396   8.862  1.00  0.00    +0.000 C 
ATOM     16  O2  UNL A   1      12.319  58.589   8.972  1.00  0.00    +0.000 O 
BRANCH   15   14
ATOM    116  H19 UNL A   1      10.356  57.052   9.871  1.00  0.00    +0.000 H 
ATOM     14  N2  UNL A   1      11.295  56.758   9.813  1.00  0.00    +0.000 N 
BRANCH   14   13
ATOM    114  H17 UNL A   1      12.632  55.958  11.166  1.00  0.00    +0.000 H 
ATOM    115  H18 UNL A   1      10.921  55.650  11.498  1.00  0.00    +0.000 H 
ATOM     13  C11 UNL A   1      11.680  55.710  10.746  1.00  0.00    +0.000 C 
BRANCH   13   12
ATOM    113  H16 UNL A   1      11.728  54.516   9.025  1.00  0.00    +0.000 H 
ATOM     12  C10 UNL A   1      11.780  54.343  10.080  1.00  0.00    +0.000 C 
ATOM    112  H15 UNL A   1      10.980  53.735  10.446  1.00  0.00    +0.000 H 
BRANCH   12   11
ATOM     11  C9  UNL A   1      13.095  53.604  10.331  1.00  0.00    +0.000 C 
ATOM    110  H13 UNL A   1      13.863  54.335  10.480  1.00  0.00    +0.000 H 
ATOM    111  H14 UNL A   1      12.926  52.981  11.184  1.00  0.00    +0.000 H 
BRANCH   11   10
ATOM     10  C8  UNL A   1      13.545  52.665   9.204  1.00  0.00    +0.000 C 
ATOM    108  H11 UNL A   1      13.248  51.671   9.465  1.00  0.00    +0.000 H 
ATOM    109  H12 UNL A   1      13.085  53.035   8.313  1.00  0.00    +0.000 H 
BRANCH   10    9
ATOM      9  C7  UNL A   1      15.055  52.648   8.923  1.00  0.00    +0.000 C 
ATOM    106  H9  UNL A   1      15.390  53.659   8.824  1.00  0.00    +0.000 H 
ATOM    107  H10 UNL A   1      15.515  52.138   9.744  1.00  0.00    +0.000 H 
BRANCH    9    8
ATOM    105  H8  UNL A   1      16.015  52.544   7.032  1.00  0.00    +0.000 H 
ATOM    104  H7  UNL A   1      14.560  51.558   7.158  1.00  0.00    +0.000 H 
ATOM      8  C6  UNL A   1      15.447  51.886   7.657  1.00  0.00    +0.000 C 
BRANCH    8    7
ATOM    103  H6  UNL A   1      15.975  49.883   7.562  1.00  0.00    +0.000 H 
ATOM      7  N1  UNL A   1      16.267  50.733   7.962  1.00  0.00    +0.000 N 
BRANCH    7    5
ATOM      5  C5  UNL A   1      17.390  50.668   8.733  1.00  0.00    +0.000 C 
ATOM      6  O1  UNL A   1      18.431  51.157   8.286  1.00  0.00    +0.000 O 
BRANCH    5    4
ATOM      4  C4  UNL A   1      17.366  49.953  10.081  1.00  0.00    +0.000 C 
ATOM    101  H4  UNL A   1      17.983  49.081  10.009  1.00  0.00    +0.000 H 
ATOM    102  H5  UNL A   1      17.718  50.656  10.806  1.00  0.00    +0.000 H 
BRANCH    4    3
ATOM      2  C2  UNL A   1      15.291  48.428  10.181  1.00  0.00    +0.000 C 
ATOM      3  C3  UNL A   1      16.006  49.524  10.533  1.00  0.00    +0.000 C 
ATOM    131  H34 UNL A   1      16.431  51.927  12.039  1.00  0.00    +0.000 H 
ATOM    133  H36 UNL A   1      12.297  49.521  13.019  1.00  0.00    +0.000 H 
ATOM    132  H35 UNL A   1      12.827  51.588  14.193  1.00  0.00    +0.000 H 
ATOM     80  C57 UNL A   1      15.228  50.262  11.544  1.00  0.00    +0.000 C 
ATOM     81  C58 UNL A   1      15.550  51.427  12.230  1.00  0.00    +0.000 C 
ATOM     82  C59 UNL A   1      14.651  51.903  13.180  1.00  0.00    +0.000 C 
ATOM     83  F16 UNL A   1      14.931  53.033  13.842  1.00  0.00    +0.000 F 
ATOM     84  C60 UNL A   1      13.471  51.222  13.473  1.00  0.00    +0.000 C 
ATOM     85  C61 UNL A   1      13.157  50.045  12.792  1.00  0.00    +0.000 C 
ATOM     86  C62 UNL A   1      14.020  49.589  11.803  1.00  0.00    +0.000 C 
ATOM     87  C63 UNL A   1      13.993  48.439  10.878  1.00  0.00    +0.000 C 
BRANCH    2    1
ATOM      1  C1  UNL A   1      15.690  47.327   9.255  1.00  0.00    +0.000 C 
ATOM     98  H1  UNL A   1      15.530  47.636   8.243  1.00  0.00    +0.000 H 
ATOM     99  H2  UNL A   1      15.100  46.457   9.459  1.00  0.00    +0.000 H 
ATOM    100  H3  UNL A   1      16.725  47.097   9.400  1.00  0.00    +0.000 H 
ENDBRANCH    2    1
BRANCH   87   88
ATOM    134  H37 UNL A   1      12.953  46.715  11.211  1.00  0.00    +0.000 H 
ATOM     88  C64 UNL A   1      12.992  47.569  10.633  1.00  0.00    +0.000 C 
BRANCH   88   89
ATOM     97  C71 UNL A   1      10.928  46.797   9.520  1.00  0.00    +0.000 C 
ATOM    135  H38 UNL A   1      12.711  49.541   8.810  1.00  0.00    +0.000 H 
ATOM    136  H39 UNL A   1      10.745  50.018   7.469  1.00  0.00    +0.000 H 
ATOM    141  H44 UNL A   1       9.054  46.360   8.657  1.00  0.00    +0.000 H 
ATOM    142  H45 UNL A   1      10.991  45.911  10.044  1.00  0.00    +0.000 H 
ATOM     89  C65 UNL A   1      11.955  47.739   9.612  1.00  0.00    +0.000 C 
ATOM     90  C66 UNL A   1      11.913  48.888   8.816  1.00  0.00    +0.000 C 
ATOM     91  C67 UNL A   1      10.787  49.151   8.026  1.00  0.00    +0.000 C 
ATOM     92  C68 UNL A   1       9.718  48.248   7.989  1.00  0.00    +0.000 C 
ATOM     96  C70 UNL A   1       9.814  47.055   8.716  1.00  0.00    +0.000 C 
BRANCH   92   93
ATOM     93  S1  UNL A   1       8.156  48.733   7.206  1.00  0.00    +0.000 S 
BRANCH   93   94
ATOM    137  H40 UNL A   1       8.238  49.292   4.882  1.00  0.00    +0.000 H 
ATOM    138  H41 UNL A   1       9.837  49.245   5.584  1.00  0.00    +0.000 H 
ATOM    139  H42 UNL A   1       8.794  50.616   5.877  1.00  0.00    +0.000 H 
ATOM     94  C69 UNL A   1       8.824  49.556   5.738  1.00  0.00    +0.000 C 
ENDBRANCH   93   94
BRANCH   93   95
ATOM    140  H43 UNL A   1       8.757  47.081   5.988  1.00  0.00    +0.000 H 
ATOM     95  O3  UNL A   1       7.937  47.334   6.440  1.00  0.00    +0.000 O 
ENDBRANCH   93   95
ENDBRANCH   92   93
ENDBRANCH   88   89
ENDBRANCH   87   88
ENDBRANCH    4    3
ENDBRANCH    5    4
ENDBRANCH    7    5
ENDBRANCH    8    7
ENDBRANCH    9    8
ENDBRANCH   10    9
ENDBRANCH   11   10
ENDBRANCH   12   11
ENDBRANCH   13   12
ENDBRANCH   14   13
ENDBRANCH   15   14
ENDBRANCH   17   15
ENDBRANCH   21   20
BRANCH   25   26
ATOM     33  C25 UNL A   1      18.238  57.241  -1.440  1.00  0.00    +0.000 C 
ATOM     34  F4  UNL A   1      17.796  57.869  -2.538  1.00  0.00    +0.000 F 
ATOM     35  C26 UNL A   1      17.470  56.234  -0.858  1.00  0.00    +0.000 C 
ATOM     36  F5  UNL A   1      16.289  55.922  -1.412  1.00  0.00    +0.000 F 
ATOM     26  C21 UNL A   1      17.925  55.542   0.274  1.00  0.00    +0.000 C 
ATOM     27  C22 UNL A   1      19.169  55.904   0.810  1.00  0.00    +0.000 C 
ATOM     28  F1  UNL A   1      19.643  55.280   1.899  1.00  0.00    +0.000 F 
ATOM     29  C23 UNL A   1      19.924  56.927   0.240  1.00  0.00    +0.000 C 
ATOM     30  F2  UNL A   1      21.097  57.275   0.786  1.00  0.00    +0.000 F 
ATOM     31  C24 UNL A   1      19.462  57.588  -0.889  1.00  0.00    +0.000 C 
ATOM     32  F3  UNL A   1      20.196  58.562  -1.444  1.00  0.00    +0.000 F 
ENDBRANCH   25   26
BRANCH   42   43
ATOM     43  C32 UNL A   1      16.906  48.552  -1.104  1.00  0.00    +0.000 C 
ATOM     44  C33 UNL A   1      18.056  47.782  -0.882  1.00  0.00    +0.000 C 
ATOM     45  F6  UNL A   1      18.806  47.990   0.210  1.00  0.00    +0.000 F 
ATOM     46  C34 UNL A   1      18.453  46.813  -1.799  1.00  0.00    +0.000 C 
ATOM     47  F7  UNL A   1      19.573  46.110  -1.583  1.00  0.00    +0.000 F 
ATOM     48  C35 UNL A   1      17.695  46.578  -2.936  1.00  0.00    +0.000 C 
ATOM     49  F8  UNL A   1      18.073  45.635  -3.812  1.00  0.00    +0.000 F 
ATOM     50  C36 UNL A   1      16.549  47.322  -3.170  1.00  0.00    +0.000 C 
ATOM     51  F9  UNL A   1      15.809  47.088  -4.263  1.00  0.00    +0.000 F 
ATOM     52  C37 UNL A   1      16.161  48.309  -2.268  1.00  0.00    +0.000 C 
ATOM     53  F10 UNL A   1      15.050  49.016  -2.521  1.00  0.00    +0.000 F 
ENDBRANCH   42   43
BRANCH   57   58
ATOM     65  C45 UNL A   1      12.477  46.419   6.106  1.00  0.00    +0.000 C 
ATOM     66  F14 UNL A   1      12.995  45.795   7.172  1.00  0.00    +0.000 F 
ATOM     67  C46 UNL A   1      13.146  47.501   5.542  1.00  0.00    +0.000 C 
ATOM     68  F15 UNL A   1      14.302  47.905   6.090  1.00  0.00    +0.000 F 
ATOM     58  C41 UNL A   1      12.647  48.148   4.401  1.00  0.00    +0.000 C 
ATOM     59  C42 UNL A   1      11.438  47.687   3.865  1.00  0.00    +0.000 C 
ATOM     60  F11 UNL A   1      10.911  48.287   2.787  1.00  0.00    +0.000 F 
ATOM     61  C43 UNL A   1      10.755  46.621   4.446  1.00  0.00    +0.000 C 
ATOM     62  F12 UNL A   1       9.588  46.214   3.929  1.00  0.00    +0.000 F 
ATOM     63  C44 UNL A   1      11.280  45.981   5.559  1.00  0.00    +0.000 C 
ATOM     64  F13 UNL A   1      10.631  44.945   6.107  1.00  0.00    +0.000 F 
ENDBRANCH   57   58
TORSDOF 22
ENDMDL
MODEL 2
REMARK VINA RESULT:      -8.9     33.143     38.016
ROOT
ATOM     21  C17 UNL A   1      46.502  50.933  18.083  1.00  0.00    +0.000 C 
ATOM     22  C18 UNL A   1      47.504  50.518  19.126  1.00  0.00    +0.000 C 
ATOM     23  N3  UNL A   1      48.569  51.156  19.547  1.00  0.00    +0.000 N 
ATOM     24  C19 UNL A   1      49.136  50.347  20.522  1.00  0.00    +0.000 C 
ATOM     25  C20 UNL A   1      50.271  50.554  21.233  1.00  0.00    +0.000 C 
ATOM     37  C27 UNL A   1      51.124  51.705  21.089  1.00  0.00    +0.000 C 
ATOM     38  C28 UNL A   1      52.299  51.997  21.762  1.00  0.00    +0.000 C 
ATOM     39  C29 UNL A   1      52.765  53.236  21.312  1.00  0.00    +0.000 C 
ATOM     40  C30 UNL A   1      51.903  53.697  20.330  1.00  0.00    +0.000 C 
ATOM     41  N4  UNL A   1      50.898  52.751  20.208  1.00  0.00    +0.000 N 
ATOM     42  C31 UNL A   1      51.989  54.912  19.562  1.00  0.00    +0.000 C 
ATOM     54  C38 UNL A   1      51.118  55.285  18.594  1.00  0.00    +0.000 C 
ATOM     55  N5  UNL A   1      49.987  54.622  18.140  1.00  0.00    +0.000 N 
ATOM     56  C39 UNL A   1      49.465  55.391  17.217  1.00  0.00    +0.000 C 
ATOM     57  C40 UNL A   1      48.235  55.169  16.385  1.00  0.00    +0.000 C 
ATOM     69  C47 UNL A   1      47.480  54.075  16.605  1.00  0.00    +0.000 C 
ATOM     70  C48 UNL A   1      46.260  53.734  15.882  1.00  0.00    +0.000 C 
ATOM     71  C49 UNL A   1      45.758  52.597  16.384  1.00  0.00    +0.000 C 
ATOM     72  C50 UNL A   1      46.656  52.097  17.425  1.00  0.00    +0.000 C 
ATOM     73  N6  UNL A   1      47.634  53.055  17.511  1.00  0.00    +0.000 N 
ATOM     74  C51 UNL A   1      50.204  56.640  16.985  1.00  0.00    +0.000 C 
ATOM     75  C52 UNL A   1      51.219  56.511  17.830  1.00  0.00    +0.000 C 
ATOM     76  C53 UNL A   1      48.287  49.183  20.652  1.00  0.00    +0.000 C 
ATOM     77  C54 UNL A   1      47.288  49.219  19.782  1.00  0.00    +0.000 C 
ATOM    119  H22 UNL A   1      52.752  51.402  22.473  1.00  0.00    +0.000 H 
ATOM    120  H23 UNL A   1      53.606  53.725  21.655  1.00  0.00    +0.000 H 
ATOM    121  H24 UNL A   1      50.136  52.813  19.587  1.00  0.00    +0.000 H 
ATOM    122  H25 UNL A   1      45.850  54.282  15.109  1.00  0.00    +0.000 H 
ATOM    123  H26 UNL A   1      44.880  52.147  16.083  1.00  0.00    +0.000 H 
ATOM    124  H27 UNL A   1      48.373  53.016  18.160  1.00  0.00    +0.000 H 
ATOM    125  H28 UNL A   1      49.990  57.413  16.337  1.00  0.00    +0.000 H 
ATOM    126  H29 UNL A   1      51.983  57.198  17.929  1.00  0.00    +0.000 H 
ATOM    127  H30 UNL A   1      48.441  48.423  21.333  1.00  0.00    +0.000 H 
ATOM    128  H31 UNL A   1      46.550  48.519  19.610  1.00  0.00    +0.000 H 
ENDROOT
BRANCH   21   20
ATOM    129  H32 UNL A   1      43.898  51.038  18.863  1.00  0.00    +0.000 H 
ATOM    130  H33 UNL A   1      42.132  49.438  18.388  1.00  0.00    +0.000 H 
ATOM     78  C55 UNL A   1      44.088  50.227  18.254  1.00  0.00    +0.000 C 
ATOM     79  C56 UNL A   1      43.067  49.317  17.966  1.00  0.00    +0.000 C 
ATOM     17  C13 UNL A   1      43.315  48.243  17.106  1.00  0.00    +0.000 C 
ATOM     18  C14 UNL A   1      44.554  48.123  16.473  1.00  0.00    +0.000 C 
ATOM     19  C15 UNL A   1      45.590  48.982  16.819  1.00  0.00    +0.000 C 
ATOM     20  C16 UNL A   1      45.372  50.040  17.719  1.00  0.00    +0.000 C 
ATOM    117  H20 UNL A   1      44.699  47.401  15.751  1.00  0.00    +0.000 H 
ATOM    118  H21 UNL A   1      46.529  48.843  16.412  1.00  0.00    +0.000 H 
BRANCH   17   15
ATOM     15  C12 UNL A   1      42.259  47.230  16.896  1.00  0.00    +0.000 C 
ATOM     16  O2  UNL A   1      41.456  47.365  15.979  1.00  0.00    +0.000 O 
BRANCH   15   14
ATOM    116  H19 UNL A   1      42.288  46.365  18.706  1.00  0.00    +0.000 H 
ATOM     14  N2  UNL A   1      42.166  46.157  17.751  1.00  0.00    +0.000 N 
BRANCH   14   13
ATOM    114  H17 UNL A   1      41.697  44.669  16.400  1.00  0.00    +0.000 H 
ATOM    115  H18 UNL A   1      42.788  44.203  17.713  1.00  0.00    +0.000 H 
ATOM     13  C11 UNL A   1      41.913  44.757  17.444  1.00  0.00    +0.000 C 
BRANCH   13   12
ATOM    113  H16 UNL A   1      40.356  43.373  17.660  1.00  0.00    +0.000 H 
ATOM     12  C10 UNL A   1      40.743  44.187  18.236  1.00  0.00    +0.000 C 
ATOM    112  H15 UNL A   1      40.030  44.971  18.387  1.00  0.00    +0.000 H 
BRANCH   12   11
ATOM     11  C9  UNL A   1      41.115  43.610  19.602  1.00  0.00    +0.000 C 
ATOM    110  H13 UNL A   1      40.895  44.350  20.345  1.00  0.00    +0.000 H 
ATOM    111  H14 UNL A   1      40.543  42.712  19.709  1.00  0.00    +0.000 H 
BRANCH   11   10
ATOM     10  C8  UNL A   1      42.584  43.200  19.763  1.00  0.00    +0.000 C 
ATOM    108  H11 UNL A   1      42.867  42.641  18.895  1.00  0.00    +0.000 H 
ATOM    109  H12 UNL A   1      43.131  44.110  19.888  1.00  0.00    +0.000 H 
BRANCH   10    9
ATOM      9  C7  UNL A   1      42.900  42.345  20.998  1.00  0.00    +0.000 C 
ATOM    106  H9  UNL A   1      42.729  41.318  20.749  1.00  0.00    +0.000 H 
ATOM    107  H10 UNL A   1      43.920  42.543  21.257  1.00  0.00    +0.000 H 
BRANCH    9    8
ATOM    105  H8  UNL A   1      42.197  41.913  22.955  1.00  0.00    +0.000 H 
ATOM    104  H7  UNL A   1      41.033  42.762  21.940  1.00  0.00    +0.000 H 
ATOM      8  C6  UNL A   1      42.059  42.687  22.229  1.00  0.00    +0.000 C 
BRANCH    8    7
ATOM    103  H6  UNL A   1      41.878  44.708  22.658  1.00  0.00    +0.000 H 
ATOM      7  N1  UNL A   1      42.472  43.941  22.823  1.00  0.00    +0.000 N 
BRANCH    7    5
ATOM      5  C5  UNL A   1      43.576  44.200  23.581  1.00  0.00    +0.000 C 
ATOM      6  O1  UNL A   1      43.691  43.616  24.661  1.00  0.00    +0.000 O 
BRANCH    5    4
ATOM      4  C4  UNL A   1      44.603  45.235  23.126  1.00  0.00    +0.000 C 
ATOM    101  H4  UNL A   1      44.087  46.150  22.920  1.00  0.00    +0.000 H 
ATOM    102  H5  UNL A   1      45.316  45.325  23.918  1.00  0.00    +0.000 H 
BRANCH    4    3
ATOM      2  C2  UNL A   1      45.442  45.471  20.701  1.00  0.00    +0.000 C 
ATOM      3  C3  UNL A   1      45.373  44.850  21.904  1.00  0.00    +0.000 C 
ATOM    131  H34 UNL A   1      46.116  42.807  23.775  1.00  0.00    +0.000 H 
ATOM    133  H36 UNL A   1      48.370  42.631  19.447  1.00  0.00    +0.000 H 
ATOM    132  H35 UNL A   1      48.865  40.973  21.163  1.00  0.00    +0.000 H 
ATOM     80  C57 UNL A   1      46.278  43.686  21.860  1.00  0.00    +0.000 C 
ATOM     81  C58 UNL A   1      46.576  42.761  22.853  1.00  0.00    +0.000 C 
ATOM     82  C59 UNL A   1      47.510  41.768  22.571  1.00  0.00    +0.000 C 
ATOM     83  F16 UNL A   1      47.802  40.855  23.506  1.00  0.00    +0.000 F 
ATOM     84  C60 UNL A   1      48.165  41.711  21.342  1.00  0.00    +0.000 C 
ATOM     85  C61 UNL A   1      47.873  42.651  20.352  1.00  0.00    +0.000 C 
ATOM     86  C62 UNL A   1      46.903  43.613  20.601  1.00  0.00    +0.000 C 
ATOM     87  C63 UNL A   1      46.324  44.709  19.800  1.00  0.00    +0.000 C 
BRANCH    2    1
ATOM      1  C1  UNL A   1      44.777  46.740  20.282  1.00  0.00    +0.000 C 
ATOM     98  H1  UNL A   1      44.200  46.565  19.398  1.00  0.00    +0.000 H 
ATOM     99  H2  UNL A   1      45.521  47.483  20.079  1.00  0.00    +0.000 H 
ATOM    100  H3  UNL A   1      44.135  47.083  21.066  1.00  0.00    +0.000 H 
ENDBRANCH    2    1
BRANCH   87   88
ATOM    134  H37 UNL A   1      45.733  44.679  17.847  1.00  0.00    +0.000 H 
ATOM     88  C64 UNL A   1      46.484  44.977  18.488  1.00  0.00    +0.000 C 
BRANCH   88   89
ATOM     97  C71 UNL A   1      47.613  46.003  16.546  1.00  0.00    +0.000 C 
ATOM    135  H38 UNL A   1      48.787  45.745  19.672  1.00  0.00    +0.000 H 
ATOM    136  H39 UNL A   1      50.453  47.264  18.773  1.00  0.00    +0.000 H 
ATOM    141  H44 UNL A   1      48.567  47.105  15.022  1.00  0.00    +0.000 H 
ATOM    142  H45 UNL A   1      46.868  45.634  15.935  1.00  0.00    +0.000 H 
ATOM     89  C65 UNL A   1      47.641  45.657  17.899  1.00  0.00    +0.000 C 
ATOM     90  C66 UNL A   1      48.713  46.072  18.696  1.00  0.00    +0.000 C 
ATOM     91  C67 UNL A   1      49.684  46.932  18.170  1.00  0.00    +0.000 C 
ATOM     92  C68 UNL A   1      49.620  47.345  16.835  1.00  0.00    +0.000 C 
ATOM     96  C70 UNL A   1      48.596  46.846  16.021  1.00  0.00    +0.000 C 
BRANCH   92   93
ATOM     93  S1  UNL A   1      50.701  48.678  16.250  1.00  0.00    +0.000 S 
BRANCH   93   94
ATOM    137  H40 UNL A   1      48.470  49.448  15.859  1.00  0.00    +0.000 H 
ATOM    138  H41 UNL A   1      49.630  50.337  14.901  1.00  0.00    +0.000 H 
ATOM    139  H42 UNL A   1      49.453  50.687  16.604  1.00  0.00    +0.000 H 
ATOM     94  C69 UNL A   1      49.435  49.914  15.865  1.00  0.00    +0.000 C 
ENDBRANCH   93   94
BRANCH   93   95
ATOM    140  H43 UNL A   1      50.725  50.220  17.731  1.00  0.00    +0.000 H 
ATOM     95  O3  UNL A   1      50.987  49.286  17.713  1.00  0.00    +0.000 O 
ENDBRANCH   93   95
ENDBRANCH   92   93
ENDBRANCH   88   89
ENDBRANCH   87   88
ENDBRANCH    4    3
ENDBRANCH    5    4
ENDBRANCH    7    5
ENDBRANCH    8    7
ENDBRANCH    9    8
ENDBRANCH   10    9
ENDBRANCH   11   10
ENDBRANCH   12   11
ENDBRANCH   13   12
ENDBRANCH   14   13
ENDBRANCH   15   14
ENDBRANCH   17   15
ENDBRANCH   21   20
BRANCH   25   26
ATOM     33  C25 UNL A   1      51.734  47.392  22.765  1.00  0.00    +0.000 C 
ATOM     34  F4  UNL A   1      52.448  46.330  22.370  1.00  0.00    +0.000 F 
ATOM     35  C26 UNL A   1      51.434  48.407  21.858  1.00  0.00    +0.000 C 
ATOM     36  F5  UNL A   1      51.882  48.298  20.598  1.00  0.00    +0.000 F 
ATOM     26  C21 UNL A   1      50.663  49.514  22.241  1.00  0.00    +0.000 C 
ATOM     27  C22 UNL A   1      50.215  49.576  23.569  1.00  0.00    +0.000 C 
ATOM     28  F1  UNL A   1      49.484  50.620  23.987  1.00  0.00    +0.000 F 
ATOM     29  C23 UNL A   1      50.536  48.572  24.480  1.00  0.00    +0.000 C 
ATOM     30  F2  UNL A   1      50.122  48.666  25.751  1.00  0.00    +0.000 F 
ATOM     31  C24 UNL A   1      51.287  47.478  24.076  1.00  0.00    +0.000 C 
ATOM     32  F3  UNL A   1      51.583  46.506  24.950  1.00  0.00    +0.000 F 
ENDBRANCH   25   26
BRANCH   42   43
ATOM     43  C32 UNL A   1      53.139  55.832  19.844  1.00  0.00    +0.000 C 
ATOM     44  C33 UNL A   1      54.333  55.754  19.113  1.00  0.00    +0.000 C 
ATOM     45  F6  UNL A   1      54.494  54.799  18.186  1.00  0.00    +0.000 F 
ATOM     46  C34 UNL A   1      55.375  56.644  19.353  1.00  0.00    +0.000 C 
ATOM     47  F7  UNL A   1      56.520  56.532  18.665  1.00  0.00    +0.000 F 
ATOM     48  C35 UNL A   1      55.234  57.642  20.306  1.00  0.00    +0.000 C 
ATOM     49  F8  UNL A   1      56.236  58.505  20.527  1.00  0.00    +0.000 F 
ATOM     50  C36 UNL A   1      54.059  57.742  21.034  1.00  0.00    +0.000 C 
ATOM     51  F9  UNL A   1      53.917  58.713  21.948  1.00  0.00    +0.000 F 
ATOM     52  C37 UNL A   1      53.022  56.839  20.814  1.00  0.00    +0.000 C 
ATOM     53  F10 UNL A   1      51.897  56.957  21.535  1.00  0.00    +0.000 F 
ENDBRANCH   42   43
BRANCH   57   58
ATOM     65  C45 UNL A   1      46.660  58.125  14.598  1.00  0.00    +0.000 C 
ATOM     66  F14 UNL A   1      45.899  59.187  14.896  1.00  0.00    +0.000 F 
ATOM     67  C46 UNL A   1      47.080  57.267  15.609  1.00  0.00    +0.000 C 
ATOM     68  F15 UNL A   1      46.720  57.529  16.874  1.00  0.00    +0.000 F 
ATOM     58  C41 UNL A   1      47.843  56.125  15.320  1.00  0.00    +0.000 C 
ATOM     59  C42 UNL A   1      48.192  55.893  13.983  1.00  0.00    +0.000 C 
ATOM     60  F11 UNL A   1      48.938  54.826  13.661  1.00  0.00    +0.000 F 
ATOM     61  C43 UNL A   1      47.793  56.768  12.975  1.00  0.00    +0.000 C 
ATOM     62  F12 UNL A   1      48.160  56.537  11.707  1.00  0.00    +0.000 F 
ATOM     63  C44 UNL A   1      47.019  57.877  13.281  1.00  0.00    +0.000 C 
ATOM     64  F13 UNL A   1      46.621  58.709  12.309  1.00  0.00    +0.000 F 
ENDBRANCH   57   58
TORSDOF 22
ENDMDL
MODEL 3
REMARK VINA RESULT:      -8.7     38.635     43.780
ROOT
ATOM     21  C17 UNL A   1      40.142  28.923  29.327  1.00  0.00    +0.000 C 
ATOM     22  C18 UNL A   1      40.972  29.762  30.260  1.00  0.00    +0.000 C 
ATOM     23  N3  UNL A   1      42.200  29.565  30.676  1.00  0.00    +0.000 N 
ATOM     24  C19 UNL A   1      42.496  30.634  31.509  1.00  0.00    +0.000 C 
ATOM     25  C20 UNL A   1      43.632  30.869  32.209  1.00  0.00    +0.000 C 
ATOM     37  C27 UNL A   1      44.782  30.002  32.209  1.00  0.00    +0.000 C 
ATOM     38  C28 UNL A   1      45.977  30.154  32.893  1.00  0.00    +0.000 C 
ATOM     39  C29 UNL A   1      46.809  29.080  32.565  1.00  0.00    +0.000 C 
ATOM     40  C30 UNL A   1      46.119  28.236  31.709  1.00  0.00    +0.000 C 
ATOM     41  N4  UNL A   1      44.879  28.819  31.493  1.00  0.00    +0.000 N 
ATOM     42  C31 UNL A   1      46.559  26.995  31.128  1.00  0.00    +0.000 C 
ATOM     54  C38 UNL A   1      45.814  26.208  30.315  1.00  0.00    +0.000 C 
ATOM     55  N5  UNL A   1      44.516  26.405  29.865  1.00  0.00    +0.000 N 
ATOM     56  C39 UNL A   1      44.246  25.387  29.087  1.00  0.00    +0.000 C 
ATOM     57  C40 UNL A   1      42.984  25.080  28.333  1.00  0.00    +0.000 C 
ATOM     69  C47 UNL A   1      41.966  25.961  28.369  1.00  0.00    +0.000 C 
ATOM     70  C48 UNL A   1      40.688  25.800  27.683  1.00  0.00    +0.000 C 
ATOM     71  C49 UNL A   1      39.928  26.880  27.916  1.00  0.00    +0.000 C 
ATOM     72  C50 UNL A   1      40.644  27.782  28.818  1.00  0.00    +0.000 C 
ATOM     73  N6  UNL A   1      41.857  27.171  29.009  1.00  0.00    +0.000 N 
ATOM     74  C51 UNL A   1      45.350  24.427  28.946  1.00  0.00    +0.000 C 
ATOM     75  C52 UNL A   1      46.271  24.961  29.739  1.00  0.00    +0.000 C 
ATOM     76  C53 UNL A   1      41.333  31.494  31.523  1.00  0.00    +0.000 C 
ATOM     77  C54 UNL A   1      40.348  30.979  30.801  1.00  0.00    +0.000 C 
ATOM    119  H22 UNL A   1      46.212  30.927  33.535  1.00  0.00    +0.000 H 
ATOM    120  H23 UNL A   1      47.774  28.939  32.902  1.00  0.00    +0.000 H 
ATOM    121  H24 UNL A   1      44.172  28.446  30.918  1.00  0.00    +0.000 H 
ATOM    122  H25 UNL A   1      40.415  24.986  27.111  1.00  0.00    +0.000 H 
ATOM    123  H26 UNL A   1      38.989  27.046  27.523  1.00  0.00    +0.000 H 
ATOM    124  H27 UNL A   1      42.581  27.563  29.550  1.00  0.00    +0.000 H 
ATOM    125  H28 UNL A   1      45.397  23.566  28.380  1.00  0.00    +0.000 H 
ATOM    126  H29 UNL A   1      47.196  24.539  29.921  1.00  0.00    +0.000 H 
ATOM    127  H30 UNL A   1      41.277  32.392  32.030  1.00  0.00    +0.000 H 
ATOM    128  H31 UNL A   1      39.392  31.338  30.654  1.00  0.00    +0.000 H 
ENDROOT
BRANCH   21   20
ATOM    129  H32 UNL A   1      37.925  28.835  30.900  1.00  0.00    +0.000 H 
ATOM    130  H33 UNL A   1      35.625  29.289  30.264  1.00  0.00    +0.000 H 
ATOM     78  C55 UNL A   1      37.709  29.153  29.943  1.00  0.00    +0.000 C 
ATOM     79  C56 UNL A   1      36.387  29.432  29.583  1.00  0.00    +0.000 C 
ATOM     17  C13 UNL A   1      36.102  29.906  28.299  1.00  0.00    +0.000 C 
ATOM     18  C14 UNL A   1      37.140  30.177  27.405  1.00  0.00    +0.000 C 
ATOM     19  C15 UNL A   1      38.444  29.826  27.736  1.00  0.00    +0.000 C 
ATOM     20  C16 UNL A   1      38.743  29.304  29.006  1.00  0.00    +0.000 C 
ATOM    117  H20 UNL A   1      36.939  30.635  26.502  1.00  0.00    +0.000 H 
ATOM    118  H21 UNL A   1      39.199  29.950  27.043  1.00  0.00    +0.000 H 
BRANCH   17   15
ATOM     15  C12 UNL A   1      34.691  30.095  27.898  1.00  0.00    +0.000 C 
ATOM     16  O2  UNL A   1      34.105  31.130  28.193  1.00  0.00    +0.000 O 
BRANCH   15   14
ATOM    116  H19 UNL A   1      34.477  28.780  26.397  1.00  0.00    +0.000 H 
ATOM     14  N2  UNL A   1      34.037  29.091  27.222  1.00  0.00    +0.000 N 
BRANCH   14   13
ATOM    114  H17 UNL A   1      32.832  27.416  27.196  1.00  0.00    +0.000 H 
ATOM    115  H18 UNL A   1      32.675  28.458  28.618  1.00  0.00    +0.000 H 
ATOM     13  C11 UNL A   1      32.788  28.423  27.554  1.00  0.00    +0.000 C 
BRANCH   13   12
ATOM    113  H16 UNL A   1      31.181  29.759  27.690  1.00  0.00    +0.000 H 
ATOM     12  C10 UNL A   1      31.576  29.109  26.937  1.00  0.00    +0.000 C 
ATOM    112  H15 UNL A   1      30.885  28.352  26.630  1.00  0.00    +0.000 H 
BRANCH   12   11
ATOM     11  C9  UNL A   1      31.887  29.991  25.727  1.00  0.00    +0.000 C 
ATOM    110  H13 UNL A   1      32.070  30.985  26.080  1.00  0.00    +0.000 H 
ATOM    111  H14 UNL A   1      32.732  29.545  25.245  1.00  0.00    +0.000 H 
BRANCH   11   10
ATOM     10  C8  UNL A   1      30.782  30.061  24.666  1.00  0.00    +0.000 C 
ATOM    108  H11 UNL A   1      29.872  30.340  25.155  1.00  0.00    +0.000 H 
ATOM    109  H12 UNL A   1      31.118  30.771  23.940  1.00  0.00    +0.000 H 
BRANCH   10    9
ATOM      9  C7  UNL A   1      30.524  28.760  23.893  1.00  0.00    +0.000 C 
ATOM    106  H9  UNL A   1      30.713  27.936  24.550  1.00  0.00    +0.000 H 
ATOM    107  H10 UNL A   1      29.507  28.797  23.560  1.00  0.00    +0.000 H 
BRANCH    9    8
ATOM    105  H8  UNL A   1      31.897  29.513  22.460  1.00  0.00    +0.000 H 
ATOM    104  H7  UNL A   1      30.764  28.325  21.820  1.00  0.00    +0.000 H 
ATOM      8  C6  UNL A   1      31.390  28.589  22.645  1.00  0.00    +0.000 C 
BRANCH    8    7
ATOM    103  H6  UNL A   1      32.520  26.951  22.063  1.00  0.00    +0.000 H 
ATOM      7  N1  UNL A   1      32.388  27.555  22.827  1.00  0.00    +0.000 N 
BRANCH    7    5
ATOM      5  C5  UNL A   1      33.168  27.310  23.918  1.00  0.00    +0.000 C 
ATOM      6  O1  UNL A   1      34.178  27.999  24.078  1.00  0.00    +0.000 O 
BRANCH    5    4
ATOM      4  C4  UNL A   1      32.827  26.168  24.873  1.00  0.00    +0.000 C 
ATOM    101  H4  UNL A   1      33.432  26.275  25.750  1.00  0.00    +0.000 H 
ATOM    102  H5  UNL A   1      31.779  26.243  25.075  1.00  0.00    +0.000 H 
BRANCH    4    3
ATOM      2  C2  UNL A   1      32.226  24.027  23.571  1.00  0.00    +0.000 C 
ATOM      3  C3  UNL A   1      33.055  24.801  24.314  1.00  0.00    +0.000 C 
ATOM    131  H34 UNL A   1      35.555  25.370  25.600  1.00  0.00    +0.000 H 
ATOM    133  H36 UNL A   1      35.350  21.152  23.150  1.00  0.00    +0.000 H 
ATOM    132  H35 UNL A   1      37.389  21.803  24.314  1.00  0.00    +0.000 H 
ATOM     80  C57 UNL A   1      34.334  24.080  24.455  1.00  0.00    +0.000 C 
ATOM     81  C58 UNL A   1      35.502  24.470  25.098  1.00  0.00    +0.000 C 
ATOM     82  C59 UNL A   1      36.600  23.616  25.049  1.00  0.00    +0.000 C 
ATOM     83  F16 UNL A   1      37.732  23.963  25.675  1.00  0.00    +0.000 F 
ATOM     84  C60 UNL A   1      36.556  22.412  24.348  1.00  0.00    +0.000 C 
ATOM     85  C61 UNL A   1      35.385  22.030  23.692  1.00  0.00    +0.000 C 
ATOM     86  C62 UNL A   1      34.266  22.848  23.779  1.00  0.00    +0.000 C 
ATOM     87  C63 UNL A   1      32.887  22.748  23.262  1.00  0.00    +0.000 C 
BRANCH    2    1
ATOM      1  C1  UNL A   1      30.853  24.355  23.084  1.00  0.00    +0.000 C 
ATOM     98  H1  UNL A   1      30.713  23.940  22.108  1.00  0.00    +0.000 H 
ATOM     99  H2  UNL A   1      30.734  25.417  23.040  1.00  0.00    +0.000 H 
ATOM    100  H3  UNL A   1      30.129  23.942  23.755  1.00  0.00    +0.000 H 
ENDBRANCH    2    1
BRANCH   87   88
ATOM    134  H37 UNL A   1      31.768  21.885  21.789  1.00  0.00    +0.000 H 
ATOM     88  C64 UNL A   1      32.277  21.702  22.668  1.00  0.00    +0.000 C 
BRANCH   88   89
ATOM     97  C71 UNL A   1      32.276  19.267  22.259  1.00  0.00    +0.000 C 
ATOM    135  H38 UNL A   1      32.314  20.826  25.222  1.00  0.00    +0.000 H 
ATOM    136  H39 UNL A   1      32.781  18.569  25.983  1.00  0.00    +0.000 H 
ATOM    141  H44 UNL A   1      32.513  17.185  22.025  1.00  0.00    +0.000 H 
ATOM    142  H45 UNL A   1      32.105  19.448  21.257  1.00  0.00    +0.000 H 
ATOM     89  C65 UNL A   1      32.278  20.326  23.170  1.00  0.00    +0.000 C 
ATOM     90  C66 UNL A   1      32.404  20.060  24.537  1.00  0.00    +0.000 C 
ATOM     91  C67 UNL A   1      32.653  18.754  24.976  1.00  0.00    +0.000 C 
ATOM     92  C68 UNL A   1      32.730  17.698  24.061  1.00  0.00    +0.000 C 
ATOM     96  C70 UNL A   1      32.506  17.962  22.704  1.00  0.00    +0.000 C 
BRANCH   92   93
ATOM     93  S1  UNL A   1      33.340  16.079  24.601  1.00  0.00    +0.000 S 
BRANCH   93   94
ATOM    137  H40 UNL A   1      35.698  15.723  24.798  1.00  0.00    +0.000 H 
ATOM    138  H41 UNL A   1      35.108  16.797  26.044  1.00  0.00    +0.000 H 
ATOM    139  H42 UNL A   1      35.334  17.389  24.416  1.00  0.00    +0.000 H 
ATOM     94  C69 UNL A   1      35.044  16.545  25.005  1.00  0.00    +0.000 C 
ENDBRANCH   93   94
BRANCH   93   95
ATOM    140  H43 UNL A   1      32.870  17.166  26.381  1.00  0.00    +0.000 H 
ATOM     95  O3  UNL A   1      32.835  16.232  26.121  1.00  0.00    +0.000 O 
ENDBRANCH   93   95
ENDBRANCH   92   93
ENDBRANCH   88   89
ENDBRANCH   87   88
ENDBRANCH    4    3
ENDBRANCH    5    4
ENDBRANCH    7    5
ENDBRANCH    8    7
ENDBRANCH    9    8
ENDBRANCH   10    9
ENDBRANCH   11   10
ENDBRANCH   12   11
ENDBRANCH   13   12
ENDBRANCH   14   13
ENDBRANCH   15   14
ENDBRANCH   17   15
ENDBRANCH   21   20
BRANCH   25   26
ATOM     33  C25 UNL A   1      44.359  34.447  33.282  1.00  0.00    +0.000 C 
ATOM     34  F4  UNL A   1      44.881  35.561  32.752  1.00  0.00    +0.000 F 
ATOM     35  C26 UNL A   1      44.215  33.304  32.498  1.00  0.00    +0.000 C 
ATOM     36  F5  UNL A   1      44.600  33.352  31.213  1.00  0.00    +0.000 F 
ATOM     26  C21 UNL A   1      43.698  32.118  33.038  1.00  0.00    +0.000 C 
ATOM     27  C22 UNL A   1      43.316  32.121  34.388  1.00  0.00    +0.000 C 
ATOM     28  F1  UNL A   1      42.805  31.015  34.948  1.00  0.00    +0.000 F 
ATOM     29  C23 UNL A   1      43.438  33.272  35.163  1.00  0.00    +0.000 C 
ATOM     30  F2  UNL A   1      43.041  33.261  36.443  1.00  0.00    +0.000 F 
ATOM     31  C24 UNL A   1      43.967  34.430  34.613  1.00  0.00    +0.000 C 
ATOM     32  F3  UNL A   1      44.098  35.533  35.364  1.00  0.00    +0.000 F 
ENDBRANCH   25   26
BRANCH   42   43
ATOM     43  C32 UNL A   1      47.945  26.527  31.456  1.00  0.00    +0.000 C 
ATOM     44  C33 UNL A   1      48.191  25.688  32.552  1.00  0.00    +0.000 C 
ATOM     45  F6  UNL A   1      47.191  25.342  33.375  1.00  0.00    +0.000 F 
ATOM     46  C34 UNL A   1      49.476  25.223  32.819  1.00  0.00    +0.000 C 
ATOM     47  F7  UNL A   1      49.695  24.447  33.890  1.00  0.00    +0.000 F 
ATOM     48  C35 UNL A   1      50.529  25.565  31.983  1.00  0.00    +0.000 C 
ATOM     49  F8  UNL A   1      51.763  25.106  32.236  1.00  0.00    +0.000 F 
ATOM     50  C36 UNL A   1      50.305  26.387  30.890  1.00  0.00    +0.000 C 
ATOM     51  F9  UNL A   1      51.319  26.709  30.074  1.00  0.00    +0.000 F 
ATOM     52  C37 UNL A   1      49.026  26.874  30.632  1.00  0.00    +0.000 C 
ATOM     53  F10 UNL A   1      48.839  27.670  29.569  1.00  0.00    +0.000 F 
ENDBRANCH   42   43
BRANCH   57   58
ATOM     65  C45 UNL A   1      42.950  22.600  25.460  1.00  0.00    +0.000 C 
ATOM     66  F14 UNL A   1      43.225  22.581  24.148  1.00  0.00    +0.000 F 
ATOM     67  C46 UNL A   1      43.153  23.764  26.195  1.00  0.00    +0.000 C 
ATOM     68  F15 UNL A   1      43.634  24.849  25.571  1.00  0.00    +0.000 F 
ATOM     58  C41 UNL A   1      42.835  23.822  27.560  1.00  0.00    +0.000 C 
ATOM     59  C42 UNL A   1      42.334  22.663  28.166  1.00  0.00    +0.000 C 
ATOM     60  F11 UNL A   1      42.035  22.665  29.474  1.00  0.00    +0.000 F 
ATOM     61  C43 UNL A   1      42.156  21.491  27.434  1.00  0.00    +0.000 C 
ATOM     62  F12 UNL A   1      41.698  20.388  28.041  1.00  0.00    +0.000 F 
ATOM     63  C44 UNL A   1      42.454  21.463  26.080  1.00  0.00    +0.000 C 
ATOM     64  F13 UNL A   1      42.267  20.340  25.373  1.00  0.00    +0.000 F 
ENDBRANCH   57   58
TORSDOF 22
ENDMDL
MODEL 4
REMARK VINA RESULT:      -8.7     37.039     42.818
ROOT
ATOM     21  C17 UNL A   1      37.467  32.871  33.791  1.00  0.00    +0.000 C 
ATOM     22  C18 UNL A   1      38.100  31.877  32.856  1.00  0.00    +0.000 C 
ATOM     23  N3  UNL A   1      39.189  31.166  33.021  1.00  0.00    +0.000 N 
ATOM     24  C19 UNL A   1      39.323  30.402  31.870  1.00  0.00    +0.000 C 
ATOM     25  C20 UNL A   1      40.308  29.530  31.546  1.00  0.00    +0.000 C 
ATOM     37  C27 UNL A   1      41.441  29.235  32.383  1.00  0.00    +0.000 C 
ATOM     38  C28 UNL A   1      42.495  28.370  32.135  1.00  0.00    +0.000 C 
ATOM     39  C29 UNL A   1      43.346  28.387  33.244  1.00  0.00    +0.000 C 
ATOM     40  C30 UNL A   1      42.846  29.294  34.166  1.00  0.00    +0.000 C 
ATOM     41  N4  UNL A   1      41.674  29.801  33.627  1.00  0.00    +0.000 N 
ATOM     42  C31 UNL A   1      43.395  29.666  35.444  1.00  0.00    +0.000 C 
ATOM     54  C38 UNL A   1      42.860  30.585  36.283  1.00  0.00    +0.000 C 
ATOM     55  N5  UNL A   1      41.708  31.342  36.123  1.00  0.00    +0.000 N 
ATOM     56  C39 UNL A   1      41.598  32.063  37.211  1.00  0.00    +0.000 C 
ATOM     57  C40 UNL A   1      40.542  33.066  37.578  1.00  0.00    +0.000 C 
ATOM     69  C47 UNL A   1      39.501  33.259  36.746  1.00  0.00    +0.000 C 
ATOM     70  C48 UNL A   1      38.402  34.192  36.975  1.00  0.00    +0.000 C 
ATOM     71  C49 UNL A   1      37.533  34.101  35.958  1.00  0.00    +0.000 C 
ATOM     72  C50 UNL A   1      38.046  33.145  34.976  1.00  0.00    +0.000 C 
ATOM     73  N6  UNL A   1      39.202  32.672  35.542  1.00  0.00    +0.000 N 
ATOM     74  C51 UNL A   1      42.666  31.837  38.195  1.00  0.00    +0.000 C 
ATOM     75  C52 UNL A   1      43.425  30.949  37.566  1.00  0.00    +0.000 C 
ATOM     76  C53 UNL A   1      38.192  30.714  31.022  1.00  0.00    +0.000 C 
ATOM     77  C54 UNL A   1      37.429  31.651  31.567  1.00  0.00    +0.000 C 
ATOM    119  H22 UNL A   1      42.628  27.809  31.279  1.00  0.00    +0.000 H 
ATOM    120  H23 UNL A   1      44.200  27.821  33.358  1.00  0.00    +0.000 H 
ATOM    121  H24 UNL A   1      41.093  30.466  34.063  1.00  0.00    +0.000 H 
ATOM    122  H25 UNL A   1      38.310  34.820  37.789  1.00  0.00    +0.000 H 
ATOM    123  H26 UNL A   1      36.646  34.621  35.881  1.00  0.00    +0.000 H 
ATOM    124  H27 UNL A   1      39.762  31.977  35.126  1.00  0.00    +0.000 H 
ATOM    125  H28 UNL A   1      42.793  32.259  39.128  1.00  0.00    +0.000 H 
ATOM    126  H29 UNL A   1      44.306  30.566  37.944  1.00  0.00    +0.000 H 
ATOM    127  H30 UNL A   1      38.005  30.265  30.112  1.00  0.00    +0.000 H 
ATOM    128  H31 UNL A   1      36.584  32.103  31.186  1.00  0.00    +0.000 H 
ENDROOT
BRANCH   21   20
ATOM    129  H32 UNL A   1      34.860  32.130  34.022  1.00  0.00    +0.000 H 
ATOM    130  H33 UNL A   1      32.898  33.295  33.186  1.00  0.00    +0.000 H 
ATOM     78  C55 UNL A   1      34.964  33.047  33.560  1.00  0.00    +0.000 C 
ATOM     79  C56 UNL A   1      33.833  33.725  33.095  1.00  0.00    +0.000 C 
ATOM     17  C13 UNL A   1      33.971  34.987  32.509  1.00  0.00    +0.000 C 
ATOM     18  C14 UNL A   1      35.223  35.604  32.460  1.00  0.00    +0.000 C 
ATOM     19  C15 UNL A   1      36.355  34.897  32.850  1.00  0.00    +0.000 C 
ATOM     20  C16 UNL A   1      36.239  33.608  33.398  1.00  0.00    +0.000 C 
ATOM    117  H20 UNL A   1      35.307  36.580  32.135  1.00  0.00    +0.000 H 
ATOM    118  H21 UNL A   1      37.289  35.323  32.737  1.00  0.00    +0.000 H 
BRANCH   17   15
ATOM     15  C12 UNL A   1      32.781  35.645  31.927  1.00  0.00    +0.000 C 
ATOM     16  O2  UNL A   1      31.826  35.925  32.643  1.00  0.00    +0.000 O 
BRANCH   15   14
ATOM    116  H19 UNL A   1      32.494  36.830  30.334  1.00  0.00    +0.000 H 
ATOM     14  N2  UNL A   1      32.744  35.910  30.578  1.00  0.00    +0.000 N 
BRANCH   14   13
ATOM    114  H17 UNL A   1      33.105  34.021  29.829  1.00  0.00    +0.000 H 
ATOM    115  H18 UNL A   1      32.223  35.120  28.759  1.00  0.00    +0.000 H 
ATOM     13  C11 UNL A   1      33.025  35.021  29.460  1.00  0.00    +0.000 C 
BRANCH   13   12
ATOM    113  H16 UNL A   1      34.688  36.269  29.206  1.00  0.00    +0.000 H 
ATOM     12  C10 UNL A   1      34.317  35.381  28.738  1.00  0.00    +0.000 C 
ATOM    112  H15 UNL A   1      34.093  35.514  27.700  1.00  0.00    +0.000 H 
BRANCH   12   11
ATOM     11  C9  UNL A   1      35.428  34.336  28.856  1.00  0.00    +0.000 C 
ATOM    110  H13 UNL A   1      35.713  34.043  27.866  1.00  0.00    +0.000 H 
ATOM    111  H14 UNL A   1      36.217  34.804  29.407  1.00  0.00    +0.000 H 
BRANCH   11   10
ATOM     10  C8  UNL A   1      35.058  33.070  29.637  1.00  0.00    +0.000 C 
ATOM    108  H11 UNL A   1      35.779  32.941  30.417  1.00  0.00    +0.000 H 
ATOM    109  H12 UNL A   1      34.061  33.225  29.992  1.00  0.00    +0.000 H 
BRANCH   10    9
ATOM      9  C7  UNL A   1      35.015  31.774  28.815  1.00  0.00    +0.000 C 
ATOM    106  H9  UNL A   1      35.962  31.651  28.333  1.00  0.00    +0.000 H 
ATOM    107  H10 UNL A   1      34.794  30.982  29.500  1.00  0.00    +0.000 H 
BRANCH    9    8
ATOM    105  H8  UNL A   1      34.100  32.556  27.065  1.00  0.00    +0.000 H 
ATOM    104  H7  UNL A   1      32.970  31.846  28.216  1.00  0.00    +0.000 H 
ATOM      8  C6  UNL A   1      33.924  31.747  27.744  1.00  0.00    +0.000 C 
BRANCH    8    7
ATOM    103  H6  UNL A   1      34.842  30.140  26.809  1.00  0.00    +0.000 H 
ATOM      7  N1  UNL A   1      33.949  30.512  26.990  1.00  0.00    +0.000 N 
BRANCH    7    5
ATOM      5  C5  UNL A   1      32.899  29.795  26.497  1.00  0.00    +0.000 C 
ATOM      6  O1  UNL A   1      31.844  29.795  27.135  1.00  0.00    +0.000 O 
BRANCH    5    4
ATOM      4  C4  UNL A   1      33.055  28.967  25.223  1.00  0.00    +0.000 C 
ATOM    101  H4  UNL A   1      33.170  29.641  24.399  1.00  0.00    +0.000 H 
ATOM    102  H5  UNL A   1      33.908  28.338  25.372  1.00  0.00    +0.000 H 
BRANCH    4    3
ATOM      2  C2  UNL A   1      31.650  26.814  25.396  1.00  0.00    +0.000 C 
ATOM      3  C3  UNL A   1      31.905  28.060  24.927  1.00  0.00    +0.000 C 
ATOM    131  H34 UNL A   1      31.255  30.403  23.407  1.00  0.00    +0.000 H 
ATOM    133  H36 UNL A   1      27.903  26.853  23.357  1.00  0.00    +0.000 H 
ATOM    132  H35 UNL A   1      27.531  28.917  22.116  1.00  0.00    +0.000 H 
ATOM     80  C57 UNL A   1      30.775  28.453  24.064  1.00  0.00    +0.000 C 
ATOM     81  C58 UNL A   1      30.557  29.644  23.382  1.00  0.00    +0.000 C 
ATOM     82  C59 UNL A   1      29.374  29.785  22.663  1.00  0.00    +0.000 C 
ATOM     83  F16 UNL A   1      29.148  30.917  21.983  1.00  0.00    +0.000 F 
ATOM     84  C60 UNL A   1      28.407  28.781  22.646  1.00  0.00    +0.000 C 
ATOM     85  C61 UNL A   1      28.624  27.593  23.344  1.00  0.00    +0.000 C 
ATOM     86  C62 UNL A   1      29.824  27.417  24.020  1.00  0.00    +0.000 C 
ATOM     87  C63 UNL A   1      30.398  26.310  24.809  1.00  0.00    +0.000 C 
BRANCH    2    1
ATOM      1  C1  UNL A   1      32.452  26.017  26.372  1.00  0.00    +0.000 C 
ATOM     98  H1  UNL A   1      31.818  25.305  26.857  1.00  0.00    +0.000 H 
ATOM     99  H2  UNL A   1      32.877  26.672  27.104  1.00  0.00    +0.000 H 
ATOM    100  H3  UNL A   1      33.236  25.504  25.855  1.00  0.00    +0.000 H 
ENDBRANCH    2    1
BRANCH   87   88
ATOM    134  H37 UNL A   1      28.956  24.928  25.229  1.00  0.00    +0.000 H 
ATOM     88  C64 UNL A   1      29.944  25.048  24.956  1.00  0.00    +0.000 C 
BRANCH   88   89
ATOM     97  C71 UNL A   1      31.554  23.728  23.630  1.00  0.00    +0.000 C 
ATOM    135  H38 UNL A   1      30.128  22.864  26.534  1.00  0.00    +0.000 H 
ATOM    136  H39 UNL A   1      31.797  21.107  26.402  1.00  0.00    +0.000 H 
ATOM    141  H44 UNL A   1      33.093  22.622  22.704  1.00  0.00    +0.000 H 
ATOM    142  H45 UNL A   1      31.466  24.413  22.863  1.00  0.00    +0.000 H 
ATOM     89  C65 UNL A   1      30.740  23.834  24.760  1.00  0.00    +0.000 C 
ATOM     90  C66 UNL A   1      30.791  22.842  25.744  1.00  0.00    +0.000 C 
ATOM     91  C67 UNL A   1      31.739  21.817  25.655  1.00  0.00    +0.000 C 
ATOM     92  C68 UNL A   1      32.612  21.747  24.563  1.00  0.00    +0.000 C 
ATOM     96  C70 UNL A   1      32.488  22.691  23.537  1.00  0.00    +0.000 C 
BRANCH   92   93
ATOM     93  S1  UNL A   1      34.018  20.603  24.603  1.00  0.00    +0.000 S 
BRANCH   93   94
ATOM    137  H40 UNL A   1      35.610  20.685  26.387  1.00  0.00    +0.000 H 
ATOM    138  H41 UNL A   1      34.342  21.868  26.607  1.00  0.00    +0.000 H 
ATOM    139  H42 UNL A   1      35.621  22.162  25.454  1.00  0.00    +0.000 H 
ATOM     94  C69 UNL A   1      34.998  21.413  25.894  1.00  0.00    +0.000 C 
ENDBRANCH   93   94
BRANCH   93   95
ATOM    140  H43 UNL A   1      33.790  18.714  25.579  1.00  0.00    +0.000 H 
ATOM     95  O3  UNL A   1      33.337  19.570  25.633  1.00  0.00    +0.000 O 
ENDBRANCH   93   95
ENDBRANCH   92   93
ENDBRANCH   88   89
ENDBRANCH   87   88
ENDBRANCH    4    3
ENDBRANCH    5    4
ENDBRANCH    7    5
ENDBRANCH    8    7
ENDBRANCH    9    8
ENDBRANCH   10    9
ENDBRANCH   11   10
ENDBRANCH   12   11
ENDBRANCH   13   12
ENDBRANCH   14   13
ENDBRANCH   15   14
ENDBRANCH   17   15
ENDBRANCH   21   20
BRANCH   25   26
ATOM     33  C25 UNL A   1      39.515  26.883  28.929  1.00  0.00    +0.000 C 
ATOM     34  F4  UNL A   1      38.896  25.696  28.865  1.00  0.00    +0.000 F 
ATOM     35  C26 UNL A   1      39.541  27.591  30.129  1.00  0.00    +0.000 C 
ATOM     36  F5  UNL A   1      38.931  27.064  31.201  1.00  0.00    +0.000 F 
ATOM     26  C21 UNL A   1      40.208  28.821  30.227  1.00  0.00    +0.000 C 
ATOM     27  C22 UNL A   1      40.834  29.323  29.077  1.00  0.00    +0.000 C 
ATOM     28  F1  UNL A   1      41.475  30.501  29.117  1.00  0.00    +0.000 F 
ATOM     29  C23 UNL A   1      40.786  28.625  27.873  1.00  0.00    +0.000 C 
ATOM     30  F2  UNL A   1      41.367  29.138  26.779  1.00  0.00    +0.000 F 
ATOM     31  C24 UNL A   1      40.134  27.402  27.802  1.00  0.00    +0.000 C 
ATOM     32  F3  UNL A   1      40.101  26.725  26.646  1.00  0.00    +0.000 F 
ENDBRANCH   25   26
BRANCH   42   43
ATOM     43  C32 UNL A   1      44.665  28.996  35.875  1.00  0.00    +0.000 C 
ATOM     44  C33 UNL A   1      44.646  27.795  36.599  1.00  0.00    +0.000 C 
ATOM     45  F6  UNL A   1      43.479  27.257  36.982  1.00  0.00    +0.000 F 
ATOM     46  C34 UNL A   1      45.832  27.158  36.953  1.00  0.00    +0.000 C 
ATOM     47  F7  UNL A   1      45.792  26.028  37.672  1.00  0.00    +0.000 F 
ATOM     48  C35 UNL A   1      47.052  27.693  36.569  1.00  0.00    +0.000 C 
ATOM     49  F8  UNL A   1      48.192  27.071  36.901  1.00  0.00    +0.000 F 
ATOM     50  C36 UNL A   1      47.092  28.875  35.845  1.00  0.00    +0.000 C 
ATOM     51  F9  UNL A   1      48.271  29.387  35.463  1.00  0.00    +0.000 F 
ATOM     52  C37 UNL A   1      45.910  29.528  35.509  1.00  0.00    +0.000 C 
ATOM     53  F10 UNL A   1      45.978  30.672  34.812  1.00  0.00    +0.000 F 
ENDBRANCH   42   43
BRANCH   57   58
ATOM     65  C45 UNL A   1      39.985  34.228  41.149  1.00  0.00    +0.000 C 
ATOM     66  F14 UNL A   1      39.296  33.843  42.233  1.00  0.00    +0.000 F 
ATOM     67  C46 UNL A   1      39.952  33.452  39.994  1.00  0.00    +0.000 C 
ATOM     68  F15 UNL A   1      39.232  32.320  39.994  1.00  0.00    +0.000 F 
ATOM     58  C41 UNL A   1      40.631  33.852  38.834  1.00  0.00    +0.000 C 
ATOM     59  C42 UNL A   1      41.367  35.043  38.884  1.00  0.00    +0.000 C 
ATOM     60  F11 UNL A   1      42.050  35.455  37.805  1.00  0.00    +0.000 F 
ATOM     61  C43 UNL A   1      41.421  35.804  40.050  1.00  0.00    +0.000 C 
ATOM     62  F12 UNL A   1      42.152  36.927  40.080  1.00  0.00    +0.000 F 
ATOM     63  C44 UNL A   1      40.722  35.402  41.178  1.00  0.00    +0.000 C 
ATOM     64  F13 UNL A   1      40.761  36.144  42.293  1.00  0.00    +0.000 F 
ENDBRANCH   57   58
TORSDOF 22
ENDMDL
MODEL 5
REMARK VINA RESULT:      -8.7     61.576     67.145
ROOT
ATOM     21  C17 UNL A   1      46.515  11.497  47.167  1.00  0.00    +0.000 C 
ATOM     22  C18 UNL A   1      47.369  12.736  47.197  1.00  0.00    +0.000 C 
ATOM     23  N3  UNL A   1      48.289  13.084  48.063  1.00  0.00    +0.000 N 
ATOM     24  C19 UNL A   1      48.781  14.306  47.626  1.00  0.00    +0.000 C 
ATOM     25  C20 UNL A   1      49.724  15.090  48.201  1.00  0.00    +0.000 C 
ATOM     37  C27 UNL A   1      50.407  14.773  49.428  1.00  0.00    +0.000 C 
ATOM     38  C28 UNL A   1      51.374  15.511  50.093  1.00  0.00    +0.000 C 
ATOM     39  C29 UNL A   1      51.769  14.795  51.226  1.00  0.00    +0.000 C 
ATOM     40  C30 UNL A   1      51.021  13.631  51.292  1.00  0.00    +0.000 C 
ATOM     41  N4  UNL A   1      50.194  13.628  50.179  1.00  0.00    +0.000 N 
ATOM     42  C31 UNL A   1      51.059  12.598  52.294  1.00  0.00    +0.000 C 
ATOM     54  C38 UNL A   1      50.273  11.495  52.305  1.00  0.00    +0.000 C 
ATOM     55  N5  UNL A   1      49.298  11.112  51.394  1.00  0.00    +0.000 N 
ATOM     56  C39 UNL A   1      48.838   9.963  51.821  1.00  0.00    +0.000 C 
ATOM     57  C40 UNL A   1      47.767   9.094  51.228  1.00  0.00    +0.000 C 
ATOM     69  C47 UNL A   1      47.198   9.454  50.062  1.00  0.00    +0.000 C 
ATOM     70  C48 UNL A   1      46.154   8.707  49.368  1.00  0.00    +0.000 C 
ATOM     71  C49 UNL A   1      45.848   9.343  48.227  1.00  0.00    +0.000 C 
ATOM     72  C50 UNL A   1      46.632  10.575  48.142  1.00  0.00    +0.000 C 
ATOM     73  N6  UNL A   1      47.428  10.542  49.257  1.00  0.00    +0.000 N 
ATOM     74  C51 UNL A   1      49.477   9.478  53.052  1.00  0.00    +0.000 C 
ATOM     75  C52 UNL A   1      50.324  10.463  53.321  1.00  0.00    +0.000 C 
ATOM     76  C53 UNL A   1      48.079  14.631  46.403  1.00  0.00    +0.000 C 
ATOM     77  C54 UNL A   1      47.166  13.714  46.116  1.00  0.00    +0.000 C 
ATOM    119  H22 UNL A   1      51.739  16.432  49.800  1.00  0.00    +0.000 H 
ATOM    120  H23 UNL A   1      52.496  15.084  51.899  1.00  0.00    +0.000 H 
ATOM    121  H24 UNL A   1      49.551  12.917  49.955  1.00  0.00    +0.000 H 
ATOM    122  H25 UNL A   1      45.723   7.831  49.700  1.00  0.00    +0.000 H 
ATOM    123  H26 UNL A   1      45.167   9.015  47.524  1.00  0.00    +0.000 H 
ATOM    124  H27 UNL A   1      48.102  11.231  49.461  1.00  0.00    +0.000 H 
ATOM    125  H28 UNL A   1      49.311   8.602  53.572  1.00  0.00    +0.000 H 
ATOM    126  H29 UNL A   1      50.940  10.491  54.148  1.00  0.00    +0.000 H 
ATOM    127  H30 UNL A   1      48.265  15.468  45.829  1.00  0.00    +0.000 H 
ATOM    128  H31 UNL A   1      46.489  13.691  45.338  1.00  0.00    +0.000 H 
ENDROOT
BRANCH   21   20
ATOM    129  H32 UNL A   1      43.923  12.317  47.102  1.00  0.00    +0.000 H 
ATOM    130  H33 UNL A   1      42.239  11.809  45.426  1.00  0.00    +0.000 H 
ATOM     78  C55 UNL A   1      44.178  11.770  46.265  1.00  0.00    +0.000 C 
ATOM     79  C56 UNL A   1      43.213  11.495  45.292  1.00  0.00    +0.000 C 
ATOM     17  C13 UNL A   1      43.570  10.791  44.138  1.00  0.00    +0.000 C 
ATOM     18  C14 UNL A   1      44.903  10.436  43.918  1.00  0.00    +0.000 C 
ATOM     19  C15 UNL A   1      45.845  10.642  44.920  1.00  0.00    +0.000 C 
ATOM     20  C16 UNL A   1      45.492  11.305  46.108  1.00  0.00    +0.000 C 
ATOM    117  H20 UNL A   1      45.187  10.022  43.017  1.00  0.00    +0.000 H 
ATOM    118  H21 UNL A   1      46.813  10.305  44.791  1.00  0.00    +0.000 H 
BRANCH   17   15
ATOM     15  C12 UNL A   1      42.519  10.414  43.169  1.00  0.00    +0.000 C 
ATOM     16  O2  UNL A   1      42.036   9.287  43.200  1.00  0.00    +0.000 O 
BRANCH   15   14
ATOM    116  H19 UNL A   1      42.604  11.290  41.367  1.00  0.00    +0.000 H 
ATOM     14  N2  UNL A   1      42.113  11.322  42.220  1.00  0.00    +0.000 N 
BRANCH   14   13
ATOM    114  H17 UNL A   1      40.331  12.113  41.542  1.00  0.00    +0.000 H 
ATOM    115  H18 UNL A   1      40.635  12.270  43.279  1.00  0.00    +0.000 H 
ATOM     13  C11 UNL A   1      41.059  12.322  42.298  1.00  0.00    +0.000 C 
BRANCH   13   12
ATOM    113  H16 UNL A   1      42.529  13.786  42.591  1.00  0.00    +0.000 H 
ATOM     12  C10 UNL A   1      41.581  13.739  42.095  1.00  0.00    +0.000 C 
ATOM    112  H15 UNL A   1      40.861  14.420  42.499  1.00  0.00    +0.000 H 
BRANCH   12   11
ATOM     11  C9  UNL A   1      41.838  14.124  40.638  1.00  0.00    +0.000 C 
ATOM    110  H13 UNL A   1      42.494  13.392  40.213  1.00  0.00    +0.000 H 
ATOM    111  H14 UNL A   1      40.877  14.163  40.169  1.00  0.00    +0.000 H 
BRANCH   11   10
ATOM     10  C8  UNL A   1      42.469  15.506  40.426  1.00  0.00    +0.000 C 
ATOM    108  H11 UNL A   1      41.679  16.225  40.377  1.00  0.00    +0.000 H 
ATOM    109  H12 UNL A   1      43.137  15.653  41.249  1.00  0.00    +0.000 H 
BRANCH   10    9
ATOM      9  C7  UNL A   1      43.323  15.655  39.159  1.00  0.00    +0.000 C 
ATOM    106  H9  UNL A   1      43.639  14.681  38.850  1.00  0.00    +0.000 H 
ATOM    107  H10 UNL A   1      42.708  16.141  38.429  1.00  0.00    +0.000 H 
BRANCH    9    8
ATOM    105  H8  UNL A   1      44.277  17.551  39.210  1.00  0.00    +0.000 H 
ATOM    104  H7  UNL A   1      45.299  16.244  38.616  1.00  0.00    +0.000 H 
ATOM      8  C6  UNL A   1      44.565  16.528  39.339  1.00  0.00    +0.000 C 
BRANCH    8    7
ATOM    103  H6  UNL A   1      45.180  15.462  41.007  1.00  0.00    +0.000 H 
ATOM      7  N1  UNL A   1      45.130  16.382  40.664  1.00  0.00    +0.000 N 
BRANCH    7    5
ATOM      5  C5  UNL A   1      45.603  17.352  41.498  1.00  0.00    +0.000 C 
ATOM      6  O1  UNL A   1      45.366  18.529  41.216  1.00  0.00    +0.000 O 
BRANCH    5    4
ATOM      4  C4  UNL A   1      46.454  16.983  42.711  1.00  0.00    +0.000 C 
ATOM    101  H4  UNL A   1      46.904  16.029  42.527  1.00  0.00    +0.000 H 
ATOM    102  H5  UNL A   1      47.171  17.768  42.829  1.00  0.00    +0.000 H 
BRANCH    4    3
ATOM      2  C2  UNL A   1      44.961  15.879  44.497  1.00  0.00    +0.000 C 
ATOM      3  C3  UNL A   1      45.699  16.900  43.999  1.00  0.00    +0.000 C 
ATOM    131  H34 UNL A   1      46.892  19.504  44.145  1.00  0.00    +0.000 H 
ATOM    133  H36 UNL A   1      44.387  18.101  48.094  1.00  0.00    +0.000 H 
ATOM    132  H35 UNL A   1      45.464  20.285  48.030  1.00  0.00    +0.000 H 
ATOM     80  C57 UNL A   1      45.705  17.980  45.003  1.00  0.00    +0.000 C 
ATOM     81  C58 UNL A   1      46.345  19.213  44.970  1.00  0.00    +0.000 C 
ATOM     82  C59 UNL A   1      46.230  20.046  46.079  1.00  0.00    +0.000 C 
ATOM     83  F16 UNL A   1      46.824  21.247  46.065  1.00  0.00    +0.000 F 
ATOM     84  C60 UNL A   1      45.523  19.654  47.214  1.00  0.00    +0.000 C 
ATOM     85  C61 UNL A   1      44.893  18.410  47.249  1.00  0.00    +0.000 C 
ATOM     86  C62 UNL A   1      44.955  17.591  46.128  1.00  0.00    +0.000 C 
ATOM     87  C63 UNL A   1      44.394  16.267  45.800  1.00  0.00    +0.000 C 
BRANCH    2    1
ATOM      1  C1  UNL A   1      44.728  14.533  43.894  1.00  0.00    +0.000 C 
ATOM     98  H1  UNL A   1      45.229  13.789  44.478  1.00  0.00    +0.000 H 
ATOM     99  H2  UNL A   1      45.110  14.518  42.895  1.00  0.00    +0.000 H 
ATOM    100  H3  UNL A   1      43.678  14.326  43.878  1.00  0.00    +0.000 H 
ENDBRANCH    2    1
BRANCH   87   88
ATOM    134  H37 UNL A   1      42.570  15.385  46.048  1.00  0.00    +0.000 H 
ATOM     88  C64 UNL A   1      43.493  15.533  46.485  1.00  0.00    +0.000 C 
BRANCH   88   89
ATOM     97  C71 UNL A   1      42.753  14.075  48.335  1.00  0.00    +0.000 C 
ATOM    135  H38 UNL A   1      45.615  15.800  48.134  1.00  0.00    +0.000 H 
ATOM    136  H39 UNL A   1      46.142  14.430  50.067  1.00  0.00    +0.000 H 
ATOM    141  H44 UNL A   1      42.329  12.679  49.857  1.00  0.00    +0.000 H 
ATOM    142  H45 UNL A   1      41.824  14.004  47.890  1.00  0.00    +0.000 H 
ATOM     89  C65 UNL A   1      43.719  14.931  47.801  1.00  0.00    +0.000 C 
ATOM     90  C66 UNL A   1      44.935  15.102  48.471  1.00  0.00    +0.000 C 
ATOM     91  C67 UNL A   1      45.229  14.326  49.598  1.00  0.00    +0.000 C 
ATOM     92  C68 UNL A   1      44.295  13.409  50.093  1.00  0.00    +0.000 C 
ATOM     96  C70 UNL A   1      43.043  13.316  49.472  1.00  0.00    +0.000 C 
BRANCH   92   93
ATOM     93  S1  UNL A   1      44.792  12.210  51.359  1.00  0.00    +0.000 S 
BRANCH   93   94
ATOM    137  H40 UNL A   1      44.051  13.196  53.409  1.00  0.00    +0.000 H 
ATOM    138  H41 UNL A   1      43.167  11.733  53.049  1.00  0.00    +0.000 H 
ATOM    139  H42 UNL A   1      42.789  13.212  52.200  1.00  0.00    +0.000 H 
ATOM     94  C69 UNL A   1      43.575  12.631  52.634  1.00  0.00    +0.000 C 
ENDBRANCH   93   94
BRANCH   93   95
ATOM    140  H43 UNL A   1      43.234  10.747  51.428  1.00  0.00    +0.000 H 
ATOM     95  O3  UNL A   1      43.902  11.002  50.774  1.00  0.00    +0.000 O 
ENDBRANCH   93   95
ENDBRANCH   92   93
ENDBRANCH   88   89
ENDBRANCH   87   88
ENDBRANCH    4    3
ENDBRANCH    5    4
ENDBRANCH    7    5
ENDBRANCH    8    7
ENDBRANCH    9    8
ENDBRANCH   10    9
ENDBRANCH   11   10
ENDBRANCH   12   11
ENDBRANCH   13   12
ENDBRANCH   14   13
ENDBRANCH   15   14
ENDBRANCH   17   15
ENDBRANCH   21   20
BRANCH   25   26
ATOM     33  C25 UNL A   1      51.550  17.627  46.030  1.00  0.00    +0.000 C 
ATOM     34  F4  UNL A   1      52.597  17.654  45.194  1.00  0.00    +0.000 F 
ATOM     35  C26 UNL A   1      51.156  16.423  46.612  1.00  0.00    +0.000 C 
ATOM     36  F5  UNL A   1      51.837  15.307  46.310  1.00  0.00    +0.000 F 
ATOM     26  C21 UNL A   1      50.081  16.374  47.512  1.00  0.00    +0.000 C 
ATOM     27  C22 UNL A   1      49.407  17.570  47.797  1.00  0.00    +0.000 C 
ATOM     28  F1  UNL A   1      48.366  17.574  48.643  1.00  0.00    +0.000 F 
ATOM     29  C23 UNL A   1      49.788  18.767  47.196  1.00  0.00    +0.000 C 
ATOM     30  F2  UNL A   1      49.111  19.894  47.461  1.00  0.00    +0.000 F 
ATOM     31  C24 UNL A   1      50.864  18.796  46.320  1.00  0.00    +0.000 C 
ATOM     32  F3  UNL A   1      51.238  19.952  45.754  1.00  0.00    +0.000 F 
ENDBRANCH   25   26
BRANCH   42   43
ATOM     43  C32 UNL A   1      52.034  12.759  53.421  1.00  0.00    +0.000 C 
ATOM     44  C33 UNL A   1      51.660  13.365  54.628  1.00  0.00    +0.000 C 
ATOM     45  F6  UNL A   1      50.430  13.880  54.772  1.00  0.00    +0.000 F 
ATOM     46  C34 UNL A   1      52.561  13.467  55.685  1.00  0.00    +0.000 C 
ATOM     47  F7  UNL A   1      52.194  14.079  56.819  1.00  0.00    +0.000 F 
ATOM     48  C35 UNL A   1      53.840  12.943  55.562  1.00  0.00    +0.000 C 
ATOM     49  F8  UNL A   1      54.702  13.032  56.585  1.00  0.00    +0.000 F 
ATOM     50  C36 UNL A   1      54.226  12.332  54.380  1.00  0.00    +0.000 C 
ATOM     51  F9  UNL A   1      55.458  11.814  54.264  1.00  0.00    +0.000 F 
ATOM     52  C37 UNL A   1      53.337  12.249  53.313  1.00  0.00    +0.000 C 
ATOM     53  F10 UNL A   1      53.739  11.655  52.179  1.00  0.00    +0.000 F 
ENDBRANCH   42   43
BRANCH   57   58
ATOM     65  C45 UNL A   1      45.808   6.693  53.421  1.00  0.00    +0.000 C 
ATOM     66  F14 UNL A   1      44.745   6.720  54.237  1.00  0.00    +0.000 F 
ATOM     67  C46 UNL A   1      46.186   7.843  52.735  1.00  0.00    +0.000 C 
ATOM     68  F15 UNL A   1      45.466   8.962  52.899  1.00  0.00    +0.000 F 
ATOM     58  C41 UNL A   1      47.319   7.852  51.907  1.00  0.00    +0.000 C 
ATOM     59  C42 UNL A   1      48.039   6.659  51.769  1.00  0.00    +0.000 C 
ATOM     60  F11 UNL A   1      49.117   6.615  50.972  1.00  0.00    +0.000 F 
ATOM     61  C43 UNL A   1      47.643   5.501  52.436  1.00  0.00    +0.000 C 
ATOM     62  F12 UNL A   1      48.335   4.365  52.270  1.00  0.00    +0.000 F 
ATOM     63  C44 UNL A   1      46.535   5.521  53.269  1.00  0.00    +0.000 C 
ATOM     64  F13 UNL A   1      46.165   4.412  53.923  1.00  0.00    +0.000 F 
ENDBRANCH   57   58
TORSDOF 22
ENDMDL
MODEL 6
REMARK VINA RESULT:      -8.7     61.640     67.532
ROOT
ATOM     21  C17 UNL A   1      46.439  11.548  47.306  1.00  0.00    +0.000 C 
ATOM     22  C18 UNL A   1      46.644  10.551  48.414  1.00  0.00    +0.000 C 
ATOM     23  N3  UNL A   1      47.494  10.587  49.411  1.00  0.00    +0.000 N 
ATOM     24  C19 UNL A   1      47.264   9.435  50.150  1.00  0.00    +0.000 C 
ATOM     25  C20 UNL A   1      47.911   9.000  51.258  1.00  0.00    +0.000 C 
ATOM     37  C27 UNL A   1      49.004   9.694  51.886  1.00  0.00    +0.000 C 
ATOM     38  C28 UNL A   1      49.728   9.326  53.009  1.00  0.00    +0.000 C 
ATOM     39  C29 UNL A   1      50.675  10.322  53.266  1.00  0.00    +0.000 C 
ATOM     40  C30 UNL A   1      50.571  11.290  52.280  1.00  0.00    +0.000 C 
ATOM     41  N4  UNL A   1      49.537  10.895  51.444  1.00  0.00    +0.000 N 
ATOM     42  C31 UNL A   1      51.353  12.488  52.114  1.00  0.00    +0.000 C 
ATOM     54  C38 UNL A   1      51.209  13.378  51.104  1.00  0.00    +0.000 C 
ATOM     55  N5  UNL A   1      50.312  13.354  50.045  1.00  0.00    +0.000 N 
ATOM     56  C39 UNL A   1      50.544  14.442  49.352  1.00  0.00    +0.000 C 
ATOM     57  C40 UNL A   1      49.873  14.927  48.100  1.00  0.00    +0.000 C 
ATOM     69  C47 UNL A   1      48.839  14.227  47.595  1.00  0.00    +0.000 C 
ATOM     70  C48 UNL A   1      48.090  14.581  46.394  1.00  0.00    +0.000 C 
ATOM     71  C49 UNL A   1      47.115  13.680  46.206  1.00  0.00    +0.000 C 
ATOM     72  C50 UNL A   1      47.210  12.650  47.241  1.00  0.00    +0.000 C 
ATOM     73  N6  UNL A   1      48.241  13.074  48.040  1.00  0.00    +0.000 N 
ATOM     74  C51 UNL A   1      51.613  15.288  49.900  1.00  0.00    +0.000 C 
ATOM     75  C52 UNL A   1      52.004  14.579  50.952  1.00  0.00    +0.000 C 
ATOM     76  C53 UNL A   1      46.177   8.730  49.506  1.00  0.00    +0.000 C 
ATOM     77  C54 UNL A   1      45.786   9.356  48.405  1.00  0.00    +0.000 C 
ATOM    119  H22 UNL A   1      49.591   8.465  53.562  1.00  0.00    +0.000 H 
ATOM    120  H23 UNL A   1      51.338  10.335  54.056  1.00  0.00    +0.000 H 
ATOM    121  H24 UNL A   1      49.228  11.393  50.654  1.00  0.00    +0.000 H 
ATOM    122  H25 UNL A   1      48.279  15.395  45.788  1.00  0.00    +0.000 H 
ATOM    123  H26 UNL A   1      46.412  13.708  45.451  1.00  0.00    +0.000 H 
ATOM    124  H27 UNL A   1      48.524  12.599  48.855  1.00  0.00    +0.000 H 
ATOM    125  H28 UNL A   1      51.967  16.195  49.558  1.00  0.00    +0.000 H 
ATOM    126  H29 UNL A   1      52.777  14.849  51.580  1.00  0.00    +0.000 H 
ATOM    127  H30 UNL A   1      45.761   7.853  49.857  1.00  0.00    +0.000 H 
ATOM    128  H31 UNL A   1      45.066   9.078  47.719  1.00  0.00    +0.000 H 
ENDROOT
BRANCH   21   20
ATOM    129  H32 UNL A   1      43.867  12.412  47.121  1.00  0.00    +0.000 H 
ATOM    130  H33 UNL A   1      42.211  11.821  45.445  1.00  0.00    +0.000 H 
ATOM     78  C55 UNL A   1      44.129  11.803  46.332  1.00  0.00    +0.000 C 
ATOM     79  C56 UNL A   1      43.181  11.478  45.357  1.00  0.00    +0.000 C 
ATOM     17  C13 UNL A   1      43.550  10.689  44.264  1.00  0.00    +0.000 C 
ATOM     18  C14 UNL A   1      44.879  10.292  44.102  1.00  0.00    +0.000 C 
ATOM     19  C15 UNL A   1      45.802  10.550  45.109  1.00  0.00    +0.000 C 
ATOM     20  C16 UNL A   1      45.437  11.302  46.239  1.00  0.00    +0.000 C 
ATOM    117  H20 UNL A   1      45.174   9.811  43.239  1.00  0.00    +0.000 H 
ATOM    118  H21 UNL A   1      46.765  10.186  45.027  1.00  0.00    +0.000 H 
BRANCH   17   15
ATOM     15  C12 UNL A   1      42.513  10.264  43.299  1.00  0.00    +0.000 C 
ATOM     16  O2  UNL A   1      41.964   9.176  43.431  1.00  0.00    +0.000 O 
BRANCH   15   14
ATOM    116  H19 UNL A   1      42.701  10.919  41.412  1.00  0.00    +0.000 H 
ATOM     14  N2  UNL A   1      42.194  11.083  42.241  1.00  0.00    +0.000 N 
BRANCH   14   13
ATOM    114  H17 UNL A   1      40.238  11.737  42.296  1.00  0.00    +0.000 H 
ATOM    115  H18 UNL A   1      41.444  12.855  42.950  1.00  0.00    +0.000 H 
ATOM     13  C11 UNL A   1      41.214  12.156  42.173  1.00  0.00    +0.000 C 
BRANCH   13   12
ATOM    113  H16 UNL A   1      40.260  12.905  40.465  1.00  0.00    +0.000 H 
ATOM     12  C10 UNL A   1      41.260  12.907  40.848  1.00  0.00    +0.000 C 
ATOM    112  H15 UNL A   1      41.957  12.409  40.207  1.00  0.00    +0.000 H 
BRANCH   12   11
ATOM     11  C9  UNL A   1      41.677  14.374  40.957  1.00  0.00    +0.000 C 
ATOM    110  H13 UNL A   1      40.787  14.966  41.031  1.00  0.00    +0.000 H 
ATOM    111  H14 UNL A   1      42.306  14.439  41.820  1.00  0.00    +0.000 H 
BRANCH   11   10
ATOM     10  C8  UNL A   1      42.507  14.909  39.785  1.00  0.00    +0.000 C 
ATOM    108  H11 UNL A   1      43.410  14.338  39.733  1.00  0.00    +0.000 H 
ATOM    109  H12 UNL A   1      41.887  14.816  38.919  1.00  0.00    +0.000 H 
BRANCH   10    9
ATOM      9  C7  UNL A   1      42.892  16.393  39.870  1.00  0.00    +0.000 C 
ATOM    106  H9  UNL A   1      42.610  16.867  38.953  1.00  0.00    +0.000 H 
ATOM    107  H10 UNL A   1      42.378  16.796  40.719  1.00  0.00    +0.000 H 
BRANCH    9    8
ATOM    105  H8  UNL A   1      44.804  17.019  39.192  1.00  0.00    +0.000 H 
ATOM    104  H7  UNL A   1      44.849  15.723  40.386  1.00  0.00    +0.000 H 
ATOM      8  C6  UNL A   1      44.383  16.642  40.101  1.00  0.00    +0.000 C 
BRANCH    8    7
ATOM    103  H6  UNL A   1      43.812  18.136  41.420  1.00  0.00    +0.000 H 
ATOM      7  N1  UNL A   1      44.604  17.624  41.142  1.00  0.00    +0.000 N 
BRANCH    7    5
ATOM      5  C5  UNL A   1      45.765  17.933  41.787  1.00  0.00    +0.000 C 
ATOM      6  O1  UNL A   1      46.329  18.990  41.495  1.00  0.00    +0.000 O 
BRANCH    5    4
ATOM      4  C4  UNL A   1      46.375  16.960  42.793  1.00  0.00    +0.000 C 
ATOM    101  H4  UNL A   1      46.386  15.985  42.352  1.00  0.00    +0.000 H 
ATOM    102  H5  UNL A   1      47.353  17.329  43.018  1.00  0.00    +0.000 H 
BRANCH    4    3
ATOM      2  C2  UNL A   1      44.871  15.872  44.580  1.00  0.00    +0.000 C 
ATOM      3  C3  UNL A   1      45.644  16.873  44.095  1.00  0.00    +0.000 C 
ATOM    131  H34 UNL A   1      46.959  19.414  44.290  1.00  0.00    +0.000 H 
ATOM    133  H36 UNL A   1      44.477  18.008  48.252  1.00  0.00    +0.000 H 
ATOM    132  H35 UNL A   1      45.652  20.142  48.227  1.00  0.00    +0.000 H 
ATOM     80  C57 UNL A   1      45.722  17.921  45.129  1.00  0.00    +0.000 C 
ATOM     81  C58 UNL A   1      46.418  19.124  45.118  1.00  0.00    +0.000 C 
ATOM     82  C59 UNL A   1      46.364  19.927  46.253  1.00  0.00    +0.000 C 
ATOM     83  F16 UNL A   1      47.013  21.099  46.261  1.00  0.00    +0.000 F 
ATOM     84  C60 UNL A   1      45.664  19.534  47.392  1.00  0.00    +0.000 C 
ATOM     85  C61 UNL A   1      44.978  18.319  47.405  1.00  0.00    +0.000 C 
ATOM     86  C62 UNL A   1      44.979  17.533  46.260  1.00  0.00    +0.000 C 
ATOM     87  C63 UNL A   1      44.350  16.246  45.906  1.00  0.00    +0.000 C 
BRANCH    2    1
ATOM      1  C1  UNL A   1      44.562  14.556  43.943  1.00  0.00    +0.000 C 
ATOM     98  H1  UNL A   1      45.261  13.822  44.286  1.00  0.00    +0.000 H 
ATOM     99  H2  UNL A   1      44.636  14.649  42.880  1.00  0.00    +0.000 H 
ATOM    100  H3  UNL A   1      43.570  14.256  44.208  1.00  0.00    +0.000 H 
ENDBRANCH    2    1
BRANCH   87   88
ATOM    134  H37 UNL A   1      42.502  15.417  46.157  1.00  0.00    +0.000 H 
ATOM     88  C64 UNL A   1      43.431  15.533  46.590  1.00  0.00    +0.000 C 
BRANCH   88   89
ATOM     97  C71 UNL A   1      42.666  14.064  48.421  1.00  0.00    +0.000 C 
ATOM    135  H38 UNL A   1      45.552  15.753  48.246  1.00  0.00    +0.000 H 
ATOM    136  H39 UNL A   1      46.056  14.354  50.164  1.00  0.00    +0.000 H 
ATOM    141  H44 UNL A   1      42.220  12.656  49.926  1.00  0.00    +0.000 H 
ATOM    142  H45 UNL A   1      41.738  14.011  47.973  1.00  0.00    +0.000 H 
ATOM     89  C65 UNL A   1      43.645  14.913  47.899  1.00  0.00    +0.000 C 
ATOM     90  C66 UNL A   1      44.862  15.060  48.573  1.00  0.00    +0.000 C 
ATOM     91  C67 UNL A   1      45.142  14.267  49.692  1.00  0.00    +0.000 C 
ATOM     92  C68 UNL A   1      44.195  13.358  50.175  1.00  0.00    +0.000 C 
ATOM     96  C70 UNL A   1      42.944  13.288  49.549  1.00  0.00    +0.000 C 
BRANCH   92   93
ATOM     93  S1  UNL A   1      44.672  12.137  51.428  1.00  0.00    +0.000 S 
BRANCH   93   94
ATOM    137  H40 UNL A   1      46.330  13.842  51.692  1.00  0.00    +0.000 H 
ATOM    138  H41 UNL A   1      47.044  12.330  51.185  1.00  0.00    +0.000 H 
ATOM    139  H42 UNL A   1      46.553  12.550  52.847  1.00  0.00    +0.000 H 
ATOM     94  C69 UNL A   1      46.318  12.780  51.829  1.00  0.00    +0.000 C 
ENDBRANCH   93   94
BRANCH   93   95
ATOM    140  H43 UNL A   1      44.339  13.797  52.734  1.00  0.00    +0.000 H 
ATOM     95  O3  UNL A   1      43.968  12.904  52.655  1.00  0.00    +0.000 O 
ENDBRANCH   93   95
ENDBRANCH   92   93
ENDBRANCH   88   89
ENDBRANCH   87   88
ENDBRANCH    4    3
ENDBRANCH    5    4
ENDBRANCH    7    5
ENDBRANCH    8    7
ENDBRANCH    9    8
ENDBRANCH   10    9
ENDBRANCH   11   10
ENDBRANCH   12   11
ENDBRANCH   13   12
ENDBRANCH   14   13
ENDBRANCH   15   14
ENDBRANCH   17   15
ENDBRANCH   21   20
BRANCH   25   26
ATOM     33  C25 UNL A   1      47.668   5.295  52.094  1.00  0.00    +0.000 C 
ATOM     34  F4  UNL A   1      48.315   4.160  51.795  1.00  0.00    +0.000 F 
ATOM     35  C26 UNL A   1      48.132   6.512  51.597  1.00  0.00    +0.000 C 
ATOM     36  F5  UNL A   1      49.232   6.518  50.829  1.00  0.00    +0.000 F 
ATOM     26  C21 UNL A   1      47.455   7.709  51.873  1.00  0.00    +0.000 C 
ATOM     27  C22 UNL A   1      46.307   7.646  52.676  1.00  0.00    +0.000 C 
ATOM     28  F1  UNL A   1      45.632   8.765  52.978  1.00  0.00    +0.000 F 
ATOM     29  C23 UNL A   1      45.860   6.432  53.191  1.00  0.00    +0.000 C 
ATOM     30  F2  UNL A   1      44.777   6.399  53.980  1.00  0.00    +0.000 F 
ATOM     31  C24 UNL A   1      46.535   5.257  52.893  1.00  0.00    +0.000 C 
ATOM     32  F3  UNL A   1      46.095   4.087  53.377  1.00  0.00    +0.000 F 
ENDBRANCH   25   26
BRANCH   42   43
ATOM     43  C32 UNL A   1      52.419  12.766  53.131  1.00  0.00    +0.000 C 
ATOM     44  C33 UNL A   1      53.728  12.294  52.962  1.00  0.00    +0.000 C 
ATOM     45  F6  UNL A   1      54.036  11.517  51.913  1.00  0.00    +0.000 F 
ATOM     46  C34 UNL A   1      54.721  12.599  53.889  1.00  0.00    +0.000 C 
ATOM     47  F7  UNL A   1      55.958  12.110  53.727  1.00  0.00    +0.000 F 
ATOM     48  C35 UNL A   1      54.430  13.401  54.983  1.00  0.00    +0.000 C 
ATOM     49  F8  UNL A   1      55.391  13.703  55.868  1.00  0.00    +0.000 F 
ATOM     50  C36 UNL A   1      53.144  13.885  55.163  1.00  0.00    +0.000 C 
ATOM     51  F9  UNL A   1      52.864  14.670  56.213  1.00  0.00    +0.000 F 
ATOM     52  C37 UNL A   1      52.143  13.564  54.251  1.00  0.00    +0.000 C 
ATOM     53  F10 UNL A   1      50.906  14.043  54.452  1.00  0.00    +0.000 F 
ENDBRANCH   42   43
BRANCH   57   58
ATOM     65  C45 UNL A   1      50.080  18.519  46.890  1.00  0.00    +0.000 C 
ATOM     66  F14 UNL A   1      49.420  19.673  47.059  1.00  0.00    +0.000 F 
ATOM     67  C46 UNL A   1      49.686  17.385  47.594  1.00  0.00    +0.000 C 
ATOM     68  F15 UNL A   1      48.649  17.475  48.440  1.00  0.00    +0.000 F 
ATOM     58  C41 UNL A   1      50.333  16.155  47.406  1.00  0.00    +0.000 C 
ATOM     59  C42 UNL A   1      51.409  16.112  46.510  1.00  0.00    +0.000 C 
ATOM     60  F11 UNL A   1      52.072  14.962  46.313  1.00  0.00    +0.000 F 
ATOM     61  C43 UNL A   1      51.820  17.255  45.826  1.00  0.00    +0.000 C 
ATOM     62  F12 UNL A   1      52.867  17.193  44.992  1.00  0.00    +0.000 F 
ATOM     63  C44 UNL A   1      51.149  18.454  46.009  1.00  0.00    +0.000 C 
ATOM     64  F13 UNL A   1      51.534  19.549  45.339  1.00  0.00    +0.000 F 
ENDBRANCH   57   58
TORSDOF 22
ENDMDL
MODEL 7
REMARK VINA RESULT:      -8.7     42.905     46.451
ROOT
ATOM     21  C17 UNL A   1      26.067  35.486  45.637  1.00  0.00    +0.000 C 
ATOM     22  C18 UNL A   1      25.903  36.575  46.662  1.00  0.00    +0.000 C 
ATOM     23  N3  UNL A   1      26.726  37.546  46.973  1.00  0.00    +0.000 N 
ATOM     24  C19 UNL A   1      26.092  38.278  47.968  1.00  0.00    +0.000 C 
ATOM     25  C20 UNL A   1      26.551  39.362  48.640  1.00  0.00    +0.000 C 
ATOM     37  C27 UNL A   1      27.840  39.965  48.427  1.00  0.00    +0.000 C 
ATOM     38  C28 UNL A   1      28.396  41.062  49.066  1.00  0.00    +0.000 C 
ATOM     39  C29 UNL A   1      29.656  41.302  48.510  1.00  0.00    +0.000 C 
ATOM     40  C30 UNL A   1      29.904  40.330  47.554  1.00  0.00    +0.000 C 
ATOM     41  N4  UNL A   1      28.779  39.522  47.508  1.00  0.00    +0.000 N 
ATOM     42  C31 UNL A   1      31.079  40.156  46.739  1.00  0.00    +0.000 C 
ATOM     54  C38 UNL A   1      31.260  39.161  45.838  1.00  0.00    +0.000 C 
ATOM     55  N5  UNL A   1      30.397  38.129  45.497  1.00  0.00    +0.000 N 
ATOM     56  C39 UNL A   1      31.009  37.442  44.564  1.00  0.00    +0.000 C 
ATOM     57  C40 UNL A   1      30.544  36.217  43.832  1.00  0.00    +0.000 C 
ATOM     69  C47 UNL A   1      29.310  35.734  44.076  1.00  0.00    +0.000 C 
ATOM     70  C48 UNL A   1      28.724  34.560  43.438  1.00  0.00    +0.000 C 
ATOM     71  C49 UNL A   1      27.476  34.390  43.898  1.00  0.00    +0.000 C 
ATOM     72  C50 UNL A   1      27.197  35.410  44.909  1.00  0.00    +0.000 C 
ATOM     73  N6  UNL A   1      28.329  36.183  44.926  1.00  0.00    +0.000 N 
ATOM     74  C51 UNL A   1      32.332  37.968  44.198  1.00  0.00    +0.000 C 
ATOM     75  C52 UNL A   1      32.448  38.999  45.026  1.00  0.00    +0.000 C 
ATOM     76  C53 UNL A   1      24.804  37.659  48.193  1.00  0.00    +0.000 C 
ATOM     77  C54 UNL A   1      24.655  36.577  47.442  1.00  0.00    +0.000 C 
ATOM    119  H22 UNL A   1      27.954  41.608  49.823  1.00  0.00    +0.000 H 
ATOM    120  H23 UNL A   1      30.292  42.071  48.768  1.00  0.00    +0.000 H 
ATOM    121  H24 UNL A   1      28.664  38.746  46.912  1.00  0.00    +0.000 H 
ATOM    122  H25 UNL A   1      29.194  33.958  42.744  1.00  0.00    +0.000 H 
ATOM    123  H26 UNL A   1      26.818  33.658  43.588  1.00  0.00    +0.000 H 
ATOM    124  H27 UNL A   1      28.430  36.983  45.491  1.00  0.00    +0.000 H 
ATOM    125  H28 UNL A   1      32.995  37.626  43.486  1.00  0.00    +0.000 H 
ATOM    126  H29 UNL A   1      33.280  39.607  45.083  1.00  0.00    +0.000 H 
ATOM    127  H30 UNL A   1      24.095  38.013  48.854  1.00  0.00    +0.000 H 
ATOM    128  H31 UNL A   1      23.868  35.910  47.410  1.00  0.00    +0.000 H 
ENDROOT
BRANCH   21   20
ATOM    129  H32 UNL A   1      25.704  33.155  46.992  1.00  0.00    +0.000 H 
ATOM    130  H33 UNL A   1      24.089  31.399  46.534  1.00  0.00    +0.000 H 
ATOM     78  C55 UNL A   1      25.013  33.276  46.236  1.00  0.00    +0.000 C 
ATOM     79  C56 UNL A   1      24.072  32.272  45.985  1.00  0.00    +0.000 C 
ATOM     17  C13 UNL A   1      23.109  32.456  44.988  1.00  0.00    +0.000 C 
ATOM     18  C14 UNL A   1      23.035  33.669  44.300  1.00  0.00    +0.000 C 
ATOM     19  C15 UNL A   1      24.017  34.634  44.495  1.00  0.00    +0.000 C 
ATOM     20  C16 UNL A   1      25.021  34.446  45.461  1.00  0.00    +0.000 C 
ATOM    117  H20 UNL A   1      22.255  33.848  43.649  1.00  0.00    +0.000 H 
ATOM    118  H21 UNL A   1      24.009  35.496  43.927  1.00  0.00    +0.000 H 
BRANCH   17   15
ATOM     15  C12 UNL A   1      22.190  31.345  44.661  1.00  0.00    +0.000 C 
ATOM     16  O2  UNL A   1      22.638  30.226  44.440  1.00  0.00    +0.000 O 
BRANCH   15   14
ATOM    116  H19 UNL A   1      20.511  31.854  43.688  1.00  0.00    +0.000 H 
ATOM     14  N2  UNL A   1      20.838  31.585  44.577  1.00  0.00    +0.000 N 
BRANCH   14   13
ATOM    114  H17 UNL A   1      18.900  31.197  45.169  1.00  0.00    +0.000 H 
ATOM    115  H18 UNL A   1      20.162  30.783  46.338  1.00  0.00    +0.000 H 
ATOM     13  C11 UNL A   1      19.824  31.496  45.616  1.00  0.00    +0.000 C 
BRANCH   13   12
ATOM    113  H16 UNL A   1      18.592  32.826  46.667  1.00  0.00    +0.000 H 
ATOM     12  C10 UNL A   1      19.611  32.821  46.340  1.00  0.00    +0.000 C 
ATOM    112  H15 UNL A   1      19.838  33.613  45.657  1.00  0.00    +0.000 H 
BRANCH   12   11
ATOM     11  C9  UNL A   1      20.467  33.010  47.592  1.00  0.00    +0.000 C 
ATOM    110  H13 UNL A   1      19.809  33.089  48.434  1.00  0.00    +0.000 H 
ATOM    111  H14 UNL A   1      21.118  32.163  47.637  1.00  0.00    +0.000 H 
BRANCH   11   10
ATOM     10  C8  UNL A   1      21.377  34.244  47.585  1.00  0.00    +0.000 C 
ATOM    108  H11 UNL A   1      22.156  34.075  46.871  1.00  0.00    +0.000 H 
ATOM    109  H12 UNL A   1      20.745  35.073  47.346  1.00  0.00    +0.000 H 
BRANCH   10    9
ATOM      9  C7  UNL A   1      22.034  34.589  48.929  1.00  0.00    +0.000 C 
ATOM    106  H9  UNL A   1      22.652  33.766  49.222  1.00  0.00    +0.000 H 
ATOM    107  H10 UNL A   1      22.592  35.490  48.776  1.00  0.00    +0.000 H 
BRANCH    9    8
ATOM    105  H8  UNL A   1      21.545  35.443  50.810  1.00  0.00    +0.000 H 
ATOM    104  H7  UNL A   1      20.692  33.942  50.454  1.00  0.00    +0.000 H 
ATOM      8  C6  UNL A   1      21.042  34.872  50.058  1.00  0.00    +0.000 C 
BRANCH    8    7
ATOM    103  H6  UNL A   1      19.158  35.116  49.229  1.00  0.00    +0.000 H 
ATOM      7  N1  UNL A   1      19.908  35.639  49.590  1.00  0.00    +0.000 N 
BRANCH    7    5
ATOM      5  C5  UNL A   1      19.742  36.993  49.582  1.00  0.00    +0.000 C 
ATOM      6  O1  UNL A   1      19.767  37.588  50.662  1.00  0.00    +0.000 O 
BRANCH    5    4
ATOM      4  C4  UNL A   1      19.470  37.733  48.275  1.00  0.00    +0.000 C 
ATOM    101  H4  UNL A   1      19.187  38.738  48.512  1.00  0.00    +0.000 H 
ATOM    102  H5  UNL A   1      20.370  37.676  47.700  1.00  0.00    +0.000 H 
BRANCH    4    3
ATOM      2  C2  UNL A   1      18.468  36.594  46.192  1.00  0.00    +0.000 C 
ATOM      3  C3  UNL A   1      18.390  37.132  47.433  1.00  0.00    +0.000 C 
ATOM    131  H34 UNL A   1      16.991  37.820  49.841  1.00  0.00    +0.000 H 
ATOM    133  H36 UNL A   1      14.362  35.466  46.466  1.00  0.00    +0.000 H 
ATOM    132  H35 UNL A   1      13.342  36.140  48.574  1.00  0.00    +0.000 H 
ATOM     80  C57 UNL A   1      17.000  36.978  47.903  1.00  0.00    +0.000 C 
ATOM     81  C58 UNL A   1      16.433  37.340  49.118  1.00  0.00    +0.000 C 
ATOM     82  C59 UNL A   1      15.091  37.040  49.335  1.00  0.00    +0.000 C 
ATOM     83  F16 UNL A   1      14.517  37.394  50.492  1.00  0.00    +0.000 F 
ATOM     84  C60 UNL A   1      14.332  36.364  48.382  1.00  0.00    +0.000 C 
ATOM     85  C61 UNL A   1      14.909  35.989  47.168  1.00  0.00    +0.000 C 
ATOM     86  C62 UNL A   1      16.232  36.330  46.917  1.00  0.00    +0.000 C 
ATOM     87  C63 UNL A   1      17.134  36.139  45.765  1.00  0.00    +0.000 C 
BRANCH    2    1
ATOM      1  C1  UNL A   1      19.679  36.433  45.333  1.00  0.00    +0.000 C 
ATOM     98  H1  UNL A   1      19.597  35.527  44.769  1.00  0.00    +0.000 H 
ATOM     99  H2  UNL A   1      20.551  36.389  45.952  1.00  0.00    +0.000 H 
ATOM    100  H3  UNL A   1      19.756  37.265  44.665  1.00  0.00    +0.000 H 
ENDBRANCH    2    1
BRANCH   87   88
ATOM    134  H37 UNL A   1      16.789  36.397  43.770  1.00  0.00    +0.000 H 
ATOM     88  C64 UNL A   1      16.843  35.695  44.524  1.00  0.00    +0.000 C 
BRANCH   88   89
ATOM     97  C71 UNL A   1      17.549  33.612  43.404  1.00  0.00    +0.000 C 
ATOM    135  H38 UNL A   1      14.736  34.125  45.147  1.00  0.00    +0.000 H 
ATOM    136  H39 UNL A   1      14.599  31.712  44.922  1.00  0.00    +0.000 H 
ATOM    141  H44 UNL A   1      18.157  31.724  42.687  1.00  0.00    +0.000 H 
ATOM    142  H45 UNL A   1      18.326  34.127  42.962  1.00  0.00    +0.000 H 
ATOM     89  C65 UNL A   1      16.597  34.298  44.162  1.00  0.00    +0.000 C 
ATOM     90  C66 UNL A   1      15.489  33.609  44.666  1.00  0.00    +0.000 C 
ATOM     91  C67 UNL A   1      15.401  32.221  44.517  1.00  0.00    +0.000 C 
ATOM     92  C68 UNL A   1      16.391  31.515  43.824  1.00  0.00    +0.000 C 
ATOM     96  C70 UNL A   1      17.446  32.227  43.241  1.00  0.00    +0.000 C 
BRANCH   92   93
ATOM     93  S1  UNL A   1      16.423  29.704  43.891  1.00  0.00    +0.000 S 
BRANCH   93   94
ATOM    137  H40 UNL A   1      15.009  28.760  42.207  1.00  0.00    +0.000 H 
ATOM    138  H41 UNL A   1      16.674  28.819  41.683  1.00  0.00    +0.000 H 
ATOM    139  H42 UNL A   1      15.706  30.273  41.681  1.00  0.00    +0.000 H 
ATOM     94  C69 UNL A   1      15.899  29.354  42.192  1.00  0.00    +0.000 C 
ENDBRANCH   93   94
BRANCH   93   95
ATOM    140  H43 UNL A   1      18.235  30.261  42.902  1.00  0.00    +0.000 H 
ATOM     95  O3  UNL A   1      17.988  29.571  43.538  1.00  0.00    +0.000 O 
ENDBRANCH   93   95
ENDBRANCH   92   93
ENDBRANCH   88   89
ENDBRANCH   87   88
ENDBRANCH    4    3
ENDBRANCH    5    4
ENDBRANCH    7    5
ENDBRANCH    8    7
ENDBRANCH    9    8
ENDBRANCH   10    9
ENDBRANCH   11   10
ENDBRANCH   12   11
ENDBRANCH   13   12
ENDBRANCH   14   13
ENDBRANCH   15   14
ENDBRANCH   17   15
ENDBRANCH   21   20
BRANCH   25   26
ATOM     33  C25 UNL A   1      24.778  40.007  51.945  1.00  0.00    +0.000 C 
ATOM     34  F4  UNL A   1      24.788  39.522  53.194  1.00  0.00    +0.000 F 
ATOM     35  C26 UNL A   1      25.665  39.504  50.996  1.00  0.00    +0.000 C 
ATOM     36  F5  UNL A   1      26.524  38.541  51.364  1.00  0.00    +0.000 F 
ATOM     26  C21 UNL A   1      25.653  39.975  49.674  1.00  0.00    +0.000 C 
ATOM     27  C22 UNL A   1      24.731  40.977  49.342  1.00  0.00    +0.000 C 
ATOM     28  F1  UNL A   1      24.689  41.469  48.095  1.00  0.00    +0.000 F 
ATOM     29  C23 UNL A   1      23.862  41.495  50.299  1.00  0.00    +0.000 C 
ATOM     30  F2  UNL A   1      23.008  42.474  49.966  1.00  0.00    +0.000 F 
ATOM     31  C24 UNL A   1      23.879  41.004  51.596  1.00  0.00    +0.000 C 
ATOM     32  F3  UNL A   1      23.032  41.494  52.512  1.00  0.00    +0.000 F 
ENDBRANCH   25   26
BRANCH   42   43
ATOM     43  C32 UNL A   1      32.194  41.143  46.908  1.00  0.00    +0.000 C 
ATOM     44  C33 UNL A   1      32.098  42.446  46.400  1.00  0.00    +0.000 C 
ATOM     45  F6  UNL A   1      31.025  42.814  45.684  1.00  0.00    +0.000 F 
ATOM     46  C34 UNL A   1      33.120  43.368  46.605  1.00  0.00    +0.000 C 
ATOM     47  F7  UNL A   1      33.023  44.599  46.082  1.00  0.00    +0.000 F 
ATOM     48  C35 UNL A   1      34.241  43.014  47.342  1.00  0.00    +0.000 C 
ATOM     49  F8  UNL A   1      35.219  43.908  47.548  1.00  0.00    +0.000 F 
ATOM     50  C36 UNL A   1      34.351  41.734  47.861  1.00  0.00    +0.000 C 
ATOM     51  F9  UNL A   1      35.428  41.393  48.583  1.00  0.00    +0.000 F 
ATOM     52  C37 UNL A   1      33.342  40.801  47.639  1.00  0.00    +0.000 C 
ATOM     53  F10 UNL A   1      33.476  39.568  48.150  1.00  0.00    +0.000 F 
ENDBRANCH   42   43
BRANCH   57   58
ATOM     65  C45 UNL A   1      32.227  35.210  40.582  1.00  0.00    +0.000 C 
ATOM     66  F14 UNL A   1      32.211  35.571  39.291  1.00  0.00    +0.000 F 
ATOM     67  C46 UNL A   1      31.453  35.905  41.506  1.00  0.00    +0.000 C 
ATOM     68  F15 UNL A   1      30.709  36.938  41.083  1.00  0.00    +0.000 F 
ATOM     58  C41 UNL A   1      31.420  35.523  42.856  1.00  0.00    +0.000 C 
ATOM     59  C42 UNL A   1      32.213  34.437  43.248  1.00  0.00    +0.000 C 
ATOM     60  F11 UNL A   1      32.229  34.048  44.532  1.00  0.00    +0.000 F 
ATOM     61  C43 UNL A   1      33.008  33.759  42.326  1.00  0.00    +0.000 C 
ATOM     62  F12 UNL A   1      33.776  32.738  42.731  1.00  0.00    +0.000 F 
ATOM     63  C44 UNL A   1      33.006  34.139  40.992  1.00  0.00    +0.000 C 
ATOM     64  F13 UNL A   1      33.758  33.475  40.104  1.00  0.00    +0.000 F 
ENDBRANCH   57   58
TORSDOF 22
ENDMDL
MODEL 8
REMARK VINA RESULT:      -8.6     24.638     30.521
ROOT
ATOM     21  C17 UNL A   1      15.419  21.772   5.678  1.00  0.00    +0.000 C 
ATOM     22  C18 UNL A   1      15.479  20.567   6.577  1.00  0.00    +0.000 C 
ATOM     23  N3  UNL A   1      16.477  19.744   6.790  1.00  0.00    +0.000 N 
ATOM     24  C19 UNL A   1      16.015  18.817   7.714  1.00  0.00    +0.000 C 
ATOM     25  C20 UNL A   1      16.664  17.744   8.229  1.00  0.00    +0.000 C 
ATOM     37  C27 UNL A   1      18.009  17.365   7.885  1.00  0.00    +0.000 C 
ATOM     38  C28 UNL A   1      18.748  16.289   8.350  1.00  0.00    +0.000 C 
ATOM     39  C29 UNL A   1      20.014  16.338   7.759  1.00  0.00    +0.000 C 
ATOM     40  C30 UNL A   1      20.052  17.420   6.894  1.00  0.00    +0.000 C 
ATOM     41  N4  UNL A   1      18.817  18.045   6.987  1.00  0.00    +0.000 N 
ATOM     42  C31 UNL A   1      21.134  17.854   6.048  1.00  0.00    +0.000 C 
ATOM     54  C38 UNL A   1      21.087  18.912   5.205  1.00  0.00    +0.000 C 
ATOM     55  N5  UNL A   1      20.040  19.792   4.972  1.00  0.00    +0.000 N 
ATOM     56  C39 UNL A   1      20.485  20.657   4.094  1.00  0.00    +0.000 C 
ATOM     57  C40 UNL A   1      19.777  21.828   3.476  1.00  0.00    +0.000 C 
ATOM     69  C47 UNL A   1      18.526  22.126   3.877  1.00  0.00    +0.000 C 
ATOM     70  C48 UNL A   1      17.722  23.234   3.372  1.00  0.00    +0.000 C 
ATOM     71  C49 UNL A   1      16.544  23.247   4.014  1.00  0.00    +0.000 C 
ATOM     72  C50 UNL A   1      16.489  22.111   4.933  1.00  0.00    +0.000 C 
ATOM     73  N6  UNL A   1      17.721  21.520   4.809  1.00  0.00    +0.000 N 
ATOM     74  C51 UNL A   1      21.875  20.429   3.676  1.00  0.00    +0.000 C 
ATOM     75  C52 UNL A   1      22.185  19.335   4.361  1.00  0.00    +0.000 C 
ATOM     76  C53 UNL A   1      14.657  19.190   8.044  1.00  0.00    +0.000 C 
ATOM     77  C54 UNL A   1      14.263  20.239   7.338  1.00  0.00    +0.000 C 
ATOM    119  H22 UNL A   1      18.419  15.574   9.018  1.00  0.00    +0.000 H 
ATOM    120  H23 UNL A   1      20.789  15.681   7.937  1.00  0.00    +0.000 H 
ATOM    121  H24 UNL A   1      18.554  18.852   6.487  1.00  0.00    +0.000 H 
ATOM    122  H25 UNL A   1      18.013  23.900   2.639  1.00  0.00    +0.000 H 
ATOM    123  H26 UNL A   1      15.798  23.946   3.879  1.00  0.00    +0.000 H 
ATOM    124  H27 UNL A   1      18.001  20.738   5.338  1.00  0.00    +0.000 H 
ATOM    125  H28 UNL A   1      22.457  20.975   3.021  1.00  0.00    +0.000 H 
ATOM    126  H29 UNL A   1      23.093  18.849   4.299  1.00  0.00    +0.000 H 
ATOM    127  H30 UNL A   1      14.071  18.700   8.739  1.00  0.00    +0.000 H 
ATOM    128  H31 UNL A   1      13.343  20.706   7.324  1.00  0.00    +0.000 H 
ENDROOT
BRANCH   21   20
ATOM    129  H32 UNL A   1      13.372  21.481   3.911  1.00  0.00    +0.000 H 
ATOM    130  H33 UNL A   1      11.437  22.921   3.619  1.00  0.00    +0.000 H 
ATOM     78  C55 UNL A   1      13.231  22.287   4.539  1.00  0.00    +0.000 C 
ATOM     79  C56 UNL A   1      12.108  23.104   4.382  1.00  0.00    +0.000 C 
ATOM     17  C13 UNL A   1      11.895  24.170   5.262  1.00  0.00    +0.000 C 
ATOM     18  C14 UNL A   1      12.757  24.370   6.342  1.00  0.00    +0.000 C 
ATOM     19  C15 UNL A   1      13.914  23.606   6.451  1.00  0.00    +0.000 C 
ATOM     20  C16 UNL A   1      14.168  22.560   5.547  1.00  0.00    +0.000 C 
ATOM    117  H20 UNL A   1      12.537  25.081   7.056  1.00  0.00    +0.000 H 
ATOM    118  H21 UNL A   1      14.593  23.808   7.203  1.00  0.00    +0.000 H 
BRANCH   17   15
ATOM     15  C12 UNL A   1      10.762  25.089   5.020  1.00  0.00    +0.000 C 
ATOM     16  O2  UNL A   1       9.674  24.868   5.540  1.00  0.00    +0.000 O 
BRANCH   15   14
ATOM    116  H19 UNL A   1      11.012  27.043   4.638  1.00  0.00    +0.000 H 
ATOM     14  N2  UNL A   1      10.931  26.171   4.188  1.00  0.00    +0.000 N 
BRANCH   14   13
ATOM    114  H17 UNL A   1      11.889  25.685   2.425  1.00  0.00    +0.000 H 
ATOM    115  H18 UNL A   1      10.122  25.747   2.352  1.00  0.00    +0.000 H 
ATOM     13  C11 UNL A   1      11.009  26.207   2.735  1.00  0.00    +0.000 C 
BRANCH   13   12
ATOM    113  H16 UNL A   1      10.278  27.707   1.469  1.00  0.00    +0.000 H 
ATOM     12  C10 UNL A   1      11.066  27.628   2.188  1.00  0.00    +0.000 C 
ATOM    112  H15 UNL A   1      12.038  27.784   1.767  1.00  0.00    +0.000 H 
BRANCH   12   11
ATOM     11  C9  UNL A   1      10.815  28.724   3.225  1.00  0.00    +0.000 C 
ATOM    110  H13 UNL A   1       9.766  28.938   3.232  1.00  0.00    +0.000 H 
ATOM    111  H14 UNL A   1      11.179  28.340   4.155  1.00  0.00    +0.000 H 
BRANCH   11   10
ATOM     10  C8  UNL A   1      11.567  30.039   2.986  1.00  0.00    +0.000 C 
ATOM    108  H11 UNL A   1      11.088  30.801   3.564  1.00  0.00    +0.000 H 
ATOM    109  H12 UNL A   1      12.581  29.853   3.271  1.00  0.00    +0.000 H 
BRANCH   10    9
ATOM      9  C7  UNL A   1      11.619  30.514   1.527  1.00  0.00    +0.000 C 
ATOM    106  H9  UNL A   1      12.446  31.185   1.422  1.00  0.00    +0.000 H 
ATOM    107  H10 UNL A   1      11.719  29.637   0.921  1.00  0.00    +0.000 H 
BRANCH    9    8
ATOM    105  H8  UNL A   1       9.641  31.214   1.854  1.00  0.00    +0.000 H 
ATOM    104  H7  UNL A   1       9.973  30.736   0.191  1.00  0.00    +0.000 H 
ATOM      8  C6  UNL A   1      10.354  31.233   1.057  1.00  0.00    +0.000 C 
BRANCH    8    7
ATOM    103  H6  UNL A   1      10.442  33.270   1.437  1.00  0.00    +0.000 H 
ATOM      7  N1  UNL A   1      10.621  32.617   0.724  1.00  0.00    +0.000 N 
BRANCH    7    5
ATOM      5  C5  UNL A   1      11.088  33.134  -0.448  1.00  0.00    +0.000 C 
ATOM      6  O1  UNL A   1      10.426  32.948  -1.471  1.00  0.00    +0.000 O 
BRANCH    5    4
ATOM      4  C4  UNL A   1      12.427  33.868  -0.493  1.00  0.00    +0.000 C 
ATOM    101  H4  UNL A   1      12.575  34.233  -1.488  1.00  0.00    +0.000 H 
ATOM    102  H5  UNL A   1      12.371  34.648   0.237  1.00  0.00    +0.000 H 
BRANCH    4    3
ATOM      2  C2  UNL A   1      14.380  33.073   0.987  1.00  0.00    +0.000 C 
ATOM      3  C3  UNL A   1      13.608  33.028  -0.125  1.00  0.00    +0.000 C 
ATOM    131  H34 UNL A   1      12.816  31.915  -2.647  1.00  0.00    +0.000 H 
ATOM    133  H36 UNL A   1      16.502  29.639  -0.395  1.00  0.00    +0.000 H 
ATOM    132  H35 UNL A   1      15.695  28.843  -2.552  1.00  0.00    +0.000 H 
ATOM     80  C57 UNL A   1      14.091  31.914  -0.962  1.00  0.00    +0.000 C 
ATOM     81  C58 UNL A   1      13.607  31.448  -2.178  1.00  0.00    +0.000 C 
ATOM     82  C59 UNL A   1      14.219  30.336  -2.749  1.00  0.00    +0.000 C 
ATOM     83  F16 UNL A   1      13.782  29.879  -3.930  1.00  0.00    +0.000 F 
ATOM     84  C60 UNL A   1      15.268  29.674  -2.114  1.00  0.00    +0.000 C 
ATOM     85  C61 UNL A   1      15.742  30.136  -0.885  1.00  0.00    +0.000 C 
ATOM     86  C62 UNL A   1      15.176  31.277  -0.330  1.00  0.00    +0.000 C 
ATOM     87  C63 UNL A   1      15.439  32.053   0.897  1.00  0.00    +0.000 C 
BRANCH    2    1
ATOM      1  C1  UNL A   1      14.236  33.969   2.173  1.00  0.00    +0.000 C 
ATOM     98  H1  UNL A   1      13.545  34.754   1.944  1.00  0.00    +0.000 H 
ATOM     99  H2  UNL A   1      15.187  34.394   2.418  1.00  0.00    +0.000 H 
ATOM    100  H3  UNL A   1      13.872  33.405   3.005  1.00  0.00    +0.000 H 
ENDBRANCH    2    1
BRANCH   87   88
ATOM    134  H37 UNL A   1      16.239  32.027   2.774  1.00  0.00    +0.000 H 
ATOM     88  C64 UNL A   1      16.461  31.938   1.771  1.00  0.00    +0.000 C 
BRANCH   88   89
ATOM     97  C71 UNL A   1      18.524  30.595   1.947  1.00  0.00    +0.000 C 
ATOM    135  H38 UNL A   1      18.052  33.354   0.110  1.00  0.00    +0.000 H 
ATOM    136  H39 UNL A   1      20.189  32.659  -0.806  1.00  0.00    +0.000 H 
ATOM    141  H44 UNL A   1      20.256  29.397   1.841  1.00  0.00    +0.000 H 
ATOM    142  H45 UNL A   1      18.093  30.057   2.716  1.00  0.00    +0.000 H 
ATOM     89  C65 UNL A   1      17.860  31.699   1.409  1.00  0.00    +0.000 C 
ATOM     90  C66 UNL A   1      18.497  32.486   0.444  1.00  0.00    +0.000 C 
ATOM     91  C67 UNL A   1      19.740  32.095  -0.068  1.00  0.00    +0.000 C 
ATOM     92  C68 UNL A   1      20.377  30.944   0.412  1.00  0.00    +0.000 C 
ATOM     96  C70 UNL A   1      19.774  30.219   1.446  1.00  0.00    +0.000 C 
BRANCH   92   93
ATOM     93  S1  UNL A   1      21.828  30.289  -0.455  1.00  0.00    +0.000 S 
BRANCH   93   94
ATOM    137  H40 UNL A   1      20.311  28.439  -0.408  1.00  0.00    +0.000 H 
ATOM    138  H41 UNL A   1      21.868  27.971  -1.047  1.00  0.00    +0.000 H 
ATOM    139  H42 UNL A   1      20.748  28.865  -2.046  1.00  0.00    +0.000 H 
ATOM     94  C69 UNL A   1      21.116  28.733  -1.050  1.00  0.00    +0.000 C 
ENDBRANCH   93   94
BRANCH   93   95
ATOM    140  H43 UNL A   1      22.051  31.883  -1.863  1.00  0.00    +0.000 H 
ATOM     95  O3  UNL A   1      21.535  31.062  -1.836  1.00  0.00    +0.000 O 
ENDBRANCH   93   95
ENDBRANCH   92   93
ENDBRANCH   88   89
ENDBRANCH   87   88
ENDBRANCH    4    3
ENDBRANCH    5    4
ENDBRANCH    7    5
ENDBRANCH    8    7
ENDBRANCH    9    8
ENDBRANCH   10    9
ENDBRANCH   11   10
ENDBRANCH   12   11
ENDBRANCH   13   12
ENDBRANCH   14   13
ENDBRANCH   15   14
ENDBRANCH   17   15
ENDBRANCH   21   20
BRANCH   25   26
ATOM     33  C25 UNL A   1      14.494  14.995   9.717  1.00  0.00    +0.000 C 
ATOM     34  F4  UNL A   1      13.826  13.912   9.295  1.00  0.00    +0.000 F 
ATOM     35  C26 UNL A   1      15.247  15.743   8.815  1.00  0.00    +0.000 C 
ATOM     36  F5  UNL A   1      15.293  15.352   7.532  1.00  0.00    +0.000 F 
ATOM     26  C21 UNL A   1      15.931  16.897   9.227  1.00  0.00    +0.000 C 
ATOM     27  C22 UNL A   1      15.845  17.265  10.577  1.00  0.00    +0.000 C 
ATOM     28  F1  UNL A   1      16.491  18.353  11.023  1.00  0.00    +0.000 F 
ATOM     29  C23 UNL A   1      15.111  16.501  11.481  1.00  0.00    +0.000 C 
ATOM     30  F2  UNL A   1      15.066  16.856  12.773  1.00  0.00    +0.000 F 
ATOM     31  C24 UNL A   1      14.429  15.373  11.049  1.00  0.00    +0.000 C 
ATOM     32  F3  UNL A   1      13.711  14.648  11.918  1.00  0.00    +0.000 F 
ENDBRANCH   25   26
BRANCH   42   43
ATOM     43  C32 UNL A   1      22.408  17.066   6.094  1.00  0.00    +0.000 C 
ATOM     44  C33 UNL A   1      22.666  16.041   5.172  1.00  0.00    +0.000 C 
ATOM     45  F6  UNL A   1      21.737  15.698   4.268  1.00  0.00    +0.000 F 
ATOM     46  C34 UNL A   1      23.874  15.349   5.195  1.00  0.00    +0.000 C 
ATOM     47  F7  UNL A   1      24.087  14.352   4.326  1.00  0.00    +0.000 F 
ATOM     48  C35 UNL A   1      24.852  15.684   6.120  1.00  0.00    +0.000 C 
ATOM     49  F8  UNL A   1      26.018  15.023   6.133  1.00  0.00    +0.000 F 
ATOM     50  C36 UNL A   1      24.620  16.700   7.034  1.00  0.00    +0.000 C 
ATOM     51  F9  UNL A   1      25.569  17.033   7.921  1.00  0.00    +0.000 F 
ATOM     52  C37 UNL A   1      23.405  17.379   7.031  1.00  0.00    +0.000 C 
ATOM     53  F10 UNL A   1      23.206  18.355   7.929  1.00  0.00    +0.000 F 
ENDBRANCH   42   43
BRANCH   57   58
ATOM     65  C45 UNL A   1      21.815  24.540   1.774  1.00  0.00    +0.000 C 
ATOM     66  F14 UNL A   1      22.581  25.585   2.120  1.00  0.00    +0.000 F 
ATOM     67  C46 UNL A   1      21.263  23.729   2.760  1.00  0.00    +0.000 C 
ATOM     68  F15 UNL A   1      21.519  24.006   4.047  1.00  0.00    +0.000 F 
ATOM     58  C41 UNL A   1      20.425  22.654   2.428  1.00  0.00    +0.000 C 
ATOM     59  C42 UNL A   1      20.186  22.406   1.070  1.00  0.00    +0.000 C 
ATOM     60  F11 UNL A   1      19.408  21.377   0.703  1.00  0.00    +0.000 F 
ATOM     61  C43 UNL A   1      20.762  23.204   0.083  1.00  0.00    +0.000 C 
ATOM     62  F12 UNL A   1      20.538  22.932  -1.210  1.00  0.00    +0.000 F 
ATOM     63  C44 UNL A   1      21.567  24.276   0.436  1.00  0.00    +0.000 C 
ATOM     64  F13 UNL A   1      22.107  25.052  -0.514  1.00  0.00    +0.000 F 
ENDBRANCH   57   58
TORSDOF 22
ENDMDL
MODEL 9
REMARK VINA RESULT:      -8.6     36.466     42.114
ROOT
ATOM     21  C17 UNL A   1      41.752  26.194  27.462  1.00  0.00    +0.000 C 
ATOM     22  C18 UNL A   1      41.121  27.232  28.350  1.00  0.00    +0.000 C 
ATOM     23  N3  UNL A   1      41.575  28.413  28.692  1.00  0.00    +0.000 N 
ATOM     24  C19 UNL A   1      40.605  28.972  29.511  1.00  0.00    +0.000 C 
ATOM     25  C20 UNL A   1      40.623  30.170  30.145  1.00  0.00    +0.000 C 
ATOM     37  C27 UNL A   1      41.710  31.111  30.073  1.00  0.00    +0.000 C 
ATOM     38  C28 UNL A   1      41.821  32.348  30.687  1.00  0.00    +0.000 C 
ATOM     39  C29 UNL A   1      43.039  32.919  30.305  1.00  0.00    +0.000 C 
ATOM     40  C30 UNL A   1      43.706  32.021  29.487  1.00  0.00    +0.000 C 
ATOM     41  N4  UNL A   1      42.875  30.920  29.347  1.00  0.00    +0.000 N 
ATOM     42  C31 UNL A   1      45.002  32.159  28.875  1.00  0.00    +0.000 C 
ATOM     54  C38 UNL A   1      45.603  31.222  28.104  1.00  0.00    +0.000 C 
ATOM     55  N5  UNL A   1      45.132  29.970  27.731  1.00  0.00    +0.000 N 
ATOM     56  C39 UNL A   1      46.060  29.451  26.965  1.00  0.00    +0.000 C 
ATOM     57  C40 UNL A   1      46.084  28.113  26.285  1.00  0.00    +0.000 C 
ATOM     69  C47 UNL A   1      45.012  27.304  26.385  1.00  0.00    +0.000 C 
ATOM     70  C48 UNL A   1      44.892  25.984  25.775  1.00  0.00    +0.000 C 
ATOM     71  C49 UNL A   1      43.682  25.480  26.057  1.00  0.00    +0.000 C 
ATOM     72  C50 UNL A   1      42.964  26.418  26.920  1.00  0.00    +0.000 C 
ATOM     73  N6  UNL A   1      43.816  27.486  27.036  1.00  0.00    +0.000 N 
ATOM     74  C51 UNL A   1      47.225  30.321  26.755  1.00  0.00    +0.000 C 
ATOM     75  C52 UNL A   1      46.908  31.376  27.495  1.00  0.00    +0.000 C 
ATOM     76  C53 UNL A   1      39.522  28.016  29.597  1.00  0.00    +0.000 C 
ATOM     77  C54 UNL A   1      39.809  26.906  28.932  1.00  0.00    +0.000 C 
ATOM    119  H22 UNL A   1      41.124  32.775  31.318  1.00  0.00    +0.000 H 
ATOM    120  H23 UNL A   1      43.383  33.851  30.584  1.00  0.00    +0.000 H 
ATOM    121  H24 UNL A   1      43.083  30.119  28.813  1.00  0.00    +0.000 H 
ATOM    122  H25 UNL A   1      45.622  25.515  25.215  1.00  0.00    +0.000 H 
ATOM    123  H26 UNL A   1      43.318  24.576  25.720  1.00  0.00    +0.000 H 
ATOM    124  H27 UNL A   1      43.593  28.305  27.536  1.00  0.00    +0.000 H 
ATOM    125  H28 UNL A   1      48.067  30.156  26.183  1.00  0.00    +0.000 H 
ATOM    126  H29 UNL A   1      47.515  32.202  27.621  1.00  0.00    +0.000 H 
ATOM    127  H30 UNL A   1      38.641  28.177  30.111  1.00  0.00    +0.000 H 
ATOM    128  H31 UNL A   1      39.257  26.039  28.843  1.00  0.00    +0.000 H 
ENDROOT
BRANCH   21   20
ATOM    129  H32 UNL A   1      42.435  23.718  28.357  1.00  0.00    +0.000 H 
ATOM    130  H33 UNL A   1      41.414  21.589  27.782  1.00  0.00    +0.000 H 
ATOM     78  C55 UNL A   1      41.606  23.694  27.743  1.00  0.00    +0.000 C 
ATOM     79  C56 UNL A   1      41.008  22.470  27.427  1.00  0.00    +0.000 C 
ATOM     17  C13 UNL A   1      39.859  22.443  26.631  1.00  0.00    +0.000 C 
ATOM     18  C14 UNL A   1      39.263  23.637  26.219  1.00  0.00    +0.000 C 
ATOM     19  C15 UNL A   1      39.901  24.847  26.467  1.00  0.00    +0.000 C 
ATOM     20  C16 UNL A   1      41.084  24.889  27.226  1.00  0.00    +0.000 C 
ATOM    117  H20 UNL A   1      38.354  23.621  25.731  1.00  0.00    +0.000 H 
ATOM    118  H21 UNL A   1      39.504  25.723  26.091  1.00  0.00    +0.000 H 
BRANCH   17   15
ATOM     15  C12 UNL A   1      39.300  21.138  26.217  1.00  0.00    +0.000 C 
ATOM     16  O2  UNL A   1      40.023  20.149  26.176  1.00  0.00    +0.000 O 
BRANCH   15   14
ATOM    116  H19 UNL A   1      37.328  21.137  26.587  1.00  0.00    +0.000 H 
ATOM     14  N2  UNL A   1      37.977  21.052  25.851  1.00  0.00    +0.000 N 
BRANCH   14   13
ATOM    114  H17 UNL A   1      38.176  20.540  23.862  1.00  0.00    +0.000 H 
ATOM    115  H18 UNL A   1      36.634  20.113  24.619  1.00  0.00    +0.000 H 
ATOM     13  C11 UNL A   1      37.401  20.853  24.530  1.00  0.00    +0.000 C 
BRANCH   13   12
ATOM    113  H16 UNL A   1      36.620  21.953  22.927  1.00  0.00    +0.000 H 
ATOM     12  C10 UNL A   1      36.760  22.119  23.975  1.00  0.00    +0.000 C 
ATOM    112  H15 UNL A   1      37.411  22.942  24.187  1.00  0.00    +0.000 H 
BRANCH   12   11
ATOM     11  C9  UNL A   1      35.380  22.442  24.549  1.00  0.00    +0.000 C 
ATOM    110  H13 UNL A   1      34.982  21.545  24.977  1.00  0.00    +0.000 H 
ATOM    111  H14 UNL A   1      35.531  23.226  25.261  1.00  0.00    +0.000 H 
BRANCH   11   10
ATOM     10  C8  UNL A   1      34.358  22.978  23.538  1.00  0.00    +0.000 C 
ATOM    108  H11 UNL A   1      34.091  23.970  23.836  1.00  0.00    +0.000 H 
ATOM    109  H12 UNL A   1      34.836  22.926  22.583  1.00  0.00    +0.000 H 
BRANCH   10    9
ATOM      9  C7  UNL A   1      33.066  22.160  23.408  1.00  0.00    +0.000 C 
ATOM    106  H9  UNL A   1      32.985  21.818  22.397  1.00  0.00    +0.000 H 
ATOM    107  H10 UNL A   1      33.138  21.356  24.112  1.00  0.00    +0.000 H 
BRANCH    9    8
ATOM    105  H8  UNL A   1      31.890  23.303  24.756  1.00  0.00    +0.000 H 
ATOM    104  H7  UNL A   1      30.953  22.283  23.666  1.00  0.00    +0.000 H 
ATOM      8  C6  UNL A   1      31.795  22.936  23.755  1.00  0.00    +0.000 C 
BRANCH    8    7
ATOM    103  H6  UNL A   1      31.846  23.922  21.932  1.00  0.00    +0.000 H 
ATOM      7  N1  UNL A   1      31.606  24.070  22.875  1.00  0.00    +0.000 N 
BRANCH    7    5
ATOM      5  C5  UNL A   1      31.141  25.315  23.179  1.00  0.00    +0.000 C 
ATOM      6  O1  UNL A   1      29.991  25.416  23.613  1.00  0.00    +0.000 O 
BRANCH    5    4
ATOM      4  C4  UNL A   1      32.004  26.548  22.926  1.00  0.00    +0.000 C 
ATOM    101  H4  UNL A   1      33.029  26.274  23.068  1.00  0.00    +0.000 H 
ATOM    102  H5  UNL A   1      31.791  26.869  21.928  1.00  0.00    +0.000 H 
BRANCH    4    3
ATOM      2  C2  UNL A   1      32.253  28.038  25.014  1.00  0.00    +0.000 C 
ATOM      3  C3  UNL A   1      31.705  27.710  23.819  1.00  0.00    +0.000 C 
ATOM    131  H34 UNL A   1      29.966  28.179  21.587  1.00  0.00    +0.000 H 
ATOM    133  H36 UNL A   1      29.975  31.645  25.025  1.00  0.00    +0.000 H 
ATOM    132  H35 UNL A   1      28.555  31.864  23.058  1.00  0.00    +0.000 H 
ATOM     80  C57 UNL A   1      30.742  28.768  23.462  1.00  0.00    +0.000 C 
ATOM     81  C58 UNL A   1      29.955  28.900  22.324  1.00  0.00    +0.000 C 
ATOM     82  C59 UNL A   1      29.151  30.029  22.205  1.00  0.00    +0.000 C 
ATOM     83  F16 UNL A   1      28.371  30.171  21.125  1.00  0.00    +0.000 F 
ATOM     84  C60 UNL A   1      29.149  31.029  23.177  1.00  0.00    +0.000 C 
ATOM     85  C61 UNL A   1      29.951  30.899  24.312  1.00  0.00    +0.000 C 
ATOM     86  C62 UNL A   1      30.717  29.751  24.468  1.00  0.00    +0.000 C 
ATOM     87  C63 UNL A   1      31.626  29.268  25.526  1.00  0.00    +0.000 C 
BRANCH    2    1
ATOM      1  C1  UNL A   1      33.339  27.328  25.754  1.00  0.00    +0.000 C 
ATOM     98  H1  UNL A   1      34.057  28.040  26.102  1.00  0.00    +0.000 H 
ATOM     99  H2  UNL A   1      33.819  26.629  25.100  1.00  0.00    +0.000 H 
ATOM    100  H3  UNL A   1      32.920  26.806  26.588  1.00  0.00    +0.000 H 
ENDBRANCH    2    1
BRANCH   87   88
ATOM    134  H37 UNL A   1      31.485  29.236  27.561  1.00  0.00    +0.000 H 
ATOM     88  C64 UNL A   1      31.841  29.775  26.757  1.00  0.00    +0.000 C 
BRANCH   88   89
ATOM     97  C71 UNL A   1      31.818  32.226  27.053  1.00  0.00    +0.000 C 
ATOM    135  H38 UNL A   1      34.448  30.174  27.339  1.00  0.00    +0.000 H 
ATOM    136  H39 UNL A   1      35.446  32.188  28.255  1.00  0.00    +0.000 H 
ATOM    141  H44 UNL A   1      31.866  34.273  27.556  1.00  0.00    +0.000 H 
ATOM    142  H45 UNL A   1      30.850  32.247  26.696  1.00  0.00    +0.000 H 
ATOM     89  C65 UNL A   1      32.539  31.031  27.045  1.00  0.00    +0.000 C 
ATOM     90  C66 UNL A   1      33.884  31.033  27.430  1.00  0.00    +0.000 C 
ATOM     91  C67 UNL A   1      34.464  32.201  27.938  1.00  0.00    +0.000 C 
ATOM     92  C68 UNL A   1      33.723  33.385  28.022  1.00  0.00    +0.000 C 
ATOM     96  C70 UNL A   1      32.407  33.395  27.544  1.00  0.00    +0.000 C 
BRANCH   92   93
ATOM     93  S1  UNL A   1      34.382  34.798  28.947  1.00  0.00    +0.000 S 
BRANCH   93   94
ATOM    137  H40 UNL A   1      32.066  35.394  29.022  1.00  0.00    +0.000 H 
ATOM    138  H41 UNL A   1      32.914  36.284  27.781  1.00  0.00    +0.000 H 
ATOM    139  H42 UNL A   1      33.088  36.744  29.457  1.00  0.00    +0.000 H 
ATOM     94  C69 UNL A   1      32.969  35.920  28.786  1.00  0.00    +0.000 C 
ENDBRANCH   93   94
BRANCH   93   95
ATOM    140  H43 UNL A   1      34.466  33.506  30.648  1.00  0.00    +0.000 H 
ATOM     95  O3  UNL A   1      33.913  34.260  30.390  1.00  0.00    +0.000 O 
ENDBRANCH   93   95
ENDBRANCH   92   93
ENDBRANCH   88   89
ENDBRANCH   87   88
ENDBRANCH    4    3
ENDBRANCH    5    4
ENDBRANCH    7    5
ENDBRANCH    8    7
ENDBRANCH    9    8
ENDBRANCH   10    9
ENDBRANCH   11   10
ENDBRANCH   12   11
ENDBRANCH   13   12
ENDBRANCH   14   13
ENDBRANCH   15   14
ENDBRANCH   17   15
ENDBRANCH   21   20
BRANCH   25   26
ATOM     33  C25 UNL A   1      37.301  31.699  31.197  1.00  0.00    +0.000 C 
ATOM     34  F4  UNL A   1      36.319  32.426  30.647  1.00  0.00    +0.000 F 
ATOM     35  C26 UNL A   1      38.375  31.277  30.416  1.00  0.00    +0.000 C 
ATOM     36  F5  UNL A   1      38.394  31.605  29.115  1.00  0.00    +0.000 F 
ATOM     26  C21 UNL A   1      39.430  30.540  30.975  1.00  0.00    +0.000 C 
ATOM     27  C22 UNL A   1      39.362  30.229  32.341  1.00  0.00    +0.000 C 
ATOM     28  F1  UNL A   1      40.340  29.517  32.920  1.00  0.00    +0.000 F 
ATOM     29  C23 UNL A   1      38.276  30.632  33.114  1.00  0.00    +0.000 C 
ATOM     30  F2  UNL A   1      38.219  30.299  34.411  1.00  0.00    +0.000 F 
ATOM     31  C24 UNL A   1      37.251  31.374  32.544  1.00  0.00    +0.000 C 
ATOM     32  F3  UNL A   1      36.214  31.773  33.293  1.00  0.00    +0.000 F 
ENDBRANCH   25   26
BRANCH   42   43
ATOM     43  C32 UNL A   1      45.752  33.434  29.119  1.00  0.00    +0.000 C 
ATOM     44  C33 UNL A   1      46.640  33.562  30.197  1.00  0.00    +0.000 C 
ATOM     45  F6  UNL A   1      46.782  32.561  31.077  1.00  0.00    +0.000 F 
ATOM     46  C34 UNL A   1      47.367  34.735  30.386  1.00  0.00    +0.000 C 
ATOM     47  F7  UNL A   1      48.186  34.849  31.441  1.00  0.00    +0.000 F 
ATOM     48  C35 UNL A   1      47.239  35.785  29.489  1.00  0.00    +0.000 C 
ATOM     49  F8  UNL A   1      47.949  36.909  29.667  1.00  0.00    +0.000 F 
ATOM     50  C36 UNL A   1      46.374  35.675  28.413  1.00  0.00    +0.000 C 
ATOM     51  F9  UNL A   1      46.259  36.686  27.539  1.00  0.00    +0.000 F 
ATOM     52  C37 UNL A   1      45.628  34.514  28.233  1.00  0.00    +0.000 C 
ATOM     53  F10 UNL A   1      44.795  34.435  27.184  1.00  0.00    +0.000 F 
ENDBRANCH   42   43
BRANCH   57   58
ATOM     65  C45 UNL A   1      49.527  26.754  25.439  1.00  0.00    +0.000 C 
ATOM     66  F14 UNL A   1      50.599  26.271  26.081  1.00  0.00    +0.000 F 
ATOM     67  C46 UNL A   1      48.392  27.115  26.159  1.00  0.00    +0.000 C 
ATOM     68  F15 UNL A   1      48.392  26.961  27.491  1.00  0.00    +0.000 F 
ATOM     58  C41 UNL A   1      47.270  27.662  25.516  1.00  0.00    +0.000 C 
ATOM     59  C42 UNL A   1      47.319  27.804  24.123  1.00  0.00    +0.000 C 
ATOM     60  F11 UNL A   1      46.263  28.303  23.463  1.00  0.00    +0.000 F 
ATOM     61  C43 UNL A   1      48.447  27.418  23.402  1.00  0.00    +0.000 C 
ATOM     62  F12 UNL A   1      48.460  27.542  22.067  1.00  0.00    +0.000 F 
ATOM     63  C44 UNL A   1      49.553  26.903  24.060  1.00  0.00    +0.000 C 
ATOM     64  F13 UNL A   1      50.643  26.547  23.367  1.00  0.00    +0.000 F 
ENDBRANCH   57   58
TORSDOF 22
ENDMDL
MODEL 10
REMARK VINA RESULT:      -8.5     33.330     37.797
ROOT
ATOM     21  C17 UNL A   1      46.623  50.830  18.028  1.00  0.00    +0.000 C 
ATOM     22  C18 UNL A   1      46.840  52.151  17.341  1.00  0.00    +0.000 C 
ATOM     23  N3  UNL A   1      47.810  53.017  17.504  1.00  0.00    +0.000 N 
ATOM     24  C19 UNL A   1      47.546  54.056  16.624  1.00  0.00    +0.000 C 
ATOM     25  C20 UNL A   1      48.242  55.205  16.440  1.00  0.00    +0.000 C 
ATOM     37  C27 UNL A   1      49.432  55.559  17.168  1.00  0.00    +0.000 C 
ATOM     38  C28 UNL A   1      50.202  56.706  17.056  1.00  0.00    +0.000 C 
ATOM     39  C29 UNL A   1      51.277  56.600  17.943  1.00  0.00    +0.000 C 
ATOM     40  C30 UNL A   1      51.156  55.407  18.638  1.00  0.00    +0.000 C 
ATOM     41  N4  UNL A   1      50.023  54.776  18.147  1.00  0.00    +0.000 N 
ATOM     42  C31 UNL A   1      52.012  54.881  19.669  1.00  0.00    +0.000 C 
ATOM     54  C38 UNL A   1      51.813  53.712  20.324  1.00  0.00    +0.000 C 
ATOM     55  N5  UNL A   1      50.793  52.786  20.160  1.00  0.00    +0.000 N 
ATOM     56  C39 UNL A   1      51.050  51.815  21.001  1.00  0.00    +0.000 C 
ATOM     57  C40 UNL A   1      50.276  50.553  21.254  1.00  0.00    +0.000 C 
ATOM     69  C47 UNL A   1      49.187  50.288  20.508  1.00  0.00    +0.000 C 
ATOM     70  C48 UNL A   1      48.345  49.104  20.637  1.00  0.00    +0.000 C 
ATOM     71  C49 UNL A   1      47.372  49.157  19.716  1.00  0.00    +0.000 C 
ATOM     72  C50 UNL A   1      47.487  50.411  18.972  1.00  0.00    +0.000 C 
ATOM     73  N6  UNL A   1      48.611  51.004  19.487  1.00  0.00    +0.000 N 
ATOM     74  C51 UNL A   1      52.273  52.010  21.791  1.00  0.00    +0.000 C 
ATOM     75  C52 UNL A   1      52.683  53.196  21.361  1.00  0.00    +0.000 C 
ATOM     76  C53 UNL A   1      46.339  53.706  15.907  1.00  0.00    +0.000 C 
ATOM     77  C54 UNL A   1      45.839  52.558  16.342  1.00  0.00    +0.000 C 
ATOM    119  H22 UNL A   1      50.013  57.502  16.426  1.00  0.00    +0.000 H 
ATOM    120  H23 UNL A   1      52.034  57.292  18.060  1.00  0.00    +0.000 H 
ATOM    121  H24 UNL A   1      49.688  53.901  18.450  1.00  0.00    +0.000 H 
ATOM    122  H25 UNL A   1      48.479  48.346  21.325  1.00  0.00    +0.000 H 
ATOM    123  H26 UNL A   1      46.657  48.430  19.559  1.00  0.00    +0.000 H 
ATOM    124  H27 UNL A   1      48.971  51.859  19.157  1.00  0.00    +0.000 H 
ATOM    125  H28 UNL A   1      52.700  51.389  22.496  1.00  0.00    +0.000 H 
ATOM    126  H29 UNL A   1      53.517  53.688  21.719  1.00  0.00    +0.000 H 
ATOM    127  H30 UNL A   1      45.921  54.277  15.155  1.00  0.00    +0.000 H 
ATOM    128  H31 UNL A   1      44.974  52.075  16.055  1.00  0.00    +0.000 H 
ENDROOT
BRANCH   21   20
ATOM    129  H32 UNL A   1      44.077  51.075  18.953  1.00  0.00    +0.000 H 
ATOM    130  H33 UNL A   1      42.200  49.579  18.572  1.00  0.00    +0.000 H 
ATOM     78  C55 UNL A   1      44.187  50.259  18.332  1.00  0.00    +0.000 C 
ATOM     79  C56 UNL A   1      43.102  49.409  18.099  1.00  0.00    +0.000 C 
ATOM     17  C13 UNL A   1      43.241  48.329  17.222  1.00  0.00    +0.000 C 
ATOM     18  C14 UNL A   1      44.433  48.145  16.519  1.00  0.00    +0.000 C 
ATOM     19  C15 UNL A   1      45.534  48.942  16.810  1.00  0.00    +0.000 C 
ATOM     20  C16 UNL A   1      45.426  50.005  17.724  1.00  0.00    +0.000 C 
ATOM    117  H20 UNL A   1      44.497  47.420  15.788  1.00  0.00    +0.000 H 
ATOM    118  H21 UNL A   1      46.440  48.754  16.350  1.00  0.00    +0.000 H 
BRANCH   17   15
ATOM     15  C12 UNL A   1      42.119  47.377  17.067  1.00  0.00    +0.000 C 
ATOM     16  O2  UNL A   1      40.963  47.771  17.181  1.00  0.00    +0.000 O 
BRANCH   15   14
ATOM    116  H19 UNL A   1      43.328  45.830  16.655  1.00  0.00    +0.000 H 
ATOM     14  N2  UNL A   1      42.384  46.049  16.827  1.00  0.00    +0.000 N 
BRANCH   14   13
ATOM    114  H17 UNL A   1      40.601  45.201  16.227  1.00  0.00    +0.000 H 
ATOM    115  H18 UNL A   1      41.979  44.097  16.347  1.00  0.00    +0.000 H 
ATOM     13  C11 UNL A   1      41.464  44.922  16.793  1.00  0.00    +0.000 C 
BRANCH   13   12
ATOM    113  H16 UNL A   1      40.203  43.810  18.043  1.00  0.00    +0.000 H 
ATOM     12  C10 UNL A   1      41.017  44.490  18.184  1.00  0.00    +0.000 C 
ATOM    112  H15 UNL A   1      40.742  45.367  18.733  1.00  0.00    +0.000 H 
BRANCH   12   11
ATOM     11  C9  UNL A   1      42.075  43.735  18.990  1.00  0.00    +0.000 C 
ATOM    110  H13 UNL A   1      42.245  42.793  18.511  1.00  0.00    +0.000 H 
ATOM    111  H14 UNL A   1      42.938  44.367  19.012  1.00  0.00    +0.000 H 
BRANCH   11   10
ATOM     10  C8  UNL A   1      41.713  43.463  20.456  1.00  0.00    +0.000 C 
ATOM    108  H11 UNL A   1      41.740  44.395  20.980  1.00  0.00    +0.000 H 
ATOM    109  H12 UNL A   1      40.746  43.005  20.439  1.00  0.00    +0.000 H 
BRANCH   10    9
ATOM      9  C7  UNL A   1      42.633  42.479  21.192  1.00  0.00    +0.000 C 
ATOM    106  H9  UNL A   1      42.380  42.497  22.232  1.00  0.00    +0.000 H 
ATOM    107  H10 UNL A   1      42.477  41.519  20.745  1.00  0.00    +0.000 H 
BRANCH    9    8
ATOM    105  H8  UNL A   1      44.240  43.545  20.303  1.00  0.00    +0.000 H 
ATOM    104  H7  UNL A   1      44.643  41.899  20.785  1.00  0.00    +0.000 H 
ATOM      8  C6  UNL A   1      44.123  42.793  21.055  1.00  0.00    +0.000 C 
BRANCH    8    7
ATOM    103  H6  UNL A   1      45.310  42.707  22.753  1.00  0.00    +0.000 H 
ATOM      7  N1  UNL A   1      44.676  43.302  22.293  1.00  0.00    +0.000 N 
BRANCH    7    5
ATOM      5  C5  UNL A   1      44.433  44.495  22.905  1.00  0.00    +0.000 C 
ATOM      6  O1  UNL A   1      43.617  44.520  23.830  1.00  0.00    +0.000 O 
BRANCH    5    4
ATOM      4  C4  UNL A   1      45.109  45.772  22.410  1.00  0.00    +0.000 C 
ATOM    101  H4  UNL A   1      44.374  46.367  21.910  1.00  0.00    +0.000 H 
ATOM    102  H5  UNL A   1      45.521  46.252  23.273  1.00  0.00    +0.000 H 
BRANCH    4    3
ATOM      2  C2  UNL A   1      46.261  45.598  20.112  1.00  0.00    +0.000 C 
ATOM      3  C3  UNL A   1      46.247  45.547  21.466  1.00  0.00    +0.000 C 
ATOM    131  H34 UNL A   1      47.497  45.241  24.029  1.00  0.00    +0.000 H 
ATOM    133  H36 UNL A   1      50.483  44.981  20.175  1.00  0.00    +0.000 H 
ATOM    132  H35 UNL A   1      51.362  44.736  22.433  1.00  0.00    +0.000 H 
ATOM     80  C57 UNL A   1      47.623  45.278  21.920  1.00  0.00    +0.000 C 
ATOM     81  C58 UNL A   1      48.122  45.167  23.212  1.00  0.00    +0.000 C 
ATOM     82  C59 UNL A   1      49.488  44.952  23.376  1.00  0.00    +0.000 C 
ATOM     83  F16 UNL A   1      49.990  44.825  24.611  1.00  0.00    +0.000 F 
ATOM     84  C60 UNL A   1      50.351  44.882  22.284  1.00  0.00    +0.000 C 
ATOM     85  C61 UNL A   1      49.848  45.008  20.988  1.00  0.00    +0.000 C 
ATOM     86  C62 UNL A   1      48.480  45.168  20.809  1.00  0.00    +0.000 C 
ATOM     87  C63 UNL A   1      47.615  45.292  19.620  1.00  0.00    +0.000 C 
BRANCH    2    1
ATOM      1  C1  UNL A   1      45.132  45.926  19.191  1.00  0.00    +0.000 C 
ATOM     98  H1  UNL A   1      44.556  46.727  19.605  1.00  0.00    +0.000 H 
ATOM     99  H2  UNL A   1      44.508  45.065  19.071  1.00  0.00    +0.000 H 
ATOM    100  H3  UNL A   1      45.522  46.220  18.239  1.00  0.00    +0.000 H 
ENDBRANCH    2    1
BRANCH   87   88
ATOM    134  H37 UNL A   1      47.659  44.219  17.884  1.00  0.00    +0.000 H 
ATOM     88  C64 UNL A   1      47.929  45.115  18.320  1.00  0.00    +0.000 C 
BRANCH   88   89
ATOM     97  C71 UNL A   1      48.254  46.219  16.135  1.00  0.00    +0.000 C 
ATOM    135  H38 UNL A   1      49.904  46.833  18.984  1.00  0.00    +0.000 H 
ATOM    136  H39 UNL A   1      50.686  48.728  17.686  1.00  0.00    +0.000 H 
ATOM    141  H44 UNL A   1      48.455  47.383  14.389  1.00  0.00    +0.000 H 
ATOM    142  H45 UNL A   1      47.627  45.522  15.704  1.00  0.00    +0.000 H 
ATOM     89  C65 UNL A   1      48.623  46.091  17.477  1.00  0.00    +0.000 C 
ATOM     90  C66 UNL A   1      49.558  46.976  18.023  1.00  0.00    +0.000 C 
ATOM     91  C67 UNL A   1      50.024  48.057  17.266  1.00  0.00    +0.000 C 
ATOM     92  C68 UNL A   1      49.599  48.236  15.944  1.00  0.00    +0.000 C 
ATOM     96  C70 UNL A   1      48.737  47.289  15.377  1.00  0.00    +0.000 C 
BRANCH   92   93
ATOM     93  S1  UNL A   1      49.971  49.784  15.078  1.00  0.00    +0.000 S 
BRANCH   93   94
ATOM    137  H40 UNL A   1      48.238  51.316  14.467  1.00  0.00    +0.000 H 
ATOM    138  H41 UNL A   1      47.609  49.980  15.400  1.00  0.00    +0.000 H 
ATOM    139  H42 UNL A   1      48.007  49.757  13.714  1.00  0.00    +0.000 H 
ATOM     94  C69 UNL A   1      48.284  50.257  14.617  1.00  0.00    +0.000 C 
ENDBRANCH   93   94
BRANCH   93   95
ATOM    140  H43 UNL A   1      50.740  50.480  16.948  1.00  0.00    +0.000 H 
ATOM     95  O3  UNL A   1      49.967  50.698  16.404  1.00  0.00    +0.000 O 
ENDBRANCH   93   95
ENDBRANCH   92   93
ENDBRANCH   88   89
ENDBRANCH   87   88
ENDBRANCH    4    3
ENDBRANCH    5    4
ENDBRANCH    7    5
ENDBRANCH    8    7
ENDBRANCH    9    8
ENDBRANCH   10    9
ENDBRANCH   11   10
ENDBRANCH   12   11
ENDBRANCH   13   12
ENDBRANCH   14   13
ENDBRANCH   15   14
ENDBRANCH   17   15
ENDBRANCH   21   20
BRANCH   25   26
ATOM     33  C25 UNL A   1      47.662  56.924  13.095  1.00  0.00    +0.000 C 
ATOM     34  F4  UNL A   1      47.997  56.745  11.810  1.00  0.00    +0.000 F 
ATOM     35  C26 UNL A   1      48.052  55.989  14.052  1.00  0.00    +0.000 C 
ATOM     36  F5  UNL A   1      48.754  54.916  13.657  1.00  0.00    +0.000 F 
ATOM     26  C21 UNL A   1      47.738  56.170  15.408  1.00  0.00    +0.000 C 
ATOM     27  C22 UNL A   1      47.008  57.312  15.767  1.00  0.00    +0.000 C 
ATOM     28  F1  UNL A   1      46.673  57.523  17.049  1.00  0.00    +0.000 F 
ATOM     29  C23 UNL A   1      46.599  58.232  14.805  1.00  0.00    +0.000 C 
ATOM     30  F2  UNL A   1      45.877  59.301  15.167  1.00  0.00    +0.000 F 
ATOM     31  C24 UNL A   1      46.933  58.042  13.472  1.00  0.00    +0.000 C 
ATOM     32  F3  UNL A   1      46.551  58.936  12.549  1.00  0.00    +0.000 F 
ENDBRANCH   25   26
BRANCH   42   43
ATOM     43  C32 UNL A   1      53.209  55.694  20.060  1.00  0.00    +0.000 C 
ATOM     44  C33 UNL A   1      54.464  55.471  19.475  1.00  0.00    +0.000 C 
ATOM     45  F6  UNL A   1      54.632  54.469  18.600  1.00  0.00    +0.000 F 
ATOM     46  C34 UNL A   1      55.558  56.264  19.811  1.00  0.00    +0.000 C 
ATOM     47  F7  UNL A   1      56.756  56.013  19.265  1.00  0.00    +0.000 F 
ATOM     48  C35 UNL A   1      55.411  57.307  20.713  1.00  0.00    +0.000 C 
ATOM     49  F8  UNL A   1      56.464  58.076  21.026  1.00  0.00    +0.000 F 
ATOM     50  C36 UNL A   1      54.177  57.550  21.295  1.00  0.00    +0.000 C 
ATOM     51  F9  UNL A   1      54.031  58.565  22.159  1.00  0.00    +0.000 F 
ATOM     52  C37 UNL A   1      53.086  56.745  20.981  1.00  0.00    +0.000 C 
ATOM     53  F10 UNL A   1      51.904  57.000  21.561  1.00  0.00    +0.000 F 
ENDBRANCH   42   43
BRANCH   57   58
ATOM     65  C45 UNL A   1      50.609  48.845  24.628  1.00  0.00    +0.000 C 
ATOM     66  F14 UNL A   1      50.136  48.986  25.874  1.00  0.00    +0.000 F 
ATOM     67  C46 UNL A   1      50.174  49.700  23.620  1.00  0.00    +0.000 C 
ATOM     68  F15 UNL A   1      49.276  50.650  23.918  1.00  0.00    +0.000 F 
ATOM     58  C41 UNL A   1      50.683  49.600  22.316  1.00  0.00    +0.000 C 
ATOM     59  C42 UNL A   1      51.621  48.592  22.055  1.00  0.00    +0.000 C 
ATOM     60  F11 UNL A   1      52.120  48.445  20.819  1.00  0.00    +0.000 F 
ATOM     61  C43 UNL A   1      52.035  47.720  23.060  1.00  0.00    +0.000 C 
ATOM     62  F12 UNL A   1      52.915  46.749  22.780  1.00  0.00    +0.000 F 
ATOM     63  C44 UNL A   1      51.536  47.853  24.347  1.00  0.00    +0.000 C 
ATOM     64  F13 UNL A   1      51.948  47.024  25.316  1.00  0.00    +0.000 F 
ENDBRANCH   57   58
TORSDOF 22
ENDMDL
