MODEL 1
REMARK VINA RESULT:     -10.8      0.000      0.000
ROOT
ATOM     19  C15 UNL A   1      37.942  30.049  29.942  1.00  0.00    +0.000 C 
ATOM     20  C16 UNL A   1      38.212  30.517  31.344  1.00  0.00    +0.000 C 
ATOM     21  N3  UNL A   1      39.235  30.263  32.122  1.00  0.00    +0.000 N 
ATOM     22  C17 UNL A   1      39.012  30.983  33.288  1.00  0.00    +0.000 C 
ATOM     23  C18 UNL A   1      39.754  31.008  34.421  1.00  0.00    +0.000 C 
ATOM     35  C25 UNL A   1      40.954  30.239  34.619  1.00  0.00    +0.000 C 
ATOM     36  C26 UNL A   1      41.735  30.133  35.756  1.00  0.00    +0.000 C 
ATOM     37  C27 UNL A   1      42.824  29.304  35.465  1.00  0.00    +0.000 C 
ATOM     38  C28 UNL A   1      42.696  28.856  34.159  1.00  0.00    +0.000 C 
ATOM     39  N4  UNL A   1      41.547  29.440  33.652  1.00  0.00    +0.000 N 
ATOM     40  C29 UNL A   1      43.556  27.960  33.429  1.00  0.00    +0.000 C 
ATOM     52  C36 UNL A   1      43.361  27.567  32.146  1.00  0.00    +0.000 C 
ATOM     53  N5  UNL A   1      42.331  27.902  31.277  1.00  0.00    +0.000 N 
ATOM     54  C37 UNL A   1      42.590  27.279  30.154  1.00  0.00    +0.000 C 
ATOM     55  C38 UNL A   1      41.794  27.247  28.878  1.00  0.00    +0.000 C 
ATOM     67  C45 UNL A   1      40.640  27.937  28.805  1.00  0.00    +0.000 C 
ATOM     68  C46 UNL A   1      39.752  27.988  27.648  1.00  0.00    +0.000 C 
ATOM     69  C47 UNL A   1      38.703  28.774  27.935  1.00  0.00    +0.000 C 
ATOM     70  C48 UNL A   1      38.830  29.259  29.309  1.00  0.00    +0.000 C 
ATOM     71  N6  UNL A   1      40.019  28.726  29.742  1.00  0.00    +0.000 N 
ATOM     72  C49 UNL A   1      43.837  26.502  30.173  1.00  0.00    +0.000 C 
ATOM     73  C50 UNL A   1      44.245  26.678  31.422  1.00  0.00    +0.000 C 
ATOM     74  C51 UNL A   1      37.784  31.723  33.099  1.00  0.00    +0.000 C 
ATOM     75  C52 UNL A   1      37.213  31.415  31.946  1.00  0.00    +0.000 C 
ATOM    112  H21 UNL A   1      41.548  30.588  36.664  1.00  0.00    +0.000 H 
ATOM    113  H22 UNL A   1      43.593  29.066  36.111  1.00  0.00    +0.000 H 
ATOM    114  H23 UNL A   1      41.202  29.309  32.739  1.00  0.00    +0.000 H 
ATOM    115  H24 UNL A   1      39.906  27.499  26.752  1.00  0.00    +0.000 H 
ATOM    116  H25 UNL A   1      37.929  29.002  27.289  1.00  0.00    +0.000 H 
ATOM    117  H26 UNL A   1      40.391  28.893  30.639  1.00  0.00    +0.000 H 
ATOM    118  H27 UNL A   1      44.280  25.963  29.412  1.00  0.00    +0.000 H 
ATOM    119  H28 UNL A   1      45.084  26.235  31.827  1.00  0.00    +0.000 H 
ATOM    120  H29 UNL A   1      37.403  32.403  33.777  1.00  0.00    +0.000 H 
ATOM    121  H30 UNL A   1      36.304  31.722  31.567  1.00  0.00    +0.000 H 
ENDROOT
BRANCH   19   18
ATOM     76  C53 UNL A   1      35.685  29.588  28.977  1.00  0.00    +0.000 C 
ATOM     77  C54 UNL A   1      34.563  29.981  28.253  1.00  0.00    +0.000 C 
ATOM    110  H19 UNL A   1      35.344  33.213  27.798  1.00  0.00    +0.000 H 
ATOM     15  C11 UNL A   1      34.415  31.316  27.864  1.00  0.00    +0.000 C 
ATOM     16  C12 UNL A   1      35.442  32.234  28.108  1.00  0.00    +0.000 C 
ATOM     17  C13 UNL A   1      36.597  31.822  28.774  1.00  0.00    +0.000 C 
ATOM    111  H20 UNL A   1      37.365  32.494  28.932  1.00  0.00    +0.000 H 
ATOM     18  C14 UNL A   1      36.721  30.501  29.230  1.00  0.00    +0.000 C 
ATOM    122  H31 UNL A   1      35.756  28.621  29.330  1.00  0.00    +0.000 H 
ATOM    123  H32 UNL A   1      33.840  29.288  28.003  1.00  0.00    +0.000 H 
BRANCH   15   13
ATOM     13  C10 UNL A   1      33.202  31.779  27.155  1.00  0.00    +0.000 C 
ATOM     14  O2  UNL A   1      32.986  32.983  27.040  1.00  0.00    +0.000 O 
BRANCH   13   12
ATOM     12  N2  UNL A   1      32.316  30.870  26.640  1.00  0.00    +0.000 N 
ATOM    109  H18 UNL A   1      31.383  30.972  26.938  1.00  0.00    +0.000 H 
BRANCH   12   11
ATOM     11  C9  UNL A   1      32.559  29.775  25.715  1.00  0.00    +0.000 C 
ATOM    108  H17 UNL A   1      33.600  29.533  25.758  1.00  0.00    +0.000 H 
ATOM    107  H16 UNL A   1      32.269  30.084  24.733  1.00  0.00    +0.000 H 
BRANCH   11   10
ATOM    105  H14 UNL A   1      31.240  28.722  26.995  1.00  0.00    +0.000 H 
ATOM     10  C8  UNL A   1      31.771  28.524  26.088  1.00  0.00    +0.000 C 
ATOM    106  H15 UNL A   1      31.125  28.316  25.260  1.00  0.00    +0.000 H 
BRANCH   10    9
ATOM      9  C7  UNL A   1      32.623  27.270  26.297  1.00  0.00    +0.000 C 
ATOM    103  H12 UNL A   1      33.062  27.325  27.272  1.00  0.00    +0.000 H 
ATOM    104  H13 UNL A   1      31.963  26.437  26.173  1.00  0.00    +0.000 H 
BRANCH    9    8
ATOM    101  H10 UNL A   1      33.421  27.466  24.340  1.00  0.00    +0.000 H 
ATOM    102  H11 UNL A   1      34.603  27.587  25.679  1.00  0.00    +0.000 H 
ATOM      8  C6  UNL A   1      33.752  27.076  25.280  1.00  0.00    +0.000 C 
BRANCH    8    7
ATOM     99  H8  UNL A   1      33.784  25.283  24.133  1.00  0.00    +0.000 H 
ATOM    100  H9  UNL A   1      35.260  25.618  25.072  1.00  0.00    +0.000 H 
ATOM      7  C5  UNL A   1      34.191  25.621  25.063  1.00  0.00    +0.000 C 
BRANCH    7    6
ATOM     97  H6  UNL A   1      34.591  24.146  26.552  1.00  0.00    +0.000 H 
ATOM     98  H7  UNL A   1      33.260  25.227  26.936  1.00  0.00    +0.000 H 
ATOM      6  C4  UNL A   1      33.738  24.661  26.163  1.00  0.00    +0.000 C 
BRANCH    6    5
ATOM      5  N1  UNL A   1      32.795  23.694  25.647  1.00  0.00    +0.000 N 
ATOM     96  H5  UNL A   1      33.192  22.846  25.342  1.00  0.00    +0.000 H 
BRANCH    5    3
ATOM      3  C3  UNL A   1      31.438  23.775  25.519  1.00  0.00    +0.000 C 
ATOM      4  O1  UNL A   1      30.784  23.745  26.563  1.00  0.00    +0.000 O 
BRANCH    3    2
ATOM      2  C2  UNL A   1      30.807  23.820  24.119  1.00  0.00    +0.000 C 
ATOM     95  H4  UNL A   1      29.837  23.383  24.237  1.00  0.00    +0.000 H 
BRANCH    2    1
ATOM      1  C1  UNL A   1      31.549  22.973  23.081  1.00  0.00    +0.000 C 
ATOM     92  H1  UNL A   1      32.317  22.407  23.567  1.00  0.00    +0.000 H 
ATOM     93  H2  UNL A   1      31.991  23.615  22.347  1.00  0.00    +0.000 H 
ATOM     94  H3  UNL A   1      30.862  22.307  22.604  1.00  0.00    +0.000 H 
ENDBRANCH    2    1
BRANCH    2   78
ATOM    136  H45 UNL A   1      28.819  28.023  24.078  1.00  0.00    +0.000 H 
ATOM     78  C55 UNL A   1      30.646  25.244  23.615  1.00  0.00    +0.000 C 
ATOM     79  C56 UNL A   1      31.485  25.734  22.611  1.00  0.00    +0.000 C 
ATOM     80  C57 UNL A   1      31.354  27.053  22.158  1.00  0.00    +0.000 C 
ATOM     81  C58 UNL A   1      30.365  27.910  22.650  1.00  0.00    +0.000 C 
ATOM     89  C64 UNL A   1      29.542  27.411  23.665  1.00  0.00    +0.000 C 
ATOM     90  C65 UNL A   1      29.678  26.105  24.133  1.00  0.00    +0.000 C 
ATOM     91  F16 UNL A   1      28.864  25.695  25.117  1.00  0.00    +0.000 F 
ATOM    124  H33 UNL A   1      32.206  25.121  22.201  1.00  0.00    +0.000 H 
ATOM    125  H34 UNL A   1      32.007  27.402  21.439  1.00  0.00    +0.000 H 
BRANCH   81   82
ATOM     82  N7  UNL A   1      30.221  29.236  22.285  1.00  0.00    +0.000 N 
ATOM    126  H35 UNL A   1      30.928  29.600  21.704  1.00  0.00    +0.000 H 
BRANCH   82   83
ATOM    129  H38 UNL A   1      28.982  30.658  24.757  1.00  0.00    +0.000 H 
ATOM    130  H39 UNL A   1      29.823  33.061  23.267  1.00  0.00    +0.000 H 
ATOM    131  H40 UNL A   1      28.488  32.909  24.340  1.00  0.00    +0.000 H 
ATOM    132  H41 UNL A   1      28.029  33.156  21.734  1.00  0.00    +0.000 H 
ATOM    133  H42 UNL A   1      27.060  32.048  22.594  1.00  0.00    +0.000 H 
ATOM    134  H43 UNL A   1      29.540  31.446  20.919  1.00  0.00    +0.000 H 
ATOM     83  C59 UNL A   1      29.156  30.165  22.653  1.00  0.00    +0.000 C 
ATOM     84  C60 UNL A   1      29.467  31.028  23.878  1.00  0.00    +0.000 C 
ATOM     85  C61 UNL A   1      28.990  32.438  23.520  1.00  0.00    +0.000 C 
ATOM     86  C62 UNL A   1      28.072  32.261  22.319  1.00  0.00    +0.000 C 
ATOM     87  C63 UNL A   1      28.726  31.131  21.538  1.00  0.00    +0.000 C 
ATOM    127  H36 UNL A   1      28.359  29.484  22.868  1.00  0.00    +0.000 H 
ATOM    128  H37 UNL A   1      30.518  31.030  24.078  1.00  0.00    +0.000 H 
BRANCH   87   88
ATOM    135  H44 UNL A   1      27.571  29.645  20.956  1.00  0.00    +0.000 H 
ATOM     88  O3  UNL A   1      27.806  30.531  20.638  1.00  0.00    +0.000 O 
ENDBRANCH   87   88
ENDBRANCH   82   83
ENDBRANCH   81   82
ENDBRANCH    2   78
ENDBRANCH    3    2
ENDBRANCH    5    3
ENDBRANCH    6    5
ENDBRANCH    7    6
ENDBRANCH    8    7
ENDBRANCH    9    8
ENDBRANCH   10    9
ENDBRANCH   11   10
ENDBRANCH   12   11
ENDBRANCH   13   12
ENDBRANCH   15   13
ENDBRANCH   19   18
BRANCH   23   24
ATOM     33  C24 UNL A   1      38.378  31.420  36.493  1.00  0.00    +0.000 C 
ATOM     34  F5  UNL A   1      37.931  30.157  36.431  1.00  0.00    +0.000 F 
ATOM     24  C19 UNL A   1      39.286  31.897  35.536  1.00  0.00    +0.000 C 
ATOM     25  C20 UNL A   1      39.717  33.229  35.649  1.00  0.00    +0.000 C 
ATOM     26  F1  UNL A   1      40.595  33.731  34.767  1.00  0.00    +0.000 F 
ATOM     27  C21 UNL A   1      39.283  34.037  36.696  1.00  0.00    +0.000 C 
ATOM     28  F2  UNL A   1      39.750  35.287  36.813  1.00  0.00    +0.000 F 
ATOM     29  C22 UNL A   1      38.382  33.545  37.628  1.00  0.00    +0.000 C 
ATOM     30  F3  UNL A   1      37.963  34.324  38.633  1.00  0.00    +0.000 F 
ATOM     31  C23 UNL A   1      37.923  32.240  37.522  1.00  0.00    +0.000 C 
ATOM     32  F4  UNL A   1      37.043  31.767  38.415  1.00  0.00    +0.000 F 
ENDBRANCH   23   24
BRANCH   40   41
ATOM     41  C30 UNL A   1      44.748  27.396  34.145  1.00  0.00    +0.000 C 
ATOM     42  C31 UNL A   1      45.982  28.059  34.159  1.00  0.00    +0.000 C 
ATOM     43  F6  UNL A   1      46.139  29.210  33.485  1.00  0.00    +0.000 F 
ATOM     44  C32 UNL A   1      47.076  27.522  34.832  1.00  0.00    +0.000 C 
ATOM     45  F7  UNL A   1      48.260  28.148  34.791  1.00  0.00    +0.000 F 
ATOM     46  C33 UNL A   1      46.947  26.331  35.531  1.00  0.00    +0.000 C 
ATOM     47  F8  UNL A   1      47.999  25.817  36.182  1.00  0.00    +0.000 F 
ATOM     48  C34 UNL A   1      45.729  25.668  35.548  1.00  0.00    +0.000 C 
ATOM     49  F9  UNL A   1      45.598  24.523  36.232  1.00  0.00    +0.000 F 
ATOM     50  C35 UNL A   1      44.642  26.188  34.852  1.00  0.00    +0.000 C 
ATOM     51  F10 UNL A   1      43.480  25.517  34.875  1.00  0.00    +0.000 F 
ENDBRANCH   40   41
BRANCH   55   56
ATOM     65  C44 UNL A   1      43.145  26.931  26.774  1.00  0.00    +0.000 C 
ATOM     66  F15 UNL A   1      43.620  28.179  26.894  1.00  0.00    +0.000 F 
ATOM     56  C39 UNL A   1      42.243  26.429  27.721  1.00  0.00    +0.000 C 
ATOM     57  C40 UNL A   1      41.773  25.120  27.549  1.00  0.00    +0.000 C 
ATOM     58  F11 UNL A   1      40.924  24.590  28.442  1.00  0.00    +0.000 F 
ATOM     59  C41 UNL A   1      42.205  24.336  26.481  1.00  0.00    +0.000 C 
ATOM     60  F12 UNL A   1      41.772  23.073  26.363  1.00  0.00    +0.000 F 
ATOM     61  C42 UNL A   1      43.091  24.855  25.550  1.00  0.00    +0.000 C 
ATOM     62  F13 UNL A   1      43.504  24.103  24.522  1.00  0.00    +0.000 F 
ATOM     63  C43 UNL A   1      43.556  26.154  25.692  1.00  0.00    +0.000 C 
ATOM     64  F14 UNL A   1      44.403  26.664  24.788  1.00  0.00    +0.000 F 
ENDBRANCH   55   56
TORSDOF 20
ENDMDL
MODEL 2
REMARK VINA RESULT:     -10.8      4.654     10.105
ROOT
ATOM     19  C15 UNL A   1      41.467  26.394  27.546  1.00  0.00    +0.000 C 
ATOM     20  C16 UNL A   1      42.865  26.708  27.095  1.00  0.00    +0.000 C 
ATOM     21  N3  UNL A   1      43.588  27.778  27.315  1.00  0.00    +0.000 N 
ATOM     22  C17 UNL A   1      44.819  27.531  26.722  1.00  0.00    +0.000 C 
ATOM     23  C18 UNL A   1      45.890  28.356  26.623  1.00  0.00    +0.000 C 
ATOM     35  C25 UNL A   1      45.925  29.700  27.134  1.00  0.00    +0.000 C 
ATOM     36  C26 UNL A   1      46.932  30.643  27.017  1.00  0.00    +0.000 C 
ATOM     37  C27 UNL A   1      46.536  31.794  27.708  1.00  0.00    +0.000 C 
ATOM     38  C28 UNL A   1      45.263  31.585  28.215  1.00  0.00    +0.000 C 
ATOM     39  N4  UNL A   1      44.902  30.295  27.858  1.00  0.00    +0.000 N 
ATOM     40  C29 UNL A   1      44.436  32.492  28.967  1.00  0.00    +0.000 C 
ATOM     52  C36 UNL A   1      43.193  32.211  29.431  1.00  0.00    +0.000 C 
ATOM     53  N5  UNL A   1      42.450  31.047  29.286  1.00  0.00    +0.000 N 
ATOM     54  C37 UNL A   1      41.321  31.261  29.915  1.00  0.00    +0.000 C 
ATOM     55  C38 UNL A   1      40.124  30.360  30.053  1.00  0.00    +0.000 C 
ATOM     67  C45 UNL A   1      40.147  29.143  29.477  1.00  0.00    +0.000 C 
ATOM     68  C46 UNL A   1      39.061  28.168  29.508  1.00  0.00    +0.000 C 
ATOM     69  C47 UNL A   1      39.438  27.070  28.834  1.00  0.00    +0.000 C 
ATOM     70  C48 UNL A   1      40.784  27.277  28.299  1.00  0.00    +0.000 C 
ATOM     71  N6  UNL A   1      41.132  28.527  28.746  1.00  0.00    +0.000 N 
ATOM     72  C49 UNL A   1      41.233  32.578  30.561  1.00  0.00    +0.000 C 
ATOM     73  C50 UNL A   1      42.381  33.132  30.199  1.00  0.00    +0.000 C 
ATOM     74  C51 UNL A   1      44.765  26.193  26.175  1.00  0.00    +0.000 C 
ATOM     75  C52 UNL A   1      43.557  25.669  26.315  1.00  0.00    +0.000 C 
ATOM    112  H21 UNL A   1      47.822  30.518  26.510  1.00  0.00    +0.000 H 
ATOM    113  H22 UNL A   1      47.097  32.653  27.821  1.00  0.00    +0.000 H 
ATOM    114  H23 UNL A   1      44.047  29.864  28.086  1.00  0.00    +0.000 H 
ATOM    115  H24 UNL A   1      38.149  28.301  29.973  1.00  0.00    +0.000 H 
ATOM    116  H25 UNL A   1      38.871  26.216  28.713  1.00  0.00    +0.000 H 
ATOM    117  H26 UNL A   1      42.005  28.943  28.559  1.00  0.00    +0.000 H 
ATOM    118  H27 UNL A   1      40.476  32.968  31.144  1.00  0.00    +0.000 H 
ATOM    119  H28 UNL A   1      42.661  34.097  30.435  1.00  0.00    +0.000 H 
ATOM    120  H29 UNL A   1      45.564  25.711  25.734  1.00  0.00    +0.000 H 
ATOM    121  H30 UNL A   1      43.195  24.768  25.967  1.00  0.00    +0.000 H 
ENDROOT
BRANCH   19   18
ATOM     76  C53 UNL A   1      39.798  25.028  26.287  1.00  0.00    +0.000 C 
ATOM     77  C54 UNL A   1      39.170  23.816  26.011  1.00  0.00    +0.000 C 
ATOM    110  H19 UNL A   1      41.049  21.807  27.932  1.00  0.00    +0.000 H 
ATOM     15  C11 UNL A   1      39.657  22.633  26.574  1.00  0.00    +0.000 C 
ATOM     16  C12 UNL A   1      40.707  22.677  27.496  1.00  0.00    +0.000 C 
ATOM     17  C13 UNL A   1      41.291  23.902  27.825  1.00  0.00    +0.000 C 
ATOM    111  H20 UNL A   1      42.049  23.937  28.525  1.00  0.00    +0.000 H 
ATOM     18  C14 UNL A   1      40.853  25.085  27.210  1.00  0.00    +0.000 C 
ATOM    122  H31 UNL A   1      39.486  25.889  25.810  1.00  0.00    +0.000 H 
ATOM    123  H32 UNL A   1      38.345  23.791  25.391  1.00  0.00    +0.000 H 
BRANCH   15   13
ATOM     13  C10 UNL A   1      39.055  21.323  26.244  1.00  0.00    +0.000 C 
ATOM     14  O2  UNL A   1      39.752  20.311  26.260  1.00  0.00    +0.000 O 
BRANCH   13   12
ATOM     12  N2  UNL A   1      37.729  21.237  25.911  1.00  0.00    +0.000 N 
ATOM    109  H18 UNL A   1      37.098  21.304  26.664  1.00  0.00    +0.000 H 
BRANCH   12   11
ATOM     11  C9  UNL A   1      37.122  21.062  24.602  1.00  0.00    +0.000 C 
ATOM    108  H17 UNL A   1      36.452  20.229  24.659  1.00  0.00    +0.000 H 
ATOM    107  H16 UNL A   1      37.897  20.891  23.884  1.00  0.00    +0.000 H 
BRANCH   11   10
ATOM    105  H14 UNL A   1      36.997  23.013  23.789  1.00  0.00    +0.000 H 
ATOM     10  C8  UNL A   1      36.316  22.283  24.174  1.00  0.00    +0.000 C 
ATOM    106  H15 UNL A   1      35.611  21.940  23.446  1.00  0.00    +0.000 H 
BRANCH   10    9
ATOM      9  C7  UNL A   1      35.501  22.935  25.292  1.00  0.00    +0.000 C 
ATOM    103  H12 UNL A   1      34.531  22.483  25.303  1.00  0.00    +0.000 H 
ATOM    104  H13 UNL A   1      36.054  22.780  26.195  1.00  0.00    +0.000 H 
BRANCH    9    8
ATOM    101  H10 UNL A   1      36.191  24.926  25.552  1.00  0.00    +0.000 H 
ATOM    102  H11 UNL A   1      35.155  24.641  24.120  1.00  0.00    +0.000 H 
ATOM      8  C6  UNL A   1      35.316  24.450  25.161  1.00  0.00    +0.000 C 
BRANCH    8    7
ATOM     99  H8  UNL A   1      33.238  24.445  25.624  1.00  0.00    +0.000 H 
ATOM    100  H9  UNL A   1      34.315  24.978  26.940  1.00  0.00    +0.000 H 
ATOM      7  C5  UNL A   1      34.096  25.025  25.894  1.00  0.00    +0.000 C 
BRANCH    7    6
ATOM     97  H6  UNL A   1      33.569  27.009  26.475  1.00  0.00    +0.000 H 
ATOM     98  H7  UNL A   1      34.674  26.918  25.112  1.00  0.00    +0.000 H 
ATOM      6  C4  UNL A   1      33.807  26.491  25.570  1.00  0.00    +0.000 C 
BRANCH    6    5
ATOM      5  N1  UNL A   1      32.695  26.606  24.651  1.00  0.00    +0.000 N 
ATOM     96  H5  UNL A   1      31.933  27.133  24.983  1.00  0.00    +0.000 H 
BRANCH    5    3
ATOM      3  C3  UNL A   1      32.542  26.097  23.393  1.00  0.00    +0.000 C 
ATOM      4  O1  UNL A   1      33.321  26.512  22.533  1.00  0.00    +0.000 O 
BRANCH    3    2
ATOM      2  C2  UNL A   1      31.392  25.121  23.102  1.00  0.00    +0.000 C 
ATOM     95  H4  UNL A   1      31.277  25.136  22.039  1.00  0.00    +0.000 H 
BRANCH    2    1
ATOM      1  C1  UNL A   1      30.050  25.555  23.698  1.00  0.00    +0.000 C 
ATOM     92  H1  UNL A   1      29.252  25.181  23.090  1.00  0.00    +0.000 H 
ATOM     93  H2  UNL A   1      30.002  26.623  23.729  1.00  0.00    +0.000 H 
ATOM     94  H3  UNL A   1      29.956  25.165  24.689  1.00  0.00    +0.000 H 
ENDBRANCH    2    1
BRANCH    2   78
ATOM    136  H45 UNL A   1      33.442  20.979  22.595  1.00  0.00    +0.000 H 
ATOM     78  C55 UNL A   1      31.726  23.705  23.541  1.00  0.00    +0.000 C 
ATOM     79  C56 UNL A   1      31.232  23.208  24.749  1.00  0.00    +0.000 C 
ATOM     80  C57 UNL A   1      31.555  21.910  25.167  1.00  0.00    +0.000 C 
ATOM     81  C58 UNL A   1      32.335  21.053  24.387  1.00  0.00    +0.000 C 
ATOM     89  C64 UNL A   1      32.835  21.569  23.186  1.00  0.00    +0.000 C 
ATOM     90  C65 UNL A   1      32.532  22.865  22.772  1.00  0.00    +0.000 C 
ATOM     91  F16 UNL A   1      33.056  23.301  21.616  1.00  0.00    +0.000 F 
ATOM    124  H33 UNL A   1      30.626  23.800  25.338  1.00  0.00    +0.000 H 
ATOM    125  H34 UNL A   1      31.205  21.577  26.080  1.00  0.00    +0.000 H 
BRANCH   81   82
ATOM     82  N7  UNL A   1      32.734  19.785  24.768  1.00  0.00    +0.000 N 
ATOM    126  H35 UNL A   1      32.412  19.481  25.648  1.00  0.00    +0.000 H 
BRANCH   82   83
ATOM    129  H38 UNL A   1      35.604  18.590  24.752  1.00  0.00    +0.000 H 
ATOM    130  H39 UNL A   1      34.107  16.085  25.187  1.00  0.00    +0.000 H 
ATOM    131  H40 UNL A   1      35.608  16.279  24.371  1.00  0.00    +0.000 H 
ATOM    132  H41 UNL A   1      33.435  15.698  22.957  1.00  0.00    +0.000 H 
ATOM    133  H42 UNL A   1      34.516  16.837  22.292  1.00  0.00    +0.000 H 
ATOM    134  H43 UNL A   1      31.944  17.392  23.841  1.00  0.00    +0.000 H 
ATOM     83  C59 UNL A   1      33.573  18.842  24.036  1.00  0.00    +0.000 C 
ATOM     84  C60 UNL A   1      34.639  18.150  24.889  1.00  0.00    +0.000 C 
ATOM     85  C61 UNL A   1      34.620  16.680  24.460  1.00  0.00    +0.000 C 
ATOM     86  C62 UNL A   1      33.877  16.657  23.132  1.00  0.00    +0.000 C 
ATOM     87  C63 UNL A   1      32.809  17.727  23.306  1.00  0.00    +0.000 C 
ATOM    127  H36 UNL A   1      34.032  19.492  23.321  1.00  0.00    +0.000 H 
ATOM    128  H37 UNL A   1      34.401  18.238  25.929  1.00  0.00    +0.000 H 
BRANCH   87   88
ATOM    135  H44 UNL A   1      32.219  19.124  22.049  1.00  0.00    +0.000 H 
ATOM     88  O3  UNL A   1      32.306  18.158  22.050  1.00  0.00    +0.000 O 
ENDBRANCH   87   88
ENDBRANCH   82   83
ENDBRANCH   81   82
ENDBRANCH    2   78
ENDBRANCH    3    2
ENDBRANCH    5    3
ENDBRANCH    6    5
ENDBRANCH    7    6
ENDBRANCH    8    7
ENDBRANCH    9    8
ENDBRANCH   10    9
ENDBRANCH   11   10
ENDBRANCH   12   11
ENDBRANCH   13   12
ENDBRANCH   15   13
ENDBRANCH   19   18
BRANCH   23   24
ATOM     33  C24 UNL A   1      47.192  27.806  24.536  1.00  0.00    +0.000 C 
ATOM     34  F5  UNL A   1      46.181  28.282  23.796  1.00  0.00    +0.000 F 
ATOM     24  C19 UNL A   1      47.114  27.822  25.937  1.00  0.00    +0.000 C 
ATOM     25  C20 UNL A   1      48.201  27.306  26.660  1.00  0.00    +0.000 C 
ATOM     26  F1  UNL A   1      48.181  27.310  28.002  1.00  0.00    +0.000 F 
ATOM     27  C21 UNL A   1      49.333  26.826  26.008  1.00  0.00    +0.000 C 
ATOM     28  F2  UNL A   1      50.379  26.389  26.721  1.00  0.00    +0.000 F 
ATOM     29  C22 UNL A   1      49.387  26.816  24.623  1.00  0.00    +0.000 C 
ATOM     30  F3  UNL A   1      50.476  26.352  23.997  1.00  0.00    +0.000 F 
ATOM     31  C23 UNL A   1      48.315  27.298  23.887  1.00  0.00    +0.000 C 
ATOM     32  F4  UNL A   1      48.360  27.277  22.547  1.00  0.00    +0.000 F 
ENDBRANCH   23   24
BRANCH   40   41
ATOM     41  C30 UNL A   1      44.975  33.866  29.242  1.00  0.00    +0.000 C 
ATOM     42  C31 UNL A   1      45.748  34.141  30.378  1.00  0.00    +0.000 C 
ATOM     43  F6  UNL A   1      45.989  33.178  31.281  1.00  0.00    +0.000 F 
ATOM     44  C32 UNL A   1      46.242  35.421  30.614  1.00  0.00    +0.000 C 
ATOM     45  F7  UNL A   1      46.938  35.674  31.731  1.00  0.00    +0.000 F 
ATOM     46  C33 UNL A   1      46.004  36.439  29.702  1.00  0.00    +0.000 C 
ATOM     47  F8  UNL A   1      46.484  37.669  29.928  1.00  0.00    +0.000 F 
ATOM     48  C34 UNL A   1      45.259  36.184  28.561  1.00  0.00    +0.000 C 
ATOM     49  F9  UNL A   1      45.037  37.162  27.672  1.00  0.00    +0.000 F 
ATOM     50  C35 UNL A   1      44.739  34.912  28.337  1.00  0.00    +0.000 C 
ATOM     51  F10 UNL A   1      44.010  34.699  27.231  1.00  0.00    +0.000 F 
ENDBRANCH   40   41
BRANCH   55   56
ATOM     65  C44 UNL A   1      37.836  31.414  30.099  1.00  0.00    +0.000 C 
ATOM     66  F15 UNL A   1      37.894  31.594  28.771  1.00  0.00    +0.000 F 
ATOM     56  C39 UNL A   1      38.907  30.816  30.774  1.00  0.00    +0.000 C 
ATOM     57  C40 UNL A   1      38.798  30.654  32.162  1.00  0.00    +0.000 C 
ATOM     58  F11 UNL A   1      39.791  30.067  32.849  1.00  0.00    +0.000 F 
ATOM     59  C41 UNL A   1      37.652  31.057  32.845  1.00  0.00    +0.000 C 
ATOM     60  F12 UNL A   1      37.556  30.852  34.167  1.00  0.00    +0.000 F 
ATOM     61  C42 UNL A   1      36.607  31.654  32.159  1.00  0.00    +0.000 C 
ATOM     62  F13 UNL A   1      35.507  32.044  32.815  1.00  0.00    +0.000 F 
ATOM     63  C43 UNL A   1      36.701  31.840  30.787  1.00  0.00    +0.000 C 
ATOM     64  F14 UNL A   1      35.698  32.428  30.122  1.00  0.00    +0.000 F 
ENDBRANCH   55   56
TORSDOF 20
ENDMDL
MODEL 3
REMARK VINA RESULT:     -10.5     20.438     26.102
ROOT
ATOM     19  C15 UNL A   1      53.454  19.777  11.833  1.00  0.00    +0.000 C 
ATOM     20  C16 UNL A   1      54.806  19.135  11.698  1.00  0.00    +0.000 C 
ATOM     21  N3  UNL A   1      55.796  19.097  12.554  1.00  0.00    +0.000 N 
ATOM     22  C17 UNL A   1      56.788  18.334  11.952  1.00  0.00    +0.000 C 
ATOM     23  C18 UNL A   1      58.032  18.050  12.409  1.00  0.00    +0.000 C 
ATOM     35  C25 UNL A   1      58.563  18.529  13.657  1.00  0.00    +0.000 C 
ATOM     36  C26 UNL A   1      59.835  18.363  14.176  1.00  0.00    +0.000 C 
ATOM     37  C27 UNL A   1      59.877  18.970  15.436  1.00  0.00    +0.000 C 
ATOM     38  C28 UNL A   1      58.644  19.553  15.683  1.00  0.00    +0.000 C 
ATOM     39  N4  UNL A   1      57.847  19.272  14.585  1.00  0.00    +0.000 N 
ATOM     40  C29 UNL A   1      58.224  20.312  16.832  1.00  0.00    +0.000 C 
ATOM     52  C36 UNL A   1      56.992  20.854  17.000  1.00  0.00    +0.000 C 
ATOM     53  N5  UNL A   1      55.902  20.824  16.142  1.00  0.00    +0.000 N 
ATOM     54  C37 UNL A   1      54.945  21.480  16.752  1.00  0.00    +0.000 C 
ATOM     55  C38 UNL A   1      53.554  21.796  16.276  1.00  0.00    +0.000 C 
ATOM     67  C45 UNL A   1      53.164  21.373  15.058  1.00  0.00    +0.000 C 
ATOM     68  C46 UNL A   1      51.858  21.616  14.452  1.00  0.00    +0.000 C 
ATOM     69  C47 UNL A   1      51.825  21.044  13.238  1.00  0.00    +0.000 C 
ATOM     70  C48 UNL A   1      53.120  20.419  12.969  1.00  0.00    +0.000 C 
ATOM     71  N6  UNL A   1      53.846  20.648  14.111  1.00  0.00    +0.000 N 
ATOM     72  C49 UNL A   1      55.313  21.974  18.087  1.00  0.00    +0.000 C 
ATOM     73  C50 UNL A   1      56.582  21.602  18.170  1.00  0.00    +0.000 C 
ATOM     74  C51 UNL A   1      56.264  17.888  10.679  1.00  0.00    +0.000 C 
ATOM     75  C52 UNL A   1      55.073  18.415  10.442  1.00  0.00    +0.000 C 
ATOM    112  H21 UNL A   1      60.618  17.876  13.713  1.00  0.00    +0.000 H 
ATOM    113  H22 UNL A   1      60.688  18.980  16.075  1.00  0.00    +0.000 H 
ATOM    114  H23 UNL A   1      56.910  19.557  14.479  1.00  0.00    +0.000 H 
ATOM    115  H24 UNL A   1      51.085  22.143  14.887  1.00  0.00    +0.000 H 
ATOM    116  H25 UNL A   1      51.016  21.044  12.597  1.00  0.00    +0.000 H 
ATOM    117  H26 UNL A   1      54.767  20.325  14.240  1.00  0.00    +0.000 H 
ATOM    118  H27 UNL A   1      54.734  22.476  18.778  1.00  0.00    +0.000 H 
ATOM    119  H28 UNL A   1      57.201  21.819  18.968  1.00  0.00    +0.000 H 
ATOM    120  H29 UNL A   1      56.756  17.244  10.040  1.00  0.00    +0.000 H 
ATOM    121  H30 UNL A   1      54.485  18.341   9.597  1.00  0.00    +0.000 H 
ENDROOT
BRANCH   19   18
ATOM     76  C53 UNL A   1      52.352  20.683   9.783  1.00  0.00    +0.000 C 
ATOM     77  C54 UNL A   1      51.382  20.616   8.787  1.00  0.00    +0.000 C 
ATOM    110  H19 UNL A   1      50.067  17.622   9.543  1.00  0.00    +0.000 H 
ATOM     15  C11 UNL A   1      50.580  19.477   8.669  1.00  0.00    +0.000 C 
ATOM     16  C12 UNL A   1      50.678  18.451   9.614  1.00  0.00    +0.000 C 
ATOM     17  C13 UNL A   1      51.605  18.551  10.654  1.00  0.00    +0.000 C 
ATOM    111  H20 UNL A   1      51.659  17.805  11.365  1.00  0.00    +0.000 H 
ATOM     18  C14 UNL A   1      52.461  19.659  10.736  1.00  0.00    +0.000 C 
ATOM    122  H31 UNL A   1      52.995  21.490   9.821  1.00  0.00    +0.000 H 
ATOM    123  H32 UNL A   1      51.254  21.407   8.136  1.00  0.00    +0.000 H 
BRANCH   15   13
ATOM     13  C10 UNL A   1      49.589  19.347   7.580  1.00  0.00    +0.000 C 
ATOM     14  O2  UNL A   1      49.775  18.530   6.681  1.00  0.00    +0.000 O 
BRANCH   13   12
ATOM     12  N2  UNL A   1      48.473  20.142   7.563  1.00  0.00    +0.000 N 
ATOM    109  H18 UNL A   1      47.672  19.756   7.987  1.00  0.00    +0.000 H 
BRANCH   12   11
ATOM     11  C9  UNL A   1      48.304  21.474   7.009  1.00  0.00    +0.000 C 
ATOM    108  H17 UNL A   1      49.234  21.993   7.108  1.00  0.00    +0.000 H 
ATOM    107  H16 UNL A   1      47.521  21.972   7.542  1.00  0.00    +0.000 H 
BRANCH   11   10
ATOM    105  H14 UNL A   1      47.684  22.431   5.224  1.00  0.00    +0.000 H 
ATOM     10  C8  UNL A   1      47.943  21.438   5.528  1.00  0.00    +0.000 C 
ATOM    106  H15 UNL A   1      48.801  21.053   5.017  1.00  0.00    +0.000 H 
BRANCH   10    9
ATOM      9  C7  UNL A   1      46.778  20.512   5.175  1.00  0.00    +0.000 C 
ATOM    103  H12 UNL A   1      46.293  20.225   6.085  1.00  0.00    +0.000 H 
ATOM    104  H13 UNL A   1      46.147  21.066   4.512  1.00  0.00    +0.000 H 
BRANCH    9    8
ATOM    101  H10 UNL A   1      47.503  19.515   3.446  1.00  0.00    +0.000 H 
ATOM    102  H11 UNL A   1      47.926  18.763   5.015  1.00  0.00    +0.000 H 
ATOM      8  C6  UNL A   1      47.169  19.235   4.424  1.00  0.00    +0.000 C 
BRANCH    8    7
ATOM     99  H8  UNL A   1      46.373  17.280   4.699  1.00  0.00    +0.000 H 
ATOM    100  H9  UNL A   1      45.184  18.606   4.753  1.00  0.00    +0.000 H 
ATOM      7  C5  UNL A   1      46.046  18.202   4.265  1.00  0.00    +0.000 C 
BRANCH    7    6
ATOM     97  H6  UNL A   1      45.976  18.748   2.203  1.00  0.00    +0.000 H 
ATOM     98  H7  UNL A   1      46.100  17.020   2.495  1.00  0.00    +0.000 H 
ATOM      6  C4  UNL A   1      45.645  17.935   2.814  1.00  0.00    +0.000 C 
BRANCH    6    5
ATOM      5  N1  UNL A   1      44.210  17.804   2.691  1.00  0.00    +0.000 N 
ATOM     96  H5  UNL A   1      43.876  16.879   2.654  1.00  0.00    +0.000 H 
BRANCH    5    3
ATOM      3  C3  UNL A   1      43.245  18.769   2.621  1.00  0.00    +0.000 C 
ATOM      4  O1  UNL A   1      42.246  18.601   3.323  1.00  0.00    +0.000 O 
BRANCH    3    2
ATOM      2  C2  UNL A   1      43.411  19.941   1.641  1.00  0.00    +0.000 C 
ATOM     95  H4  UNL A   1      44.084  19.582   0.890  1.00  0.00    +0.000 H 
BRANCH    2    1
ATOM      1  C1  UNL A   1      44.064  21.177   2.265  1.00  0.00    +0.000 C 
ATOM     92  H1  UNL A   1      44.249  20.997   3.303  1.00  0.00    +0.000 H 
ATOM     93  H2  UNL A   1      43.409  22.018   2.161  1.00  0.00    +0.000 H 
ATOM     94  H3  UNL A   1      44.988  21.383   1.768  1.00  0.00    +0.000 H 
ENDBRANCH    2    1
BRANCH    2   78
ATOM    136  H45 UNL A   1      40.306  19.842  -1.818  1.00  0.00    +0.000 H 
ATOM     78  C55 UNL A   1      42.096  20.319   0.982  1.00  0.00    +0.000 C 
ATOM     79  C56 UNL A   1      41.187  21.144   1.649  1.00  0.00    +0.000 C 
ATOM     80  C57 UNL A   1      39.963  21.479   1.054  1.00  0.00    +0.000 C 
ATOM     81  C58 UNL A   1      39.622  21.047  -0.230  1.00  0.00    +0.000 C 
ATOM     89  C64 UNL A   1      40.534  20.208  -0.881  1.00  0.00    +0.000 C 
ATOM     90  C65 UNL A   1      41.746  19.858  -0.288  1.00  0.00    +0.000 C 
ATOM     91  F16 UNL A   1      42.569  19.040  -0.961  1.00  0.00    +0.000 F 
ATOM    124  H33 UNL A   1      41.418  21.510   2.586  1.00  0.00    +0.000 H 
ATOM    125  H34 UNL A   1      39.294  22.063   1.581  1.00  0.00    +0.000 H 
BRANCH   81   82
ATOM     82  N7  UNL A   1      38.409  21.295  -0.848  1.00  0.00    +0.000 N 
ATOM    126  H35 UNL A   1      38.256  20.818  -1.696  1.00  0.00    +0.000 H 
BRANCH   82   83
ATOM    129  H38 UNL A   1      37.454  24.248  -1.017  1.00  0.00    +0.000 H 
ATOM    130  H39 UNL A   1      35.146  22.982  -2.349  1.00  0.00    +0.000 H 
ATOM    131  H40 UNL A   1      35.152  24.422  -1.410  1.00  0.00    +0.000 H 
ATOM    132  H41 UNL A   1      34.005  22.239  -0.420  1.00  0.00    +0.000 H 
ATOM    133  H42 UNL A   1      34.925  23.191   0.654  1.00  0.00    +0.000 H 
ATOM    134  H43 UNL A   1      35.800  20.659  -0.808  1.00  0.00    +0.000 H 
ATOM     83  C59 UNL A   1      37.330  22.172  -0.404  1.00  0.00    +0.000 C 
ATOM     84  C60 UNL A   1      37.025  23.329  -1.359  1.00  0.00    +0.000 C 
ATOM     85  C61 UNL A   1      35.498  23.410  -1.434  1.00  0.00    +0.000 C 
ATOM     86  C62 UNL A   1      34.993  22.610  -0.241  1.00  0.00    +0.000 C 
ATOM     87  C63 UNL A   1      35.992  21.467  -0.133  1.00  0.00    +0.000 C 
ATOM    127  H36 UNL A   1      37.736  22.543   0.514  1.00  0.00    +0.000 H 
ATOM    128  H37 UNL A   1      37.436  23.134  -2.328  1.00  0.00    +0.000 H 
BRANCH   87   88
ATOM    135  H44 UNL A   1      35.694  21.538   1.812  1.00  0.00    +0.000 H 
ATOM     88  O3  UNL A   1      35.953  20.873   1.155  1.00  0.00    +0.000 O 
ENDBRANCH   87   88
ENDBRANCH   82   83
ENDBRANCH   81   82
ENDBRANCH    2   78
ENDBRANCH    3    2
ENDBRANCH    5    3
ENDBRANCH    6    5
ENDBRANCH    7    6
ENDBRANCH    8    7
ENDBRANCH    9    8
ENDBRANCH   10    9
ENDBRANCH   11   10
ENDBRANCH   12   11
ENDBRANCH   13   12
ENDBRANCH   15   13
ENDBRANCH   19   18
BRANCH   23   24
ATOM     33  C24 UNL A   1      59.703  17.744  10.547  1.00  0.00    +0.000 C 
ATOM     34  F5  UNL A   1      59.709  19.071  10.352  1.00  0.00    +0.000 F 
ATOM     24  C19 UNL A   1      58.903  17.179  11.551  1.00  0.00    +0.000 C 
ATOM     25  C20 UNL A   1      58.933  15.784  11.707  1.00  0.00    +0.000 C 
ATOM     26  F1  UNL A   1      58.196  15.195  12.661  1.00  0.00    +0.000 F 
ATOM     27  C21 UNL A   1      59.756  14.992  10.910  1.00  0.00    +0.000 C 
ATOM     28  F2  UNL A   1      59.808  13.669  11.114  1.00  0.00    +0.000 F 
ATOM     29  C22 UNL A   1      60.535  15.571   9.921  1.00  0.00    +0.000 C 
ATOM     30  F3  UNL A   1      61.324  14.807   9.154  1.00  0.00    +0.000 F 
ATOM     31  C23 UNL A   1      60.502  16.945   9.733  1.00  0.00    +0.000 C 
ATOM     32  F4  UNL A   1      61.245  17.505   8.768  1.00  0.00    +0.000 F 
ENDBRANCH   23   24
BRANCH   40   41
ATOM     41  C30 UNL A   1      59.230  20.546  17.922  1.00  0.00    +0.000 C 
ATOM     42  C31 UNL A   1      59.956  21.742  18.010  1.00  0.00    +0.000 C 
ATOM     43  F6  UNL A   1      59.797  22.699  17.084  1.00  0.00    +0.000 F 
ATOM     44  C32 UNL A   1      60.882  21.942  19.030  1.00  0.00    +0.000 C 
ATOM     45  F7  UNL A   1      61.602  23.072  19.068  1.00  0.00    +0.000 F 
ATOM     46  C33 UNL A   1      61.074  20.967  19.999  1.00  0.00    +0.000 C 
ATOM     47  F8  UNL A   1      61.963  21.163  20.982  1.00  0.00    +0.000 F 
ATOM     48  C34 UNL A   1      60.351  19.785  19.942  1.00  0.00    +0.000 C 
ATOM     49  F9  UNL A   1      60.526  18.846  20.882  1.00  0.00    +0.000 F 
ATOM     50  C35 UNL A   1      59.446  19.570  18.907  1.00  0.00    +0.000 C 
ATOM     51  F10 UNL A   1      58.771  18.411  18.869  1.00  0.00    +0.000 F 
ENDBRANCH   40   41
BRANCH   55   56
ATOM     65  C44 UNL A   1      52.577  24.001  17.005  1.00  0.00    +0.000 C 
ATOM     66  F15 UNL A   1      53.378  24.640  16.140  1.00  0.00    +0.000 F 
ATOM     56  C39 UNL A   1      52.629  22.605  17.110  1.00  0.00    +0.000 C 
ATOM     57  C40 UNL A   1      51.773  21.986  18.032  1.00  0.00    +0.000 C 
ATOM     58  F11 UNL A   1      51.773  20.650  18.153  1.00  0.00    +0.000 F 
ATOM     59  C41 UNL A   1      50.885  22.733  18.803  1.00  0.00    +0.000 C 
ATOM     60  F12 UNL A   1      50.048  22.113  19.646  1.00  0.00    +0.000 F 
ATOM     61  C42 UNL A   1      50.856  24.114  18.689  1.00  0.00    +0.000 C 
ATOM     62  F13 UNL A   1      50.005  24.833  19.432  1.00  0.00    +0.000 F 
ATOM     63  C43 UNL A   1      51.706  24.749  17.795  1.00  0.00    +0.000 C 
ATOM     64  F14 UNL A   1      51.690  26.085  17.691  1.00  0.00    +0.000 F 
ENDBRANCH   55   56
TORSDOF 20
ENDMDL
MODEL 4
REMARK VINA RESULT:     -10.5     20.563     26.247
ROOT
ATOM     19  C15 UNL A   1      21.640  38.349  49.317  1.00  0.00    +0.000 C 
ATOM     20  C16 UNL A   1      22.142  37.213  48.471  1.00  0.00    +0.000 C 
ATOM     21  N3  UNL A   1      23.306  37.064  47.889  1.00  0.00    +0.000 N 
ATOM     22  C17 UNL A   1      23.266  35.816  47.281  1.00  0.00    +0.000 C 
ATOM     23  C18 UNL A   1      24.206  35.224  46.504  1.00  0.00    +0.000 C 
ATOM     35  C25 UNL A   1      25.462  35.830  46.151  1.00  0.00    +0.000 C 
ATOM     36  C26 UNL A   1      26.448  35.347  45.308  1.00  0.00    +0.000 C 
ATOM     37  C27 UNL A   1      27.506  36.262  45.303  1.00  0.00    +0.000 C 
ATOM     38  C28 UNL A   1      27.160  37.337  46.107  1.00  0.00    +0.000 C 
ATOM     39  N4  UNL A   1      25.905  37.057  46.623  1.00  0.00    +0.000 N 
ATOM     40  C29 UNL A   1      27.916  38.531  46.383  1.00  0.00    +0.000 C 
ATOM     52  C36 UNL A   1      27.506  39.544  47.186  1.00  0.00    +0.000 C 
ATOM     53  N5  UNL A   1      26.314  39.675  47.886  1.00  0.00    +0.000 N 
ATOM     54  C37 UNL A   1      26.391  40.820  48.518  1.00  0.00    +0.000 C 
ATOM     55  C38 UNL A   1      25.373  41.492  49.398  1.00  0.00    +0.000 C 
ATOM     67  C45 UNL A   1      24.189  40.888  49.613  1.00  0.00    +0.000 C 
ATOM     68  C46 UNL A   1      23.098  41.421  50.424  1.00  0.00    +0.000 C 
ATOM     69  C47 UNL A   1      22.079  40.547  50.416  1.00  0.00    +0.000 C 
ATOM     70  C48 UNL A   1      22.436  39.404  49.575  1.00  0.00    +0.000 C 
ATOM     71  N6  UNL A   1      23.712  39.684  49.156  1.00  0.00    +0.000 N 
ATOM     72  C49 UNL A   1      27.661  41.532  48.317  1.00  0.00    +0.000 C 
ATOM     73  C50 UNL A   1      28.285  40.732  47.464  1.00  0.00    +0.000 C 
ATOM     74  C51 UNL A   1      21.985  35.228  47.604  1.00  0.00    +0.000 C 
ATOM     75  C52 UNL A   1      21.225  36.078  48.276  1.00  0.00    +0.000 C 
ATOM    112  H21 UNL A   1      26.410  34.464  44.775  1.00  0.00    +0.000 H 
ATOM    113  H22 UNL A   1      28.395  36.155  44.789  1.00  0.00    +0.000 H 
ATOM    114  H23 UNL A   1      25.403  37.641  47.236  1.00  0.00    +0.000 H 
ATOM    115  H24 UNL A   1      23.108  42.325  50.922  1.00  0.00    +0.000 H 
ATOM    116  H25 UNL A   1      21.187  40.662  50.923  1.00  0.00    +0.000 H 
ATOM    117  H26 UNL A   1      24.236  39.080  48.581  1.00  0.00    +0.000 H 
ATOM    118  H27 UNL A   1      27.982  42.421  48.732  1.00  0.00    +0.000 H 
ATOM    119  H28 UNL A   1      29.210  40.931  47.051  1.00  0.00    +0.000 H 
ATOM    120  H29 UNL A   1      21.701  34.270  47.345  1.00  0.00    +0.000 H 
ATOM    121  H30 UNL A   1      20.245  35.974  48.582  1.00  0.00    +0.000 H 
ENDROOT
BRANCH   19   18
ATOM     76  C53 UNL A   1      20.086  37.595  51.121  1.00  0.00    +0.000 C 
ATOM     77  C54 UNL A   1      18.808  37.473  51.660  1.00  0.00    +0.000 C 
ATOM    110  H19 UNL A   1      17.114  39.282  49.398  1.00  0.00    +0.000 H 
ATOM     15  C11 UNL A   1      17.730  38.129  51.058  1.00  0.00    +0.000 C 
ATOM     16  C12 UNL A   1      17.914  38.820  49.857  1.00  0.00    +0.000 C 
ATOM     17  C13 UNL A   1      19.184  38.884  49.280  1.00  0.00    +0.000 C 
ATOM    111  H20 UNL A   1      19.314  39.373  48.380  1.00  0.00    +0.000 H 
ATOM     18  C14 UNL A   1      20.283  38.287  49.916  1.00  0.00    +0.000 C 
ATOM    122  H31 UNL A   1      20.892  37.175  51.609  1.00  0.00    +0.000 H 
ATOM    123  H32 UNL A   1      18.656  36.899  52.504  1.00  0.00    +0.000 H 
BRANCH   15   13
ATOM     13  C10 UNL A   1      16.375  38.076  51.647  1.00  0.00    +0.000 C 
ATOM     14  O2  UNL A   1      16.242  37.885  52.854  1.00  0.00    +0.000 O 
BRANCH   13   12
ATOM     12  N2  UNL A   1      15.271  38.227  50.850  1.00  0.00    +0.000 N 
ATOM    109  H18 UNL A   1      15.124  39.135  50.497  1.00  0.00    +0.000 H 
BRANCH   12   11
ATOM     11  C9  UNL A   1      14.285  37.237  50.453  1.00  0.00    +0.000 C 
ATOM    108  H17 UNL A   1      13.314  37.640  50.651  1.00  0.00    +0.000 H 
ATOM    107  H16 UNL A   1      14.455  36.339  51.009  1.00  0.00    +0.000 H 
BRANCH   11   10
ATOM    105  H14 UNL A   1      13.537  36.279  48.718  1.00  0.00    +0.000 H 
ATOM     10  C8  UNL A   1      14.363  36.914  48.965  1.00  0.00    +0.000 C 
ATOM    106  H15 UNL A   1      14.341  37.852  48.450  1.00  0.00    +0.000 H 
BRANCH   10    9
ATOM      9  C7  UNL A   1      15.650  36.212  48.529  1.00  0.00    +0.000 C 
ATOM    103  H12 UNL A   1      16.344  36.253  49.343  1.00  0.00    +0.000 H 
ATOM    104  H13 UNL A   1      15.370  35.216  48.257  1.00  0.00    +0.000 H 
BRANCH    9    8
ATOM    101  H10 UNL A   1      15.646  37.495  46.838  1.00  0.00    +0.000 H 
ATOM    102  H11 UNL A   1      17.227  37.283  47.650  1.00  0.00    +0.000 H 
ATOM      8  C6  UNL A   1      16.332  36.814  47.297  1.00  0.00    +0.000 C 
BRANCH    8    7
ATOM     99  H8  UNL A   1      17.076  34.901  46.732  1.00  0.00    +0.000 H 
ATOM    100  H9  UNL A   1      15.938  35.651  45.583  1.00  0.00    +0.000 H 
ATOM      7  C5  UNL A   1      16.774  35.799  46.234  1.00  0.00    +0.000 C 
BRANCH    7    6
ATOM     97  H6  UNL A   1      17.610  36.321  44.341  1.00  0.00    +0.000 H 
ATOM     98  H7  UNL A   1      18.242  37.244  45.696  1.00  0.00    +0.000 H 
ATOM      6  C4  UNL A   1      17.934  36.276  45.360  1.00  0.00    +0.000 C 
BRANCH    6    5
ATOM      5  N1  UNL A   1      19.060  35.373  45.459  1.00  0.00    +0.000 N 
ATOM     96  H5  UNL A   1      19.832  35.723  45.960  1.00  0.00    +0.000 H 
BRANCH    5    3
ATOM      3  C3  UNL A   1      19.216  34.110  44.966  1.00  0.00    +0.000 C 
ATOM      4  O1  UNL A   1      19.496  34.017  43.769  1.00  0.00    +0.000 O 
BRANCH    3    2
ATOM      2  C2  UNL A   1      18.965  32.899  45.879  1.00  0.00    +0.000 C 
ATOM     95  H4  UNL A   1      18.196  33.214  46.553  1.00  0.00    +0.000 H 
BRANCH    2    1
ATOM      1  C1  UNL A   1      20.174  32.516  46.738  1.00  0.00    +0.000 C 
ATOM     92  H1  UNL A   1      19.912  31.698  47.377  1.00  0.00    +0.000 H 
ATOM     93  H2  UNL A   1      20.468  33.353  47.335  1.00  0.00    +0.000 H 
ATOM     94  H3  UNL A   1      20.986  32.228  46.104  1.00  0.00    +0.000 H 
ENDBRANCH    2    1
BRANCH    2   78
ATOM    136  H45 UNL A   1      15.804  30.538  43.422  1.00  0.00    +0.000 H 
ATOM     78  C55 UNL A   1      18.472  31.693  45.099  1.00  0.00    +0.000 C 
ATOM     79  C56 UNL A   1      19.307  30.589  44.909  1.00  0.00    +0.000 C 
ATOM     80  C57 UNL A   1      18.864  29.482  44.173  1.00  0.00    +0.000 C 
ATOM     81  C58 UNL A   1      17.574  29.415  43.642  1.00  0.00    +0.000 C 
ATOM     89  C64 UNL A   1      16.754  30.534  43.826  1.00  0.00    +0.000 C 
ATOM     90  C65 UNL A   1      17.194  31.645  44.543  1.00  0.00    +0.000 C 
ATOM     91  F16 UNL A   1      16.361  32.689  44.671  1.00  0.00    +0.000 F 
ATOM    124  H33 UNL A   1      20.256  30.588  45.315  1.00  0.00    +0.000 H 
ATOM    125  H34 UNL A   1      19.511  28.693  44.019  1.00  0.00    +0.000 H 
BRANCH   81   82
ATOM     82  N7  UNL A   1      17.097  28.379  42.859  1.00  0.00    +0.000 N 
ATOM    126  H35 UNL A   1      17.710  28.053  42.161  1.00  0.00    +0.000 H 
BRANCH   82   83
ATOM    129  H38 UNL A   1      14.453  28.010  41.268  1.00  0.00    +0.000 H 
ATOM    130  H39 UNL A   1      15.310  25.188  41.320  1.00  0.00    +0.000 H 
ATOM    131  H40 UNL A   1      13.701  25.792  41.285  1.00  0.00    +0.000 H 
ATOM    132  H41 UNL A   1      14.606  24.658  43.510  1.00  0.00    +0.000 H 
ATOM    133  H42 UNL A   1      13.645  26.056  43.684  1.00  0.00    +0.000 H 
ATOM    134  H43 UNL A   1      16.692  25.872  43.732  1.00  0.00    +0.000 H 
ATOM     83  C59 UNL A   1      15.804  27.708  42.937  1.00  0.00    +0.000 C 
ATOM     84  C60 UNL A   1      15.211  27.322  41.579  1.00  0.00    +0.000 C 
ATOM     85  C61 UNL A   1      14.653  25.908  41.760  1.00  0.00    +0.000 C 
ATOM     86  C62 UNL A   1      14.563  25.699  43.265  1.00  0.00    +0.000 C 
ATOM     87  C63 UNL A   1      15.784  26.435  43.797  1.00  0.00    +0.000 C 
ATOM    127  H36 UNL A   1      15.209  28.467  43.401  1.00  0.00    +0.000 H 
ATOM    128  H37 UNL A   1      15.969  27.330  40.824  1.00  0.00    +0.000 H 
BRANCH   87   88
ATOM    135  H44 UNL A   1      15.611  25.900  45.684  1.00  0.00    +0.000 H 
ATOM     88  O3  UNL A   1      15.644  26.728  45.180  1.00  0.00    +0.000 O 
ENDBRANCH   87   88
ENDBRANCH   82   83
ENDBRANCH   81   82
ENDBRANCH    2   78
ENDBRANCH    3    2
ENDBRANCH    5    3
ENDBRANCH    6    5
ENDBRANCH    7    6
ENDBRANCH    8    7
ENDBRANCH    9    8
ENDBRANCH   10    9
ENDBRANCH   11   10
ENDBRANCH   12   11
ENDBRANCH   13   12
ENDBRANCH   15   13
ENDBRANCH   19   18
BRANCH   23   24
ATOM     33  C24 UNL A   1      23.076  33.676  44.865  1.00  0.00    +0.000 C 
ATOM     34  F5  UNL A   1      22.553  34.741  44.240  1.00  0.00    +0.000 F 
ATOM     24  C19 UNL A   1      23.907  33.848  45.983  1.00  0.00    +0.000 C 
ATOM     25  C20 UNL A   1      24.423  32.697  46.600  1.00  0.00    +0.000 C 
ATOM     26  F1  UNL A   1      25.232  32.807  47.664  1.00  0.00    +0.000 F 
ATOM     27  C21 UNL A   1      24.145  31.429  46.097  1.00  0.00    +0.000 C 
ATOM     28  F2  UNL A   1      24.694  30.349  46.670  1.00  0.00    +0.000 F 
ATOM     29  C22 UNL A   1      23.319  31.283  44.993  1.00  0.00    +0.000 C 
ATOM     30  F3  UNL A   1      23.051  30.061  44.512  1.00  0.00    +0.000 F 
ATOM     31  C23 UNL A   1      22.778  32.404  44.383  1.00  0.00    +0.000 C 
ATOM     32  F4  UNL A   1      21.968  32.263  43.324  1.00  0.00    +0.000 F 
ENDBRANCH   23   24
BRANCH   40   41
ATOM     41  C30 UNL A   1      29.251  38.685  45.715  1.00  0.00    +0.000 C 
ATOM     42  C31 UNL A   1      30.411  38.099  46.241  1.00  0.00    +0.000 C 
ATOM     43  F6  UNL A   1      30.359  37.416  47.395  1.00  0.00    +0.000 F 
ATOM     44  C32 UNL A   1      31.639  38.250  45.604  1.00  0.00    +0.000 C 
ATOM     45  F7  UNL A   1      32.744  37.723  46.150  1.00  0.00    +0.000 F 
ATOM     46  C33 UNL A   1      31.726  38.957  44.414  1.00  0.00    +0.000 C 
ATOM     47  F8  UNL A   1      32.909  39.098  43.800  1.00  0.00    +0.000 F 
ATOM     48  C34 UNL A   1      30.587  39.528  43.865  1.00  0.00    +0.000 C 
ATOM     49  F9  UNL A   1      30.665  40.201  42.710  1.00  0.00    +0.000 F 
ATOM     50  C35 UNL A   1      29.362  39.404  44.514  1.00  0.00    +0.000 C 
ATOM     51  F10 UNL A   1      28.281  39.978  43.967  1.00  0.00    +0.000 F 
ENDBRANCH   40   41
BRANCH   55   56
ATOM     65  C44 UNL A   1      26.193  42.969  51.268  1.00  0.00    +0.000 C 
ATOM     66  F15 UNL A   1      26.486  41.881  51.996  1.00  0.00    +0.000 F 
ATOM     56  C39 UNL A   1      25.641  42.829  49.988  1.00  0.00    +0.000 C 
ATOM     57  C40 UNL A   1      25.349  43.997  49.270  1.00  0.00    +0.000 C 
ATOM     58  F11 UNL A   1      24.838  43.913  48.032  1.00  0.00    +0.000 F 
ATOM     59  C41 UNL A   1      25.617  45.256  49.804  1.00  0.00    +0.000 C 
ATOM     60  F12 UNL A   1      25.367  46.356  49.080  1.00  0.00    +0.000 F 
ATOM     61  C42 UNL A   1      26.155  45.371  51.076  1.00  0.00    +0.000 C 
ATOM     62  F13 UNL A   1      26.411  46.580  51.591  1.00  0.00    +0.000 F 
ATOM     63  C43 UNL A   1      26.437  44.229  51.811  1.00  0.00    +0.000 C 
ATOM     64  F14 UNL A   1      26.946  44.337  53.046  1.00  0.00    +0.000 F 
ENDBRANCH   55   56
TORSDOF 20
ENDMDL
MODEL 5
REMARK VINA RESULT:     -10.5     20.328     26.113
ROOT
ATOM     19  C15 UNL A   1      53.233  19.832  11.598  1.00  0.00    +0.000 C 
ATOM     20  C16 UNL A   1      54.592  19.216  11.424  1.00  0.00    +0.000 C 
ATOM     21  N3  UNL A   1      55.594  19.165  12.267  1.00  0.00    +0.000 N 
ATOM     22  C17 UNL A   1      56.589  18.438  11.627  1.00  0.00    +0.000 C 
ATOM     23  C18 UNL A   1      57.843  18.159  12.059  1.00  0.00    +0.000 C 
ATOM     35  C25 UNL A   1      58.383  18.606  13.316  1.00  0.00    +0.000 C 
ATOM     36  C26 UNL A   1      59.664  18.443  13.813  1.00  0.00    +0.000 C 
ATOM     37  C27 UNL A   1      59.713  19.009  15.091  1.00  0.00    +0.000 C 
ATOM     38  C28 UNL A   1      58.475  19.565  15.372  1.00  0.00    +0.000 C 
ATOM     39  N4  UNL A   1      57.668  19.307  14.276  1.00  0.00    +0.000 N 
ATOM     40  C29 UNL A   1      58.059  20.280  16.551  1.00  0.00    +0.000 C 
ATOM     52  C36 UNL A   1      56.821  20.797  16.752  1.00  0.00    +0.000 C 
ATOM     53  N5  UNL A   1      55.720  20.778  15.907  1.00  0.00    +0.000 N 
ATOM     54  C37 UNL A   1      54.762  21.399  16.550  1.00  0.00    +0.000 C 
ATOM     55  C38 UNL A   1      53.360  21.708  16.102  1.00  0.00    +0.000 C 
ATOM     67  C45 UNL A   1      52.960  21.319  14.876  1.00  0.00    +0.000 C 
ATOM     68  C46 UNL A   1      51.643  21.560  14.294  1.00  0.00    +0.000 C 
ATOM     69  C47 UNL A   1      51.603  21.028  13.063  1.00  0.00    +0.000 C 
ATOM     70  C48 UNL A   1      52.904  20.432  12.758  1.00  0.00    +0.000 C 
ATOM     71  N6  UNL A   1      53.640  20.636  13.898  1.00  0.00    +0.000 N 
ATOM     72  C49 UNL A   1      55.139  21.854  17.895  1.00  0.00    +0.000 C 
ATOM     73  C50 UNL A   1      56.415  21.500  17.951  1.00  0.00    +0.000 C 
ATOM     74  C51 UNL A   1      56.056  18.026  10.348  1.00  0.00    +0.000 C 
ATOM     75  C52 UNL A   1      54.854  18.541  10.143  1.00  0.00    +0.000 C 
ATOM    112  H21 UNL A   1      60.449  17.983  13.325  1.00  0.00    +0.000 H 
ATOM    113  H22 UNL A   1      60.533  19.012  15.720  1.00  0.00    +0.000 H 
ATOM    114  H23 UNL A   1      56.726  19.580  14.191  1.00  0.00    +0.000 H 
ATOM    115  H24 UNL A   1      50.868  22.061  14.756  1.00  0.00    +0.000 H 
ATOM    116  H25 UNL A   1      50.786  21.036  12.433  1.00  0.00    +0.000 H 
ATOM    117  H26 UNL A   1      54.568  20.323  14.004  1.00  0.00    +0.000 H 
ATOM    118  H27 UNL A   1      54.562  22.325  18.609  1.00  0.00    +0.000 H 
ATOM    119  H28 UNL A   1      57.040  21.701  18.747  1.00  0.00    +0.000 H 
ATOM    120  H29 UNL A   1      56.549  17.410   9.681  1.00  0.00    +0.000 H 
ATOM    121  H30 UNL A   1      54.256  18.485   9.304  1.00  0.00    +0.000 H 
ENDROOT
BRANCH   19   18
ATOM     76  C53 UNL A   1      51.492  18.550  10.347  1.00  0.00    +0.000 C 
ATOM     77  C54 UNL A   1      50.593  18.421   9.292  1.00  0.00    +0.000 C 
ATOM    110  H19 UNL A   1      50.904  21.487   7.965  1.00  0.00    +0.000 H 
ATOM     15  C11 UNL A   1      50.342  19.509   8.450  1.00  0.00    +0.000 C 
ATOM     16  C12 UNL A   1      51.070  20.693   8.602  1.00  0.00    +0.000 C 
ATOM     17  C13 UNL A   1      52.021  20.798   9.618  1.00  0.00    +0.000 C 
ATOM    111  H20 UNL A   1      52.576  21.663   9.714  1.00  0.00    +0.000 H 
ATOM     18  C14 UNL A   1      52.227  19.734  10.510  1.00  0.00    +0.000 C 
ATOM    122  H31 UNL A   1      51.618  17.772  11.013  1.00  0.00    +0.000 H 
ATOM    123  H32 UNL A   1      50.112  17.522   9.130  1.00  0.00    +0.000 H 
BRANCH   15   13
ATOM     13  C10 UNL A   1      49.342  19.424   7.365  1.00  0.00    +0.000 C 
ATOM     14  O2  UNL A   1      48.236  19.939   7.514  1.00  0.00    +0.000 O 
BRANCH   13   12
ATOM     12  N2  UNL A   1      49.640  18.763   6.202  1.00  0.00    +0.000 N 
ATOM    109  H18 UNL A   1      50.027  19.318   5.487  1.00  0.00    +0.000 H 
BRANCH   12   11
ATOM     11  C9  UNL A   1      49.466  17.358   5.876  1.00  0.00    +0.000 C 
ATOM    108  H17 UNL A   1      50.238  16.806   6.371  1.00  0.00    +0.000 H 
ATOM    107  H16 UNL A   1      49.523  17.241   4.814  1.00  0.00    +0.000 H 
BRANCH   11   10
ATOM    105  H14 UNL A   1      48.270  15.815   6.699  1.00  0.00    +0.000 H 
ATOM     10  C8  UNL A   1      48.123  16.818   6.357  1.00  0.00    +0.000 C 
ATOM    106  H15 UNL A   1      47.790  17.481   7.128  1.00  0.00    +0.000 H 
BRANCH   10    9
ATOM      9  C7  UNL A   1      47.022  16.803   5.295  1.00  0.00    +0.000 C 
ATOM    103  H12 UNL A   1      47.479  16.622   4.344  1.00  0.00    +0.000 H 
ATOM    104  H13 UNL A   1      46.334  16.039   5.589  1.00  0.00    +0.000 H 
BRANCH    9    8
ATOM    101  H10 UNL A   1      45.214  17.835   4.878  1.00  0.00    +0.000 H 
ATOM    102  H11 UNL A   1      46.243  18.551   6.156  1.00  0.00    +0.000 H 
ATOM      8  C6  UNL A   1      46.205  18.094   5.189  1.00  0.00    +0.000 C 
BRANCH    8    7
ATOM     99  H8  UNL A   1      47.817  19.179   4.318  1.00  0.00    +0.000 H 
ATOM    100  H9  UNL A   1      46.455  18.822   3.226  1.00  0.00    +0.000 H 
ATOM      7  C5  UNL A   1      46.754  19.136   4.204  1.00  0.00    +0.000 C 
BRANCH    7    6
ATOM     97  H6  UNL A   1      46.435  20.880   5.392  1.00  0.00    +0.000 H 
ATOM     98  H7  UNL A   1      46.621  21.193   3.673  1.00  0.00    +0.000 H 
ATOM      6  C4  UNL A   1      46.191  20.543   4.407  1.00  0.00    +0.000 C 
BRANCH    6    5
ATOM      5  N1  UNL A   1      44.754  20.551   4.245  1.00  0.00    +0.000 N 
ATOM     96  H5  UNL A   1      44.240  20.568   5.085  1.00  0.00    +0.000 H 
BRANCH    5    3
ATOM      3  C3  UNL A   1      44.000  20.541   3.107  1.00  0.00    +0.000 C 
ATOM      4  O1  UNL A   1      44.010  21.571   2.431  1.00  0.00    +0.000 O 
BRANCH    3    2
ATOM      2  C2  UNL A   1      43.141  19.311   2.774  1.00  0.00    +0.000 C 
ATOM     95  H4  UNL A   1      42.804  18.943   3.720  1.00  0.00    +0.000 H 
BRANCH    2    1
ATOM      1  C1  UNL A   1      43.924  18.174   2.112  1.00  0.00    +0.000 C 
ATOM     92  H1  UNL A   1      44.019  17.359   2.800  1.00  0.00    +0.000 H 
ATOM     93  H2  UNL A   1      44.898  18.523   1.837  1.00  0.00    +0.000 H 
ATOM     94  H3  UNL A   1      43.404  17.844   1.237  1.00  0.00    +0.000 H 
ENDBRANCH    2    1
BRANCH    2   78
ATOM    136  H45 UNL A   1      38.582  19.864   2.046  1.00  0.00    +0.000 H 
ATOM     78  C55 UNL A   1      41.932  19.676   1.929  1.00  0.00    +0.000 C 
ATOM     79  C56 UNL A   1      42.101  20.122   0.616  1.00  0.00    +0.000 C 
ATOM     80  C57 UNL A   1      40.991  20.480  -0.161  1.00  0.00    +0.000 C 
ATOM     81  C58 UNL A   1      39.684  20.366   0.320  1.00  0.00    +0.000 C 
ATOM     89  C64 UNL A   1      39.530  19.932   1.642  1.00  0.00    +0.000 C 
ATOM     90  C65 UNL A   1      40.631  19.591   2.426  1.00  0.00    +0.000 C 
ATOM     91  F16 UNL A   1      40.414  19.195   3.689  1.00  0.00    +0.000 F 
ATOM    124  H33 UNL A   1      43.049  20.189   0.215  1.00  0.00    +0.000 H 
ATOM    125  H34 UNL A   1      41.144  20.838  -1.116  1.00  0.00    +0.000 H 
BRANCH   81   82
ATOM     82  N7  UNL A   1      38.553  20.755  -0.374  1.00  0.00    +0.000 N 
ATOM    126  H35 UNL A   1      38.375  20.268  -1.211  1.00  0.00    +0.000 H 
BRANCH   82   83
ATOM    129  H38 UNL A   1      37.988  23.782  -0.796  1.00  0.00    +0.000 H 
ATOM    130  H39 UNL A   1      35.553  22.718  -2.076  1.00  0.00    +0.000 H 
ATOM    131  H40 UNL A   1      35.732  24.216  -1.253  1.00  0.00    +0.000 H 
ATOM    132  H41 UNL A   1      34.302  22.285  -0.121  1.00  0.00    +0.000 H 
ATOM    133  H42 UNL A   1      35.323  23.195   0.896  1.00  0.00    +0.000 H 
ATOM    134  H43 UNL A   1      35.883  20.462  -0.344  1.00  0.00    +0.000 H 
ATOM     83  C59 UNL A   1      37.590  21.795  -0.025  1.00  0.00    +0.000 C 
ATOM     84  C60 UNL A   1      37.449  22.902  -1.074  1.00  0.00    +0.000 C 
ATOM     85  C61 UNL A   1      35.946  23.170  -1.190  1.00  0.00    +0.000 C 
ATOM     86  C62 UNL A   1      35.327  22.539   0.050  1.00  0.00    +0.000 C 
ATOM     87  C63 UNL A   1      36.169  21.291   0.270  1.00  0.00    +0.000 C 
ATOM    127  H36 UNL A   1      38.029  22.185   0.870  1.00  0.00    +0.000 H 
ATOM    128  H37 UNL A   1      37.843  22.578  -2.015  1.00  0.00    +0.000 H 
BRANCH   87   88
ATOM    135  H44 UNL A   1      36.283  21.514   2.223  1.00  0.00    +0.000 H 
ATOM     88  O3  UNL A   1      36.038  20.812   1.600  1.00  0.00    +0.000 O 
ENDBRANCH   87   88
ENDBRANCH   82   83
ENDBRANCH   81   82
ENDBRANCH    2   78
ENDBRANCH    3    2
ENDBRANCH    5    3
ENDBRANCH    6    5
ENDBRANCH    7    6
ENDBRANCH    8    7
ENDBRANCH    9    8
ENDBRANCH   10    9
ENDBRANCH   11   10
ENDBRANCH   12   11
ENDBRANCH   13   12
ENDBRANCH   15   13
ENDBRANCH   19   18
BRANCH   23   24
ATOM     33  C24 UNL A   1      59.507  17.941  10.179  1.00  0.00    +0.000 C 
ATOM     34  F5  UNL A   1      59.504  19.274  10.039  1.00  0.00    +0.000 F 
ATOM     24  C19 UNL A   1      58.716  17.330  11.163  1.00  0.00    +0.000 C 
ATOM     25  C20 UNL A   1      58.756  15.930  11.261  1.00  0.00    +0.000 C 
ATOM     26  F1  UNL A   1      58.028  15.298  12.194  1.00  0.00    +0.000 F 
ATOM     27  C21 UNL A   1      59.580  15.176  10.429  1.00  0.00    +0.000 C 
ATOM     28  F2  UNL A   1      59.642  13.847  10.579  1.00  0.00    +0.000 F 
ATOM     29  C22 UNL A   1      60.351  15.801   9.461  1.00  0.00    +0.000 C 
ATOM     30  F3  UNL A   1      61.142  15.075   8.661  1.00  0.00    +0.000 F 
ATOM     31  C23 UNL A   1      60.308  17.181   9.330  1.00  0.00    +0.000 C 
ATOM     32  F4  UNL A   1      61.043  17.786   8.385  1.00  0.00    +0.000 F 
ENDBRANCH   23   24
BRANCH   40   41
ATOM     41  C30 UNL A   1      59.075  20.494  17.635  1.00  0.00    +0.000 C 
ATOM     42  C31 UNL A   1      59.382  19.493  18.567  1.00  0.00    +0.000 C 
ATOM     43  F6  UNL A   1      58.732  18.319  18.536  1.00  0.00    +0.000 F 
ATOM     44  C32 UNL A   1      60.330  19.709  19.562  1.00  0.00    +0.000 C 
ATOM     45  F7  UNL A   1      60.573  18.755  20.473  1.00  0.00    +0.000 F 
ATOM     46  C33 UNL A   1      61.013  20.915  19.624  1.00  0.00    +0.000 C 
ATOM     47  F8  UNL A   1      61.928  21.119  20.581  1.00  0.00    +0.000 F 
ATOM     48  C34 UNL A   1      60.740  21.912  18.700  1.00  0.00    +0.000 C 
ATOM     49  F9  UNL A   1      61.406  23.073  18.751  1.00  0.00    +0.000 F 
ATOM     50  C35 UNL A   1      59.771  21.709  17.721  1.00  0.00    +0.000 C 
ATOM     51  F10 UNL A   1      59.519  22.697  16.850  1.00  0.00    +0.000 F 
ENDBRANCH   40   41
BRANCH   55   56
ATOM     65  C44 UNL A   1      51.687  21.849  17.981  1.00  0.00    +0.000 C 
ATOM     66  F15 UNL A   1      51.793  20.527  18.173  1.00  0.00    +0.000 F 
ATOM     56  C39 UNL A   1      52.433  22.475  16.974  1.00  0.00    +0.000 C 
ATOM     57  C40 UNL A   1      52.284  23.860  16.812  1.00  0.00    +0.000 C 
ATOM     58  F11 UNL A   1      52.993  24.505  15.874  1.00  0.00    +0.000 F 
ATOM     59  C41 UNL A   1      51.435  24.593  17.640  1.00  0.00    +0.000 C 
ATOM     60  F12 UNL A   1      51.343  25.922  17.491  1.00  0.00    +0.000 F 
ATOM     61  C42 UNL A   1      50.700  23.952  18.624  1.00  0.00    +0.000 C 
ATOM     62  F13 UNL A   1      49.882  24.656  19.418  1.00  0.00    +0.000 F 
ATOM     63  C43 UNL A   1      50.820  22.580  18.791  1.00  0.00    +0.000 C 
ATOM     64  F14 UNL A   1      50.101  21.956  19.734  1.00  0.00    +0.000 F 
ENDBRANCH   55   56
TORSDOF 20
ENDMDL
MODEL 6
REMARK VINA RESULT:     -10.5     17.751     22.506
ROOT
ATOM     19  C15 UNL A   1      26.023  36.487  45.540  1.00  0.00    +0.000 C 
ATOM     20  C16 UNL A   1      25.979  37.662  46.475  1.00  0.00    +0.000 C 
ATOM     21  N3  UNL A   1      26.925  38.515  46.781  1.00  0.00    +0.000 N 
ATOM     22  C17 UNL A   1      26.342  39.432  47.646  1.00  0.00    +0.000 C 
ATOM     23  C18 UNL A   1      26.922  40.474  48.289  1.00  0.00    +0.000 C 
ATOM     35  C25 UNL A   1      28.316  40.814  48.185  1.00  0.00    +0.000 C 
ATOM     36  C26 UNL A   1      29.017  41.801  48.854  1.00  0.00    +0.000 C 
ATOM     37  C27 UNL A   1      30.340  41.784  48.399  1.00  0.00    +0.000 C 
ATOM     38  C28 UNL A   1      30.474  40.756  47.480  1.00  0.00    +0.000 C 
ATOM     39  N4  UNL A   1      29.224  40.171  47.356  1.00  0.00    +0.000 N 
ATOM     40  C29 UNL A   1      31.654  40.335  46.769  1.00  0.00    +0.000 C 
ATOM     52  C36 UNL A   1      31.704  39.312  45.880  1.00  0.00    +0.000 C 
ATOM     53  N5  UNL A   1      30.688  38.457  45.475  1.00  0.00    +0.000 N 
ATOM     54  C37 UNL A   1      31.228  37.645  44.600  1.00  0.00    +0.000 C 
ATOM     55  C38 UNL A   1      30.606  36.492  43.862  1.00  0.00    +0.000 C 
ATOM     67  C45 UNL A   1      29.310  36.195  44.077  1.00  0.00    +0.000 C 
ATOM     68  C46 UNL A   1      28.573  35.100  43.453  1.00  0.00    +0.000 C 
ATOM     69  C47 UNL A   1      27.308  35.111  43.900  1.00  0.00    +0.000 C 
ATOM     70  C48 UNL A   1      27.153  36.198  44.867  1.00  0.00    +0.000 C 
ATOM     71  N6  UNL A   1      28.387  36.798  44.895  1.00  0.00    +0.000 N 
ATOM     72  C49 UNL A   1      32.646  37.915  44.326  1.00  0.00    +0.000 C 
ATOM     73  C50 UNL A   1      32.897  38.912  45.163  1.00  0.00    +0.000 C 
ATOM     74  C51 UNL A   1      24.950  39.062  47.779  1.00  0.00    +0.000 C 
ATOM     75  C52 UNL A   1      24.692  37.935  47.135  1.00  0.00    +0.000 C 
ATOM    112  H21 UNL A   1      28.631  42.442  49.566  1.00  0.00    +0.000 H 
ATOM    113  H22 UNL A   1      31.090  42.429  48.697  1.00  0.00    +0.000 H 
ATOM    114  H23 UNL A   1      29.011  39.412  46.765  1.00  0.00    +0.000 H 
ATOM    115  H24 UNL A   1      28.963  34.425  42.775  1.00  0.00    +0.000 H 
ATOM    116  H25 UNL A   1      26.563  34.458  43.609  1.00  0.00    +0.000 H 
ATOM    117  H26 UNL A   1      28.591  37.587  45.449  1.00  0.00    +0.000 H 
ATOM    118  H27 UNL A   1      33.280  37.451  43.657  1.00  0.00    +0.000 H 
ATOM    119  H28 UNL A   1      33.824  39.347  45.288  1.00  0.00    +0.000 H 
ATOM    120  H29 UNL A   1      24.251  39.606  48.309  1.00  0.00    +0.000 H 
ATOM    121  H30 UNL A   1      23.817  37.389  47.103  1.00  0.00    +0.000 H 
ENDROOT
BRANCH   19   18
ATOM     76  C53 UNL A   1      23.881  36.059  44.328  1.00  0.00    +0.000 C 
ATOM     77  C54 UNL A   1      22.702  35.341  44.148  1.00  0.00    +0.000 C 
ATOM    110  H19 UNL A   1      23.213  32.924  46.419  1.00  0.00    +0.000 H 
ATOM     15  C11 UNL A   1      22.479  34.169  44.877  1.00  0.00    +0.000 C 
ATOM     16  C12 UNL A   1      23.390  33.775  45.862  1.00  0.00    +0.000 C 
ATOM     17  C13 UNL A   1      24.539  34.533  46.089  1.00  0.00    +0.000 C 
ATOM    111  H20 UNL A   1      25.198  34.255  46.834  1.00  0.00    +0.000 H 
ATOM     18  C14 UNL A   1      24.803  35.672  45.312  1.00  0.00    +0.000 C 
ATOM    122  H31 UNL A   1      24.079  36.880  43.734  1.00  0.00    +0.000 H 
ATOM    123  H32 UNL A   1      21.992  35.674  43.476  1.00  0.00    +0.000 H 
BRANCH   15   13
ATOM     13  C10 UNL A   1      21.269  33.348  44.657  1.00  0.00    +0.000 C 
ATOM     14  O2  UNL A   1      20.169  33.785  44.985  1.00  0.00    +0.000 O 
BRANCH   13   12
ATOM     12  N2  UNL A   1      21.375  32.099  44.103  1.00  0.00    +0.000 N 
ATOM    109  H18 UNL A   1      21.455  32.078  43.121  1.00  0.00    +0.000 H 
BRANCH   12   11
ATOM     11  C9  UNL A   1      21.384  30.803  44.758  1.00  0.00    +0.000 C 
ATOM    108  H17 UNL A   1      21.968  30.889  45.650  1.00  0.00    +0.000 H 
ATOM    107  H16 UNL A   1      21.801  30.081  44.087  1.00  0.00    +0.000 H 
BRANCH   11   10
ATOM    105  H14 UNL A   1      20.042  29.334  45.485  1.00  0.00    +0.000 H 
ATOM     10  C8  UNL A   1      19.983  30.351  45.156  1.00  0.00    +0.000 C 
ATOM    106  H15 UNL A   1      19.655  31.022  45.922  1.00  0.00    +0.000 H 
BRANCH   10    9
ATOM      9  C7  UNL A   1      18.943  30.430  44.037  1.00  0.00    +0.000 C 
ATOM    103  H12 UNL A   1      18.376  31.327  44.172  1.00  0.00    +0.000 H 
ATOM    104  H13 UNL A   1      19.491  30.406  43.118  1.00  0.00    +0.000 H 
BRANCH    9    8
ATOM    101  H10 UNL A   1      18.128  28.730  43.061  1.00  0.00    +0.000 H 
ATOM    102  H11 UNL A   1      18.155  28.663  44.849  1.00  0.00    +0.000 H 
ATOM      8  C6  UNL A   1      17.962  29.255  43.979  1.00  0.00    +0.000 C 
BRANCH    8    7
ATOM     99  H8  UNL A   1      15.977  28.939  44.680  1.00  0.00    +0.000 H 
ATOM    100  H9  UNL A   1      16.436  30.641  44.416  1.00  0.00    +0.000 H 
ATOM      7  C5  UNL A   1      16.478  29.639  44.044  1.00  0.00    +0.000 C 
BRANCH    7    6
ATOM     97  H6  UNL A   1      15.240  30.563  42.572  1.00  0.00    +0.000 H 
ATOM     98  H7  UNL A   1      16.512  29.543  41.917  1.00  0.00    +0.000 H 
ATOM      6  C4  UNL A   1      15.775  29.644  42.686  1.00  0.00    +0.000 C 
BRANCH    6    5
ATOM      5  N1  UNL A   1      14.846  28.540  42.583  1.00  0.00    +0.000 N 
ATOM     96  H5  UNL A   1      13.900  28.776  42.716  1.00  0.00    +0.000 H 
BRANCH    5    3
ATOM      3  C3  UNL A   1      15.081  27.219  42.326  1.00  0.00    +0.000 C 
ATOM      4  O1  UNL A   1      15.273  26.912  41.148  1.00  0.00    +0.000 O 
BRANCH    3    2
ATOM      2  C2  UNL A   1      15.019  26.198  43.474  1.00  0.00    +0.000 C 
ATOM     95  H4  UNL A   1      14.432  26.670  44.234  1.00  0.00    +0.000 H 
BRANCH    2    1
ATOM      1  C1  UNL A   1      16.383  25.890  44.098  1.00  0.00    +0.000 C 
ATOM     92  H1  UNL A   1      16.780  26.778  44.544  1.00  0.00    +0.000 H 
ATOM     93  H2  UNL A   1      17.053  25.544  43.338  1.00  0.00    +0.000 H 
ATOM     94  H3  UNL A   1      16.271  25.134  44.845  1.00  0.00    +0.000 H 
ENDBRANCH    2    1
BRANCH    2   78
ATOM    136  H45 UNL A   1      11.296  23.579  42.528  1.00  0.00    +0.000 H 
ATOM     78  C55 UNL A   1      14.333  24.911  43.050  1.00  0.00    +0.000 C 
ATOM     79  C56 UNL A   1      15.093  23.788  42.713  1.00  0.00    +0.000 C 
ATOM     80  C57 UNL A   1      14.465  22.604  42.302  1.00  0.00    +0.000 C 
ATOM     81  C58 UNL A   1      13.074  22.482  42.255  1.00  0.00    +0.000 C 
ATOM     89  C64 UNL A   1      12.326  23.619  42.580  1.00  0.00    +0.000 C 
ATOM     90  C65 UNL A   1      12.944  24.804  42.974  1.00  0.00    +0.000 C 
ATOM     91  F16 UNL A   1      12.168  25.861  43.260  1.00  0.00    +0.000 F 
ATOM    124  H33 UNL A   1      16.122  23.829  42.767  1.00  0.00    +0.000 H 
ATOM    125  H34 UNL A   1      15.049  21.798  42.026  1.00  0.00    +0.000 H 
BRANCH   81   82
ATOM     82  N7  UNL A   1      12.397  21.363  41.805  1.00  0.00    +0.000 N 
ATOM    126  H35 UNL A   1      11.854  20.891  42.477  1.00  0.00    +0.000 H 
BRANCH   82   83
ATOM    129  H38 UNL A   1      12.133  22.184  38.818  1.00  0.00    +0.000 H 
ATOM    130  H39 UNL A   1      14.844  21.026  38.698  1.00  0.00    +0.000 H 
ATOM    131  H40 UNL A   1      13.667  21.069  37.445  1.00  0.00    +0.000 H 
ATOM    132  H41 UNL A   1      14.237  18.747  38.603  1.00  0.00    +0.000 H 
ATOM    133  H42 UNL A   1      12.599  19.059  38.248  1.00  0.00    +0.000 H 
ATOM    134  H43 UNL A   1      14.027  19.419  40.922  1.00  0.00    +0.000 H 
ATOM     83  C59 UNL A   1      12.385  20.792  40.461  1.00  0.00    +0.000 C 
ATOM     84  C60 UNL A   1      12.924  21.726  39.374  1.00  0.00    +0.000 C 
ATOM     85  C61 UNL A   1      13.810  20.852  38.483  1.00  0.00    +0.000 C 
ATOM     86  C62 UNL A   1      13.431  19.416  38.819  1.00  0.00    +0.000 C 
ATOM     87  C63 UNL A   1      13.148  19.467  40.313  1.00  0.00    +0.000 C 
ATOM    127  H36 UNL A   1      11.337  20.623  40.322  1.00  0.00    +0.000 H 
ATOM    128  H37 UNL A   1      13.498  22.516  39.810  1.00  0.00    +0.000 H 
BRANCH   87   88
ATOM    135  H44 UNL A   1      12.156  17.804  39.955  1.00  0.00    +0.000 H 
ATOM     88  O3  UNL A   1      12.369  18.353  40.725  1.00  0.00    +0.000 O 
ENDBRANCH   87   88
ENDBRANCH   82   83
ENDBRANCH   81   82
ENDBRANCH    2   78
ENDBRANCH    3    2
ENDBRANCH    5    3
ENDBRANCH    6    5
ENDBRANCH    7    6
ENDBRANCH    8    7
ENDBRANCH    9    8
ENDBRANCH   10    9
ENDBRANCH   11   10
ENDBRANCH   12   11
ENDBRANCH   13   12
ENDBRANCH   15   13
ENDBRANCH   19   18
BRANCH   23   24
ATOM     33  C24 UNL A   1      25.910  41.033  50.529  1.00  0.00    +0.000 C 
ATOM     34  F5  UNL A   1      26.575  40.004  51.072  1.00  0.00    +0.000 F 
ATOM     24  C19 UNL A   1      26.045  41.323  49.163  1.00  0.00    +0.000 C 
ATOM     25  C20 UNL A   1      25.321  42.410  48.648  1.00  0.00    +0.000 C 
ATOM     26  F1  UNL A   1      25.425  42.737  47.351  1.00  0.00    +0.000 F 
ATOM     27  C21 UNL A   1      24.521  43.194  49.475  1.00  0.00    +0.000 C 
ATOM     28  F2  UNL A   1      23.883  44.259  48.971  1.00  0.00    +0.000 F 
ATOM     29  C22 UNL A   1      24.399  42.887  50.821  1.00  0.00    +0.000 C 
ATOM     30  F3  UNL A   1      23.627  43.642  51.614  1.00  0.00    +0.000 F 
ATOM     31  C23 UNL A   1      25.086  41.803  51.346  1.00  0.00    +0.000 C 
ATOM     32  F4  UNL A   1      24.959  41.497  52.645  1.00  0.00    +0.000 F 
ENDBRANCH   23   24
BRANCH   40   41
ATOM     41  C30 UNL A   1      32.936  41.065  47.047  1.00  0.00    +0.000 C 
ATOM     42  C31 UNL A   1      33.257  42.263  46.396  1.00  0.00    +0.000 C 
ATOM     43  F6  UNL A   1      32.434  42.769  45.464  1.00  0.00    +0.000 F 
ATOM     44  C32 UNL A   1      34.449  42.928  46.669  1.00  0.00    +0.000 C 
ATOM     45  F7  UNL A   1      34.760  44.047  46.000  1.00  0.00    +0.000 F 
ATOM     46  C33 UNL A   1      35.324  42.427  47.622  1.00  0.00    +0.000 C 
ATOM     47  F8  UNL A   1      36.469  43.070  47.887  1.00  0.00    +0.000 F 
ATOM     48  C34 UNL A   1      35.016  41.253  48.293  1.00  0.00    +0.000 C 
ATOM     49  F9  UNL A   1      35.853  40.772  49.222  1.00  0.00    +0.000 F 
ATOM     50  C35 UNL A   1      33.839  40.570  48.001  1.00  0.00    +0.000 C 
ATOM     51  F10 UNL A   1      33.574  39.430  48.656  1.00  0.00    +0.000 F 
ENDBRANCH   40   41
BRANCH   55   56
ATOM     65  C44 UNL A   1      31.489  35.935  41.568  1.00  0.00    +0.000 C 
ATOM     66  F15 UNL A   1      30.816  36.977  41.058  1.00  0.00    +0.000 F 
ATOM     56  C39 UNL A   1      31.414  35.654  42.938  1.00  0.00    +0.000 C 
ATOM     57  C40 UNL A   1      32.133  34.551  43.421  1.00  0.00    +0.000 C 
ATOM     58  F11 UNL A   1      32.108  34.256  44.729  1.00  0.00    +0.000 F 
ATOM     59  C41 UNL A   1      32.913  33.773  42.568  1.00  0.00    +0.000 C 
ATOM     60  F12 UNL A   1      33.624  32.750  43.062  1.00  0.00    +0.000 F 
ATOM     61  C42 UNL A   1      32.966  34.063  41.214  1.00  0.00    +0.000 C 
ATOM     62  F13 UNL A   1      33.713  33.314  40.394  1.00  0.00    +0.000 F 
ATOM     63  C43 UNL A   1      32.249  35.140  40.712  1.00  0.00    +0.000 C 
ATOM     64  F14 UNL A   1      32.288  35.417  39.402  1.00  0.00    +0.000 F 
ENDBRANCH   55   56
TORSDOF 20
ENDMDL
MODEL 7
REMARK VINA RESULT:     -10.5      1.047      2.099
ROOT
ATOM     19  C15 UNL A   1      38.256  29.782  29.865  1.00  0.00    +0.000 C 
ATOM     20  C16 UNL A   1      38.518  30.311  31.247  1.00  0.00    +0.000 C 
ATOM     21  N3  UNL A   1      39.550  30.115  32.029  1.00  0.00    +0.000 N 
ATOM     22  C17 UNL A   1      39.311  30.874  33.167  1.00  0.00    +0.000 C 
ATOM     23  C18 UNL A   1      40.056  30.962  34.296  1.00  0.00    +0.000 C 
ATOM     35  C25 UNL A   1      41.277  30.234  34.518  1.00  0.00    +0.000 C 
ATOM     36  C26 UNL A   1      42.064  30.193  35.655  1.00  0.00    +0.000 C 
ATOM     37  C27 UNL A   1      43.174  29.383  35.391  1.00  0.00    +0.000 C 
ATOM     38  C28 UNL A   1      43.054  28.881  34.105  1.00  0.00    +0.000 C 
ATOM     39  N4  UNL A   1      41.887  29.414  33.580  1.00  0.00    +0.000 N 
ATOM     40  C29 UNL A   1      43.935  27.981  33.406  1.00  0.00    +0.000 C 
ATOM     52  C36 UNL A   1      43.747  27.534  32.140  1.00  0.00    +0.000 C 
ATOM     53  N5  UNL A   1      42.705  27.807  31.263  1.00  0.00    +0.000 N 
ATOM     54  C37 UNL A   1      42.978  27.148  30.164  1.00  0.00    +0.000 C 
ATOM     55  C38 UNL A   1      42.179  27.045  28.894  1.00  0.00    +0.000 C 
ATOM     67  C45 UNL A   1      41.006  27.700  28.799  1.00  0.00    +0.000 C 
ATOM     68  C46 UNL A   1      40.113  27.683  27.644  1.00  0.00    +0.000 C 
ATOM     69  C47 UNL A   1      39.044  28.451  27.905  1.00  0.00    +0.000 C 
ATOM     70  C48 UNL A   1      39.163  28.992  29.259  1.00  0.00    +0.000 C 
ATOM     71  N6  UNL A   1      40.366  28.508  29.707  1.00  0.00    +0.000 N 
ATOM     72  C49 UNL A   1      44.245  26.406  30.207  1.00  0.00    +0.000 C 
ATOM     73  C50 UNL A   1      44.651  26.640  31.447  1.00  0.00    +0.000 C 
ATOM     74  C51 UNL A   1      38.063  31.573  32.955  1.00  0.00    +0.000 C 
ATOM     75  C52 UNL A   1      37.496  31.204  31.817  1.00  0.00    +0.000 C 
ATOM    112  H21 UNL A   1      41.868  30.678  36.545  1.00  0.00    +0.000 H 
ATOM    113  H22 UNL A   1      43.951  29.191  36.043  1.00  0.00    +0.000 H 
ATOM    114  H23 UNL A   1      41.543  29.238  32.674  1.00  0.00    +0.000 H 
ATOM    115  H24 UNL A   1      40.278  27.163  26.768  1.00  0.00    +0.000 H 
ATOM    116  H25 UNL A   1      38.262  28.632  27.255  1.00  0.00    +0.000 H 
ATOM    117  H26 UNL A   1      40.737  28.720  30.595  1.00  0.00    +0.000 H 
ATOM    118  H27 UNL A   1      44.700  25.849  29.467  1.00  0.00    +0.000 H 
ATOM    119  H28 UNL A   1      45.504  26.237  31.866  1.00  0.00    +0.000 H 
ATOM    120  H29 UNL A   1      37.666  32.268  33.608  1.00  0.00    +0.000 H 
ATOM    121  H30 UNL A   1      36.578  31.473  31.430  1.00  0.00    +0.000 H 
ENDROOT
BRANCH   19   18
ATOM     76  C53 UNL A   1      36.881  31.484  28.660  1.00  0.00    +0.000 C 
ATOM     77  C54 UNL A   1      35.702  31.882  28.036  1.00  0.00    +0.000 C 
ATOM    110  H19 UNL A   1      34.060  28.957  28.112  1.00  0.00    +0.000 H 
ATOM     15  C11 UNL A   1      34.691  30.948  27.793  1.00  0.00    +0.000 C 
ATOM     16  C12 UNL A   1      34.817  29.639  28.268  1.00  0.00    +0.000 C 
ATOM     17  C13 UNL A   1      35.972  29.259  28.955  1.00  0.00    +0.000 C 
ATOM    111  H20 UNL A   1      36.054  28.300  29.328  1.00  0.00    +0.000 H 
ATOM     18  C14 UNL A   1      37.021  30.173  29.140  1.00  0.00    +0.000 C 
ATOM    122  H31 UNL A   1      37.657  32.156  28.769  1.00  0.00    +0.000 H 
ATOM    123  H32 UNL A   1      35.574  32.867  27.754  1.00  0.00    +0.000 H 
BRANCH   15   13
ATOM     13  C10 UNL A   1      33.457  31.325  27.070  1.00  0.00    +0.000 C 
ATOM     14  O2  UNL A   1      32.887  32.378  27.346  1.00  0.00    +0.000 O 
BRANCH   13   12
ATOM     12  N2  UNL A   1      32.943  30.499  26.105  1.00  0.00    +0.000 N 
ATOM    109  H18 UNL A   1      33.456  30.459  25.265  1.00  0.00    +0.000 H 
BRANCH   12   11
ATOM     11  C9  UNL A   1      31.748  29.673  26.146  1.00  0.00    +0.000 C 
ATOM    108  H17 UNL A   1      31.286  29.714  25.182  1.00  0.00    +0.000 H 
ATOM    107  H16 UNL A   1      31.097  30.048  26.908  1.00  0.00    +0.000 H 
BRANCH   11   10
ATOM    105  H14 UNL A   1      32.561  28.171  27.399  1.00  0.00    +0.000 H 
ATOM     10  C8  UNL A   1      32.069  28.214  26.450  1.00  0.00    +0.000 C 
ATOM    106  H15 UNL A   1      31.135  27.690  26.438  1.00  0.00    +0.000 H 
BRANCH   10    9
ATOM      9  C7  UNL A   1      32.964  27.527  25.418  1.00  0.00    +0.000 C 
ATOM    103  H12 UNL A   1      32.386  27.363  24.532  1.00  0.00    +0.000 H 
ATOM    104  H13 UNL A   1      33.800  28.178  25.266  1.00  0.00    +0.000 H 
BRANCH    9    8
ATOM    101  H10 UNL A   1      34.038  26.324  26.799  1.00  0.00    +0.000 H 
ATOM    102  H11 UNL A   1      32.723  25.500  25.905  1.00  0.00    +0.000 H 
ATOM      8  C6  UNL A   1      33.548  26.181  25.858  1.00  0.00    +0.000 C 
BRANCH    8    7
ATOM     99  H8  UNL A   1      34.208  25.718  23.888  1.00  0.00    +0.000 H 
ATOM    100  H9  UNL A   1      35.499  26.033  25.074  1.00  0.00    +0.000 H 
ATOM      7  C5  UNL A   1      34.559  25.558  24.886  1.00  0.00    +0.000 C 
BRANCH    7    6
ATOM     97  H6  UNL A   1      34.633  23.556  24.151  1.00  0.00    +0.000 H 
ATOM     98  H7  UNL A   1      35.769  23.900  25.447  1.00  0.00    +0.000 H 
ATOM      6  C4  UNL A   1      34.774  24.058  25.086  1.00  0.00    +0.000 C 
BRANCH    6    5
ATOM      5  N1  UNL A   1      33.840  23.528  26.054  1.00  0.00    +0.000 N 
ATOM     96  H5  UNL A   1      33.723  24.075  26.864  1.00  0.00    +0.000 H 
BRANCH    5    3
ATOM      3  C3  UNL A   1      33.094  22.384  26.017  1.00  0.00    +0.000 C 
ATOM      4  O1  UNL A   1      33.431  21.482  26.786  1.00  0.00    +0.000 O 
BRANCH    3    2
ATOM      2  C2  UNL A   1      31.954  22.253  24.995  1.00  0.00    +0.000 C 
ATOM     95  H4  UNL A   1      31.279  21.541  25.423  1.00  0.00    +0.000 H 
BRANCH    2    1
ATOM      1  C1  UNL A   1      32.399  21.684  23.645  1.00  0.00    +0.000 C 
ATOM     92  H1  UNL A   1      31.633  21.043  23.258  1.00  0.00    +0.000 H 
ATOM     93  H2  UNL A   1      33.300  21.122  23.774  1.00  0.00    +0.000 H 
ATOM     94  H3  UNL A   1      32.574  22.485  22.960  1.00  0.00    +0.000 H 
ENDBRANCH    2    1
BRANCH    2   78
ATOM    136  H45 UNL A   1      29.342  25.826  26.421  1.00  0.00    +0.000 H 
ATOM     78  C55 UNL A   1      31.220  23.568  24.794  1.00  0.00    +0.000 C 
ATOM     79  C56 UNL A   1      31.243  24.202  23.549  1.00  0.00    +0.000 C 
ATOM     80  C57 UNL A   1      30.584  25.425  23.364  1.00  0.00    +0.000 C 
ATOM     81  C58 UNL A   1      29.850  26.032  24.385  1.00  0.00    +0.000 C 
ATOM     89  C64 UNL A   1      29.848  25.394  25.631  1.00  0.00    +0.000 C 
ATOM     90  C65 UNL A   1      30.514  24.186  25.827  1.00  0.00    +0.000 C 
ATOM     91  F16 UNL A   1      30.483  23.634  27.049  1.00  0.00    +0.000 F 
ATOM    124  H33 UNL A   1      31.748  23.768  22.761  1.00  0.00    +0.000 H 
ATOM    125  H34 UNL A   1      30.644  25.890  22.444  1.00  0.00    +0.000 H 
BRANCH   81   82
ATOM     82  N7  UNL A   1      29.227  27.263  24.283  1.00  0.00    +0.000 N 
ATOM    126  H35 UNL A   1      28.846  27.621  25.117  1.00  0.00    +0.000 H 
BRANCH   82   83
ATOM    129  H38 UNL A   1      27.102  28.090  22.170  1.00  0.00    +0.000 H 
ATOM    130  H39 UNL A   1      27.622  30.760  23.312  1.00  0.00    +0.000 H 
ATOM    131  H40 UNL A   1      27.153  30.384  21.701  1.00  0.00    +0.000 H 
ATOM    132  H41 UNL A   1      29.627  31.239  22.160  1.00  0.00    +0.000 H 
ATOM    133  H42 UNL A   1      29.436  29.977  21.029  1.00  0.00    +0.000 H 
ATOM    134  H43 UNL A   1      30.215  29.741  23.971  1.00  0.00    +0.000 H 
ATOM     83  C59 UNL A   1      29.062  28.098  23.097  1.00  0.00    +0.000 C 
ATOM     84  C60 UNL A   1      27.646  28.647  22.903  1.00  0.00    +0.000 C 
ATOM     85  C61 UNL A   1      27.825  30.109  22.487  1.00  0.00    +0.000 C 
ATOM     86  C62 UNL A   1      29.280  30.232  22.057  1.00  0.00    +0.000 C 
ATOM     87  C63 UNL A   1      30.011  29.303  23.016  1.00  0.00    +0.000 C 
ATOM    127  H36 UNL A   1      29.300  27.398  22.322  1.00  0.00    +0.000 H 
ATOM    128  H37 UNL A   1      27.093  28.585  23.817  1.00  0.00    +0.000 H 
BRANCH   87   88
ATOM    135  H44 UNL A   1      31.873  28.703  23.243  1.00  0.00    +0.000 H 
ATOM     88  O3  UNL A   1      31.288  28.944  22.508  1.00  0.00    +0.000 O 
ENDBRANCH   87   88
ENDBRANCH   82   83
ENDBRANCH   81   82
ENDBRANCH    2   78
ENDBRANCH    3    2
ENDBRANCH    5    3
ENDBRANCH    6    5
ENDBRANCH    7    6
ENDBRANCH    8    7
ENDBRANCH    9    8
ENDBRANCH   10    9
ENDBRANCH   11   10
ENDBRANCH   12   11
ENDBRANCH   13   12
ENDBRANCH   15   13
ENDBRANCH   19   18
BRANCH   23   24
ATOM     33  C24 UNL A   1      38.656  31.424  36.341  1.00  0.00    +0.000 C 
ATOM     34  F5  UNL A   1      38.223  30.156  36.315  1.00  0.00    +0.000 F 
ATOM     24  C19 UNL A   1      39.568  31.882  35.377  1.00  0.00    +0.000 C 
ATOM     25  C20 UNL A   1      39.983  33.221  35.451  1.00  0.00    +0.000 C 
ATOM     26  F1  UNL A   1      40.863  33.704  34.561  1.00  0.00    +0.000 F 
ATOM     27  C21 UNL A   1      39.530  34.057  36.467  1.00  0.00    +0.000 C 
ATOM     28  F2  UNL A   1      39.982  35.315  36.548  1.00  0.00    +0.000 F 
ATOM     29  C22 UNL A   1      38.626  33.585  37.407  1.00  0.00    +0.000 C 
ATOM     30  F3  UNL A   1      38.189  34.391  38.383  1.00  0.00    +0.000 F 
ATOM     31  C23 UNL A   1      38.183  32.273  37.339  1.00  0.00    +0.000 C 
ATOM     32  F4  UNL A   1      37.300  31.818  38.239  1.00  0.00    +0.000 F 
ENDBRANCH   23   24
BRANCH   40   41
ATOM     41  C30 UNL A   1      45.144  27.477  34.138  1.00  0.00    +0.000 C 
ATOM     42  C31 UNL A   1      45.108  26.300  34.898  1.00  0.00    +0.000 C 
ATOM     43  F6  UNL A   1      43.963  25.611  35.023  1.00  0.00    +0.000 F 
ATOM     44  C32 UNL A   1      46.241  25.846  35.567  1.00  0.00    +0.000 C 
ATOM     45  F7  UNL A   1      46.172  24.744  36.327  1.00  0.00    +0.000 F 
ATOM     46  C33 UNL A   1      47.438  26.540  35.462  1.00  0.00    +0.000 C 
ATOM     47  F8  UNL A   1      48.528  26.100  36.104  1.00  0.00    +0.000 F 
ATOM     48  C34 UNL A   1      47.500  27.697  34.700  1.00  0.00    +0.000 C 
ATOM     49  F9  UNL A   1      48.657  28.363  34.587  1.00  0.00    +0.000 F 
ATOM     50  C35 UNL A   1      46.362  28.169  34.053  1.00  0.00    +0.000 C 
ATOM     51  F10 UNL A   1      46.450  29.298  33.334  1.00  0.00    +0.000 F 
ENDBRANCH   40   41
BRANCH   55   56
ATOM     65  C44 UNL A   1      42.233  24.862  27.635  1.00  0.00    +0.000 C 
ATOM     66  F15 UNL A   1      41.404  24.322  28.540  1.00  0.00    +0.000 F 
ATOM     56  C39 UNL A   1      42.645  26.195  27.768  1.00  0.00    +0.000 C 
ATOM     57  C40 UNL A   1      43.515  26.711  26.797  1.00  0.00    +0.000 C 
ATOM     58  F11 UNL A   1      43.920  27.988  26.871  1.00  0.00    +0.000 F 
ATOM     59  C41 UNL A   1      43.940  25.930  25.725  1.00  0.00    +0.000 C 
ATOM     60  F12 UNL A   1      44.739  26.461  24.788  1.00  0.00    +0.000 F 
ATOM     61  C42 UNL A   1      43.528  24.611  25.618  1.00  0.00    +0.000 C 
ATOM     62  F13 UNL A   1      43.938  23.859  24.589  1.00  0.00    +0.000 F 
ATOM     63  C43 UNL A   1      42.680  24.075  26.576  1.00  0.00    +0.000 C 
ATOM     64  F14 UNL A   1      42.288  22.797  26.482  1.00  0.00    +0.000 F 
ENDBRANCH   55   56
TORSDOF 20
ENDMDL
MODEL 8
REMARK VINA RESULT:     -10.3      4.625      7.851
ROOT
ATOM     19  C15 UNL A   1      41.706  26.177  27.389  1.00  0.00    +0.000 C 
ATOM     20  C16 UNL A   1      41.014  27.226  28.213  1.00  0.00    +0.000 C 
ATOM     21  N3  UNL A   1      41.428  28.422  28.550  1.00  0.00    +0.000 N 
ATOM     22  C17 UNL A   1      40.385  28.994  29.267  1.00  0.00    +0.000 C 
ATOM     23  C18 UNL A   1      40.344  30.201  29.882  1.00  0.00    +0.000 C 
ATOM     35  C25 UNL A   1      41.439  31.134  29.906  1.00  0.00    +0.000 C 
ATOM     36  C26 UNL A   1      41.526  32.347  30.565  1.00  0.00    +0.000 C 
ATOM     37  C27 UNL A   1      42.765  32.922  30.263  1.00  0.00    +0.000 C 
ATOM     38  C28 UNL A   1      43.469  32.045  29.453  1.00  0.00    +0.000 C 
ATOM     39  N4  UNL A   1      42.642  30.954  29.239  1.00  0.00    +0.000 N 
ATOM     40  C29 UNL A   1      44.797  32.189  28.915  1.00  0.00    +0.000 C 
ATOM     52  C36 UNL A   1      45.420  31.280  28.124  1.00  0.00    +0.000 C 
ATOM     53  N5  UNL A   1      44.959  30.048  27.681  1.00  0.00    +0.000 N 
ATOM     54  C37 UNL A   1      45.919  29.549  26.942  1.00  0.00    +0.000 C 
ATOM     55  C38 UNL A   1      45.985  28.222  26.236  1.00  0.00    +0.000 C 
ATOM     67  C45 UNL A   1      44.943  27.375  26.330  1.00  0.00    +0.000 C 
ATOM     68  C46 UNL A   1      44.866  26.051  25.720  1.00  0.00    +0.000 C 
ATOM     69  C47 UNL A   1      43.681  25.497  26.022  1.00  0.00    +0.000 C 
ATOM     70  C48 UNL A   1      42.927  26.417  26.872  1.00  0.00    +0.000 C 
ATOM     71  N6  UNL A   1      43.745  27.512  26.988  1.00  0.00    +0.000 N 
ATOM     72  C49 UNL A   1      47.090  30.427  26.806  1.00  0.00    +0.000 C 
ATOM     73  C50 UNL A   1      46.751  31.448  27.580  1.00  0.00    +0.000 C 
ATOM     74  C51 UNL A   1      39.301  28.036  29.274  1.00  0.00    +0.000 C 
ATOM     75  C52 UNL A   1      39.664  26.900  28.700  1.00  0.00    +0.000 C 
ATOM    112  H21 UNL A   1      40.801  32.759  31.174  1.00  0.00    +0.000 H 
ATOM    113  H22 UNL A   1      43.100  33.843  30.588  1.00  0.00    +0.000 H 
ATOM    114  H23 UNL A   1      42.873  30.168  28.693  1.00  0.00    +0.000 H 
ATOM    115  H24 UNL A   1      45.605  25.611  25.149  1.00  0.00    +0.000 H 
ATOM    116  H25 UNL A   1      43.354  24.570  25.705  1.00  0.00    +0.000 H 
ATOM    117  H26 UNL A   1      43.498  28.320  27.494  1.00  0.00    +0.000 H 
ATOM    118  H27 UNL A   1      47.949  30.285  26.252  1.00  0.00    +0.000 H 
ATOM    119  H28 UNL A   1      47.360  32.259  27.771  1.00  0.00    +0.000 H 
ATOM    120  H29 UNL A   1      38.367  28.216  29.676  1.00  0.00    +0.000 H 
ATOM    121  H30 UNL A   1      39.139  26.016  28.617  1.00  0.00    +0.000 H 
ENDROOT
BRANCH   19   18
ATOM     76  C53 UNL A   1      41.539  23.695  27.616  1.00  0.00    +0.000 C 
ATOM     77  C54 UNL A   1      40.946  22.477  27.295  1.00  0.00    +0.000 C 
ATOM    110  H19 UNL A   1      38.399  23.611  25.428  1.00  0.00    +0.000 H 
ATOM     15  C11 UNL A   1      39.772  22.449  26.537  1.00  0.00    +0.000 C 
ATOM     16  C12 UNL A   1      39.251  23.635  26.010  1.00  0.00    +0.000 C 
ATOM     17  C13 UNL A   1      39.885  24.850  26.275  1.00  0.00    +0.000 C 
ATOM    111  H20 UNL A   1      39.514  25.722  25.866  1.00  0.00    +0.000 H 
ATOM     18  C14 UNL A   1      41.023  24.892  27.095  1.00  0.00    +0.000 C 
ATOM    122  H31 UNL A   1      42.360  23.719  28.241  1.00  0.00    +0.000 H 
ATOM    123  H32 UNL A   1      41.373  21.594  27.617  1.00  0.00    +0.000 H 
BRANCH   15   13
ATOM     13  C10 UNL A   1      39.082  21.175  26.239  1.00  0.00    +0.000 C 
ATOM     14  O2  UNL A   1      39.709  20.119  26.275  1.00  0.00    +0.000 O 
BRANCH   13   12
ATOM     12  N2  UNL A   1      37.751  21.173  25.912  1.00  0.00    +0.000 N 
ATOM    109  H18 UNL A   1      37.131  21.331  26.660  1.00  0.00    +0.000 H 
BRANCH   12   11
ATOM     11  C9  UNL A   1      37.126  20.968  24.616  1.00  0.00    +0.000 C 
ATOM    108  H17 UNL A   1      36.593  20.041  24.650  1.00  0.00    +0.000 H 
ATOM    107  H16 UNL A   1      37.888  20.953  23.865  1.00  0.00    +0.000 H 
BRANCH   11   10
ATOM    105  H14 UNL A   1      36.628  22.801  23.679  1.00  0.00    +0.000 H 
ATOM     10  C8  UNL A   1      36.128  22.071  24.280  1.00  0.00    +0.000 C 
ATOM    106  H15 UNL A   1      35.313  21.596  23.773  1.00  0.00    +0.000 H 
BRANCH   10    9
ATOM      9  C7  UNL A   1      35.527  22.782  25.494  1.00  0.00    +0.000 C 
ATOM    103  H12 UNL A   1      34.525  22.429  25.624  1.00  0.00    +0.000 H 
ATOM    104  H13 UNL A   1      36.169  22.556  26.320  1.00  0.00    +0.000 H 
BRANCH    9    8
ATOM    101  H10 UNL A   1      36.222  24.707  26.058  1.00  0.00    +0.000 H 
ATOM    102  H11 UNL A   1      35.661  24.546  24.366  1.00  0.00    +0.000 H 
ATOM      8  C6  UNL A   1      35.482  24.310  25.394  1.00  0.00    +0.000 C 
BRANCH    8    7
ATOM     99  H8  UNL A   1      33.357  24.377  25.285  1.00  0.00    +0.000 H 
ATOM    100  H9  UNL A   1      34.065  24.947  26.818  1.00  0.00    +0.000 H 
ATOM      7  C5  UNL A   1      34.133  24.948  25.751  1.00  0.00    +0.000 C 
BRANCH    7    6
ATOM     97  H6  UNL A   1      33.914  27.030  26.166  1.00  0.00    +0.000 H 
ATOM     98  H7  UNL A   1      34.855  26.669  24.727  1.00  0.00    +0.000 H 
ATOM      6  C4  UNL A   1      33.994  26.403  25.303  1.00  0.00    +0.000 C 
BRANCH    6    5
ATOM      5  N1  UNL A   1      32.817  26.578  24.480  1.00  0.00    +0.000 N 
ATOM     96  H5  UNL A   1      32.124  27.163  24.863  1.00  0.00    +0.000 H 
BRANCH    5    3
ATOM      3  C3  UNL A   1      32.520  26.058  23.253  1.00  0.00    +0.000 C 
ATOM      4  O1  UNL A   1      33.204  26.454  22.307  1.00  0.00    +0.000 O 
BRANCH    3    2
ATOM      2  C2  UNL A   1      31.334  25.092  23.102  1.00  0.00    +0.000 C 
ATOM     95  H4  UNL A   1      31.115  25.082  22.055  1.00  0.00    +0.000 H 
BRANCH    2    1
ATOM      1  C1  UNL A   1      30.063  25.563  23.814  1.00  0.00    +0.000 C 
ATOM     92  H1  UNL A   1      29.608  26.350  23.249  1.00  0.00    +0.000 H 
ATOM     93  H2  UNL A   1      30.313  25.924  24.790  1.00  0.00    +0.000 H 
ATOM     94  H3  UNL A   1      29.379  24.745  23.902  1.00  0.00    +0.000 H 
ENDBRANCH    2    1
BRANCH    2   78
ATOM    136  H45 UNL A   1      33.444  20.980  22.600  1.00  0.00    +0.000 H 
ATOM     78  C55 UNL A   1      31.691  23.683  23.543  1.00  0.00    +0.000 C 
ATOM     79  C56 UNL A   1      31.209  23.182  24.755  1.00  0.00    +0.000 C 
ATOM     80  C57 UNL A   1      31.552  21.890  25.176  1.00  0.00    +0.000 C 
ATOM     81  C58 UNL A   1      32.342  21.043  24.395  1.00  0.00    +0.000 C 
ATOM     89  C64 UNL A   1      32.831  21.563  23.191  1.00  0.00    +0.000 C 
ATOM     90  C65 UNL A   1      32.507  22.853  22.774  1.00  0.00    +0.000 C 
ATOM     91  F16 UNL A   1      33.020  23.294  21.616  1.00  0.00    +0.000 F 
ATOM    124  H33 UNL A   1      30.596  23.767  25.344  1.00  0.00    +0.000 H 
ATOM    125  H34 UNL A   1      31.210  21.555  26.091  1.00  0.00    +0.000 H 
BRANCH   81   82
ATOM     82  N7  UNL A   1      32.762  19.783  24.779  1.00  0.00    +0.000 N 
ATOM    126  H35 UNL A   1      32.468  19.486  25.671  1.00  0.00    +0.000 H 
BRANCH   82   83
ATOM    129  H38 UNL A   1      35.619  18.559  24.731  1.00  0.00    +0.000 H 
ATOM    130  H39 UNL A   1      34.100  16.066  25.158  1.00  0.00    +0.000 H 
ATOM    131  H40 UNL A   1      35.597  16.251  24.332  1.00  0.00    +0.000 H 
ATOM    132  H41 UNL A   1      33.407  15.703  22.930  1.00  0.00    +0.000 H 
ATOM    133  H42 UNL A   1      34.494  16.837  22.266  1.00  0.00    +0.000 H 
ATOM    134  H43 UNL A   1      31.941  17.405  23.839  1.00  0.00    +0.000 H 
ATOM     83  C59 UNL A   1      33.585  18.837  24.033  1.00  0.00    +0.000 C 
ATOM     84  C60 UNL A   1      34.651  18.127  24.872  1.00  0.00    +0.000 C 
ATOM     85  C61 UNL A   1      34.614  16.661  24.432  1.00  0.00    +0.000 C 
ATOM     86  C62 UNL A   1      33.860  16.656  23.109  1.00  0.00    +0.000 C 
ATOM     87  C63 UNL A   1      32.804  17.735  23.300  1.00  0.00    +0.000 C 
ATOM    127  H36 UNL A   1      34.046  19.488  23.319  1.00  0.00    +0.000 H 
ATOM    128  H37 UNL A   1      34.421  18.209  25.915  1.00  0.00    +0.000 H 
BRANCH   87   88
ATOM    135  H44 UNL A   1      32.795  18.959  21.758  1.00  0.00    +0.000 H 
ATOM     88  O3  UNL A   1      32.296  18.181  22.051  1.00  0.00    +0.000 O 
ENDBRANCH   87   88
ENDBRANCH   82   83
ENDBRANCH   81   82
ENDBRANCH    2   78
ENDBRANCH    3    2
ENDBRANCH    5    3
ENDBRANCH    6    5
ENDBRANCH    7    6
ENDBRANCH    8    7
ENDBRANCH    9    8
ENDBRANCH   10    9
ENDBRANCH   11   10
ENDBRANCH   12   11
ENDBRANCH   13   12
ENDBRANCH   15   13
ENDBRANCH   19   18
BRANCH   23   24
ATOM     33  C24 UNL A   1      38.007  31.147  29.860  1.00  0.00    +0.000 C 
ATOM     34  F5  UNL A   1      38.113  31.341  28.537  1.00  0.00    +0.000 F 
ATOM     24  C19 UNL A   1      39.070  30.580  30.579  1.00  0.00    +0.000 C 
ATOM     25  C20 UNL A   1      38.905  30.404  31.962  1.00  0.00    +0.000 C 
ATOM     26  F1  UNL A   1      39.886  29.855  32.695  1.00  0.00    +0.000 F 
ATOM     27  C21 UNL A   1      37.712  30.750  32.592  1.00  0.00    +0.000 C 
ATOM     28  F2  UNL A   1      37.559  30.522  33.903  1.00  0.00    +0.000 F 
ATOM     29  C22 UNL A   1      36.676  31.312  31.861  1.00  0.00    +0.000 C 
ATOM     30  F3  UNL A   1      35.530  31.646  32.469  1.00  0.00    +0.000 F 
ATOM     31  C23 UNL A   1      36.827  31.518  30.498  1.00  0.00    +0.000 C 
ATOM     32  F4  UNL A   1      35.831  32.073  29.792  1.00  0.00    +0.000 F 
ENDBRANCH   23   24
BRANCH   40   41
ATOM     41  C30 UNL A   1      45.566  33.427  29.272  1.00  0.00    +0.000 C 
ATOM     42  C31 UNL A   1      45.471  34.600  28.510  1.00  0.00    +0.000 C 
ATOM     43  F6  UNL A   1      44.713  34.627  27.403  1.00  0.00    +0.000 F 
ATOM     44  C32 UNL A   1      46.189  35.740  28.860  1.00  0.00    +0.000 C 
ATOM     45  F7  UNL A   1      46.122  36.835  28.090  1.00  0.00    +0.000 F 
ATOM     46  C33 UNL A   1      46.988  35.740  29.994  1.00  0.00    +0.000 C 
ATOM     47  F8  UNL A   1      47.675  36.840  30.332  1.00  0.00    +0.000 F 
ATOM     48  C34 UNL A   1      47.081  34.597  30.774  1.00  0.00    +0.000 C 
ATOM     49  F9  UNL A   1      47.841  34.598  31.877  1.00  0.00    +0.000 F 
ATOM     50  C35 UNL A   1      46.386  33.447  30.411  1.00  0.00    +0.000 C 
ATOM     51  F10 UNL A   1      46.507  32.352  31.177  1.00  0.00    +0.000 F 
ENDBRANCH   40   41
BRANCH   55   56
ATOM     65  C44 UNL A   1      47.249  27.886  24.082  1.00  0.00    +0.000 C 
ATOM     66  F15 UNL A   1      46.182  28.310  23.391  1.00  0.00    +0.000 F 
ATOM     56  C39 UNL A   1      47.200  27.821  25.481  1.00  0.00    +0.000 C 
ATOM     57  C40 UNL A   1      48.342  27.367  26.156  1.00  0.00    +0.000 C 
ATOM     58  F11 UNL A   1      48.349  27.308  27.496  1.00  0.00    +0.000 F 
ATOM     59  C41 UNL A   1      49.495  27.010  25.459  1.00  0.00    +0.000 C 
ATOM     60  F12 UNL A   1      50.587  26.619  26.132  1.00  0.00    +0.000 F 
ATOM     61  C42 UNL A   1      49.519  27.073  24.075  1.00  0.00    +0.000 C 
ATOM     62  F13 UNL A   1      50.625  26.728  23.405  1.00  0.00    +0.000 F 
ATOM     63  C43 UNL A   1      48.395  27.504  23.386  1.00  0.00    +0.000 C 
ATOM     64  F14 UNL A   1      48.410  27.555  22.047  1.00  0.00    +0.000 F 
ENDBRANCH   55   56
TORSDOF 20
ENDMDL
MODEL 9
REMARK VINA RESULT:     -10.3      1.390      2.060
ROOT
ATOM     19  C15 UNL A   1      38.264  31.191  30.538  1.00  0.00    +0.000 C 
ATOM     20  C16 UNL A   1      38.573  31.472  31.981  1.00  0.00    +0.000 C 
ATOM     21  N3  UNL A   1      39.517  30.972  32.740  1.00  0.00    +0.000 N 
ATOM     22  C17 UNL A   1      39.391  31.607  33.968  1.00  0.00    +0.000 C 
ATOM     23  C18 UNL A   1      40.095  31.396  35.106  1.00  0.00    +0.000 C 
ATOM     35  C25 UNL A   1      41.139  30.415  35.240  1.00  0.00    +0.000 C 
ATOM     36  C26 UNL A   1      41.860  30.069  36.369  1.00  0.00    +0.000 C 
ATOM     37  C27 UNL A   1      42.797  29.095  36.009  1.00  0.00    +0.000 C 
ATOM     38  C28 UNL A   1      42.629  28.800  34.665  1.00  0.00    +0.000 C 
ATOM     39  N4  UNL A   1      41.611  29.620  34.206  1.00  0.00    +0.000 N 
ATOM     40  C29 UNL A   1      43.341  27.842  33.860  1.00  0.00    +0.000 C 
ATOM     52  C36 UNL A   1      43.116  27.611  32.543  1.00  0.00    +0.000 C 
ATOM     53  N5  UNL A   1      42.182  28.199  31.701  1.00  0.00    +0.000 N 
ATOM     54  C37 UNL A   1      42.360  27.649  30.525  1.00  0.00    +0.000 C 
ATOM     55  C38 UNL A   1      41.604  27.876  29.244  1.00  0.00    +0.000 C 
ATOM     67  C45 UNL A   1      40.588  28.759  29.228  1.00  0.00    +0.000 C 
ATOM     68  C46 UNL A   1      39.753  29.072  28.072  1.00  0.00    +0.000 C 
ATOM     69  C47 UNL A   1      38.847  29.998  28.424  1.00  0.00    +0.000 C 
ATOM     70  C48 UNL A   1      39.020  30.322  29.840  1.00  0.00    +0.000 C 
ATOM     71  N6  UNL A   1      40.087  29.553  30.230  1.00  0.00    +0.000 N 
ATOM     72  C49 UNL A   1      43.453  26.669  30.480  1.00  0.00    +0.000 C 
ATOM     73  C50 UNL A   1      43.852  26.653  31.744  1.00  0.00    +0.000 C 
ATOM     74  C51 UNL A   1      38.313  32.564  33.841  1.00  0.00    +0.000 C 
ATOM     75  C52 UNL A   1      37.728  32.469  32.657  1.00  0.00    +0.000 C 
ATOM    112  H21 UNL A   1      41.730  30.463  37.315  1.00  0.00    +0.000 H 
ATOM    113  H22 UNL A   1      43.497  28.667  36.637  1.00  0.00    +0.000 H 
ATOM    114  H23 UNL A   1      41.273  29.637  33.281  1.00  0.00    +0.000 H 
ATOM    115  H24 UNL A   1      39.844  28.650  27.135  1.00  0.00    +0.000 H 
ATOM    116  H25 UNL A   1      38.141  30.416  27.796  1.00  0.00    +0.000 H 
ATOM    117  H26 UNL A   1      40.458  29.568  31.142  1.00  0.00    +0.000 H 
ATOM    118  H27 UNL A   1      43.817  26.134  29.676  1.00  0.00    +0.000 H 
ATOM    119  H28 UNL A   1      44.592  26.035  32.113  1.00  0.00    +0.000 H 
ATOM    120  H29 UNL A   1      38.037  33.233  34.577  1.00  0.00    +0.000 H 
ATOM    121  H30 UNL A   1      36.896  32.964  32.301  1.00  0.00    +0.000 H 
ENDROOT
BRANCH   19   18
ATOM     76  C53 UNL A   1      35.882  31.332  29.800  1.00  0.00    +0.000 C 
ATOM     77  C54 UNL A   1      34.852  31.968  29.112  1.00  0.00    +0.000 C 
ATOM    110  H19 UNL A   1      36.483  34.753  28.193  1.00  0.00    +0.000 H 
ATOM     15  C11 UNL A   1      35.057  33.239  28.566  1.00  0.00    +0.000 C 
ATOM     16  C12 UNL A   1      36.325  33.827  28.618  1.00  0.00    +0.000 C 
ATOM     17  C13 UNL A   1      37.375  33.158  29.249  1.00  0.00    +0.000 C 
ATOM    111  H20 UNL A   1      38.316  33.581  29.265  1.00  0.00    +0.000 H 
ATOM     18  C14 UNL A   1      37.158  31.913  29.860  1.00  0.00    +0.000 C 
ATOM    122  H31 UNL A   1      35.707  30.429  30.268  1.00  0.00    +0.000 H 
ATOM    123  H32 UNL A   1      33.938  31.501  29.004  1.00  0.00    +0.000 H 
BRANCH   15   13
ATOM     13  C10 UNL A   1      33.962  33.969  27.891  1.00  0.00    +0.000 C 
ATOM     14  O2  UNL A   1      34.174  35.083  27.418  1.00  0.00    +0.000 O 
BRANCH   13   12
ATOM     12  N2  UNL A   1      32.713  33.412  27.803  1.00  0.00    +0.000 N 
ATOM    109  H18 UNL A   1      32.144  33.524  28.599  1.00  0.00    +0.000 H 
BRANCH   12   11
ATOM     11  C9  UNL A   1      32.111  32.680  26.703  1.00  0.00    +0.000 C 
ATOM    108  H17 UNL A   1      32.802  32.685  25.886  1.00  0.00    +0.000 H 
ATOM    107  H16 UNL A   1      31.189  33.155  26.437  1.00  0.00    +0.000 H 
BRANCH   11   10
ATOM    105  H14 UNL A   1      32.234  31.041  28.039  1.00  0.00    +0.000 H 
ATOM     10  C8  UNL A   1      31.827  31.227  27.067  1.00  0.00    +0.000 C 
ATOM    106  H15 UNL A   1      30.764  31.107  27.026  1.00  0.00    +0.000 H 
BRANCH   10    9
ATOM      9  C7  UNL A   1      32.415  30.198  26.099  1.00  0.00    +0.000 C 
ATOM    103  H12 UNL A   1      32.581  30.682  25.159  1.00  0.00    +0.000 H 
ATOM    104  H13 UNL A   1      33.312  29.837  26.557  1.00  0.00    +0.000 H 
BRANCH    9    8
ATOM    101  H10 UNL A   1      30.531  29.219  26.110  1.00  0.00    +0.000 H 
ATOM    102  H11 UNL A   1      31.663  28.718  24.816  1.00  0.00    +0.000 H 
ATOM      8  C6  UNL A   1      31.539  28.967  25.850  1.00  0.00    +0.000 C 
BRANCH    8    7
ATOM     99  H8  UNL A   1      31.966  27.967  27.680  1.00  0.00    +0.000 H 
ATOM    100  H9  UNL A   1      31.201  26.966  26.420  1.00  0.00    +0.000 H 
ATOM      7  C5  UNL A   1      31.934  27.713  26.641  1.00  0.00    +0.000 C 
BRANCH    7    6
ATOM     97  H6  UNL A   1      33.692  27.693  25.432  1.00  0.00    +0.000 H 
ATOM     98  H7  UNL A   1      33.944  27.178  27.093  1.00  0.00    +0.000 H 
ATOM      6  C4  UNL A   1      33.291  27.128  26.247  1.00  0.00    +0.000 C 
BRANCH    6    5
ATOM      5  N1  UNL A   1      33.159  25.745  25.846  1.00  0.00    +0.000 N 
ATOM     96  H5  UNL A   1      32.928  25.121  26.571  1.00  0.00    +0.000 H 
BRANCH    5    3
ATOM      3  C3  UNL A   1      33.305  25.172  24.615  1.00  0.00    +0.000 C 
ATOM      4  O1  UNL A   1      34.453  25.098  24.175  1.00  0.00    +0.000 O 
BRANCH    3    2
ATOM      2  C2  UNL A   1      32.060  24.732  23.828  1.00  0.00    +0.000 C 
ATOM     95  H4  UNL A   1      31.552  24.046  24.473  1.00  0.00    +0.000 H 
BRANCH    2    1
ATOM      1  C1  UNL A   1      32.383  23.971  22.540  1.00  0.00    +0.000 C 
ATOM     92  H1  UNL A   1      31.528  23.982  21.895  1.00  0.00    +0.000 H 
ATOM     93  H2  UNL A   1      32.635  22.958  22.777  1.00  0.00    +0.000 H 
ATOM     94  H3  UNL A   1      33.209  24.437  22.047  1.00  0.00    +0.000 H 
ENDBRANCH    2    1
BRANCH    2   78
ATOM    136  H45 UNL A   1      31.028  28.838  21.907  1.00  0.00    +0.000 H 
ATOM     78  C55 UNL A   1      31.137  25.901  23.529  1.00  0.00    +0.000 C 
ATOM     79  C56 UNL A   1      29.829  25.908  24.021  1.00  0.00    +0.000 C 
ATOM     80  C57 UNL A   1      28.967  26.975  23.731  1.00  0.00    +0.000 C 
ATOM     81  C58 UNL A   1      29.384  28.081  22.987  1.00  0.00    +0.000 C 
ATOM     89  C64 UNL A   1      30.691  28.054  22.488  1.00  0.00    +0.000 C 
ATOM     90  C65 UNL A   1      31.548  26.989  22.758  1.00  0.00    +0.000 C 
ATOM     91  F16 UNL A   1      32.784  27.020  22.238  1.00  0.00    +0.000 F 
ATOM    124  H33 UNL A   1      29.495  25.124  24.602  1.00  0.00    +0.000 H 
ATOM    125  H34 UNL A   1      27.996  26.941  24.079  1.00  0.00    +0.000 H 
BRANCH   81   82
ATOM     82  N7  UNL A   1      28.568  29.135  22.620  1.00  0.00    +0.000 N 
ATOM    126  H35 UNL A   1      27.602  28.943  22.600  1.00  0.00    +0.000 H 
BRANCH   82   83
ATOM    129  H38 UNL A   1      29.104  30.928  20.138  1.00  0.00    +0.000 H 
ATOM    130  H39 UNL A   1      26.851  32.453  21.279  1.00  0.00    +0.000 H 
ATOM    131  H40 UNL A   1      28.168  33.064  20.358  1.00  0.00    +0.000 H 
ATOM    132  H41 UNL A   1      28.041  33.617  22.953  1.00  0.00    +0.000 H 
ATOM    133  H42 UNL A   1      29.576  33.244  22.310  1.00  0.00    +0.000 H 
ATOM    134  H43 UNL A   1      27.676  31.377  23.801  1.00  0.00    +0.000 H 
ATOM     83  C59 UNL A   1      28.954  30.495  22.257  1.00  0.00    +0.000 C 
ATOM     84  C60 UNL A   1      28.380  30.980  20.923  1.00  0.00    +0.000 C 
ATOM     85  C61 UNL A   1      27.915  32.417  21.172  1.00  0.00    +0.000 C 
ATOM     86  C62 UNL A   1      28.596  32.843  22.466  1.00  0.00    +0.000 C 
ATOM     87  C63 UNL A   1      28.601  31.569  23.298  1.00  0.00    +0.000 C 
ATOM    127  H36 UNL A   1      30.017  30.393  22.190  1.00  0.00    +0.000 H 
ATOM    128  H37 UNL A   1      27.553  30.368  20.626  1.00  0.00    +0.000 H 
BRANCH   87   88
ATOM    135  H44 UNL A   1      29.434  32.456  24.846  1.00  0.00    +0.000 H 
ATOM     88  O3  UNL A   1      29.565  31.640  24.338  1.00  0.00    +0.000 O 
ENDBRANCH   87   88
ENDBRANCH   82   83
ENDBRANCH   81   82
ENDBRANCH    2   78
ENDBRANCH    3    2
ENDBRANCH    5    3
ENDBRANCH    6    5
ENDBRANCH    7    6
ENDBRANCH    8    7
ENDBRANCH    9    8
ENDBRANCH   10    9
ENDBRANCH   11   10
ENDBRANCH   12   11
ENDBRANCH   13   12
ENDBRANCH   15   13
ENDBRANCH   19   18
BRANCH   23   24
ATOM     33  C24 UNL A   1      40.543  33.363  36.618  1.00  0.00    +0.000 C 
ATOM     34  F5  UNL A   1      41.594  33.694  35.854  1.00  0.00    +0.000 F 
ATOM     24  C19 UNL A   1      39.758  32.245  36.297  1.00  0.00    +0.000 C 
ATOM     25  C20 UNL A   1      38.674  31.943  37.136  1.00  0.00    +0.000 C 
ATOM     26  F1  UNL A   1      37.884  30.892  36.866  1.00  0.00    +0.000 F 
ATOM     27  C21 UNL A   1      38.368  32.748  38.230  1.00  0.00    +0.000 C 
ATOM     28  F2  UNL A   1      37.295  32.470  38.984  1.00  0.00    +0.000 F 
ATOM     29  C22 UNL A   1      39.160  33.845  38.530  1.00  0.00    +0.000 C 
ATOM     30  F3  UNL A   1      38.865  34.617  39.585  1.00  0.00    +0.000 F 
ATOM     31  C23 UNL A   1      40.251  34.148  37.731  1.00  0.00    +0.000 C 
ATOM     32  F4  UNL A   1      41.025  35.202  38.027  1.00  0.00    +0.000 F 
ENDBRANCH   23   24
BRANCH   40   41
ATOM     41  C30 UNL A   1      44.399  27.014  34.530  1.00  0.00    +0.000 C 
ATOM     42  C31 UNL A   1      45.726  27.454  34.630  1.00  0.00    +0.000 C 
ATOM     43  F6  UNL A   1      46.093  28.623  34.083  1.00  0.00    +0.000 F 
ATOM     44  C32 UNL A   1      46.692  26.674  35.258  1.00  0.00    +0.000 C 
ATOM     45  F7  UNL A   1      47.965  27.091  35.300  1.00  0.00    +0.000 F 
ATOM     46  C33 UNL A   1      46.344  25.457  35.827  1.00  0.00    +0.000 C 
ATOM     47  F8  UNL A   1      47.275  24.709  36.435  1.00  0.00    +0.000 F 
ATOM     48  C34 UNL A   1      45.033  25.012  35.757  1.00  0.00    +0.000 C 
ATOM     49  F9  UNL A   1      44.691  23.843  36.315  1.00  0.00    +0.000 F 
ATOM     50  C35 UNL A   1      44.070  25.776  35.104  1.00  0.00    +0.000 C 
ATOM     51  F10 UNL A   1      42.813  25.313  35.040  1.00  0.00    +0.000 F 
ENDBRANCH   40   41
BRANCH   55   56
ATOM     65  C44 UNL A   1      42.901  27.554  27.107  1.00  0.00    +0.000 C 
ATOM     66  F15 UNL A   1      43.546  28.709  27.327  1.00  0.00    +0.000 F 
ATOM     56  C39 UNL A   1      41.935  27.104  28.018  1.00  0.00    +0.000 C 
ATOM     57  C40 UNL A   1      41.287  25.893  27.741  1.00  0.00    +0.000 C 
ATOM     58  F11 UNL A   1      40.371  25.412  28.595  1.00  0.00    +0.000 F 
ATOM     59  C41 UNL A   1      41.607  25.150  26.606  1.00  0.00    +0.000 C 
ATOM     60  F12 UNL A   1      41.002  23.974  26.386  1.00  0.00    +0.000 F 
ATOM     61  C42 UNL A   1      42.559  25.618  25.713  1.00  0.00    +0.000 C 
ATOM     62  F13 UNL A   1      42.864  24.906  24.621  1.00  0.00    +0.000 F 
ATOM     63  C43 UNL A   1      43.201  26.822  25.960  1.00  0.00    +0.000 C 
ATOM     64  F14 UNL A   1      44.113  27.284  25.093  1.00  0.00    +0.000 F 
ENDBRANCH   55   56
TORSDOF 20
ENDMDL
MODEL 10
REMARK VINA RESULT:     -10.3      1.207      7.458
ROOT
ATOM     19  C15 UNL A   1      38.068  29.876  29.827  1.00  0.00    +0.000 C 
ATOM     20  C16 UNL A   1      39.151  28.989  29.280  1.00  0.00    +0.000 C 
ATOM     21  N3  UNL A   1      40.273  28.608  29.839  1.00  0.00    +0.000 N 
ATOM     22  C17 UNL A   1      40.878  27.754  28.926  1.00  0.00    +0.000 C 
ATOM     23  C18 UNL A   1      42.086  27.144  29.012  1.00  0.00    +0.000 C 
ATOM     35  C25 UNL A   1      42.994  27.300  30.116  1.00  0.00    +0.000 C 
ATOM     36  C26 UNL A   1      44.271  26.789  30.264  1.00  0.00    +0.000 C 
ATOM     37  C27 UNL A   1      44.753  27.170  31.521  1.00  0.00    +0.000 C 
ATOM     38  C28 UNL A   1      43.794  27.958  32.137  1.00  0.00    +0.000 C 
ATOM     39  N4  UNL A   1      42.719  28.027  31.266  1.00  0.00    +0.000 N 
ATOM     40  C29 UNL A   1      43.853  28.602  33.424  1.00  0.00    +0.000 C 
ATOM     52  C36 UNL A   1      42.866  29.362  33.961  1.00  0.00    +0.000 C 
ATOM     53  N5  UNL A   1      41.632  29.699  33.421  1.00  0.00    +0.000 N 
ATOM     54  C37 UNL A   1      41.036  30.441  34.320  1.00  0.00    +0.000 C 
ATOM     55  C38 UNL A   1      39.693  31.116  34.258  1.00  0.00    +0.000 C 
ATOM     67  C45 UNL A   1      38.939  30.979  33.152  1.00  0.00    +0.000 C 
ATOM     68  C46 UNL A   1      37.628  31.586  32.936  1.00  0.00    +0.000 C 
ATOM     69  C47 UNL A   1      37.174  31.228  31.724  1.00  0.00    +0.000 C 
ATOM     70  C48 UNL A   1      38.176  30.390  31.066  1.00  0.00    +0.000 C 
ATOM     71  N6  UNL A   1      39.181  30.281  31.994  1.00  0.00    +0.000 N 
ATOM     72  C49 UNL A   1      41.814  30.633  35.552  1.00  0.00    +0.000 C 
ATOM     73  C50 UNL A   1      42.937  29.991  35.263  1.00  0.00    +0.000 C 
ATOM     74  C51 UNL A   1      39.980  27.632  27.800  1.00  0.00    +0.000 C 
ATOM     75  C52 UNL A   1      38.933  28.431  27.935  1.00  0.00    +0.000 C 
ATOM    112  H21 UNL A   1      44.781  26.222  29.567  1.00  0.00    +0.000 H 
ATOM    113  H22 UNL A   1      45.668  26.909  31.922  1.00  0.00    +0.000 H 
ATOM    114  H23 UNL A   1      41.883  28.517  31.438  1.00  0.00    +0.000 H 
ATOM    115  H24 UNL A   1      37.131  32.192  33.607  1.00  0.00    +0.000 H 
ATOM    116  H25 UNL A   1      36.263  31.501  31.321  1.00  0.00    +0.000 H 
ATOM    117  H26 UNL A   1      39.999  29.753  31.845  1.00  0.00    +0.000 H 
ATOM    118  H27 UNL A   1      41.554  31.135  36.415  1.00  0.00    +0.000 H 
ATOM    119  H28 UNL A   1      43.758  29.946  35.887  1.00  0.00    +0.000 H 
ATOM    120  H29 UNL A   1      40.135  27.004  26.995  1.00  0.00    +0.000 H 
ATOM    121  H30 UNL A   1      38.164  28.615  27.272  1.00  0.00    +0.000 H 
ENDROOT
BRANCH   19   18
ATOM     76  C53 UNL A   1      36.636  31.422  28.487  1.00  0.00    +0.000 C 
ATOM     77  C54 UNL A   1      35.466  31.704  27.787  1.00  0.00    +0.000 C 
ATOM    110  H19 UNL A   1      34.054  28.661  27.884  1.00  0.00    +0.000 H 
ATOM     15  C11 UNL A   1      34.546  30.685  27.524  1.00  0.00    +0.000 C 
ATOM     16  C12 UNL A   1      34.747  29.407  28.055  1.00  0.00    +0.000 C 
ATOM     17  C13 UNL A   1      35.887  29.143  28.816  1.00  0.00    +0.000 C 
ATOM    111  H20 UNL A   1      36.022  28.206  29.228  1.00  0.00    +0.000 H 
ATOM     18  C14 UNL A   1      36.849  30.143  29.023  1.00  0.00    +0.000 C 
ATOM    122  H31 UNL A   1      37.350  32.157  28.613  1.00  0.00    +0.000 H 
ATOM    123  H32 UNL A   1      35.278  32.665  27.461  1.00  0.00    +0.000 H 
BRANCH   15   13
ATOM     13  C10 UNL A   1      33.329  30.938  26.723  1.00  0.00    +0.000 C 
ATOM     14  O2  UNL A   1      32.566  31.846  27.045  1.00  0.00    +0.000 O 
BRANCH   13   12
ATOM     12  N2  UNL A   1      33.045  30.157  25.634  1.00  0.00    +0.000 N 
ATOM    109  H18 UNL A   1      33.686  30.221  24.888  1.00  0.00    +0.000 H 
BRANCH   12   11
ATOM     11  C9  UNL A   1      31.932  29.247  25.423  1.00  0.00    +0.000 C 
ATOM    108  H17 UNL A   1      32.172  28.621  24.590  1.00  0.00    +0.000 H 
ATOM    107  H16 UNL A   1      31.048  29.821  25.237  1.00  0.00    +0.000 H 
BRANCH   11   10
ATOM    105  H14 UNL A   1      32.068  28.845  27.498  1.00  0.00    +0.000 H 
ATOM     10  C8  UNL A   1      31.688  28.348  26.630  1.00  0.00    +0.000 C 
ATOM    106  H15 UNL A   1      30.633  28.177  26.671  1.00  0.00    +0.000 H 
BRANCH   10    9
ATOM      9  C7  UNL A   1      32.347  26.970  26.545  1.00  0.00    +0.000 C 
ATOM    103  H12 UNL A   1      32.792  26.754  27.494  1.00  0.00    +0.000 H 
ATOM    104  H13 UNL A   1      31.571  26.285  26.273  1.00  0.00    +0.000 H 
BRANCH    9    8
ATOM    101  H10 UNL A   1      32.966  26.953  24.514  1.00  0.00    +0.000 H 
ATOM    102  H11 UNL A   1      34.160  27.586  25.688  1.00  0.00    +0.000 H 
ATOM      8  C6  UNL A   1      33.430  26.834  25.471  1.00  0.00    +0.000 C 
BRANCH    8    7
ATOM     99  H8  UNL A   1      34.268  25.160  24.457  1.00  0.00    +0.000 H 
ATOM    100  H9  UNL A   1      35.134  25.678  25.926  1.00  0.00    +0.000 H 
ATOM      7  C5  UNL A   1      34.184  25.497  25.469  1.00  0.00    +0.000 C 
BRANCH    7    6
ATOM     97  H6  UNL A   1      34.000  24.306  27.230  1.00  0.00    +0.000 H 
ATOM     98  H7  UNL A   1      32.477  24.660  26.428  1.00  0.00    +0.000 H 
ATOM      6  C4  UNL A   1      33.505  24.397  26.286  1.00  0.00    +0.000 C 
BRANCH    6    5
ATOM      5  N1  UNL A   1      33.567  23.128  25.594  1.00  0.00    +0.000 N 
ATOM     96  H5  UNL A   1      33.745  22.348  26.168  1.00  0.00    +0.000 H 
BRANCH    5    3
ATOM      3  C3  UNL A   1      33.415  22.846  24.267  1.00  0.00    +0.000 C 
ATOM      4  O1  UNL A   1      34.449  22.678  23.618  1.00  0.00    +0.000 O 
BRANCH    3    2
ATOM      2  C2  UNL A   1      32.008  22.829  23.649  1.00  0.00    +0.000 C 
ATOM     95  H4  UNL A   1      31.384  22.377  24.391  1.00  0.00    +0.000 H 
BRANCH    2    1
ATOM      1  C1  UNL A   1      31.898  21.962  22.392  1.00  0.00    +0.000 C 
ATOM     92  H1  UNL A   1      31.047  22.270  21.819  1.00  0.00    +0.000 H 
ATOM     93  H2  UNL A   1      31.784  20.936  22.674  1.00  0.00    +0.000 H 
ATOM     94  H3  UNL A   1      32.783  22.073  21.803  1.00  0.00    +0.000 H 
ENDBRANCH    2    1
BRANCH    2   78
ATOM    136  H45 UNL A   1      32.004  26.876  21.360  1.00  0.00    +0.000 H 
ATOM     78  C55 UNL A   1      31.497  24.231  23.365  1.00  0.00    +0.000 C 
ATOM     79  C56 UNL A   1      30.435  24.756  24.105  1.00  0.00    +0.000 C 
ATOM     80  C57 UNL A   1      29.947  26.042  23.834  1.00  0.00    +0.000 C 
ATOM     81  C58 UNL A   1      30.521  26.860  22.857  1.00  0.00    +0.000 C 
ATOM     89  C64 UNL A   1      31.574  26.316  22.112  1.00  0.00    +0.000 C 
ATOM     90  C65 UNL A   1      32.053  25.031  22.366  1.00  0.00    +0.000 C 
ATOM     91  F16 UNL A   1      33.056  24.566  21.607  1.00  0.00    +0.000 F 
ATOM    124  H33 UNL A   1      30.007  24.195  24.858  1.00  0.00    +0.000 H 
ATOM    125  H34 UNL A   1      29.141  26.394  24.373  1.00  0.00    +0.000 H 
BRANCH   81   82
ATOM     82  N7  UNL A   1      30.051  28.111  22.503  1.00  0.00    +0.000 N 
ATOM    126  H35 UNL A   1      30.311  28.429  21.608  1.00  0.00    +0.000 H 
BRANCH   82   83
ATOM    129  H38 UNL A   1      30.213  30.744  24.147  1.00  0.00    +0.000 H 
ATOM    130  H39 UNL A   1      28.313  31.654  22.082  1.00  0.00    +0.000 H 
ATOM    131  H40 UNL A   1      28.414  32.181  23.716  1.00  0.00    +0.000 H 
ATOM    132  H41 UNL A   1      26.354  30.679  22.968  1.00  0.00    +0.000 H 
ATOM    133  H42 UNL A   1      27.046  30.350  24.492  1.00  0.00    +0.000 H 
ATOM    134  H43 UNL A   1      27.566  28.900  21.856  1.00  0.00    +0.000 H 
ATOM     83  C59 UNL A   1      29.220  29.020  23.286  1.00  0.00    +0.000 C 
ATOM     84  C60 UNL A   1      29.681  30.480  23.258  1.00  0.00    +0.000 C 
ATOM     85  C61 UNL A   1      28.407  31.311  23.091  1.00  0.00    +0.000 C 
ATOM     86  C62 UNL A   1      27.262  30.372  23.444  1.00  0.00    +0.000 C 
ATOM     87  C63 UNL A   1      27.731  29.027  22.906  1.00  0.00    +0.000 C 
ATOM    127  H36 UNL A   1      29.340  28.610  24.267  1.00  0.00    +0.000 H 
ATOM    128  H37 UNL A   1      30.345  30.647  22.435  1.00  0.00    +0.000 H 
BRANCH   87   88
ATOM    135  H44 UNL A   1      27.632  27.231  23.706  1.00  0.00    +0.000 H 
ATOM     88  O3  UNL A   1      27.020  27.957  23.512  1.00  0.00    +0.000 O 
ENDBRANCH   87   88
ENDBRANCH   82   83
ENDBRANCH   81   82
ENDBRANCH    2   78
ENDBRANCH    3    2
ENDBRANCH    5    3
ENDBRANCH    6    5
ENDBRANCH    7    6
ENDBRANCH    8    7
ENDBRANCH    9    8
ENDBRANCH   10    9
ENDBRANCH   11   10
ENDBRANCH   12   11
ENDBRANCH   13   12
ENDBRANCH   15   13
ENDBRANCH   19   18
BRANCH   23   24
ATOM     33  C24 UNL A   1      43.301  26.740  26.841  1.00  0.00    +0.000 C 
ATOM     34  F5  UNL A   1      43.734  28.009  26.862  1.00  0.00    +0.000 F 
ATOM     24  C19 UNL A   1      42.492  26.250  27.876  1.00  0.00    +0.000 C 
ATOM     25  C20 UNL A   1      42.064  24.915  27.798  1.00  0.00    +0.000 C 
ATOM     26  F1  UNL A   1      41.299  24.394  28.770  1.00  0.00    +0.000 F 
ATOM     27  C21 UNL A   1      42.460  24.096  26.744  1.00  0.00    +0.000 C 
ATOM     28  F2  UNL A   1      42.084  22.810  26.721  1.00  0.00    +0.000 F 
ATOM     29  C22 UNL A   1      43.257  24.603  25.730  1.00  0.00    +0.000 C 
ATOM     30  F3  UNL A   1      43.635  23.814  24.715  1.00  0.00    +0.000 F 
ATOM     31  C23 UNL A   1      43.670  25.926  25.773  1.00  0.00    +0.000 C 
ATOM     32  F4  UNL A   1      44.431  26.421  24.786  1.00  0.00    +0.000 F 
ENDBRANCH   23   24
BRANCH   40   41
ATOM     41  C30 UNL A   1      45.111  28.445  34.228  1.00  0.00    +0.000 C 
ATOM     42  C31 UNL A   1      46.179  29.346  34.110  1.00  0.00    +0.000 C 
ATOM     43  F6  UNL A   1      46.116  30.357  33.230  1.00  0.00    +0.000 F 
ATOM     44  C32 UNL A   1      47.336  29.185  34.867  1.00  0.00    +0.000 C 
ATOM     45  F7  UNL A   1      48.365  30.029  34.703  1.00  0.00    +0.000 F 
ATOM     46  C33 UNL A   1      47.434  28.145  35.779  1.00  0.00    +0.000 C 
ATOM     47  F8  UNL A   1      48.546  27.995  36.510  1.00  0.00    +0.000 F 
ATOM     48  C34 UNL A   1      46.381  27.254  35.927  1.00  0.00    +0.000 C 
ATOM     49  F9  UNL A   1      46.467  26.256  36.815  1.00  0.00    +0.000 F 
ATOM     50  C35 UNL A   1      45.234  27.395  35.150  1.00  0.00    +0.000 C 
ATOM     51  F10 UNL A   1      44.238  26.510  35.305  1.00  0.00    +0.000 F 
ENDBRANCH   40   41
BRANCH   55   56
ATOM     65  C44 UNL A   1      38.409  31.446  36.401  1.00  0.00    +0.000 C 
ATOM     66  F15 UNL A   1      38.042  30.157  36.378  1.00  0.00    +0.000 F 
ATOM     56  C39 UNL A   1      39.216  31.966  35.380  1.00  0.00    +0.000 C 
ATOM     57  C40 UNL A   1      39.568  33.321  35.449  1.00  0.00    +0.000 C 
ATOM     58  F11 UNL A   1      40.356  33.857  34.505  1.00  0.00    +0.000 F 
ATOM     59  C41 UNL A   1      39.145  34.121  36.509  1.00  0.00    +0.000 C 
ATOM     60  F12 UNL A   1      39.531  35.403  36.572  1.00  0.00    +0.000 F 
ATOM     61  C42 UNL A   1      38.340  33.589  37.503  1.00  0.00    +0.000 C 
ATOM     62  F13 UNL A   1      37.931  34.358  38.520  1.00  0.00    +0.000 F 
ATOM     63  C43 UNL A   1      37.966  32.254  37.447  1.00  0.00    +0.000 C 
ATOM     64  F14 UNL A   1      37.177  31.740  38.400  1.00  0.00    +0.000 F 
ENDBRANCH   55   56
TORSDOF 20
ENDMDL
