MODEL 1
REMARK VINA RESULT:     -10.1      0.000      0.000
ROOT
ATOM    129  H36 UNL A   1      40.565  32.635  29.481  1.00  0.00    +0.000 H 
ATOM    130  H37 UNL A   1      43.034  32.146  30.034  1.00  0.00    +0.000 H 
ATOM    131  H38 UNL A   1      44.185  28.555  25.454  1.00  0.00    +0.000 H 
ATOM    132  H39 UNL A   1      41.765  27.754  25.865  1.00  0.00    +0.000 H 
ATOM     35  C29 UNL A   1      41.317  27.014  28.611  1.00  0.00    +0.000 C 
ATOM     36  C30 UNL A   1      42.498  27.688  28.013  1.00  0.00    +0.000 C 
ATOM     37  N5  UNL A   1      43.613  27.980  28.596  1.00  0.00    +0.000 N 
ATOM     38  C31 UNL A   1      44.376  28.647  27.642  1.00  0.00    +0.000 C 
ATOM     39  C32 UNL A   1      45.285  29.587  28.022  1.00  0.00    +0.000 C 
ATOM     51  C39 UNL A   1      45.566  29.476  29.434  1.00  0.00    +0.000 C 
ATOM     52  C40 UNL A   1      46.122  28.523  30.260  1.00  0.00    +0.000 C 
ATOM     53  C41 UNL A   1      45.400  28.623  31.489  1.00  0.00    +0.000 C 
ATOM     54  C42 UNL A   1      44.489  29.675  31.379  1.00  0.00    +0.000 C 
ATOM     55  N6  UNL A   1      44.878  30.337  30.249  1.00  0.00    +0.000 N 
ATOM     56  C43 UNL A   1      43.298  30.020  32.124  1.00  0.00    +0.000 C 
ATOM     68  C50 UNL A   1      42.330  30.887  31.705  1.00  0.00    +0.000 C 
ATOM     69  N7  UNL A   1      41.036  30.776  32.190  1.00  0.00    +0.000 N 
ATOM     70  C51 UNL A   1      40.283  31.217  31.220  1.00  0.00    +0.000 C 
ATOM     71  C52 UNL A   1      38.976  30.617  30.865  1.00  0.00    +0.000 C 
ATOM     83  C59 UNL A   1      39.240  29.370  30.400  1.00  0.00    +0.000 C 
ATOM     84  C60 UNL A   1      38.368  28.225  30.285  1.00  0.00    +0.000 C 
ATOM     85  C61 UNL A   1      39.090  27.194  29.804  1.00  0.00    +0.000 C 
ATOM     86  C62 UNL A   1      40.421  27.660  29.395  1.00  0.00    +0.000 C 
ATOM     87  N8  UNL A   1      40.485  28.944  29.887  1.00  0.00    +0.000 N 
ATOM     88  C63 UNL A   1      40.953  32.030  30.222  1.00  0.00    +0.000 C 
ATOM     89  C64 UNL A   1      42.222  31.768  30.545  1.00  0.00    +0.000 C 
ATOM     90  C65 UNL A   1      43.746  28.393  26.374  1.00  0.00    +0.000 C 
ATOM     91  C66 UNL A   1      42.511  27.918  26.558  1.00  0.00    +0.000 C 
ATOM    123  H30 UNL A   1      46.895  27.875  30.038  1.00  0.00    +0.000 H 
ATOM    124  H31 UNL A   1      45.529  28.019  32.316  1.00  0.00    +0.000 H 
ATOM    125  H32 UNL A   1      44.692  31.284  30.052  1.00  0.00    +0.000 H 
ATOM    126  H33 UNL A   1      37.366  28.200  30.528  1.00  0.00    +0.000 H 
ATOM    127  H34 UNL A   1      38.756  26.220  29.734  1.00  0.00    +0.000 H 
ATOM    128  H35 UNL A   1      41.299  29.498  29.882  1.00  0.00    +0.000 H 
ENDROOT
BRANCH   35   34
ATOM     33  C27 UNL A   1      39.995  25.407  27.220  1.00  0.00    +0.000 C 
ATOM     34  C28 UNL A   1      41.068  25.676  28.085  1.00  0.00    +0.000 C 
ATOM    133  H40 UNL A   1      42.582  24.836  29.285  1.00  0.00    +0.000 H 
ATOM    134  H41 UNL A   1      42.440  22.671  28.214  1.00  0.00    +0.000 H 
ATOM    121  H28 UNL A   1      38.901  23.858  26.283  1.00  0.00    +0.000 H 
ATOM    122  H29 UNL A   1      39.417  26.177  26.849  1.00  0.00    +0.000 H 
ATOM     92  C67 UNL A   1      41.873  24.649  28.559  1.00  0.00    +0.000 C 
ATOM     93  C68 UNL A   1      41.714  23.389  28.056  1.00  0.00    +0.000 C 
ATOM     31  C25 UNL A   1      40.570  23.076  27.330  1.00  0.00    +0.000 C 
ATOM     32  C26 UNL A   1      39.718  24.086  26.870  1.00  0.00    +0.000 C 
BRANCH   31   29
ATOM     29  C24 UNL A   1      40.276  21.648  27.120  1.00  0.00    +0.000 C 
ATOM     30  O2  UNL A   1      39.373  21.306  26.361  1.00  0.00    +0.000 O 
BRANCH   29   28
ATOM     28  N4  UNL A   1      41.040  20.709  27.792  1.00  0.00    +0.000 N 
ATOM    120  H27 UNL A   1      41.035  20.752  28.776  1.00  0.00    +0.000 H 
BRANCH   28   27
ATOM     27  C23 UNL A   1      41.855  19.656  27.179  1.00  0.00    +0.000 C 
ATOM    118  H25 UNL A   1      42.589  19.337  27.889  1.00  0.00    +0.000 H 
ATOM    119  H26 UNL A   1      41.194  18.861  26.902  1.00  0.00    +0.000 H 
BRANCH   27   26
ATOM     26  C22 UNL A   1      42.569  20.113  25.915  1.00  0.00    +0.000 C 
ATOM    116  H23 UNL A   1      41.854  20.143  25.121  1.00  0.00    +0.000 H 
ATOM    117  H24 UNL A   1      42.993  21.070  26.137  1.00  0.00    +0.000 H 
BRANCH   26   25
ATOM     25  C21 UNL A   1      43.733  19.214  25.477  1.00  0.00    +0.000 C 
ATOM    114  H21 UNL A   1      44.091  18.702  26.346  1.00  0.00    +0.000 H 
ATOM    115  H22 UNL A   1      43.325  18.580  24.718  1.00  0.00    +0.000 H 
BRANCH   25   24
ATOM    113  H20 UNL A   1      44.585  20.236  23.862  1.00  0.00    +0.000 H 
ATOM    112  H19 UNL A   1      45.735  19.193  24.773  1.00  0.00    +0.000 H 
ATOM     24  C20 UNL A   1      44.936  19.904  24.817  1.00  0.00    +0.000 C 
BRANCH   24   23
ATOM    111  H18 UNL A   1      46.238  20.834  26.181  1.00  0.00    +0.000 H 
ATOM    110  H17 UNL A   1      44.650  21.636  26.016  1.00  0.00    +0.000 H 
ATOM     23  C19 UNL A   1      45.468  21.161  25.514  1.00  0.00    +0.000 C 
BRANCH   23   22
ATOM    108  H15 UNL A   1      46.770  22.800  25.154  1.00  0.00    +0.000 H 
ATOM    109  H16 UNL A   1      46.634  21.640  23.823  1.00  0.00    +0.000 H 
ATOM     22  C18 UNL A   1      46.110  22.181  24.582  1.00  0.00    +0.000 C 
BRANCH   22   21
ATOM    107  H14 UNL A   1      45.237  23.223  22.962  1.00  0.00    +0.000 H 
ATOM     21  N3  UNL A   1      45.133  23.030  23.922  1.00  0.00    +0.000 N 
BRANCH   21    2
ATOM      1  O1  UNL A   1      42.993  22.977  24.735  1.00  0.00    +0.000 O 
ATOM      2  C1  UNL A   1      44.062  23.572  24.606  1.00  0.00    +0.000 C 
BRANCH    2    3
ATOM      3  C2  UNL A   1      44.235  24.986  25.118  1.00  0.00    +0.000 C 
ATOM     94  H1  UNL A   1      43.293  25.313  25.508  1.00  0.00    +0.000 H 
ATOM     95  H2  UNL A   1      44.576  25.564  24.285  1.00  0.00    +0.000 H 
BRANCH    3    4
ATOM      4  N1  UNL A   1      45.237  25.152  26.160  1.00  0.00    +0.000 N 
ATOM      5  C3  UNL A   1      45.114  24.625  27.420  1.00  0.00    +0.000 C 
ATOM      6  N2  UNL A   1      46.192  24.819  28.139  1.00  0.00    +0.000 N 
ATOM      7  C4  UNL A   1      47.053  25.499  27.315  1.00  0.00    +0.000 C 
ATOM     14  C11 UNL A   1      46.494  25.719  26.062  1.00  0.00    +0.000 C 
ATOM     96  H3  UNL A   1      44.272  24.134  27.760  1.00  0.00    +0.000 H 
BRANCH    7    8
ATOM     97  H4  UNL A   1      49.217  23.959  27.547  1.00  0.00    +0.000 H 
ATOM     98  H5  UNL A   1      51.488  24.653  28.049  1.00  0.00    +0.000 H 
ATOM     99  H6  UNL A   1      51.970  26.982  28.529  1.00  0.00    +0.000 H 
ATOM    100  H7  UNL A   1      50.179  28.618  28.531  1.00  0.00    +0.000 H 
ATOM    101  H8  UNL A   1      47.913  27.932  28.012  1.00  0.00    +0.000 H 
ATOM      8  C5  UNL A   1      48.390  25.896  27.711  1.00  0.00    +0.000 C 
ATOM      9  C6  UNL A   1      49.421  24.951  27.742  1.00  0.00    +0.000 C 
ATOM     10  C7  UNL A   1      50.727  25.349  28.038  1.00  0.00    +0.000 C 
ATOM     11  C8  UNL A   1      51.004  26.688  28.318  1.00  0.00    +0.000 C 
ATOM     12  C9  UNL A   1      49.976  27.629  28.313  1.00  0.00    +0.000 C 
ATOM     13  C10 UNL A   1      48.672  27.234  28.012  1.00  0.00    +0.000 C 
ENDBRANCH    7    8
BRANCH   14   15
ATOM    102  H9  UNL A   1      48.516  24.832  24.552  1.00  0.00    +0.000 H 
ATOM    103  H10 UNL A   1      49.595  25.945  22.687  1.00  0.00    +0.000 H 
ATOM    104  H11 UNL A   1      48.758  28.080  21.894  1.00  0.00    +0.000 H 
ATOM    105  H12 UNL A   1      46.885  29.136  23.015  1.00  0.00    +0.000 H 
ATOM    106  H13 UNL A   1      45.875  28.072  24.942  1.00  0.00    +0.000 H 
ATOM     15  C12 UNL A   1      47.080  26.345  24.878  1.00  0.00    +0.000 C 
ATOM     16  C13 UNL A   1      48.168  25.748  24.231  1.00  0.00    +0.000 C 
ATOM     17  C14 UNL A   1      48.786  26.387  23.152  1.00  0.00    +0.000 C 
ATOM     18  C15 UNL A   1      48.314  27.619  22.703  1.00  0.00    +0.000 C 
ATOM     19  C16 UNL A   1      47.240  28.225  23.348  1.00  0.00    +0.000 C 
ATOM     20  C17 UNL A   1      46.646  27.601  24.444  1.00  0.00    +0.000 C 
ENDBRANCH   14   15
ENDBRANCH    3    4
ENDBRANCH    2    3
ENDBRANCH   21    2
ENDBRANCH   22   21
ENDBRANCH   23   22
ENDBRANCH   24   23
ENDBRANCH   25   24
ENDBRANCH   26   25
ENDBRANCH   27   26
ENDBRANCH   28   27
ENDBRANCH   29   28
ENDBRANCH   31   29
ENDBRANCH   35   34
BRANCH   39   40
ATOM     40  C33 UNL A   1      45.565  30.873  27.266  1.00  0.00    +0.000 C 
ATOM     41  C34 UNL A   1      46.905  31.201  26.962  1.00  0.00    +0.000 C 
ATOM     42  F1  UNL A   1      47.875  30.283  27.076  1.00  0.00    +0.000 F 
ATOM     43  C35 UNL A   1      47.294  32.503  26.635  1.00  0.00    +0.000 C 
ATOM     44  F2  UNL A   1      48.595  32.792  26.491  1.00  0.00    +0.000 F 
ATOM     45  C36 UNL A   1      46.356  33.512  26.534  1.00  0.00    +0.000 C 
ATOM     46  F3  UNL A   1      46.733  34.773  26.286  1.00  0.00    +0.000 F 
ATOM     47  C37 UNL A   1      45.027  33.216  26.742  1.00  0.00    +0.000 C 
ATOM     48  F4  UNL A   1      44.103  34.185  26.668  1.00  0.00    +0.000 F 
ATOM     49  C38 UNL A   1      44.640  31.930  27.120  1.00  0.00    +0.000 C 
ATOM     50  F5  UNL A   1      43.349  31.807  27.440  1.00  0.00    +0.000 F 
ENDBRANCH   39   40
BRANCH   56   57
ATOM     65  F9  UNL A   1      43.968  29.392  36.882  1.00  0.00    +0.000 F 
ATOM     66  C49 UNL A   1      43.532  29.681  34.578  1.00  0.00    +0.000 C 
ATOM     67  F10 UNL A   1      44.193  30.848  34.620  1.00  0.00    +0.000 F 
ATOM     57  C44 UNL A   1      43.016  29.212  33.362  1.00  0.00    +0.000 C 
ATOM     58  C45 UNL A   1      42.376  27.961  33.371  1.00  0.00    +0.000 C 
ATOM     59  F6  UNL A   1      41.934  27.407  32.235  1.00  0.00    +0.000 F 
ATOM     60  C46 UNL A   1      42.227  27.235  34.553  1.00  0.00    +0.000 C 
ATOM     61  F7  UNL A   1      41.598  26.050  34.541  1.00  0.00    +0.000 F 
ATOM     62  C47 UNL A   1      42.755  27.720  35.739  1.00  0.00    +0.000 C 
ATOM     63  F8  UNL A   1      42.647  27.006  36.868  1.00  0.00    +0.000 F 
ATOM     64  C48 UNL A   1      43.416  28.938  35.748  1.00  0.00    +0.000 C 
ENDBRANCH   56   57
BRANCH   71   72
ATOM     72  C53 UNL A   1      37.740  31.423  30.743  1.00  0.00    +0.000 C 
ATOM     73  C54 UNL A   1      37.154  32.026  31.869  1.00  0.00    +0.000 C 
ATOM     74  F11 UNL A   1      37.558  31.684  33.101  1.00  0.00    +0.000 F 
ATOM     75  C55 UNL A   1      36.204  33.045  31.745  1.00  0.00    +0.000 C 
ATOM     76  F12 UNL A   1      35.719  33.644  32.842  1.00  0.00    +0.000 F 
ATOM     77  C56 UNL A   1      35.807  33.483  30.493  1.00  0.00    +0.000 C 
ATOM     78  F13 UNL A   1      34.950  34.507  30.373  1.00  0.00    +0.000 F 
ATOM     79  C57 UNL A   1      36.339  32.885  29.364  1.00  0.00    +0.000 C 
ATOM     80  F14 UNL A   1      35.991  33.327  28.147  1.00  0.00    +0.000 F 
ATOM     81  C58 UNL A   1      37.289  31.870  29.486  1.00  0.00    +0.000 C 
ATOM     82  F15 UNL A   1      37.835  31.400  28.356  1.00  0.00    +0.000 F 
ENDBRANCH   71   72
TORSDOF 18
ENDMDL
MODEL 2
REMARK VINA RESULT:     -10.0      4.640     10.760
ROOT
ATOM    129  H36 UNL A   1      44.205  24.988  29.246  1.00  0.00    +0.000 H 
ATOM    130  H37 UNL A   1      45.120  26.823  30.809  1.00  0.00    +0.000 H 
ATOM    131  H38 UNL A   1      40.124  27.863  33.833  1.00  0.00    +0.000 H 
ATOM    132  H39 UNL A   1      39.009  27.451  31.542  1.00  0.00    +0.000 H 
ATOM     35  C29 UNL A   1      40.173  29.064  29.461  1.00  0.00    +0.000 C 
ATOM     36  C30 UNL A   1      40.643  28.870  30.857  1.00  0.00    +0.000 C 
ATOM     37  N5  UNL A   1      41.616  29.481  31.448  1.00  0.00    +0.000 N 
ATOM     38  C31 UNL A   1      41.698  28.919  32.720  1.00  0.00    +0.000 C 
ATOM     39  C32 UNL A   1      42.893  28.858  33.369  1.00  0.00    +0.000 C 
ATOM     51  C39 UNL A   1      43.851  29.741  32.749  1.00  0.00    +0.000 C 
ATOM     52  C40 UNL A   1      43.962  31.102  32.556  1.00  0.00    +0.000 C 
ATOM     53  C41 UNL A   1      44.584  31.251  31.278  1.00  0.00    +0.000 C 
ATOM     54  C42 UNL A   1      44.886  29.981  30.786  1.00  0.00    +0.000 C 
ATOM     55  N6  UNL A   1      44.716  29.156  31.862  1.00  0.00    +0.000 N 
ATOM     56  C43 UNL A   1      45.185  29.492  29.457  1.00  0.00    +0.000 C 
ATOM     68  C50 UNL A   1      45.140  28.183  29.070  1.00  0.00    +0.000 C 
ATOM     69  N7  UNL A   1      44.930  27.855  27.740  1.00  0.00    +0.000 N 
ATOM     70  C51 UNL A   1      44.315  26.705  27.779  1.00  0.00    +0.000 C 
ATOM     71  C52 UNL A   1      43.220  26.334  26.852  1.00  0.00    +0.000 C 
ATOM     83  C59 UNL A   1      42.181  27.157  27.137  1.00  0.00    +0.000 C 
ATOM     84  C60 UNL A   1      41.038  27.513  26.329  1.00  0.00    +0.000 C 
ATOM     85  C61 UNL A   1      40.292  28.396  27.021  1.00  0.00    +0.000 C 
ATOM     86  C62 UNL A   1      40.802  28.519  28.393  1.00  0.00    +0.000 C 
ATOM     87  N8  UNL A   1      42.000  27.841  28.359  1.00  0.00    +0.000 N 
ATOM     88  C63 UNL A   1      44.432  25.970  29.025  1.00  0.00    +0.000 C 
ATOM     89  C64 UNL A   1      44.920  26.940  29.804  1.00  0.00    +0.000 C 
ATOM     90  C65 UNL A   1      40.470  28.198  32.920  1.00  0.00    +0.000 C 
ATOM     91  C66 UNL A   1      39.839  28.025  31.756  1.00  0.00    +0.000 C 
ATOM    123  H30 UNL A   1      43.659  31.853  33.197  1.00  0.00    +0.000 H 
ATOM    124  H31 UNL A   1      44.775  32.146  30.801  1.00  0.00    +0.000 H 
ATOM    125  H32 UNL A   1      45.148  28.278  31.979  1.00  0.00    +0.000 H 
ATOM    126  H33 UNL A   1      40.827  27.151  25.386  1.00  0.00    +0.000 H 
ATOM    127  H34 UNL A   1      39.483  28.912  26.642  1.00  0.00    +0.000 H 
ATOM    128  H35 UNL A   1      42.652  27.835  29.097  1.00  0.00    +0.000 H 
ENDROOT
BRANCH   35   34
ATOM     33  C27 UNL A   1      37.700  28.909  29.105  1.00  0.00    +0.000 C 
ATOM     34  C28 UNL A   1      38.852  29.673  29.358  1.00  0.00    +0.000 C 
ATOM    133  H40 UNL A   1      39.651  31.618  29.480  1.00  0.00    +0.000 H 
ATOM    134  H41 UNL A   1      37.477  32.665  29.648  1.00  0.00    +0.000 H 
ATOM    121  H28 UNL A   1      35.644  29.025  28.625  1.00  0.00    +0.000 H 
ATOM    122  H29 UNL A   1      37.750  27.879  29.093  1.00  0.00    +0.000 H 
ATOM     92  C67 UNL A   1      38.787  31.059  29.413  1.00  0.00    +0.000 C 
ATOM     93  C68 UNL A   1      37.567  31.673  29.376  1.00  0.00    +0.000 C 
ATOM     31  C25 UNL A   1      36.447  30.955  28.971  1.00  0.00    +0.000 C 
ATOM     32  C26 UNL A   1      36.490  29.560  28.870  1.00  0.00    +0.000 C 
BRANCH   31   29
ATOM     29  C24 UNL A   1      35.248  31.729  28.608  1.00  0.00    +0.000 C 
ATOM     30  O2  UNL A   1      34.850  32.635  29.336  1.00  0.00    +0.000 O 
BRANCH   29   28
ATOM     28  N4  UNL A   1      34.588  31.415  27.432  1.00  0.00    +0.000 N 
ATOM    120  H27 UNL A   1      35.105  31.486  26.598  1.00  0.00    +0.000 H 
BRANCH   28   27
ATOM     27  C23 UNL A   1      33.190  30.988  27.310  1.00  0.00    +0.000 C 
ATOM    118  H25 UNL A   1      32.618  31.475  28.072  1.00  0.00    +0.000 H 
ATOM    119  H26 UNL A   1      32.859  31.255  26.329  1.00  0.00    +0.000 H 
BRANCH   27   26
ATOM     26  C22 UNL A   1      33.010  29.484  27.456  1.00  0.00    +0.000 C 
ATOM    116  H23 UNL A   1      33.269  29.214  28.458  1.00  0.00    +0.000 H 
ATOM    117  H24 UNL A   1      31.988  29.277  27.215  1.00  0.00    +0.000 H 
BRANCH   26   25
ATOM     25  C21 UNL A   1      33.862  28.641  26.497  1.00  0.00    +0.000 C 
ATOM    114  H21 UNL A   1      33.893  29.154  25.558  1.00  0.00    +0.000 H 
ATOM    115  H22 UNL A   1      34.808  28.536  26.985  1.00  0.00    +0.000 H 
BRANCH   25   24
ATOM    113  H20 UNL A   1      33.401  26.718  27.179  1.00  0.00    +0.000 H 
ATOM    112  H19 UNL A   1      34.051  26.777  25.502  1.00  0.00    +0.000 H 
ATOM     24  C20 UNL A   1      33.390  27.205  26.226  1.00  0.00    +0.000 C 
BRANCH   24   23
ATOM    111  H18 UNL A   1      32.034  26.525  24.771  1.00  0.00    +0.000 H 
ATOM    110  H17 UNL A   1      31.526  28.019  25.609  1.00  0.00    +0.000 H 
ATOM     23  C19 UNL A   1      31.959  27.044  25.704  1.00  0.00    +0.000 C 
BRANCH   23   22
ATOM    108  H15 UNL A   1      31.645  25.724  27.337  1.00  0.00    +0.000 H 
ATOM    109  H16 UNL A   1      30.327  26.865  27.028  1.00  0.00    +0.000 H 
ATOM     22  C18 UNL A   1      31.047  26.206  26.592  1.00  0.00    +0.000 C 
BRANCH   22   21
ATOM    107  H14 UNL A   1      30.014  25.393  24.936  1.00  0.00    +0.000 H 
ATOM     21  N3  UNL A   1      30.321  25.190  25.849  1.00  0.00    +0.000 N 
BRANCH   21    2
ATOM      1  O1  UNL A   1      29.264  23.793  27.324  1.00  0.00    +0.000 O 
ATOM      2  C1  UNL A   1      30.051  23.949  26.391  1.00  0.00    +0.000 C 
BRANCH    2    3
ATOM      3  C2  UNL A   1      30.846  22.784  25.839  1.00  0.00    +0.000 C 
ATOM     94  H1  UNL A   1      30.828  22.850  24.771  1.00  0.00    +0.000 H 
ATOM     95  H2  UNL A   1      30.381  21.900  26.221  1.00  0.00    +0.000 H 
BRANCH    3    4
ATOM      4  N1  UNL A   1      32.236  22.723  26.264  1.00  0.00    +0.000 N 
ATOM      5  C3  UNL A   1      32.631  22.279  27.500  1.00  0.00    +0.000 C 
ATOM      6  N2  UNL A   1      33.936  22.217  27.604  1.00  0.00    +0.000 N 
ATOM      7  C4  UNL A   1      34.411  22.636  26.387  1.00  0.00    +0.000 C 
ATOM     14  C11 UNL A   1      33.376  22.954  25.517  1.00  0.00    +0.000 C 
ATOM     96  H3  UNL A   1      31.978  22.024  28.257  1.00  0.00    +0.000 H 
BRANCH    7    8
ATOM     97  H4  UNL A   1      36.039  24.740  26.546  1.00  0.00    +0.000 H 
ATOM     98  H5  UNL A   1      38.434  24.801  26.154  1.00  0.00    +0.000 H 
ATOM     99  H6  UNL A   1      39.596  22.803  25.416  1.00  0.00    +0.000 H 
ATOM    100  H7  UNL A   1      38.363  20.747  25.046  1.00  0.00    +0.000 H 
ATOM    101  H8  UNL A   1      35.974  20.678  25.454  1.00  0.00    +0.000 H 
ATOM      8  C5  UNL A   1      35.822  22.697  26.059  1.00  0.00    +0.000 C 
ATOM      9  C6  UNL A   1      36.533  23.888  26.241  1.00  0.00    +0.000 C 
ATOM     10  C7  UNL A   1      37.910  23.924  26.009  1.00  0.00    +0.000 C 
ATOM     11  C8  UNL A   1      38.577  22.776  25.580  1.00  0.00    +0.000 C 
ATOM     12  C9  UNL A   1      37.870  21.593  25.373  1.00  0.00    +0.000 C 
ATOM     13  C10 UNL A   1      36.496  21.554  25.610  1.00  0.00    +0.000 C 
ENDBRANCH    7    8
BRANCH   14   15
ATOM    102  H9  UNL A   1      33.955  25.380  24.549  1.00  0.00    +0.000 H 
ATOM    103  H10 UNL A   1      33.889  26.128  22.243  1.00  0.00    +0.000 H 
ATOM    104  H11 UNL A   1      33.378  24.557  20.467  1.00  0.00    +0.000 H 
ATOM    105  H12 UNL A   1      32.861  22.250  21.006  1.00  0.00    +0.000 H 
ATOM    106  H13 UNL A   1      32.826  21.529  23.317  1.00  0.00    +0.000 H 
ATOM     15  C12 UNL A   1      33.432  23.380  24.119  1.00  0.00    +0.000 C 
ATOM     16  C13 UNL A   1      33.719  24.712  23.799  1.00  0.00    +0.000 C 
ATOM     17  C14 UNL A   1      33.686  25.142  22.469  1.00  0.00    +0.000 C 
ATOM     18  C15 UNL A   1      33.382  24.243  21.449  1.00  0.00    +0.000 C 
ATOM     19  C16 UNL A   1      33.083  22.920  21.759  1.00  0.00    +0.000 C 
ATOM     20  C17 UNL A   1      33.084  22.501  23.089  1.00  0.00    +0.000 C 
ENDBRANCH   14   15
ENDBRANCH    3    4
ENDBRANCH    2    3
ENDBRANCH   21    2
ENDBRANCH   22   21
ENDBRANCH   23   22
ENDBRANCH   24   23
ENDBRANCH   25   24
ENDBRANCH   26   25
ENDBRANCH   27   26
ENDBRANCH   28   27
ENDBRANCH   29   28
ENDBRANCH   31   29
ENDBRANCH   35   34
BRANCH   39   40
ATOM     40  C33 UNL A   1      43.345  27.698  34.238  1.00  0.00    +0.000 C 
ATOM     41  C34 UNL A   1      43.501  26.428  33.642  1.00  0.00    +0.000 C 
ATOM     42  F1  UNL A   1      43.532  26.299  32.307  1.00  0.00    +0.000 F 
ATOM     43  C35 UNL A   1      43.526  25.251  34.396  1.00  0.00    +0.000 C 
ATOM     44  F2  UNL A   1      43.536  24.063  33.777  1.00  0.00    +0.000 F 
ATOM     45  C36 UNL A   1      43.462  25.301  35.775  1.00  0.00    +0.000 C 
ATOM     46  F3  UNL A   1      43.418  24.174  36.499  1.00  0.00    +0.000 F 
ATOM     47  C37 UNL A   1      43.392  26.526  36.401  1.00  0.00    +0.000 C 
ATOM     48  F4  UNL A   1      43.309  26.595  37.737  1.00  0.00    +0.000 F 
ATOM     49  C38 UNL A   1      43.314  27.699  35.650  1.00  0.00    +0.000 C 
ATOM     50  F5  UNL A   1      43.096  28.806  36.365  1.00  0.00    +0.000 F 
ENDBRANCH   39   40
BRANCH   56   57
ATOM     65  F9  UNL A   1      48.149  32.518  27.102  1.00  0.00    +0.000 F 
ATOM     66  C49 UNL A   1      46.664  31.009  28.151  1.00  0.00    +0.000 C 
ATOM     67  F10 UNL A   1      47.699  30.498  28.836  1.00  0.00    +0.000 F 
ATOM     57  C44 UNL A   1      45.368  30.527  28.380  1.00  0.00    +0.000 C 
ATOM     58  C45 UNL A   1      44.318  31.134  27.668  1.00  0.00    +0.000 C 
ATOM     59  F6  UNL A   1      43.045  30.788  27.895  1.00  0.00    +0.000 F 
ATOM     60  C46 UNL A   1      44.565  32.147  26.742  1.00  0.00    +0.000 C 
ATOM     61  F7  UNL A   1      43.550  32.701  26.062  1.00  0.00    +0.000 F 
ATOM     62  C47 UNL A   1      45.857  32.609  26.544  1.00  0.00    +0.000 C 
ATOM     63  F8  UNL A   1      46.091  33.609  25.684  1.00  0.00    +0.000 F 
ATOM     64  C48 UNL A   1      46.904  32.046  27.256  1.00  0.00    +0.000 C 
ENDBRANCH   56   57
BRANCH   71   72
ATOM     72  C53 UNL A   1      43.236  25.077  26.069  1.00  0.00    +0.000 C 
ATOM     73  C54 UNL A   1      44.273  24.803  25.162  1.00  0.00    +0.000 C 
ATOM     74  F11 UNL A   1      45.130  25.771  24.807  1.00  0.00    +0.000 F 
ATOM     75  C55 UNL A   1      44.495  23.513  24.667  1.00  0.00    +0.000 C 
ATOM     76  F12 UNL A   1      45.536  23.276  23.858  1.00  0.00    +0.000 F 
ATOM     77  C56 UNL A   1      43.681  22.464  25.061  1.00  0.00    +0.000 C 
ATOM     78  F13 UNL A   1      43.934  21.215  24.644  1.00  0.00    +0.000 F 
ATOM     79  C57 UNL A   1      42.629  22.708  25.926  1.00  0.00    +0.000 C 
ATOM     80  F14 UNL A   1      41.858  21.694  26.344  1.00  0.00    +0.000 F 
ATOM     81  C58 UNL A   1      42.408  23.994  26.421  1.00  0.00    +0.000 C 
ATOM     82  F15 UNL A   1      41.434  24.144  27.330  1.00  0.00    +0.000 F 
ENDBRANCH   71   72
TORSDOF 18
ENDMDL
MODEL 3
REMARK VINA RESULT:     -10.0      3.604     10.864
ROOT
ATOM    129  H36 UNL A   1      43.933  24.965  29.465  1.00  0.00    +0.000 H 
ATOM    130  H37 UNL A   1      44.722  26.791  31.104  1.00  0.00    +0.000 H 
ATOM    131  H38 UNL A   1      39.474  27.932  33.622  1.00  0.00    +0.000 H 
ATOM    132  H39 UNL A   1      38.581  27.527  31.234  1.00  0.00    +0.000 H 
ATOM     35  C29 UNL A   1      39.971  29.110  29.271  1.00  0.00    +0.000 C 
ATOM     36  C30 UNL A   1      40.299  28.916  30.707  1.00  0.00    +0.000 C 
ATOM     37  N5  UNL A   1      41.220  29.512  31.389  1.00  0.00    +0.000 N 
ATOM     38  C31 UNL A   1      41.167  28.955  32.664  1.00  0.00    +0.000 C 
ATOM     39  C32 UNL A   1      42.292  28.877  33.428  1.00  0.00    +0.000 C 
ATOM     51  C39 UNL A   1      43.321  29.741  32.901  1.00  0.00    +0.000 C 
ATOM     52  C40 UNL A   1      43.474  31.099  32.715  1.00  0.00    +0.000 C 
ATOM     53  C41 UNL A   1      44.220  31.231  31.504  1.00  0.00    +0.000 C 
ATOM     54  C42 UNL A   1      44.547  29.953  31.047  1.00  0.00    +0.000 C 
ATOM     55  N6  UNL A   1      44.259  29.136  32.104  1.00  0.00    +0.000 N 
ATOM     56  C43 UNL A   1      44.966  29.453  29.756  1.00  0.00    +0.000 C 
ATOM     68  C50 UNL A   1      44.936  28.143  29.371  1.00  0.00    +0.000 C 
ATOM     69  N7  UNL A   1      44.851  27.812  28.028  1.00  0.00    +0.000 N 
ATOM     70  C51 UNL A   1      44.215  26.672  28.010  1.00  0.00    +0.000 C 
ATOM     71  C52 UNL A   1      43.210  26.315  26.982  1.00  0.00    +0.000 C 
ATOM     83  C59 UNL A   1      42.162  27.158  27.161  1.00  0.00    +0.000 C 
ATOM     84  C60 UNL A   1      41.110  27.529  26.244  1.00  0.00    +0.000 C 
ATOM     85  C61 UNL A   1      40.316  28.429  26.857  1.00  0.00    +0.000 C 
ATOM     86  C62 UNL A   1      40.691  28.549  28.272  1.00  0.00    +0.000 C 
ATOM     87  N8  UNL A   1      41.875  27.851  28.358  1.00  0.00    +0.000 N 
ATOM     88  C63 UNL A   1      44.197  25.942  29.264  1.00  0.00    +0.000 C 
ATOM     89  C64 UNL A   1      44.624  26.907  30.083  1.00  0.00    +0.000 C 
ATOM     90  C65 UNL A   1      39.913  28.256  32.746  1.00  0.00    +0.000 C 
ATOM     91  C66 UNL A   1      39.396  28.088  31.526  1.00  0.00    +0.000 C 
ATOM    123  H30 UNL A   1      43.124  31.858  33.321  1.00  0.00    +0.000 H 
ATOM    124  H31 UNL A   1      44.473  32.120  31.045  1.00  0.00    +0.000 H 
ATOM    125  H32 UNL A   1      44.661  28.252  32.267  1.00  0.00    +0.000 H 
ATOM    126  H33 UNL A   1      40.986  27.166  25.286  1.00  0.00    +0.000 H 
ATOM    127  H34 UNL A   1      39.556  28.956  26.399  1.00  0.00    +0.000 H 
ATOM    128  H35 UNL A   1      42.451  27.837  29.156  1.00  0.00    +0.000 H 
ENDROOT
BRANCH   35   34
ATOM     33  C27 UNL A   1      37.593  29.032  28.495  1.00  0.00    +0.000 C 
ATOM     34  C28 UNL A   1      38.677  29.741  29.038  1.00  0.00    +0.000 C 
ATOM    133  H40 UNL A   1      39.420  31.642  29.560  1.00  0.00    +0.000 H 
ATOM    134  H41 UNL A   1      37.234  32.678  29.511  1.00  0.00    +0.000 H 
ATOM    121  H28 UNL A   1      35.642  29.235  27.704  1.00  0.00    +0.000 H 
ATOM    122  H29 UNL A   1      37.656  28.013  28.348  1.00  0.00    +0.000 H 
ATOM     92  C67 UNL A   1      38.586  31.106  29.274  1.00  0.00    +0.000 C 
ATOM     93  C68 UNL A   1      37.380  31.732  29.122  1.00  0.00    +0.000 C 
ATOM     31  C25 UNL A   1      36.352  31.090  28.442  1.00  0.00    +0.000 C 
ATOM     32  C26 UNL A   1      36.429  29.722  28.156  1.00  0.00    +0.000 C 
BRANCH   31   29
ATOM     29  C24 UNL A   1      35.219  31.919  27.998  1.00  0.00    +0.000 C 
ATOM     30  O2  UNL A   1      34.305  31.422  27.345  1.00  0.00    +0.000 O 
BRANCH   29   28
ATOM     28  N4  UNL A   1      35.209  33.262  28.336  1.00  0.00    +0.000 N 
ATOM    120  H27 UNL A   1      35.849  33.845  27.867  1.00  0.00    +0.000 H 
BRANCH   28   27
ATOM     27  C23 UNL A   1      34.334  33.900  29.325  1.00  0.00    +0.000 C 
ATOM    118  H25 UNL A   1      34.058  34.868  28.961  1.00  0.00    +0.000 H 
ATOM    119  H26 UNL A   1      33.484  33.264  29.456  1.00  0.00    +0.000 H 
BRANCH   27   26
ATOM     26  C22 UNL A   1      34.992  34.063  30.687  1.00  0.00    +0.000 C 
ATOM    116  H23 UNL A   1      36.045  34.169  30.538  1.00  0.00    +0.000 H 
ATOM    117  H24 UNL A   1      34.542  34.923  31.139  1.00  0.00    +0.000 H 
BRANCH   26   25
ATOM     25  C21 UNL A   1      34.761  32.894  31.654  1.00  0.00    +0.000 C 
ATOM    114  H21 UNL A   1      34.036  32.245  31.209  1.00  0.00    +0.000 H 
ATOM    115  H22 UNL A   1      35.727  32.459  31.800  1.00  0.00    +0.000 H 
BRANCH   25   24
ATOM    113  H20 UNL A   1      33.749  32.374  33.410  1.00  0.00    +0.000 H 
ATOM    112  H19 UNL A   1      33.653  34.120  32.986  1.00  0.00    +0.000 H 
ATOM     24  C20 UNL A   1      34.264  33.245  33.065  1.00  0.00    +0.000 C 
BRANCH   24   23
ATOM    111  H18 UNL A   1      34.965  33.145  35.045  1.00  0.00    +0.000 H 
ATOM    110  H17 UNL A   1      35.525  34.579  34.137  1.00  0.00    +0.000 H 
ATOM     23  C19 UNL A   1      35.343  33.524  34.118  1.00  0.00    +0.000 C 
BRANCH   23   22
ATOM    108  H15 UNL A   1      36.490  31.951  33.269  1.00  0.00    +0.000 H 
ATOM    109  H16 UNL A   1      37.319  33.511  33.381  1.00  0.00    +0.000 H 
ATOM     22  C18 UNL A   1      36.670  32.817  33.871  1.00  0.00    +0.000 C 
BRANCH   22   21
ATOM    107  H14 UNL A   1      37.054  32.824  35.950  1.00  0.00    +0.000 H 
ATOM     21  N3  UNL A   1      37.320  32.401  35.102  1.00  0.00    +0.000 N 
BRANCH   21    2
ATOM      1  O1  UNL A   1      38.309  30.509  35.929  1.00  0.00    +0.000 O 
ATOM      2  C1  UNL A   1      38.301  31.429  35.112  1.00  0.00    +0.000 C 
BRANCH    2    3
ATOM      3  C2  UNL A   1      39.430  31.598  34.117  1.00  0.00    +0.000 C 
ATOM     94  H1  UNL A   1      38.998  31.803  33.159  1.00  0.00    +0.000 H 
ATOM     95  H2  UNL A   1      39.991  30.688  34.147  1.00  0.00    +0.000 H 
BRANCH    3    4
ATOM      4  N1  UNL A   1      40.373  32.663  34.423  1.00  0.00    +0.000 N 
ATOM      5  C3  UNL A   1      41.071  32.740  35.601  1.00  0.00    +0.000 C 
ATOM      6  N2  UNL A   1      41.934  33.727  35.594  1.00  0.00    +0.000 N 
ATOM      7  C4  UNL A   1      41.796  34.314  34.363  1.00  0.00    +0.000 C 
ATOM     14  C11 UNL A   1      40.832  33.671  33.596  1.00  0.00    +0.000 C 
ATOM     96  H3  UNL A   1      40.932  32.099  36.397  1.00  0.00    +0.000 H 
BRANCH    7    8
ATOM     97  H4  UNL A   1      43.754  34.331  32.554  1.00  0.00    +0.000 H 
ATOM     98  H5  UNL A   1      44.973  36.248  31.700  1.00  0.00    +0.000 H 
ATOM     99  H6  UNL A   1      44.536  38.462  32.591  1.00  0.00    +0.000 H 
ATOM    100  H7  UNL A   1      42.896  38.761  34.354  1.00  0.00    +0.000 H 
ATOM    101  H8  UNL A   1      41.664  36.850  35.197  1.00  0.00    +0.000 H 
ATOM      8  C5  UNL A   1      42.592  35.443  33.923  1.00  0.00    +0.000 C 
ATOM      9  C6  UNL A   1      43.560  35.272  32.928  1.00  0.00    +0.000 C 
ATOM     10  C7  UNL A   1      44.266  36.375  32.441  1.00  0.00    +0.000 C 
ATOM     11  C8  UNL A   1      44.019  37.647  32.957  1.00  0.00    +0.000 C 
ATOM     12  C9  UNL A   1      43.072  37.820  33.966  1.00  0.00    +0.000 C 
ATOM     13  C10 UNL A   1      42.362  36.721  34.449  1.00  0.00    +0.000 C 
ENDBRANCH    7    8
BRANCH   14   15
ATOM    102  H9  UNL A   1      42.224  33.284  31.344  1.00  0.00    +0.000 H 
ATOM    103  H10 UNL A   1      41.594  33.862  29.075  1.00  0.00    +0.000 H 
ATOM    104  H11 UNL A   1      39.401  34.794  28.620  1.00  0.00    +0.000 H 
ATOM    105  H12 UNL A   1      37.864  35.216  30.447  1.00  0.00    +0.000 H 
ATOM    106  H13 UNL A   1      38.534  34.735  32.724  1.00  0.00    +0.000 H 
ATOM     15  C12 UNL A   1      40.413  33.928  32.219  1.00  0.00    +0.000 C 
ATOM     16  C13 UNL A   1      41.297  33.698  31.158  1.00  0.00    +0.000 C 
ATOM     17  C14 UNL A   1      40.932  34.025  29.850  1.00  0.00    +0.000 C 
ATOM     18  C15 UNL A   1      39.677  34.572  29.588  1.00  0.00    +0.000 C 
ATOM     19  C16 UNL A   1      38.796  34.816  30.638  1.00  0.00    +0.000 C 
ATOM     20  C17 UNL A   1      39.176  34.518  31.946  1.00  0.00    +0.000 C 
ENDBRANCH   14   15
ENDBRANCH    3    4
ENDBRANCH    2    3
ENDBRANCH   21    2
ENDBRANCH   22   21
ENDBRANCH   23   22
ENDBRANCH   24   23
ENDBRANCH   25   24
ENDBRANCH   26   25
ENDBRANCH   27   26
ENDBRANCH   28   27
ENDBRANCH   29   28
ENDBRANCH   31   29
ENDBRANCH   35   34
BRANCH   39   40
ATOM     40  C33 UNL A   1      42.636  27.714  34.341  1.00  0.00    +0.000 C 
ATOM     41  C34 UNL A   1      43.108  26.516  33.760  1.00  0.00    +0.000 C 
ATOM     42  F1  UNL A   1      43.513  26.490  32.482  1.00  0.00    +0.000 F 
ATOM     43  C35 UNL A   1      43.077  25.298  34.444  1.00  0.00    +0.000 C 
ATOM     44  F2  UNL A   1      43.405  24.166  33.805  1.00  0.00    +0.000 F 
ATOM     45  C36 UNL A   1      42.638  25.239  35.752  1.00  0.00    +0.000 C 
ATOM     46  F3  UNL A   1      42.545  24.064  36.390  1.00  0.00    +0.000 F 
ATOM     47  C37 UNL A   1      42.247  26.399  36.383  1.00  0.00    +0.000 C 
ATOM     48  F4  UNL A   1      41.800  26.360  37.646  1.00  0.00    +0.000 F 
ATOM     49  C38 UNL A   1      42.227  27.608  35.688  1.00  0.00    +0.000 C 
ATOM     50  F5  UNL A   1      41.686  28.629  36.359  1.00  0.00    +0.000 F 
ENDBRANCH   39   40
BRANCH   56   57
ATOM     65  F9  UNL A   1      48.203  32.400  27.679  1.00  0.00    +0.000 F 
ATOM     66  C49 UNL A   1      46.594  30.930  28.589  1.00  0.00    +0.000 C 
ATOM     67  F10 UNL A   1      47.549  30.398  29.368  1.00  0.00    +0.000 F 
ATOM     57  C44 UNL A   1      45.271  30.479  28.699  1.00  0.00    +0.000 C 
ATOM     58  C45 UNL A   1      44.306  31.107  27.892  1.00  0.00    +0.000 C 
ATOM     59  F6  UNL A   1      43.009  30.792  28.002  1.00  0.00    +0.000 F 
ATOM     60  C46 UNL A   1      44.661  32.111  26.991  1.00  0.00    +0.000 C 
ATOM     61  F7  UNL A   1      43.725  32.686  26.220  1.00  0.00    +0.000 F 
ATOM     62  C47 UNL A   1      45.975  32.542  26.912  1.00  0.00    +0.000 C 
ATOM     63  F8  UNL A   1      46.311  33.533  26.076  1.00  0.00    +0.000 F 
ATOM     64  C48 UNL A   1      46.939  31.957  27.718  1.00  0.00    +0.000 C 
ENDBRANCH   56   57
BRANCH   71   72
ATOM     72  C53 UNL A   1      43.280  25.055  26.209  1.00  0.00    +0.000 C 
ATOM     73  C54 UNL A   1      44.295  24.843  25.260  1.00  0.00    +0.000 C 
ATOM     74  F11 UNL A   1      45.067  25.865  24.861  1.00  0.00    +0.000 F 
ATOM     75  C55 UNL A   1      44.584  23.567  24.766  1.00  0.00    +0.000 C 
ATOM     76  F12 UNL A   1      45.605  23.394  23.915  1.00  0.00    +0.000 F 
ATOM     77  C56 UNL A   1      43.862  22.468  25.202  1.00  0.00    +0.000 C 
ATOM     78  F13 UNL A   1      44.184  21.236  24.784  1.00  0.00    +0.000 F 
ATOM     79  C57 UNL A   1      42.833  22.648  26.109  1.00  0.00    +0.000 C 
ATOM     80  F14 UNL A   1      42.153  21.587  26.566  1.00  0.00    +0.000 F 
ATOM     81  C58 UNL A   1      42.545  23.921  26.603  1.00  0.00    +0.000 C 
ATOM     82  F15 UNL A   1      41.601  24.013  27.551  1.00  0.00    +0.000 F 
ENDBRANCH   71   72
TORSDOF 18
ENDMDL
MODEL 4
REMARK VINA RESULT:      -9.6      5.311     11.317
ROOT
ATOM    129  H36 UNL A   1      43.558  24.228  29.961  1.00  0.00    +0.000 H 
ATOM    130  H37 UNL A   1      44.666  26.043  31.416  1.00  0.00    +0.000 H 
ATOM    131  H38 UNL A   1      39.797  27.858  34.277  1.00  0.00    +0.000 H 
ATOM    132  H39 UNL A   1      38.664  27.427  31.998  1.00  0.00    +0.000 H 
ATOM     35  C29 UNL A   1      40.031  28.751  29.837  1.00  0.00    +0.000 C 
ATOM     36  C30 UNL A   1      40.460  28.598  31.251  1.00  0.00    +0.000 C 
ATOM     37  N5  UNL A   1      41.492  29.129  31.819  1.00  0.00    +0.000 N 
ATOM     38  C31 UNL A   1      41.495  28.647  33.125  1.00  0.00    +0.000 C 
ATOM     39  C32 UNL A   1      42.668  28.491  33.799  1.00  0.00    +0.000 C 
ATOM     51  C39 UNL A   1      43.729  29.213  33.140  1.00  0.00    +0.000 C 
ATOM     52  C40 UNL A   1      44.001  30.536  32.860  1.00  0.00    +0.000 C 
ATOM     53  C41 UNL A   1      44.649  30.526  31.587  1.00  0.00    +0.000 C 
ATOM     54  C42 UNL A   1      44.805  29.199  31.183  1.00  0.00    +0.000 C 
ATOM     55  N6  UNL A   1      44.529  28.473  32.308  1.00  0.00    +0.000 N 
ATOM     56  C43 UNL A   1      45.058  28.591  29.895  1.00  0.00    +0.000 C 
ATOM     68  C50 UNL A   1      44.864  27.273  29.594  1.00  0.00    +0.000 C 
ATOM     69  N7  UNL A   1      44.629  26.884  28.284  1.00  0.00    +0.000 N 
ATOM     70  C51 UNL A   1      43.883  25.818  28.387  1.00  0.00    +0.000 C 
ATOM     71  C52 UNL A   1      42.762  25.516  27.467  1.00  0.00    +0.000 C 
ATOM     83  C59 UNL A   1      41.824  26.472  27.678  1.00  0.00    +0.000 C 
ATOM     84  C60 UNL A   1      40.739  26.904  26.829  1.00  0.00    +0.000 C 
ATOM     85  C61 UNL A   1      40.095  27.913  27.448  1.00  0.00    +0.000 C 
ATOM     86  C62 UNL A   1      40.602  28.066  28.818  1.00  0.00    +0.000 C 
ATOM     87  N8  UNL A   1      41.713  27.253  28.850  1.00  0.00    +0.000 N 
ATOM     88  C63 UNL A   1      43.901  25.160  29.680  1.00  0.00    +0.000 C 
ATOM     89  C64 UNL A   1      44.492  26.115  30.402  1.00  0.00    +0.000 C 
ATOM     90  C65 UNL A   1      40.188  28.089  33.350  1.00  0.00    +0.000 C 
ATOM     91  C66 UNL A   1      39.554  27.913  32.188  1.00  0.00    +0.000 C 
ATOM    123  H30 UNL A   1      43.782  31.358  33.445  1.00  0.00    +0.000 H 
ATOM    124  H31 UNL A   1      44.949  31.358  31.056  1.00  0.00    +0.000 H 
ATOM    125  H32 UNL A   1      44.853  27.561  32.490  1.00  0.00    +0.000 H 
ATOM    126  H33 UNL A   1      40.497  26.507  25.908  1.00  0.00    +0.000 H 
ATOM    127  H34 UNL A   1      39.356  28.493  27.022  1.00  0.00    +0.000 H 
ATOM    128  H35 UNL A   1      42.351  27.220  29.599  1.00  0.00    +0.000 H 
ENDROOT
BRANCH   35   34
ATOM     33  C27 UNL A   1      37.534  28.878  29.722  1.00  0.00    +0.000 C 
ATOM     34  C28 UNL A   1      38.791  29.502  29.671  1.00  0.00    +0.000 C 
ATOM    133  H40 UNL A   1      39.832  31.271  29.199  1.00  0.00    +0.000 H 
ATOM    134  H41 UNL A   1      37.835  32.636  29.237  1.00  0.00    +0.000 H 
ATOM    121  H28 UNL A   1      35.467  29.168  29.384  1.00  0.00    +0.000 H 
ATOM    122  H29 UNL A   1      37.454  27.884  29.988  1.00  0.00    +0.000 H 
ATOM     92  C67 UNL A   1      38.904  30.848  29.352  1.00  0.00    +0.000 C 
ATOM     93  C68 UNL A   1      37.772  31.605  29.240  1.00  0.00    +0.000 C 
ATOM     31  C25 UNL A   1      36.534  30.982  29.130  1.00  0.00    +0.000 C 
ATOM     32  C26 UNL A   1      36.394  29.618  29.410  1.00  0.00    +0.000 C 
BRANCH   31   29
ATOM     29  C24 UNL A   1      35.406  31.804  28.661  1.00  0.00    +0.000 C 
ATOM     30  O2  UNL A   1      35.072  32.810  29.281  1.00  0.00    +0.000 O 
BRANCH   29   28
ATOM     28  N4  UNL A   1      34.741  31.420  27.509  1.00  0.00    +0.000 N 
ATOM    120  H27 UNL A   1      35.251  31.451  26.668  1.00  0.00    +0.000 H 
BRANCH   28   27
ATOM     27  C23 UNL A   1      33.347  30.971  27.422  1.00  0.00    +0.000 C 
ATOM    118  H25 UNL A   1      32.811  31.365  28.260  1.00  0.00    +0.000 H 
ATOM    119  H26 UNL A   1      32.955  31.326  26.492  1.00  0.00    +0.000 H 
BRANCH   27   26
ATOM     26  C22 UNL A   1      33.206  29.456  27.425  1.00  0.00    +0.000 C 
ATOM    116  H23 UNL A   1      33.245  29.120  28.439  1.00  0.00    +0.000 H 
ATOM    117  H24 UNL A   1      32.275  29.238  26.945  1.00  0.00    +0.000 H 
BRANCH   26   25
ATOM     25  C21 UNL A   1      34.288  28.711  26.632  1.00  0.00    +0.000 C 
ATOM    114  H21 UNL A   1      34.967  29.442  26.246  1.00  0.00    +0.000 H 
ATOM    115  H22 UNL A   1      34.718  28.021  27.328  1.00  0.00    +0.000 H 
BRANCH   25   24
ATOM    113  H20 UNL A   1      32.879  27.433  25.761  1.00  0.00    +0.000 H 
ATOM    112  H19 UNL A   1      34.578  27.120  25.258  1.00  0.00    +0.000 H 
ATOM     24  C20 UNL A   1      33.816  27.846  25.454  1.00  0.00    +0.000 C 
BRANCH   24   23
ATOM    111  H18 UNL A   1      33.614  27.855  23.361  1.00  0.00    +0.000 H 
ATOM    110  H17 UNL A   1      34.227  29.386  24.048  1.00  0.00    +0.000 H 
ATOM     23  C19 UNL A   1      33.526  28.582  24.141  1.00  0.00    +0.000 C 
BRANCH   23   22
ATOM    108  H15 UNL A   1      31.603  28.976  24.952  1.00  0.00    +0.000 H 
ATOM    109  H16 UNL A   1      32.218  30.210  23.841  1.00  0.00    +0.000 H 
ATOM     22  C18 UNL A   1      32.121  29.162  24.035  1.00  0.00    +0.000 C 
BRANCH   22   21
ATOM    107  H14 UNL A   1      31.784  28.481  22.062  1.00  0.00    +0.000 H 
ATOM     21  N3  UNL A   1      31.357  28.583  22.944  1.00  0.00    +0.000 N 
BRANCH   21    2
ATOM      1  O1  UNL A   1      29.108  28.962  23.143  1.00  0.00    +0.000 O 
ATOM      2  C1  UNL A   1      30.050  28.171  23.111  1.00  0.00    +0.000 C 
BRANCH    2    3
ATOM      3  C2  UNL A   1      29.834  26.691  23.349  1.00  0.00    +0.000 C 
ATOM     94  H1  UNL A   1      30.151  26.166  22.472  1.00  0.00    +0.000 H 
ATOM     95  H2  UNL A   1      28.792  26.574  23.563  1.00  0.00    +0.000 H 
BRANCH    3    4
ATOM      4  N1  UNL A   1      30.544  26.134  24.490  1.00  0.00    +0.000 N 
ATOM      5  C3  UNL A   1      30.233  26.428  25.793  1.00  0.00    +0.000 C 
ATOM      6  N2  UNL A   1      30.944  25.721  26.637  1.00  0.00    +0.000 N 
ATOM      7  C4  UNL A   1      31.749  24.934  25.854  1.00  0.00    +0.000 C 
ATOM     14  C11 UNL A   1      31.523  25.158  24.502  1.00  0.00    +0.000 C 
ATOM     96  H3  UNL A   1      29.523  27.123  26.074  1.00  0.00    +0.000 H 
BRANCH    7    8
ATOM     97  H4  UNL A   1      34.393  24.864  25.523  1.00  0.00    +0.000 H 
ATOM     98  H5  UNL A   1      35.981  23.346  26.556  1.00  0.00    +0.000 H 
ATOM     99  H6  UNL A   1      35.195  21.560  27.999  1.00  0.00    +0.000 H 
ATOM    100  H7  UNL A   1      32.818  21.274  28.393  1.00  0.00    +0.000 H 
ATOM    101  H8  UNL A   1      31.231  22.799  27.377  1.00  0.00    +0.000 H 
ATOM      8  C5  UNL A   1      32.688  23.969  26.392  1.00  0.00    +0.000 C 
ATOM      9  C6  UNL A   1      34.057  24.111  26.143  1.00  0.00    +0.000 C 
ATOM     10  C7  UNL A   1      34.971  23.233  26.732  1.00  0.00    +0.000 C 
ATOM     11  C8  UNL A   1      34.518  22.203  27.558  1.00  0.00    +0.000 C 
ATOM     12  C9  UNL A   1      33.153  22.042  27.790  1.00  0.00    +0.000 C 
ATOM     13  C10 UNL A   1      32.241  22.922  27.206  1.00  0.00    +0.000 C 
ENDBRANCH    7    8
BRANCH   14   15
ATOM    102  H9  UNL A   1      32.620  26.292  22.342  1.00  0.00    +0.000 H 
ATOM    103  H10 UNL A   1      33.452  25.207  20.338  1.00  0.00    +0.000 H 
ATOM    104  H11 UNL A   1      33.477  22.787  20.186  1.00  0.00    +0.000 H 
ATOM    105  H12 UNL A   1      32.602  21.451  22.011  1.00  0.00    +0.000 H 
ATOM    106  H13 UNL A   1      31.676  22.538  23.967  1.00  0.00    +0.000 H 
ATOM     15  C12 UNL A   1      32.113  24.500  23.337  1.00  0.00    +0.000 C 
ATOM     16  C13 UNL A   1      32.612  25.263  22.274  1.00  0.00    +0.000 C 
ATOM     17  C14 UNL A   1      33.096  24.637  21.122  1.00  0.00    +0.000 C 
ATOM     18  C15 UNL A   1      33.101  23.247  21.028  1.00  0.00    +0.000 C 
ATOM     19  C16 UNL A   1      32.596  22.481  22.075  1.00  0.00    +0.000 C 
ATOM     20  C17 UNL A   1      32.084  23.109  23.210  1.00  0.00    +0.000 C 
ENDBRANCH   14   15
ENDBRANCH    3    4
ENDBRANCH    2    3
ENDBRANCH   21    2
ENDBRANCH   22   21
ENDBRANCH   23   22
ENDBRANCH   24   23
ENDBRANCH   25   24
ENDBRANCH   26   25
ENDBRANCH   27   26
ENDBRANCH   28   27
ENDBRANCH   29   28
ENDBRANCH   31   29
ENDBRANCH   35   34
BRANCH   39   40
ATOM     40  C33 UNL A   1      42.972  27.347  34.750  1.00  0.00    +0.000 C 
ATOM     41  C34 UNL A   1      43.241  27.647  36.103  1.00  0.00    +0.000 C 
ATOM     42  F1  UNL A   1      42.959  28.859  36.604  1.00  0.00    +0.000 F 
ATOM     43  C35 UNL A   1      43.898  26.746  36.946  1.00  0.00    +0.000 C 
ATOM     44  F2  UNL A   1      44.254  27.128  38.181  1.00  0.00    +0.000 F 
ATOM     45  C36 UNL A   1      44.253  25.491  36.492  1.00  0.00    +0.000 C 
ATOM     46  F3  UNL A   1      44.942  24.650  37.275  1.00  0.00    +0.000 F 
ATOM     47  C37 UNL A   1      43.935  25.129  35.202  1.00  0.00    +0.000 C 
ATOM     48  F4  UNL A   1      44.288  23.922  34.735  1.00  0.00    +0.000 F 
ATOM     49  C38 UNL A   1      43.326  26.043  34.341  1.00  0.00    +0.000 C 
ATOM     50  F5  UNL A   1      43.208  25.626  33.077  1.00  0.00    +0.000 F 
ENDBRANCH   39   40
BRANCH   56   57
ATOM     65  F9  UNL A   1      48.390  31.024  27.353  1.00  0.00    +0.000 F 
ATOM     66  C49 UNL A   1      46.720  29.804  28.496  1.00  0.00    +0.000 C 
ATOM     67  F10 UNL A   1      47.681  29.196  29.209  1.00  0.00    +0.000 F 
ATOM     57  C44 UNL A   1      45.372  29.523  28.757  1.00  0.00    +0.000 C 
ATOM     58  C45 UNL A   1      44.410  30.227  28.011  1.00  0.00    +0.000 C 
ATOM     59  F6  UNL A   1      43.103  30.078  28.262  1.00  0.00    +0.000 F 
ATOM     60  C46 UNL A   1      44.786  31.138  27.024  1.00  0.00    +0.000 C 
ATOM     61  F7  UNL A   1      43.851  31.787  26.314  1.00  0.00    +0.000 F 
ATOM     62  C47 UNL A   1      46.127  31.401  26.795  1.00  0.00    +0.000 C 
ATOM     63  F8  UNL A   1      46.490  32.306  25.876  1.00  0.00    +0.000 F 
ATOM     64  C48 UNL A   1      47.093  30.741  27.538  1.00  0.00    +0.000 C 
ENDBRANCH   56   57
BRANCH   71   72
ATOM     72  C53 UNL A   1      42.639  24.217  26.768  1.00  0.00    +0.000 C 
ATOM     73  C54 UNL A   1      43.508  23.873  25.719  1.00  0.00    +0.000 C 
ATOM     74  F11 UNL A   1      44.302  24.805  25.170  1.00  0.00    +0.000 F 
ATOM     75  C55 UNL A   1      43.635  22.553  25.272  1.00  0.00    +0.000 C 
ATOM     76  F12 UNL A   1      44.526  22.253  24.317  1.00  0.00    +0.000 F 
ATOM     77  C56 UNL A   1      42.890  21.543  25.857  1.00  0.00    +0.000 C 
ATOM     78  F13 UNL A   1      43.061  20.268  25.478  1.00  0.00    +0.000 F 
ATOM     79  C57 UNL A   1      41.998  21.854  26.867  1.00  0.00    +0.000 C 
ATOM     80  F14 UNL A   1      41.300  20.879  27.466  1.00  0.00    +0.000 F 
ATOM     81  C58 UNL A   1      41.872  23.170  27.316  1.00  0.00    +0.000 C 
ATOM     82  F15 UNL A   1      41.064  23.389  28.362  1.00  0.00    +0.000 F 
ENDBRANCH   71   72
TORSDOF 18
ENDMDL
MODEL 5
REMARK VINA RESULT:      -9.6      3.633     10.861
ROOT
ATOM    129  H36 UNL A   1      44.137  24.988  29.504  1.00  0.00    +0.000 H 
ATOM    130  H37 UNL A   1      45.120  26.862  30.975  1.00  0.00    +0.000 H 
ATOM    131  H38 UNL A   1      40.204  28.140  34.038  1.00  0.00    +0.000 H 
ATOM    132  H39 UNL A   1      39.039  27.662  31.784  1.00  0.00    +0.000 H 
ATOM     35  C29 UNL A   1      40.203  29.162  29.620  1.00  0.00    +0.000 C 
ATOM     36  C30 UNL A   1      40.692  29.014  31.014  1.00  0.00    +0.000 C 
ATOM     37  N5  UNL A   1      41.689  29.625  31.565  1.00  0.00    +0.000 N 
ATOM     38  C31 UNL A   1      41.780  29.113  32.856  1.00  0.00    +0.000 C 
ATOM     39  C32 UNL A   1      42.985  29.050  33.488  1.00  0.00    +0.000 C 
ATOM     51  C39 UNL A   1      43.952  29.885  32.816  1.00  0.00    +0.000 C 
ATOM     52  C40 UNL A   1      44.091  31.234  32.566  1.00  0.00    +0.000 C 
ATOM     53  C41 UNL A   1      44.693  31.317  31.273  1.00  0.00    +0.000 C 
ATOM     54  C42 UNL A   1      44.958  30.021  30.828  1.00  0.00    +0.000 C 
ATOM     55  N6  UNL A   1      44.788  29.244  31.939  1.00  0.00    +0.000 N 
ATOM     56  C43 UNL A   1      45.222  29.473  29.516  1.00  0.00    +0.000 C 
ATOM     68  C50 UNL A   1      45.141  28.151  29.183  1.00  0.00    +0.000 C 
ATOM     69  N7  UNL A   1      44.899  27.774  27.871  1.00  0.00    +0.000 N 
ATOM     70  C51 UNL A   1      44.259  26.641  27.967  1.00  0.00    +0.000 C 
ATOM     71  C52 UNL A   1      43.141  26.259  27.074  1.00  0.00    +0.000 C 
ATOM     83  C59 UNL A   1      42.125  27.117  27.342  1.00  0.00    +0.000 C 
ATOM     84  C60 UNL A   1      40.976  27.467  26.540  1.00  0.00    +0.000 C 
ATOM     85  C61 UNL A   1      40.264  28.395  27.207  1.00  0.00    +0.000 C 
ATOM     86  C62 UNL A   1      40.800  28.560  28.564  1.00  0.00    +0.000 C 
ATOM     87  N8  UNL A   1      41.982  27.854  28.539  1.00  0.00    +0.000 N 
ATOM     88  C63 UNL A   1      44.382  25.955  29.239  1.00  0.00    +0.000 C 
ATOM     89  C64 UNL A   1      44.906  26.943  29.970  1.00  0.00    +0.000 C 
ATOM     90  C65 UNL A   1      40.540  28.430  33.106  1.00  0.00    +0.000 C 
ATOM     91  C66 UNL A   1      39.886  28.224  31.960  1.00  0.00    +0.000 C 
ATOM    123  H30 UNL A   1      43.816  32.017  33.181  1.00  0.00    +0.000 H 
ATOM    124  H31 UNL A   1      44.897  32.188  30.757  1.00  0.00    +0.000 H 
ATOM    125  H32 UNL A   1      45.201  28.362  32.085  1.00  0.00    +0.000 H 
ATOM    126  H33 UNL A   1      40.741  27.072  25.616  1.00  0.00    +0.000 H 
ATOM    127  H34 UNL A   1      39.459  28.914  26.821  1.00  0.00    +0.000 H 
ATOM    128  H35 UNL A   1      42.646  27.862  29.265  1.00  0.00    +0.000 H 
ENDROOT
BRANCH   35   34
ATOM     33  C27 UNL A   1      37.708  29.048  29.449  1.00  0.00    +0.000 C 
ATOM     34  C28 UNL A   1      38.894  29.798  29.515  1.00  0.00    +0.000 C 
ATOM    133  H40 UNL A   1      39.751  31.710  29.301  1.00  0.00    +0.000 H 
ATOM    134  H41 UNL A   1      37.621  32.848  29.454  1.00  0.00    +0.000 H 
ATOM    121  H28 UNL A   1      35.628  29.167  29.091  1.00  0.00    +0.000 H 
ATOM    122  H29 UNL A   1      37.729  28.025  29.584  1.00  0.00    +0.000 H 
ATOM     92  C67 UNL A   1      38.869  31.178  29.372  1.00  0.00    +0.000 C 
ATOM     93  C68 UNL A   1      37.666  31.824  29.324  1.00  0.00    +0.000 C 
ATOM     31  C25 UNL A   1      36.503  31.097  29.100  1.00  0.00    +0.000 C 
ATOM     32  C26 UNL A   1      36.502  29.701  29.200  1.00  0.00    +0.000 C 
BRANCH   31   29
ATOM     29  C24 UNL A   1      35.302  31.854  28.706  1.00  0.00    +0.000 C 
ATOM     30  O2  UNL A   1      34.972  31.921  27.525  1.00  0.00    +0.000 O 
BRANCH   29   28
ATOM     28  N4  UNL A   1      34.560  32.479  29.693  1.00  0.00    +0.000 N 
ATOM    120  H27 UNL A   1      33.910  31.924  30.181  1.00  0.00    +0.000 H 
BRANCH   28   27
ATOM     27  C23 UNL A   1      34.649  33.891  30.081  1.00  0.00    +0.000 C 
ATOM    118  H25 UNL A   1      35.518  34.315  29.622  1.00  0.00    +0.000 H 
ATOM    119  H26 UNL A   1      33.750  34.369  29.753  1.00  0.00    +0.000 H 
BRANCH   27   26
ATOM     26  C22 UNL A   1      34.748  34.092  31.586  1.00  0.00    +0.000 C 
ATOM    116  H23 UNL A   1      35.688  34.553  31.799  1.00  0.00    +0.000 H 
ATOM    117  H24 UNL A   1      33.909  34.695  31.865  1.00  0.00    +0.000 H 
BRANCH   26   25
ATOM     25  C21 UNL A   1      34.649  32.802  32.412  1.00  0.00    +0.000 C 
ATOM    114  H21 UNL A   1      33.722  32.832  32.947  1.00  0.00    +0.000 H 
ATOM    115  H22 UNL A   1      34.732  32.009  31.699  1.00  0.00    +0.000 H 
BRANCH   25   24
ATOM    113  H20 UNL A   1      35.267  32.275  34.340  1.00  0.00    +0.000 H 
ATOM    112  H19 UNL A   1      36.361  33.429  33.496  1.00  0.00    +0.000 H 
ATOM     24  C20 UNL A   1      35.767  32.542  33.432  1.00  0.00    +0.000 C 
BRANCH   24   23
ATOM    111  H18 UNL A   1      37.089  31.538  32.142  1.00  0.00    +0.000 H 
ATOM    110  H17 UNL A   1      36.149  30.462  33.215  1.00  0.00    +0.000 H 
ATOM     23  C19 UNL A   1      36.708  31.371  33.128  1.00  0.00    +0.000 C 
BRANCH   23   22
ATOM    108  H15 UNL A   1      38.178  30.241  34.164  1.00  0.00    +0.000 H 
ATOM    109  H16 UNL A   1      38.713  31.831  33.597  1.00  0.00    +0.000 H 
ATOM     22  C18 UNL A   1      37.919  31.273  34.047  1.00  0.00    +0.000 C 
BRANCH   22   21
ATOM    107  H14 UNL A   1      36.904  31.520  35.885  1.00  0.00    +0.000 H 
ATOM     21  N3  UNL A   1      37.673  31.842  35.361  1.00  0.00    +0.000 N 
BRANCH   21    2
ATOM      1  O1  UNL A   1      39.166  32.638  36.903  1.00  0.00    +0.000 O 
ATOM      2  C1  UNL A   1      38.488  32.821  35.893  1.00  0.00    +0.000 C 
BRANCH    2    3
ATOM      3  C2  UNL A   1      38.442  34.177  35.221  1.00  0.00    +0.000 C 
ATOM     94  H1  UNL A   1      38.945  34.877  35.854  1.00  0.00    +0.000 H 
ATOM     95  H2  UNL A   1      37.405  34.400  35.076  1.00  0.00    +0.000 H 
BRANCH    3    4
ATOM      4  N1  UNL A   1      39.055  34.239  33.903  1.00  0.00    +0.000 N 
ATOM      5  C3  UNL A   1      38.373  34.590  32.766  1.00  0.00    +0.000 C 
ATOM      6  N2  UNL A   1      39.166  34.677  31.726  1.00  0.00    +0.000 N 
ATOM      7  C4  UNL A   1      40.416  34.372  32.204  1.00  0.00    +0.000 C 
ATOM     14  C11 UNL A   1      40.389  34.100  33.567  1.00  0.00    +0.000 C 
ATOM     96  H3  UNL A   1      37.356  34.765  32.734  1.00  0.00    +0.000 H 
BRANCH    7    8
ATOM     97  H4  UNL A   1      40.866  32.985  29.974  1.00  0.00    +0.000 H 
ATOM     98  H5  UNL A   1      42.795  33.113  28.507  1.00  0.00    +0.000 H 
ATOM     99  H6  UNL A   1      44.662  34.555  29.076  1.00  0.00    +0.000 H 
ATOM    100  H7  UNL A   1      44.614  35.853  31.125  1.00  0.00    +0.000 H 
ATOM    101  H8  UNL A   1      42.680  35.740  32.584  1.00  0.00    +0.000 H 
ATOM      8  C5  UNL A   1      41.608  34.375  31.380  1.00  0.00    +0.000 C 
ATOM      9  C6  UNL A   1      41.654  33.605  30.213  1.00  0.00    +0.000 C 
ATOM     10  C7  UNL A   1      42.768  33.674  29.372  1.00  0.00    +0.000 C 
ATOM     11  C8  UNL A   1      43.843  34.500  29.702  1.00  0.00    +0.000 C 
ATOM     12  C9  UNL A   1      43.813  35.250  30.876  1.00  0.00    +0.000 C 
ATOM     13  C10 UNL A   1      42.699  35.186  31.714  1.00  0.00    +0.000 C 
ENDBRANCH    7    8
BRANCH   14   15
ATOM    102  H9  UNL A   1      41.357  31.698  34.238  1.00  0.00    +0.000 H 
ATOM    103  H10 UNL A   1      43.074  31.177  35.870  1.00  0.00    +0.000 H 
ATOM    104  H11 UNL A   1      44.243  32.965  37.020  1.00  0.00    +0.000 H 
ATOM    105  H12 UNL A   1      43.641  35.275  36.591  1.00  0.00    +0.000 H 
ATOM    106  H13 UNL A   1      41.855  35.789  35.039  1.00  0.00    +0.000 H 
ATOM     15  C12 UNL A   1      41.490  33.792  34.476  1.00  0.00    +0.000 C 
ATOM     16  C13 UNL A   1      41.838  32.461  34.738  1.00  0.00    +0.000 C 
ATOM     17  C14 UNL A   1      42.831  32.161  35.675  1.00  0.00    +0.000 C 
ATOM     18  C15 UNL A   1      43.496  33.187  36.345  1.00  0.00    +0.000 C 
ATOM     19  C16 UNL A   1      43.148  34.512  36.100  1.00  0.00    +0.000 C 
ATOM     20  C17 UNL A   1      42.134  34.807  35.189  1.00  0.00    +0.000 C 
ENDBRANCH   14   15
ENDBRANCH    3    4
ENDBRANCH    2    3
ENDBRANCH   21    2
ENDBRANCH   22   21
ENDBRANCH   23   22
ENDBRANCH   24   23
ENDBRANCH   25   24
ENDBRANCH   26   25
ENDBRANCH   27   26
ENDBRANCH   28   27
ENDBRANCH   29   28
ENDBRANCH   31   29
ENDBRANCH   35   34
BRANCH   39   40
ATOM     40  C33 UNL A   1      43.426  27.916  34.396  1.00  0.00    +0.000 C 
ATOM     41  C34 UNL A   1      43.464  26.606  33.870  1.00  0.00    +0.000 C 
ATOM     42  F1  UNL A   1      43.394  26.398  32.547  1.00  0.00    +0.000 F 
ATOM     43  C35 UNL A   1      43.470  25.476  34.693  1.00  0.00    +0.000 C 
ATOM     44  F2  UNL A   1      43.366  24.255  34.149  1.00  0.00    +0.000 F 
ATOM     45  C36 UNL A   1      43.505  25.609  36.067  1.00  0.00    +0.000 C 
ATOM     46  F3  UNL A   1      43.444  24.531  36.860  1.00  0.00    +0.000 F 
ATOM     47  C37 UNL A   1      43.552  26.870  36.619  1.00  0.00    +0.000 C 
ATOM     48  F4  UNL A   1      43.567  27.021  37.951  1.00  0.00    +0.000 F 
ATOM     49  C38 UNL A   1      43.493  28.001  35.803  1.00  0.00    +0.000 C 
ATOM     50  F5  UNL A   1      43.392  29.159  36.461  1.00  0.00    +0.000 F 
ENDBRANCH   39   40
BRANCH   56   57
ATOM     65  F9  UNL A   1      48.175  32.458  27.096  1.00  0.00    +0.000 F 
ATOM     66  C49 UNL A   1      46.699  30.963  28.177  1.00  0.00    +0.000 C 
ATOM     67  F10 UNL A   1      47.727  30.513  28.914  1.00  0.00    +0.000 F 
ATOM     57  C44 UNL A   1      45.409  30.459  28.394  1.00  0.00    +0.000 C 
ATOM     58  C45 UNL A   1      44.366  31.003  27.625  1.00  0.00    +0.000 C 
ATOM     59  F6  UNL A   1      43.095  30.635  27.835  1.00  0.00    +0.000 F 
ATOM     60  C46 UNL A   1      44.613  31.977  26.658  1.00  0.00    +0.000 C 
ATOM     61  F7  UNL A   1      43.604  32.470  25.924  1.00  0.00    +0.000 F 
ATOM     62  C47 UNL A   1      45.898  32.462  26.472  1.00  0.00    +0.000 C 
ATOM     63  F8  UNL A   1      46.132  33.426  25.571  1.00  0.00    +0.000 F 
ATOM     64  C48 UNL A   1      46.938  31.961  27.239  1.00  0.00    +0.000 C 
ENDBRANCH   56   57
BRANCH   71   72
ATOM     72  C53 UNL A   1      43.114  24.972  26.343  1.00  0.00    +0.000 C 
ATOM     73  C54 UNL A   1      43.995  24.727  25.275  1.00  0.00    +0.000 C 
ATOM     74  F11 UNL A   1      44.702  25.735  24.742  1.00  0.00    +0.000 F 
ATOM     75  C55 UNL A   1      44.223  23.434  24.792  1.00  0.00    +0.000 C 
ATOM     76  F12 UNL A   1      45.122  23.232  23.819  1.00  0.00    +0.000 F 
ATOM     77  C56 UNL A   1      43.571  22.352  25.359  1.00  0.00    +0.000 C 
ATOM     78  F13 UNL A   1      43.841  21.105  24.945  1.00  0.00    +0.000 F 
ATOM     79  C57 UNL A   1      42.671  22.563  26.387  1.00  0.00    +0.000 C 
ATOM     80  F14 UNL A   1      42.063  21.518  26.968  1.00  0.00    +0.000 F 
ATOM     81  C58 UNL A   1      42.444  23.852  26.871  1.00  0.00    +0.000 C 
ATOM     82  F15 UNL A   1      41.635  23.977  27.933  1.00  0.00    +0.000 F 
ENDBRANCH   71   72
TORSDOF 18
ENDMDL
MODEL 6
REMARK VINA RESULT:      -9.5      1.752      2.751
ROOT
ATOM    129  H36 UNL A   1      39.654  33.352  29.845  1.00  0.00    +0.000 H 
ATOM    130  H37 UNL A   1      42.126  33.091  30.525  1.00  0.00    +0.000 H 
ATOM    131  H38 UNL A   1      43.944  30.025  25.784  1.00  0.00    +0.000 H 
ATOM    132  H39 UNL A   1      41.611  28.936  25.971  1.00  0.00    +0.000 H 
ATOM     35  C29 UNL A   1      41.089  27.934  28.619  1.00  0.00    +0.000 C 
ATOM     36  C30 UNL A   1      42.219  28.778  28.153  1.00  0.00    +0.000 C 
ATOM     37  N5  UNL A   1      43.257  29.142  28.830  1.00  0.00    +0.000 N 
ATOM     38  C31 UNL A   1      43.994  29.962  27.980  1.00  0.00    +0.000 C 
ATOM     39  C32 UNL A   1      44.768  30.961  28.489  1.00  0.00    +0.000 C 
ATOM     51  C39 UNL A   1      44.975  30.770  29.904  1.00  0.00    +0.000 C 
ATOM     52  C40 UNL A   1      45.586  29.819  30.695  1.00  0.00    +0.000 C 
ATOM     53  C41 UNL A   1      44.786  29.741  31.875  1.00  0.00    +0.000 C 
ATOM     54  C42 UNL A   1      43.770  30.693  31.782  1.00  0.00    +0.000 C 
ATOM     55  N6  UNL A   1      44.147  31.483  30.732  1.00  0.00    +0.000 N 
ATOM     56  C43 UNL A   1      42.506  30.846  32.468  1.00  0.00    +0.000 C 
ATOM     68  C50 UNL A   1      41.472  31.634  32.049  1.00  0.00    +0.000 C 
ATOM     69  N7  UNL A   1      40.172  31.345  32.436  1.00  0.00    +0.000 N 
ATOM     70  C51 UNL A   1      39.433  31.777  31.452  1.00  0.00    +0.000 C 
ATOM     71  C52 UNL A   1      38.225  31.069  30.967  1.00  0.00    +0.000 C 
ATOM     83  C59 UNL A   1      38.656  29.900  30.431  1.00  0.00    +0.000 C 
ATOM     84  C60 UNL A   1      37.929  28.679  30.174  1.00  0.00    +0.000 C 
ATOM     85  C61 UNL A   1      38.790  27.775  29.669  1.00  0.00    +0.000 C 
ATOM     86  C62 UNL A   1      40.081  28.414  29.386  1.00  0.00    +0.000 C 
ATOM     87  N8  UNL A   1      39.970  29.654  29.973  1.00  0.00    +0.000 N 
ATOM     88  C63 UNL A   1      40.064  32.736  30.564  1.00  0.00    +0.000 C 
ATOM     89  C64 UNL A   1      41.333  32.588  30.952  1.00  0.00    +0.000 C 
ATOM     90  C65 UNL A   1      43.473  29.744  26.658  1.00  0.00    +0.000 C 
ATOM     91  C66 UNL A   1      42.292  29.124  26.723  1.00  0.00    +0.000 C 
ATOM    123  H30 UNL A   1      46.439  29.278  30.479  1.00  0.00    +0.000 H 
ATOM    124  H31 UNL A   1      44.934  29.090  32.663  1.00  0.00    +0.000 H 
ATOM    125  H32 UNL A   1      43.867  32.416  30.592  1.00  0.00    +0.000 H 
ATOM    126  H33 UNL A   1      36.923  28.527  30.346  1.00  0.00    +0.000 H 
ATOM    127  H34 UNL A   1      38.573  26.779  29.505  1.00  0.00    +0.000 H 
ATOM    128  H35 UNL A   1      40.715  30.291  30.064  1.00  0.00    +0.000 H 
ENDROOT
BRANCH   35   34
ATOM     33  C27 UNL A   1      40.338  26.419  26.773  1.00  0.00    +0.000 C 
ATOM     34  C28 UNL A   1      41.025  26.623  27.981  1.00  0.00    +0.000 C 
ATOM    133  H40 UNL A   1      41.978  25.693  29.614  1.00  0.00    +0.000 H 
ATOM    134  H41 UNL A   1      42.197  23.572  28.472  1.00  0.00    +0.000 H 
ATOM    121  H28 UNL A   1      39.636  24.940  25.435  1.00  0.00    +0.000 H 
ATOM    122  H29 UNL A   1      39.952  27.220  26.250  1.00  0.00    +0.000 H 
ATOM     92  C67 UNL A   1      41.580  25.555  28.672  1.00  0.00    +0.000 C 
ATOM     93  C68 UNL A   1      41.593  24.318  28.091  1.00  0.00    +0.000 C 
ATOM     31  C25 UNL A   1      40.789  24.068  26.985  1.00  0.00    +0.000 C 
ATOM     32  C26 UNL A   1      40.185  25.121  26.289  1.00  0.00    +0.000 C 
BRANCH   31   29
ATOM     29  C24 UNL A   1      40.565  22.659  26.621  1.00  0.00    +0.000 C 
ATOM     30  O2  UNL A   1      39.574  22.062  27.031  1.00  0.00    +0.000 O 
BRANCH   29   28
ATOM     28  N4  UNL A   1      41.492  22.030  25.806  1.00  0.00    +0.000 N 
ATOM    120  H27 UNL A   1      41.352  22.100  24.835  1.00  0.00    +0.000 H 
BRANCH   28   27
ATOM     27  C23 UNL A   1      42.664  21.270  26.254  1.00  0.00    +0.000 C 
ATOM    118  H25 UNL A   1      42.538  21.031  27.290  1.00  0.00    +0.000 H 
ATOM    119  H26 UNL A   1      42.726  20.392  25.645  1.00  0.00    +0.000 H 
BRANCH   27   26
ATOM     26  C22 UNL A   1      43.970  22.032  26.087  1.00  0.00    +0.000 C 
ATOM    116  H23 UNL A   1      44.050  22.736  26.887  1.00  0.00    +0.000 H 
ATOM    117  H24 UNL A   1      44.750  21.299  26.091  1.00  0.00    +0.000 H 
BRANCH   26   25
ATOM     25  C21 UNL A   1      44.101  22.795  24.762  1.00  0.00    +0.000 C 
ATOM    114  H21 UNL A   1      44.688  22.194  24.099  1.00  0.00    +0.000 H 
ATOM    115  H22 UNL A   1      43.095  22.968  24.440  1.00  0.00    +0.000 H 
BRANCH   25   24
ATOM    113  H20 UNL A   1      44.945  24.453  23.804  1.00  0.00    +0.000 H 
ATOM    112  H19 UNL A   1      45.616  24.117  25.440  1.00  0.00    +0.000 H 
ATOM     24  C20 UNL A   1      44.746  24.188  24.821  1.00  0.00    +0.000 C 
BRANCH   24   23
ATOM    111  H18 UNL A   1      43.633  25.055  26.381  1.00  0.00    +0.000 H 
ATOM    110  H17 UNL A   1      43.010  25.412  24.745  1.00  0.00    +0.000 H 
ATOM     23  C19 UNL A   1      43.873  25.321  25.373  1.00  0.00    +0.000 C 
BRANCH   23   22
ATOM    108  H15 UNL A   1      43.930  27.403  24.962  1.00  0.00    +0.000 H 
ATOM    109  H16 UNL A   1      44.720  26.911  26.468  1.00  0.00    +0.000 H 
ATOM     22  C18 UNL A   1      44.559  26.679  25.436  1.00  0.00    +0.000 C 
BRANCH   22   21
ATOM    107  H14 UNL A   1      46.044  26.005  24.091  1.00  0.00    +0.000 H 
ATOM     21  N3  UNL A   1      45.853  26.685  24.777  1.00  0.00    +0.000 N 
BRANCH   21    2
ATOM      1  O1  UNL A   1      46.553  28.795  25.323  1.00  0.00    +0.000 O 
ATOM      2  C1  UNL A   1      46.823  27.618  25.088  1.00  0.00    +0.000 C 
BRANCH    2    3
ATOM      3  C2  UNL A   1      48.259  27.142  25.038  1.00  0.00    +0.000 C 
ATOM     94  H1  UNL A   1      48.765  27.700  24.278  1.00  0.00    +0.000 H 
ATOM     95  H2  UNL A   1      48.216  26.091  24.840  1.00  0.00    +0.000 H 
BRANCH    3    4
ATOM      4  N1  UNL A   1      49.006  27.288  26.278  1.00  0.00    +0.000 N 
ATOM      5  C3  UNL A   1      50.188  27.978  26.373  1.00  0.00    +0.000 C 
ATOM      6  N2  UNL A   1      50.609  28.058  27.612  1.00  0.00    +0.000 N 
ATOM      7  C4  UNL A   1      49.665  27.396  28.354  1.00  0.00    +0.000 C 
ATOM     14  C11 UNL A   1      48.639  26.905  27.554  1.00  0.00    +0.000 C 
ATOM     96  H3  UNL A   1      50.684  28.386  25.565  1.00  0.00    +0.000 H 
BRANCH    7    8
ATOM     97  H4  UNL A   1      48.947  29.188  30.191  1.00  0.00    +0.000 H 
ATOM     98  H5  UNL A   1      48.902  28.909  32.602  1.00  0.00    +0.000 H 
ATOM     99  H6  UNL A   1      49.682  26.840  33.602  1.00  0.00    +0.000 H 
ATOM    100  H7  UNL A   1      50.530  25.055  32.195  1.00  0.00    +0.000 H 
ATOM    101  H8  UNL A   1      50.560  25.323  29.785  1.00  0.00    +0.000 H 
ATOM      8  C5  UNL A   1      49.729  27.266  29.796  1.00  0.00    +0.000 C 
ATOM      9  C6  UNL A   1      49.271  28.304  30.614  1.00  0.00    +0.000 C 
ATOM     10  C7  UNL A   1      49.251  28.146  32.001  1.00  0.00    +0.000 C 
ATOM     11  C8  UNL A   1      49.704  26.958  32.577  1.00  0.00    +0.000 C 
ATOM     12  C9  UNL A   1      50.185  25.930  31.768  1.00  0.00    +0.000 C 
ATOM     13  C10 UNL A   1      50.200  26.085  30.382  1.00  0.00    +0.000 C 
ENDBRANCH    7    8
BRANCH   14   15
ATOM    102  H9  UNL A   1      46.475  27.889  28.780  1.00  0.00    +0.000 H 
ATOM    103  H10 UNL A   1      44.518  26.687  29.560  1.00  0.00    +0.000 H 
ATOM    104  H11 UNL A   1      44.296  24.311  29.127  1.00  0.00    +0.000 H 
ATOM    105  H12 UNL A   1      46.068  23.121  27.976  1.00  0.00    +0.000 H 
ATOM    106  H13 UNL A   1      48.067  24.302  27.290  1.00  0.00    +0.000 H 
ATOM     15  C12 UNL A   1      47.418  26.199  27.936  1.00  0.00    +0.000 C 
ATOM     16  C13 UNL A   1      46.394  26.875  28.610  1.00  0.00    +0.000 C 
ATOM     17  C14 UNL A   1      45.263  26.184  29.055  1.00  0.00    +0.000 C 
ATOM     18  C15 UNL A   1      45.139  24.816  28.816  1.00  0.00    +0.000 C 
ATOM     19  C16 UNL A   1      46.158  24.133  28.158  1.00  0.00    +0.000 C 
ATOM     20  C17 UNL A   1      47.299  24.820  27.745  1.00  0.00    +0.000 C 
ENDBRANCH   14   15
ENDBRANCH    3    4
ENDBRANCH    2    3
ENDBRANCH   21    2
ENDBRANCH   22   21
ENDBRANCH   23   22
ENDBRANCH   24   23
ENDBRANCH   25   24
ENDBRANCH   26   25
ENDBRANCH   27   26
ENDBRANCH   28   27
ENDBRANCH   29   28
ENDBRANCH   31   29
ENDBRANCH   35   34
BRANCH   39   40
ATOM     40  C33 UNL A   1      44.943  32.327  27.849  1.00  0.00    +0.000 C 
ATOM     41  C34 UNL A   1      46.222  32.689  27.371  1.00  0.00    +0.000 C 
ATOM     42  F1  UNL A   1      47.182  31.766  27.219  1.00  0.00    +0.000 F 
ATOM     43  C35 UNL A   1      46.576  34.021  27.135  1.00  0.00    +0.000 C 
ATOM     44  F2  UNL A   1      47.841  34.327  26.815  1.00  0.00    +0.000 F 
ATOM     45  C36 UNL A   1      45.651  35.033  27.305  1.00  0.00    +0.000 C 
ATOM     46  F3  UNL A   1      46.005  36.316  27.144  1.00  0.00    +0.000 F 
ATOM     47  C37 UNL A   1      44.369  34.714  27.691  1.00  0.00    +0.000 C 
ATOM     48  F4  UNL A   1      43.462  35.684  27.880  1.00  0.00    +0.000 F 
ATOM     49  C38 UNL A   1      44.026  33.393  27.978  1.00  0.00    +0.000 C 
ATOM     50  F5  UNL A   1      42.802  33.232  28.488  1.00  0.00    +0.000 F 
ENDBRANCH   39   40
BRANCH   56   57
ATOM     65  F9  UNL A   1      42.845  29.974  37.222  1.00  0.00    +0.000 F 
ATOM     66  C49 UNL A   1      42.573  30.365  34.909  1.00  0.00    +0.000 C 
ATOM     67  F10 UNL A   1      43.039  31.611  35.085  1.00  0.00    +0.000 F 
ATOM     57  C44 UNL A   1      42.245  29.916  33.622  1.00  0.00    +0.000 C 
ATOM     58  C45 UNL A   1      41.807  28.586  33.493  1.00  0.00    +0.000 C 
ATOM     59  F6  UNL A   1      41.558  28.059  32.288  1.00  0.00    +0.000 F 
ATOM     60  C46 UNL A   1      41.669  27.761  34.609  1.00  0.00    +0.000 C 
ATOM     61  F7  UNL A   1      41.235  26.499  34.465  1.00  0.00    +0.000 F 
ATOM     62  C47 UNL A   1      42.010  28.230  35.868  1.00  0.00    +0.000 C 
ATOM     63  F8  UNL A   1      41.916  27.426  36.936  1.00  0.00    +0.000 F 
ATOM     64  C48 UNL A   1      42.471  29.528  36.015  1.00  0.00    +0.000 C 
ENDBRANCH   56   57
BRANCH   71   72
ATOM     72  C53 UNL A   1      36.916  31.743  30.821  1.00  0.00    +0.000 C 
ATOM     73  C54 UNL A   1      36.036  31.862  31.910  1.00  0.00    +0.000 C 
ATOM     74  F11 UNL A   1      36.255  31.157  33.031  1.00  0.00    +0.000 F 
ATOM     75  C55 UNL A   1      34.966  32.763  31.897  1.00  0.00    +0.000 C 
ATOM     76  F12 UNL A   1      34.191  32.898  32.981  1.00  0.00    +0.000 F 
ATOM     77  C56 UNL A   1      34.742  33.564  30.790  1.00  0.00    +0.000 C 
ATOM     78  F13 UNL A   1      33.761  34.478  30.802  1.00  0.00    +0.000 F 
ATOM     79  C57 UNL A   1      35.568  33.446  29.687  1.00  0.00    +0.000 C 
ATOM     80  F14 UNL A   1      35.383  34.244  28.625  1.00  0.00    +0.000 F 
ATOM     81  C58 UNL A   1      36.637  32.549  29.700  1.00  0.00    +0.000 C 
ATOM     82  F15 UNL A   1      37.457  32.553  28.639  1.00  0.00    +0.000 F 
ENDBRANCH   71   72
TORSDOF 18
ENDMDL
MODEL 7
REMARK VINA RESULT:      -9.5     39.727     44.422
ROOT
ATOM    129  H36 UNL A   1       2.496  13.960  36.199  1.00  0.00    +0.000 H 
ATOM    130  H37 UNL A   1       4.646  14.972  37.196  1.00  0.00    +0.000 H 
ATOM    131  H38 UNL A   1       8.431  10.797  35.346  1.00  0.00    +0.000 H 
ATOM    132  H39 UNL A   1       6.455   9.212  35.844  1.00  0.00    +0.000 H 
ATOM     35  C29 UNL A   1       5.407   9.584  38.500  1.00  0.00    +0.000 C 
ATOM     36  C30 UNL A   1       6.405  10.410  37.773  1.00  0.00    +0.000 C 
ATOM     37  N5  UNL A   1       7.086  11.406  38.236  1.00  0.00    +0.000 N 
ATOM     38  C31 UNL A   1       7.839  11.879  37.164  1.00  0.00    +0.000 C 
ATOM     39  C32 UNL A   1       8.181  13.195  37.093  1.00  0.00    +0.000 C 
ATOM     51  C39 UNL A   1       7.996  13.836  38.373  1.00  0.00    +0.000 C 
ATOM     52  C40 UNL A   1       8.541  13.706  39.633  1.00  0.00    +0.000 C 
ATOM     53  C41 UNL A   1       7.464  13.961  40.537  1.00  0.00    +0.000 C 
ATOM     54  C42 UNL A   1       6.336  14.304  39.790  1.00  0.00    +0.000 C 
ATOM     55  N6  UNL A   1       6.821  14.525  38.532  1.00  0.00    +0.000 N 
ATOM     56  C43 UNL A   1       4.924  14.327  40.105  1.00  0.00    +0.000 C 
ATOM     68  C50 UNL A   1       3.912  14.369  39.189  1.00  0.00    +0.000 C 
ATOM     69  N7  UNL A   1       2.656  13.880  39.512  1.00  0.00    +0.000 N 
ATOM     70  C51 UNL A   1       2.165  13.460  38.378  1.00  0.00    +0.000 C 
ATOM     71  C52 UNL A   1       1.348  12.231  38.249  1.00  0.00    +0.000 C 
ATOM     83  C59 UNL A   1       2.169  11.192  38.541  1.00  0.00    +0.000 C 
ATOM     84  C60 UNL A   1       1.844   9.845  38.949  1.00  0.00    +0.000 C 
ATOM     85  C61 UNL A   1       2.997   9.181  39.164  1.00  0.00    +0.000 C 
ATOM     86  C62 UNL A   1       4.136   9.995  38.723  1.00  0.00    +0.000 C 
ATOM     87  N8  UNL A   1       3.580  11.229  38.470  1.00  0.00    +0.000 N 
ATOM     88  C63 UNL A   1       2.801  13.986  37.184  1.00  0.00    +0.000 C 
ATOM     89  C64 UNL A   1       3.896  14.514  37.736  1.00  0.00    +0.000 C 
ATOM     90  C65 UNL A   1       7.797  10.853  36.158  1.00  0.00    +0.000 C 
ATOM     91  C66 UNL A   1       6.821   9.982  36.426  1.00  0.00    +0.000 C 
ATOM    123  H30 UNL A   1       9.517  13.472  39.872  1.00  0.00    +0.000 H 
ATOM    124  H31 UNL A   1       7.513  13.902  41.566  1.00  0.00    +0.000 H 
ATOM    125  H32 UNL A   1       6.393  15.089  37.848  1.00  0.00    +0.000 H 
ATOM    126  H33 UNL A   1       0.894   9.458  39.055  1.00  0.00    +0.000 H 
ATOM    127  H34 UNL A   1       3.068   8.239  39.580  1.00  0.00    +0.000 H 
ATOM    128  H35 UNL A   1       4.101  12.039  38.266  1.00  0.00    +0.000 H 
ENDROOT
BRANCH   35   34
ATOM     33  C27 UNL A   1       5.036   7.297  39.446  1.00  0.00    +0.000 C 
ATOM     34  C28 UNL A   1       5.831   8.208  38.731  1.00  0.00    +0.000 C 
ATOM    133  H40 UNL A   1       7.729   8.567  37.891  1.00  0.00    +0.000 H 
ATOM    134  H41 UNL A   1       8.363   6.233  37.946  1.00  0.00    +0.000 H 
ATOM    121  H28 UNL A   1       5.014   5.379  40.336  1.00  0.00    +0.000 H 
ATOM    122  H29 UNL A   1       4.078   7.553  39.732  1.00  0.00    +0.000 H 
ATOM     92  C67 UNL A   1       7.106   7.858  38.309  1.00  0.00    +0.000 C 
ATOM     93  C68 UNL A   1       7.528   6.567  38.455  1.00  0.00    +0.000 C 
ATOM     31  C25 UNL A   1       6.828   5.704  39.291  1.00  0.00    +0.000 C 
ATOM     32  C26 UNL A   1       5.556   6.043  39.764  1.00  0.00    +0.000 C 
BRANCH   31   29
ATOM     29  C24 UNL A   1       7.506   4.459  39.691  1.00  0.00    +0.000 C 
ATOM     30  O2  UNL A   1       8.644   4.218  39.297  1.00  0.00    +0.000 O 
BRANCH   29   28
ATOM     28  N4  UNL A   1       6.834   3.576  40.519  1.00  0.00    +0.000 N 
ATOM    120  H27 UNL A   1       5.923   3.319  40.251  1.00  0.00    +0.000 H 
BRANCH   28   27
ATOM     27  C23 UNL A   1       7.351   2.987  41.759  1.00  0.00    +0.000 C 
ATOM    118  H25 UNL A   1       8.415   2.911  41.681  1.00  0.00    +0.000 H 
ATOM    119  H26 UNL A   1       7.052   3.625  42.564  1.00  0.00    +0.000 H 
BRANCH   27   26
ATOM     26  C22 UNL A   1       6.786   1.603  42.043  1.00  0.00    +0.000 C 
ATOM    116  H23 UNL A   1       7.589   0.977  42.371  1.00  0.00    +0.000 H 
ATOM    117  H24 UNL A   1       6.025   1.733  42.784  1.00  0.00    +0.000 H 
BRANCH   26   25
ATOM     25  C21 UNL A   1       6.111   0.927  40.842  1.00  0.00    +0.000 C 
ATOM    114  H21 UNL A   1       5.178   0.527  41.179  1.00  0.00    +0.000 H 
ATOM    115  H22 UNL A   1       6.031   1.694  40.100  1.00  0.00    +0.000 H 
BRANCH   25   24
ATOM    113  H20 UNL A   1       7.358  -0.750  40.950  1.00  0.00    +0.000 H 
ATOM    112  H19 UNL A   1       7.562   0.234  39.457  1.00  0.00    +0.000 H 
ATOM     24  C20 UNL A   1       6.885  -0.210  40.157  1.00  0.00    +0.000 C 
BRANCH   24   23
ATOM    111  H18 UNL A   1       6.148  -2.167  39.939  1.00  0.00    +0.000 H 
ATOM    110  H17 UNL A   1       6.412  -1.304  38.397  1.00  0.00    +0.000 H 
ATOM     23  C19 UNL A   1       6.046  -1.247  39.402  1.00  0.00    +0.000 C 
BRANCH   23   22
ATOM    108  H15 UNL A   1       4.014  -1.829  39.603  1.00  0.00    +0.000 H 
ATOM    109  H16 UNL A   1       4.362  -0.148  40.039  1.00  0.00    +0.000 H 
ATOM     22  C18 UNL A   1       4.555  -0.941  39.348  1.00  0.00    +0.000 C 
BRANCH   22   21
ATOM    107  H14 UNL A   1       4.794  -0.163  37.397  1.00  0.00    +0.000 H 
ATOM     21  N3  UNL A   1       4.122  -0.495  38.035  1.00  0.00    +0.000 N 
BRANCH   21    2
ATOM      1  O1  UNL A   1       2.373  -1.279  36.783  1.00  0.00    +0.000 O 
ATOM      2  C1  UNL A   1       2.793  -0.526  37.660  1.00  0.00    +0.000 C 
BRANCH    2    3
ATOM      3  C2  UNL A   1       1.882   0.488  38.320  1.00  0.00    +0.000 C 
ATOM     94  H1  UNL A   1       1.768   0.210  39.347  1.00  0.00    +0.000 H 
ATOM     95  H2  UNL A   1       0.966   0.467  37.767  1.00  0.00    +0.000 H 
BRANCH    3    4
ATOM      4  N1  UNL A   1       2.348   1.865  38.275  1.00  0.00    +0.000 N 
ATOM      5  C3  UNL A   1       2.892   2.516  39.352  1.00  0.00    +0.000 C 
ATOM      6  N2  UNL A   1       3.333   3.709  39.032  1.00  0.00    +0.000 N 
ATOM      7  C4  UNL A   1       3.068   3.840  37.693  1.00  0.00    +0.000 C 
ATOM     14  C11 UNL A   1       2.458   2.701  37.179  1.00  0.00    +0.000 C 
ATOM     96  H3  UNL A   1       2.947   2.115  40.301  1.00  0.00    +0.000 H 
BRANCH    7    8
ATOM     97  H4  UNL A   1       1.597   6.021  37.266  1.00  0.00    +0.000 H 
ATOM     98  H5  UNL A   1       2.252   8.053  36.111  1.00  0.00    +0.000 H 
ATOM     99  H6  UNL A   1       4.441   8.213  35.077  1.00  0.00    +0.000 H 
ATOM    100  H7  UNL A   1       5.970   6.332  35.173  1.00  0.00    +0.000 H 
ATOM    101  H8  UNL A   1       5.327   4.307  36.341  1.00  0.00    +0.000 H 
ATOM      8  C5  UNL A   1       3.422   5.014  36.920  1.00  0.00    +0.000 C 
ATOM      9  C6  UNL A   1       2.531   6.090  36.834  1.00  0.00    +0.000 C 
ATOM     10  C7  UNL A   1       2.906   7.257  36.164  1.00  0.00    +0.000 C 
ATOM     11  C8  UNL A   1       4.163   7.347  35.565  1.00  0.00    +0.000 C 
ATOM     12  C9  UNL A   1       5.044   6.269  35.626  1.00  0.00    +0.000 C 
ATOM     13  C10 UNL A   1       4.674   5.105  36.300  1.00  0.00    +0.000 C 
ENDBRANCH    7    8
BRANCH   14   15
ATOM    102  H9  UNL A   1       3.930   1.582  35.246  1.00  0.00    +0.000 H 
ATOM    103  H10 UNL A   1       3.331   1.224  32.923  1.00  0.00    +0.000 H 
ATOM    104  H11 UNL A   1       1.103   1.781  32.141  1.00  0.00    +0.000 H 
ATOM    105  H12 UNL A   1      -0.504   2.765  33.668  1.00  0.00    +0.000 H 
ATOM    106  H13 UNL A   1       0.130   3.217  35.960  1.00  0.00    +0.000 H 
ATOM     15  C12 UNL A   1       2.064   2.396  35.805  1.00  0.00    +0.000 C 
ATOM     16  C13 UNL A   1       2.987   1.838  34.914  1.00  0.00    +0.000 C 
ATOM     17  C14 UNL A   1       2.640   1.627  33.576  1.00  0.00    +0.000 C 
ATOM     18  C15 UNL A   1       1.364   1.956  33.123  1.00  0.00    +0.000 C 
ATOM     19  C16 UNL A   1       0.444   2.523  33.999  1.00  0.00    +0.000 C 
ATOM     20  C17 UNL A   1       0.804   2.763  35.325  1.00  0.00    +0.000 C 
ENDBRANCH   14   15
ENDBRANCH    3    4
ENDBRANCH    2    3
ENDBRANCH   21    2
ENDBRANCH   22   21
ENDBRANCH   23   22
ENDBRANCH   24   23
ENDBRANCH   25   24
ENDBRANCH   26   25
ENDBRANCH   27   26
ENDBRANCH   28   27
ENDBRANCH   29   28
ENDBRANCH   31   29
ENDBRANCH   35   34
BRANCH   39   40
ATOM     40  C33 UNL A   1       8.228  14.007  35.811  1.00  0.00    +0.000 C 
ATOM     41  C34 UNL A   1       9.167  15.057  35.710  1.00  0.00    +0.000 C 
ATOM     42  F1  UNL A   1      10.175  15.159  36.589  1.00  0.00    +0.000 F 
ATOM     43  C35 UNL A   1       9.034  16.083  34.770  1.00  0.00    +0.000 C 
ATOM     44  F2  UNL A   1       9.871  17.130  34.804  1.00  0.00    +0.000 F 
ATOM     45  C36 UNL A   1       8.000  16.067  33.855  1.00  0.00    +0.000 C 
ATOM     46  F3  UNL A   1       7.831  17.081  32.996  1.00  0.00    +0.000 F 
ATOM     47  C37 UNL A   1       7.110  15.016  33.866  1.00  0.00    +0.000 C 
ATOM     48  F4  UNL A   1       6.087  14.991  32.998  1.00  0.00    +0.000 F 
ATOM     49  C38 UNL A   1       7.208  14.018  34.835  1.00  0.00    +0.000 C 
ATOM     50  F5  UNL A   1       6.200  13.140  34.836  1.00  0.00    +0.000 F 
ENDBRANCH   39   40
BRANCH   56   57
ATOM     65  F9  UNL A   1       3.937  16.180  44.472  1.00  0.00    +0.000 F 
ATOM     66  C49 UNL A   1       4.327  15.211  42.354  1.00  0.00    +0.000 C 
ATOM     67  F10 UNL A   1       4.391  16.443  41.824  1.00  0.00    +0.000 F 
ATOM     57  C44 UNL A   1       4.547  14.089  41.543  1.00  0.00    +0.000 C 
ATOM     58  C45 UNL A   1       4.515  12.828  42.163  1.00  0.00    +0.000 C 
ATOM     59  F6  UNL A   1       4.800  11.716  41.473  1.00  0.00    +0.000 F 
ATOM     60  C46 UNL A   1       4.237  12.699  43.524  1.00  0.00    +0.000 C 
ATOM     61  F7  UNL A   1       4.196  11.484  44.091  1.00  0.00    +0.000 F 
ATOM     62  C47 UNL A   1       4.032  13.828  44.302  1.00  0.00    +0.000 C 
ATOM     63  F8  UNL A   1       3.804  13.709  45.616  1.00  0.00    +0.000 F 
ATOM     64  C48 UNL A   1       4.088  15.083  43.718  1.00  0.00    +0.000 C 
ENDBRANCH   56   57
BRANCH   71   72
ATOM     72  C53 UNL A   1       0.025  12.225  37.585  1.00  0.00    +0.000 C 
ATOM     73  C54 UNL A   1      -0.965  13.159  37.935  1.00  0.00    +0.000 C 
ATOM     74  F11 UNL A   1      -0.823  13.909  39.038  1.00  0.00    +0.000 F 
ATOM     75  C55 UNL A   1      -2.076  13.393  37.118  1.00  0.00    +0.000 C 
ATOM     76  F12 UNL A   1      -2.964  14.341  37.450  1.00  0.00    +0.000 F 
ATOM     77  C56 UNL A   1      -2.231  12.695  35.932  1.00  0.00    +0.000 C 
ATOM     78  F13 UNL A   1      -3.256  12.969  35.113  1.00  0.00    +0.000 F 
ATOM     79  C57 UNL A   1      -1.292  11.744  35.576  1.00  0.00    +0.000 C 
ATOM     80  F14 UNL A   1      -1.411  11.089  34.412  1.00  0.00    +0.000 F 
ATOM     81  C58 UNL A   1      -0.182  11.510  36.390  1.00  0.00    +0.000 C 
ATOM     82  F15 UNL A   1       0.739  10.646  35.941  1.00  0.00    +0.000 F 
ENDBRANCH   71   72
TORSDOF 18
ENDMDL
MODEL 8
REMARK VINA RESULT:      -9.5     40.347     45.037
ROOT
ATOM    129  H36 UNL A   1       2.341  14.250  36.329  1.00  0.00    +0.000 H 
ATOM    130  H37 UNL A   1       4.550  15.149  37.308  1.00  0.00    +0.000 H 
ATOM    131  H38 UNL A   1       8.016  10.581  35.790  1.00  0.00    +0.000 H 
ATOM    132  H39 UNL A   1       5.912   9.192  36.342  1.00  0.00    +0.000 H 
ATOM     35  C29 UNL A   1       4.856   9.808  38.949  1.00  0.00    +0.000 C 
ATOM     36  C30 UNL A   1       5.928  10.506  38.193  1.00  0.00    +0.000 C 
ATOM     37  N5  UNL A   1       6.679  11.471  38.609  1.00  0.00    +0.000 N 
ATOM     38  C31 UNL A   1       7.484  11.818  37.527  1.00  0.00    +0.000 C 
ATOM     39  C32 UNL A   1       7.932  13.096  37.384  1.00  0.00    +0.000 C 
ATOM     51  C39 UNL A   1       7.779  13.827  38.619  1.00  0.00    +0.000 C 
ATOM     52  C40 UNL A   1       8.292  13.731  39.895  1.00  0.00    +0.000 C 
ATOM     53  C41 UNL A   1       7.225  14.127  40.760  1.00  0.00    +0.000 C 
ATOM     54  C42 UNL A   1       6.140  14.511  39.971  1.00  0.00    +0.000 C 
ATOM     55  N6  UNL A   1       6.661  14.614  38.712  1.00  0.00    +0.000 N 
ATOM     56  C43 UNL A   1       4.729  14.664  40.256  1.00  0.00    +0.000 C 
ATOM     68  C50 UNL A   1       3.739  14.729  39.317  1.00  0.00    +0.000 C 
ATOM     69  N7  UNL A   1       2.443  14.362  39.644  1.00  0.00    +0.000 N 
ATOM     70  C51 UNL A   1       1.937  13.913  38.528  1.00  0.00    +0.000 C 
ATOM     71  C52 UNL A   1       1.027  12.747  38.456  1.00  0.00    +0.000 C 
ATOM     83  C59 UNL A   1       1.757  11.666  38.827  1.00  0.00    +0.000 C 
ATOM     84  C60 UNL A   1       1.319  10.377  39.308  1.00  0.00    +0.000 C 
ATOM     85  C61 UNL A   1       2.411   9.639  39.587  1.00  0.00    +0.000 C 
ATOM     86  C62 UNL A   1       3.619  10.331  39.120  1.00  0.00    +0.000 C 
ATOM     87  N8  UNL A   1       3.167  11.588  38.783  1.00  0.00    +0.000 N 
ATOM     88  C63 UNL A   1       2.631  14.312  37.318  1.00  0.00    +0.000 C 
ATOM     89  C64 UNL A   1       3.757  14.785  37.858  1.00  0.00    +0.000 C 
ATOM     90  C65 UNL A   1       7.376  10.737  36.584  1.00  0.00    +0.000 C 
ATOM     91  C66 UNL A   1       6.329   9.964  36.884  1.00  0.00    +0.000 C 
ATOM    123  H30 UNL A   1       9.243  13.436  40.168  1.00  0.00    +0.000 H 
ATOM    124  H31 UNL A   1       7.253  14.127  41.792  1.00  0.00    +0.000 H 
ATOM    125  H32 UNL A   1       6.290  15.168  37.987  1.00  0.00    +0.000 H 
ATOM    126  H33 UNL A   1       0.339  10.073  39.418  1.00  0.00    +0.000 H 
ATOM    127  H34 UNL A   1       2.400   8.721  40.059  1.00  0.00    +0.000 H 
ATOM    128  H35 UNL A   1       3.755  12.339  38.540  1.00  0.00    +0.000 H 
ENDROOT
BRANCH   35   34
ATOM     33  C27 UNL A   1       6.414   7.850  38.977  1.00  0.00    +0.000 C 
ATOM     34  C28 UNL A   1       5.165   8.419  39.271  1.00  0.00    +0.000 C 
ATOM    133  H40 UNL A   1       3.187   8.039  39.887  1.00  0.00    +0.000 H 
ATOM    134  H41 UNL A   1       3.716   5.839  40.745  1.00  0.00    +0.000 H 
ATOM    121  H28 UNL A   1       7.491   6.031  38.908  1.00  0.00    +0.000 H 
ATOM    122  H29 UNL A   1       7.185   8.437  38.621  1.00  0.00    +0.000 H 
ATOM     92  C67 UNL A   1       4.135   7.644  39.786  1.00  0.00    +0.000 C 
ATOM     93  C68 UNL A   1       4.389   6.353  40.153  1.00  0.00    +0.000 C 
ATOM     31  C25 UNL A   1       5.559   5.734  39.727  1.00  0.00    +0.000 C 
ATOM     32  C26 UNL A   1       6.602   6.482  39.171  1.00  0.00    +0.000 C 
BRANCH   31   29
ATOM     29  C24 UNL A   1       5.622   4.267  39.841  1.00  0.00    +0.000 C 
ATOM     30  O2  UNL A   1       6.654   3.718  40.217  1.00  0.00    +0.000 O 
BRANCH   29   28
ATOM     28  N4  UNL A   1       4.496   3.528  39.519  1.00  0.00    +0.000 N 
ATOM    120  H27 UNL A   1       3.989   3.812  38.725  1.00  0.00    +0.000 H 
BRANCH   28   27
ATOM     27  C23 UNL A   1       3.987   2.362  40.248  1.00  0.00    +0.000 C 
ATOM    118  H25 UNL A   1       4.217   1.482  39.685  1.00  0.00    +0.000 H 
ATOM    119  H26 UNL A   1       4.457   2.357  41.209  1.00  0.00    +0.000 H 
BRANCH   27   26
ATOM     26  C22 UNL A   1       2.483   2.411  40.478  1.00  0.00    +0.000 C 
ATOM    116  H23 UNL A   1       2.102   1.415  40.400  1.00  0.00    +0.000 H 
ATOM    117  H24 UNL A   1       2.340   2.843  41.447  1.00  0.00    +0.000 H 
BRANCH   26   25
ATOM     25  C21 UNL A   1       1.713   3.297  39.490  1.00  0.00    +0.000 C 
ATOM    114  H21 UNL A   1       1.318   4.125  40.039  1.00  0.00    +0.000 H 
ATOM    115  H22 UNL A   1       2.426   3.556  38.735  1.00  0.00    +0.000 H 
BRANCH   25   24
ATOM    113  H20 UNL A   1       0.095   3.434  38.170  1.00  0.00    +0.000 H 
ATOM    112  H19 UNL A   1      -0.095   2.187  39.454  1.00  0.00    +0.000 H 
ATOM     24  C20 UNL A   1       0.548   2.643  38.731  1.00  0.00    +0.000 C 
BRANCH   24   23
ATOM    111  H18 UNL A   1       0.022   1.036  37.481  1.00  0.00    +0.000 H 
ATOM    110  H17 UNL A   1       1.689   0.958  38.119  1.00  0.00    +0.000 H 
ATOM     23  C19 UNL A   1       0.921   1.574  37.698  1.00  0.00    +0.000 C 
BRANCH   23   22
ATOM    108  H15 UNL A   1       2.143   2.893  36.568  1.00  0.00    +0.000 H 
ATOM    109  H16 UNL A   1       1.864   1.308  35.830  1.00  0.00    +0.000 H 
ATOM     22  C18 UNL A   1       1.428   2.122  36.370  1.00  0.00    +0.000 C 
BRANCH   22   21
ATOM    107  H14 UNL A   1      -0.505   2.211  35.517  1.00  0.00    +0.000 H 
ATOM     21  N3  UNL A   1       0.364   2.674  35.549  1.00  0.00    +0.000 N 
BRANCH   21    2
ATOM      1  O1  UNL A   1       1.558   4.048  34.160  1.00  0.00    +0.000 O 
ATOM      2  C1  UNL A   1       0.539   3.830  34.814  1.00  0.00    +0.000 C 
BRANCH    2    3
ATOM      3  C2  UNL A   1      -0.554   4.871  34.924  1.00  0.00    +0.000 C 
ATOM     94  H1  UNL A   1      -1.440   4.469  34.477  1.00  0.00    +0.000 H 
ATOM     95  H2  UNL A   1      -0.184   5.744  34.428  1.00  0.00    +0.000 H 
BRANCH    3    4
ATOM      4  N1  UNL A   1      -0.882   5.288  36.279  1.00  0.00    +0.000 N 
ATOM      5  C3  UNL A   1      -1.966   4.817  36.975  1.00  0.00    +0.000 C 
ATOM      6  N2  UNL A   1      -1.985   5.259  38.209  1.00  0.00    +0.000 N 
ATOM      7  C4  UNL A   1      -0.869   6.048  38.323  1.00  0.00    +0.000 C 
ATOM     14  C11 UNL A   1      -0.146   6.085  37.136  1.00  0.00    +0.000 C 
ATOM     96  H3  UNL A   1      -2.680   4.189  36.574  1.00  0.00    +0.000 H 
BRANCH    7    8
ATOM     97  H4  UNL A   1      -2.079   8.111  39.498  1.00  0.00    +0.000 H 
ATOM     98  H5  UNL A   1      -1.539   9.132  41.633  1.00  0.00    +0.000 H 
ATOM     99  H6  UNL A   1       0.374   8.352  42.905  1.00  0.00    +0.000 H 
ATOM    100  H7  UNL A   1       1.766   6.566  42.034  1.00  0.00    +0.000 H 
ATOM    101  H8  UNL A   1       1.220   5.533  39.910  1.00  0.00    +0.000 H 
ATOM      8  C5  UNL A   1      -0.489   6.721  39.549  1.00  0.00    +0.000 C 
ATOM      9  C6  UNL A   1      -1.270   7.773  40.041  1.00  0.00    +0.000 C 
ATOM     10  C7  UNL A   1      -0.956   8.364  41.267  1.00  0.00    +0.000 C 
ATOM     11  C8  UNL A   1       0.148   7.919  41.996  1.00  0.00    +0.000 C 
ATOM     12  C9  UNL A   1       0.944   6.888  41.499  1.00  0.00    +0.000 C 
ATOM     13  C10 UNL A   1       0.627   6.293  40.278  1.00  0.00    +0.000 C 
ENDBRANCH    7    8
BRANCH   14   15
ATOM    102  H9  UNL A   1       0.256   8.612  36.358  1.00  0.00    +0.000 H 
ATOM    103  H10 UNL A   1       2.342   9.666  35.708  1.00  0.00    +0.000 H 
ATOM    104  H11 UNL A   1       4.426   8.435  35.856  1.00  0.00    +0.000 H 
ATOM    105  H12 UNL A   1       4.415   6.123  36.588  1.00  0.00    +0.000 H 
ATOM    106  H13 UNL A   1       2.320   5.041  37.138  1.00  0.00    +0.000 H 
ATOM     15  C12 UNL A   1       1.122   6.747  36.839  1.00  0.00    +0.000 C 
ATOM     16  C13 UNL A   1       1.138   8.079  36.406  1.00  0.00    +0.000 C 
ATOM     17  C14 UNL A   1       2.340   8.688  36.036  1.00  0.00    +0.000 C 
ATOM     18  C15 UNL A   1       3.537   7.978  36.110  1.00  0.00    +0.000 C 
ATOM     19  C16 UNL A   1       3.530   6.650  36.528  1.00  0.00    +0.000 C 
ATOM     20  C17 UNL A   1       2.325   6.036  36.865  1.00  0.00    +0.000 C 
ENDBRANCH   14   15
ENDBRANCH    3    4
ENDBRANCH    2    3
ENDBRANCH   21    2
ENDBRANCH   22   21
ENDBRANCH   23   22
ENDBRANCH   24   23
ENDBRANCH   25   24
ENDBRANCH   26   25
ENDBRANCH   27   26
ENDBRANCH   28   27
ENDBRANCH   29   28
ENDBRANCH   31   29
ENDBRANCH   35   34
BRANCH   39   40
ATOM     40  C33 UNL A   1       8.064  13.820  36.056  1.00  0.00    +0.000 C 
ATOM     41  C34 UNL A   1       9.080  14.790  35.914  1.00  0.00    +0.000 C 
ATOM     42  F1  UNL A   1      10.076  14.873  36.808  1.00  0.00    +0.000 F 
ATOM     43  C35 UNL A   1       9.042  15.763  34.911  1.00  0.00    +0.000 C 
ATOM     44  F2  UNL A   1       9.954  16.745  34.901  1.00  0.00    +0.000 F 
ATOM     45  C36 UNL A   1       8.027  15.766  33.974  1.00  0.00    +0.000 C 
ATOM     46  F3  UNL A   1       7.950  16.735  33.052  1.00  0.00    +0.000 F 
ATOM     47  C37 UNL A   1       7.061  14.786  34.028  1.00  0.00    +0.000 C 
ATOM     48  F4  UNL A   1       6.056  14.783  33.140  1.00  0.00    +0.000 F 
ATOM     49  C38 UNL A   1       7.065  13.845  35.058  1.00  0.00    +0.000 C 
ATOM     50  F5  UNL A   1       5.995  13.046  35.089  1.00  0.00    +0.000 F 
ENDBRANCH   39   40
BRANCH   56   57
ATOM     65  F9  UNL A   1       3.940  16.838  44.514  1.00  0.00    +0.000 F 
ATOM     66  C49 UNL A   1       4.226  15.725  42.450  1.00  0.00    +0.000 C 
ATOM     67  F10 UNL A   1       4.448  16.912  41.863  1.00  0.00    +0.000 F 
ATOM     57  C44 UNL A   1       4.312  14.546  41.696  1.00  0.00    +0.000 C 
ATOM     58  C45 UNL A   1       4.118  13.330  42.376  1.00  0.00    +0.000 C 
ATOM     59  F6  UNL A   1       4.269  12.159  41.744  1.00  0.00    +0.000 F 
ATOM     60  C46 UNL A   1       3.813  13.304  43.736  1.00  0.00    +0.000 C 
ATOM     61  F7  UNL A   1       3.616  12.133  44.360  1.00  0.00    +0.000 F 
ATOM     62  C47 UNL A   1       3.743  14.486  44.457  1.00  0.00    +0.000 C 
ATOM     63  F8  UNL A   1       3.490  14.461  45.772  1.00  0.00    +0.000 F 
ATOM     64  C48 UNL A   1       3.960  15.695  43.814  1.00  0.00    +0.000 C 
ENDBRANCH   56   57
BRANCH   71   72
ATOM     72  C53 UNL A   1      -0.282  12.804  37.767  1.00  0.00    +0.000 C 
ATOM     73  C54 UNL A   1      -1.267  13.727  38.159  1.00  0.00    +0.000 C 
ATOM     74  F11 UNL A   1      -1.138  14.399  39.313  1.00  0.00    +0.000 F 
ATOM     75  C55 UNL A   1      -2.357  14.031  37.337  1.00  0.00    +0.000 C 
ATOM     76  F12 UNL A   1      -3.239  14.968  37.714  1.00  0.00    +0.000 F 
ATOM     77  C56 UNL A   1      -2.496  13.417  36.104  1.00  0.00    +0.000 C 
ATOM     78  F13 UNL A   1      -3.501  13.759  35.285  1.00  0.00    +0.000 F 
ATOM     79  C57 UNL A   1      -1.563  12.477  35.704  1.00  0.00    +0.000 C 
ATOM     80  F14 UNL A   1      -1.667  11.904  34.496  1.00  0.00    +0.000 F 
ATOM     81  C58 UNL A   1      -0.474  12.174  36.523  1.00  0.00    +0.000 C 
ATOM     82  F15 UNL A   1       0.445  11.329  36.035  1.00  0.00    +0.000 F 
ENDBRANCH   71   72
TORSDOF 18
ENDMDL
MODEL 9
REMARK VINA RESULT:      -9.5      4.909     11.323
ROOT
ATOM    129  H36 UNL A   1      43.508  23.691  30.081  1.00  0.00    +0.000 H 
ATOM    130  H37 UNL A   1      45.002  25.202  31.539  1.00  0.00    +0.000 H 
ATOM    131  H38 UNL A   1      40.737  27.448  34.996  1.00  0.00    +0.000 H 
ATOM    132  H39 UNL A   1      39.352  27.374  32.819  1.00  0.00    +0.000 H 
ATOM     35  C29 UNL A   1      40.702  28.665  30.628  1.00  0.00    +0.000 C 
ATOM     36  C30 UNL A   1      41.229  28.335  31.977  1.00  0.00    +0.000 C 
ATOM     37  N5  UNL A   1      42.376  28.664  32.473  1.00  0.00    +0.000 N 
ATOM     38  C31 UNL A   1      42.423  28.080  33.736  1.00  0.00    +0.000 C 
ATOM     39  C32 UNL A   1      43.616  27.703  34.275  1.00  0.00    +0.000 C 
ATOM     51  C39 UNL A   1      44.710  28.319  33.563  1.00  0.00    +0.000 C 
ATOM     52  C40 UNL A   1      45.151  29.608  33.350  1.00  0.00    +0.000 C 
ATOM     53  C41 UNL A   1      45.673  29.611  32.020  1.00  0.00    +0.000 C 
ATOM     54  C42 UNL A   1      45.591  28.314  31.512  1.00  0.00    +0.000 C 
ATOM     55  N6  UNL A   1      45.311  27.543  32.606  1.00  0.00    +0.000 N 
ATOM     56  C43 UNL A   1      45.634  27.786  30.166  1.00  0.00    +0.000 C 
ATOM     68  C50 UNL A   1      45.217  26.539  29.795  1.00  0.00    +0.000 C 
ATOM     69  N7  UNL A   1      44.810  26.297  28.492  1.00  0.00    +0.000 N 
ATOM     70  C51 UNL A   1      43.925  25.344  28.596  1.00  0.00    +0.000 C 
ATOM     71  C52 UNL A   1      42.694  25.283  27.776  1.00  0.00    +0.000 C 
ATOM     83  C59 UNL A   1      41.932  26.342  28.147  1.00  0.00    +0.000 C 
ATOM     84  C60 UNL A   1      40.852  26.993  27.443  1.00  0.00    +0.000 C 
ATOM     85  C61 UNL A   1      40.425  28.028  28.193  1.00  0.00    +0.000 C 
ATOM     86  C62 UNL A   1      41.070  27.993  29.512  1.00  0.00    +0.000 C 
ATOM     87  N8  UNL A   1      42.045  27.030  29.375  1.00  0.00    +0.000 N 
ATOM     88  C63 UNL A   1      43.960  24.585  29.832  1.00  0.00    +0.000 C 
ATOM     89  C64 UNL A   1      44.750  25.383  30.555  1.00  0.00    +0.000 C 
ATOM     90  C65 UNL A   1      41.074  27.698  34.053  1.00  0.00    +0.000 C 
ATOM     91  C66 UNL A   1      40.318  27.711  32.952  1.00  0.00    +0.000 C 
ATOM    123  H30 UNL A   1      45.111  30.401  34.010  1.00  0.00    +0.000 H 
ATOM    124  H31 UNL A   1      46.046  30.434  31.520  1.00  0.00    +0.000 H 
ATOM    125  H32 UNL A   1      45.510  26.583  32.691  1.00  0.00    +0.000 H 
ATOM    126  H33 UNL A   1      40.471  26.713  26.526  1.00  0.00    +0.000 H 
ATOM    127  H34 UNL A   1      39.746  28.741  27.884  1.00  0.00    +0.000 H 
ATOM    128  H35 UNL A   1      42.736  26.844  30.051  1.00  0.00    +0.000 H 
ENDROOT
BRANCH   35   34
ATOM     33  C27 UNL A   1      38.253  29.161  30.484  1.00  0.00    +0.000 C 
ATOM     34  C28 UNL A   1      39.579  29.596  30.641  1.00  0.00    +0.000 C 
ATOM    133  H40 UNL A   1      40.862  31.266  30.701  1.00  0.00    +0.000 H 
ATOM    134  H41 UNL A   1      39.053  32.833  31.057  1.00  0.00    +0.000 H 
ATOM    121  H28 UNL A   1      36.264  29.814  30.183  1.00  0.00    +0.000 H 
ATOM    122  H29 UNL A   1      38.033  28.153  30.465  1.00  0.00    +0.000 H 
ATOM     92  C67 UNL A   1      39.880  30.950  30.706  1.00  0.00    +0.000 C 
ATOM     93  C68 UNL A   1      38.861  31.858  30.776  1.00  0.00    +0.000 C 
ATOM     31  C25 UNL A   1      37.564  31.463  30.465  1.00  0.00    +0.000 C 
ATOM     32  C26 UNL A   1      37.237  30.107  30.356  1.00  0.00    +0.000 C 
BRANCH   31   29
ATOM     29  C24 UNL A   1      36.581  32.529  30.209  1.00  0.00    +0.000 C 
ATOM     30  O2  UNL A   1      36.778  33.668  30.622  1.00  0.00    +0.000 O 
BRANCH   29   28
ATOM     28  N4  UNL A   1      35.438  32.217  29.491  1.00  0.00    +0.000 N 
ATOM    120  H27 UNL A   1      34.750  31.688  29.956  1.00  0.00    +0.000 H 
BRANCH   28   27
ATOM     27  C23 UNL A   1      35.155  32.599  28.103  1.00  0.00    +0.000 C 
ATOM    118  H25 UNL A   1      35.513  33.595  27.946  1.00  0.00    +0.000 H 
ATOM    119  H26 UNL A   1      35.649  31.891  27.471  1.00  0.00    +0.000 H 
BRANCH   27   26
ATOM     26  C22 UNL A   1      33.673  32.556  27.762  1.00  0.00    +0.000 C 
ATOM    116  H23 UNL A   1      33.125  32.890  28.617  1.00  0.00    +0.000 H 
ATOM    117  H24 UNL A   1      33.542  33.185  26.906  1.00  0.00    +0.000 H 
BRANCH   26   25
ATOM     25  C21 UNL A   1      33.147  31.169  27.367  1.00  0.00    +0.000 C 
ATOM    114  H21 UNL A   1      32.497  30.836  28.148  1.00  0.00    +0.000 H 
ATOM    115  H22 UNL A   1      32.675  31.311  26.418  1.00  0.00    +0.000 H 
BRANCH   25   24
ATOM    113  H20 UNL A   1      34.919  30.197  27.906  1.00  0.00    +0.000 H 
ATOM    112  H19 UNL A   1      34.576  30.192  26.140  1.00  0.00    +0.000 H 
ATOM     24  C20 UNL A   1      34.193  30.069  27.131  1.00  0.00    +0.000 C 
BRANCH   24   23
ATOM    111  H18 UNL A   1      34.020  28.286  28.231  1.00  0.00    +0.000 H 
ATOM    110  H17 UNL A   1      34.123  28.053  26.462  1.00  0.00    +0.000 H 
ATOM     23  C19 UNL A   1      33.704  28.623  27.266  1.00  0.00    +0.000 C 
BRANCH   23   22
ATOM    108  H15 UNL A   1      31.817  28.468  28.229  1.00  0.00    +0.000 H 
ATOM    109  H16 UNL A   1      31.792  29.265  26.647  1.00  0.00    +0.000 H 
ATOM     22  C18 UNL A   1      32.190  28.457  27.226  1.00  0.00    +0.000 C 
BRANCH   22   21
ATOM    107  H14 UNL A   1      31.436  26.484  27.150  1.00  0.00    +0.000 H 
ATOM     21  N3  UNL A   1      31.779  27.218  26.590  1.00  0.00    +0.000 N 
BRANCH   21    2
ATOM      1  O1  UNL A   1      31.115  27.637  24.440  1.00  0.00    +0.000 O 
ATOM      2  C1  UNL A   1      31.854  27.043  25.222  1.00  0.00    +0.000 C 
BRANCH    2    3
ATOM      3  C2  UNL A   1      32.839  26.005  24.728  1.00  0.00    +0.000 C 
ATOM     94  H1  UNL A   1      33.701  26.039  25.362  1.00  0.00    +0.000 H 
ATOM     95  H2  UNL A   1      33.048  26.255  23.709  1.00  0.00    +0.000 H 
BRANCH    3    4
ATOM      4  N1  UNL A   1      32.345  24.636  24.714  1.00  0.00    +0.000 N 
ATOM      5  C3  UNL A   1      31.016  24.312  24.627  1.00  0.00    +0.000 C 
ATOM      6  N2  UNL A   1      30.833  23.018  24.523  1.00  0.00    +0.000 N 
ATOM      7  C4  UNL A   1      32.093  22.477  24.540  1.00  0.00    +0.000 C 
ATOM     14  C11 UNL A   1      33.069  23.460  24.650  1.00  0.00    +0.000 C 
ATOM     96  H3  UNL A   1      30.251  25.005  24.642  1.00  0.00    +0.000 H 
BRANCH    7    8
ATOM     97  H4  UNL A   1      32.755  20.767  26.474  1.00  0.00    +0.000 H 
ATOM     98  H5  UNL A   1      33.030  18.362  26.302  1.00  0.00    +0.000 H 
ATOM     99  H6  UNL A   1      32.813  17.264  24.149  1.00  0.00    +0.000 H 
ATOM    100  H7  UNL A   1      32.346  18.572  22.160  1.00  0.00    +0.000 H 
ATOM    101  H8  UNL A   1      32.053  20.972  22.331  1.00  0.00    +0.000 H 
ATOM      8  C5  UNL A   1      32.353  21.056  24.421  1.00  0.00    +0.000 C 
ATOM      9  C6  UNL A   1      32.654  20.301  25.560  1.00  0.00    +0.000 C 
ATOM     10  C7  UNL A   1      32.819  18.918  25.459  1.00  0.00    +0.000 C 
ATOM     11  C8  UNL A   1      32.699  18.287  24.221  1.00  0.00    +0.000 C 
ATOM     12  C9  UNL A   1      32.424  19.038  23.079  1.00  0.00    +0.000 C 
ATOM     13  C10 UNL A   1      32.254  20.418  23.178  1.00  0.00    +0.000 C 
ENDBRANCH    7    8
BRANCH   14   15
ATOM    102  H9  UNL A   1      34.746  23.582  26.731  1.00  0.00    +0.000 H 
ATOM    103  H10 UNL A   1      37.171  23.531  26.706  1.00  0.00    +0.000 H 
ATOM    104  H11 UNL A   1      38.361  23.201  24.619  1.00  0.00    +0.000 H 
ATOM    105  H12 UNL A   1      37.125  22.994  22.542  1.00  0.00    +0.000 H 
ATOM    106  H13 UNL A   1      34.709  23.149  22.555  1.00  0.00    +0.000 H 
ATOM     15  C12 UNL A   1      34.525  23.331  24.646  1.00  0.00    +0.000 C 
ATOM     16  C13 UNL A   1      35.248  23.460  25.838  1.00  0.00    +0.000 C 
ATOM     17  C14 UNL A   1      36.646  23.425  25.824  1.00  0.00    +0.000 C 
ATOM     18  C15 UNL A   1      37.331  23.247  24.624  1.00  0.00    +0.000 C 
ATOM     19  C16 UNL A   1      36.621  23.130  23.433  1.00  0.00    +0.000 C 
ATOM     20  C17 UNL A   1      35.228  23.198  23.445  1.00  0.00    +0.000 C 
ENDBRANCH   14   15
ENDBRANCH    3    4
ENDBRANCH    2    3
ENDBRANCH   21    2
ENDBRANCH   22   21
ENDBRANCH   23   22
ENDBRANCH   24   23
ENDBRANCH   25   24
ENDBRANCH   26   25
ENDBRANCH   27   26
ENDBRANCH   28   27
ENDBRANCH   29   28
ENDBRANCH   31   29
ENDBRANCH   35   34
BRANCH   39   40
ATOM     40  C33 UNL A   1      43.829  26.452  35.109  1.00  0.00    +0.000 C 
ATOM     41  C34 UNL A   1      44.437  26.581  36.377  1.00  0.00    +0.000 C 
ATOM     42  F1  UNL A   1      44.562  27.784  36.955  1.00  0.00    +0.000 F 
ATOM     43  C35 UNL A   1      45.021  25.494  37.034  1.00  0.00    +0.000 C 
ATOM     44  F2  UNL A   1      45.706  25.692  38.169  1.00  0.00    +0.000 F 
ATOM     45  C36 UNL A   1      44.964  24.229  36.483  1.00  0.00    +0.000 C 
ATOM     46  F3  UNL A   1      45.580  23.197  37.076  1.00  0.00    +0.000 F 
ATOM     47  C37 UNL A   1      44.308  24.046  35.286  1.00  0.00    +0.000 C 
ATOM     48  F4  UNL A   1      44.259  22.828  34.726  1.00  0.00    +0.000 F 
ATOM     49  C38 UNL A   1      43.769  25.135  34.602  1.00  0.00    +0.000 C 
ATOM     50  F5  UNL A   1      43.296  24.852  33.386  1.00  0.00    +0.000 F 
ENDBRANCH   39   40
BRANCH   56   57
ATOM     65  F9  UNL A   1      44.170  31.241  27.100  1.00  0.00    +0.000 F 
ATOM     66  C49 UNL A   1      44.972  29.620  28.621  1.00  0.00    +0.000 C 
ATOM     67  F10 UNL A   1      43.768  29.610  29.214  1.00  0.00    +0.000 F 
ATOM     57  C44 UNL A   1      45.980  28.755  29.069  1.00  0.00    +0.000 C 
ATOM     58  C45 UNL A   1      47.204  28.777  28.378  1.00  0.00    +0.000 C 
ATOM     59  F6  UNL A   1      48.184  27.920  28.690  1.00  0.00    +0.000 F 
ATOM     60  C46 UNL A   1      47.417  29.654  27.314  1.00  0.00    +0.000 C 
ATOM     61  F7  UNL A   1      48.599  29.668  26.679  1.00  0.00    +0.000 F 
ATOM     62  C47 UNL A   1      46.398  30.491  26.888  1.00  0.00    +0.000 C 
ATOM     63  F8  UNL A   1      46.588  31.306  25.841  1.00  0.00    +0.000 F 
ATOM     64  C48 UNL A   1      45.173  30.466  27.536  1.00  0.00    +0.000 C 
ENDBRANCH   56   57
BRANCH   71   72
ATOM     72  C53 UNL A   1      42.314  24.077  27.005  1.00  0.00    +0.000 C 
ATOM     73  C54 UNL A   1      43.188  23.519  26.057  1.00  0.00    +0.000 C 
ATOM     74  F11 UNL A   1      44.272  24.201  25.656  1.00  0.00    +0.000 F 
ATOM     75  C55 UNL A   1      43.008  22.221  25.565  1.00  0.00    +0.000 C 
ATOM     76  F12 UNL A   1      43.902  21.697  24.715  1.00  0.00    +0.000 F 
ATOM     77  C56 UNL A   1      41.945  21.450  26.003  1.00  0.00    +0.000 C 
ATOM     78  F13 UNL A   1      41.811  20.182  25.588  1.00  0.00    +0.000 F 
ATOM     79  C57 UNL A   1      41.046  21.983  26.909  1.00  0.00    +0.000 C 
ATOM     80  F14 UNL A   1      40.034  21.232  27.369  1.00  0.00    +0.000 F 
ATOM     81  C58 UNL A   1      41.226  23.277  27.401  1.00  0.00    +0.000 C 
ATOM     82  F15 UNL A   1      40.376  23.698  28.349  1.00  0.00    +0.000 F 
ENDBRANCH   71   72
TORSDOF 18
ENDMDL
MODEL 10
REMARK VINA RESULT:      -9.4      3.909     11.217
ROOT
ATOM    129  H36 UNL A   1      43.955  24.850  29.603  1.00  0.00    +0.000 H 
ATOM    130  H37 UNL A   1      44.867  26.728  31.114  1.00  0.00    +0.000 H 
ATOM    131  H38 UNL A   1      39.825  27.976  33.977  1.00  0.00    +0.000 H 
ATOM    132  H39 UNL A   1      38.754  27.494  31.678  1.00  0.00    +0.000 H 
ATOM     35  C29 UNL A   1      39.996  29.002  29.563  1.00  0.00    +0.000 C 
ATOM     36  C30 UNL A   1      40.430  28.856  30.976  1.00  0.00    +0.000 C 
ATOM     37  N5  UNL A   1      41.400  29.472  31.566  1.00  0.00    +0.000 N 
ATOM     38  C31 UNL A   1      41.442  28.959  32.860  1.00  0.00    +0.000 C 
ATOM     39  C32 UNL A   1      42.621  28.903  33.540  1.00  0.00    +0.000 C 
ATOM     51  C39 UNL A   1      43.610  29.744  32.908  1.00  0.00    +0.000 C 
ATOM     52  C40 UNL A   1      43.751  31.094  32.665  1.00  0.00    +0.000 C 
ATOM     53  C41 UNL A   1      44.404  31.181  31.397  1.00  0.00    +0.000 C 
ATOM     54  C42 UNL A   1      44.694  29.887  30.962  1.00  0.00    +0.000 C 
ATOM     55  N6  UNL A   1      44.484  29.108  32.065  1.00  0.00    +0.000 N 
ATOM     56  C43 UNL A   1      45.014  29.341  29.661  1.00  0.00    +0.000 C 
ATOM     68  C50 UNL A   1      44.953  28.018  29.325  1.00  0.00    +0.000 C 
ATOM     69  N7  UNL A   1      44.767  27.642  28.004  1.00  0.00    +0.000 N 
ATOM     70  C51 UNL A   1      44.129  26.505  28.073  1.00  0.00    +0.000 C 
ATOM     71  C52 UNL A   1      43.050  26.117  27.136  1.00  0.00    +0.000 C 
ATOM     83  C59 UNL A   1      42.020  26.970  27.363  1.00  0.00    +0.000 C 
ATOM     84  C60 UNL A   1      40.902  27.313  26.516  1.00  0.00    +0.000 C 
ATOM     85  C61 UNL A   1      40.158  28.237  27.155  1.00  0.00    +0.000 C 
ATOM     86  C62 UNL A   1      40.638  28.404  28.532  1.00  0.00    +0.000 C 
ATOM     87  N8  UNL A   1      41.824  27.705  28.554  1.00  0.00    +0.000 N 
ATOM     88  C63 UNL A   1      44.205  25.819  29.350  1.00  0.00    +0.000 C 
ATOM     89  C64 UNL A   1      44.693  26.809  30.101  1.00  0.00    +0.000 C 
ATOM     90  C65 UNL A   1      40.197  28.269  33.060  1.00  0.00    +0.000 C 
ATOM     91  C66 UNL A   1      39.590  28.061  31.888  1.00  0.00    +0.000 C 
ATOM    123  H30 UNL A   1      43.447  31.874  33.268  1.00  0.00    +0.000 H 
ATOM    124  H31 UNL A   1      44.623  32.053  30.890  1.00  0.00    +0.000 H 
ATOM    125  H32 UNL A   1      44.896  28.228  32.227  1.00  0.00    +0.000 H 
ATOM    126  H33 UNL A   1      40.706  26.918  25.583  1.00  0.00    +0.000 H 
ATOM    127  H34 UNL A   1      39.367  28.752  26.737  1.00  0.00    +0.000 H 
ATOM    128  H35 UNL A   1      42.458  27.716  29.307  1.00  0.00    +0.000 H 
ENDROOT
BRANCH   35   34
ATOM     33  C27 UNL A   1      37.501  28.972  29.763  1.00  0.00    +0.000 C 
ATOM     34  C28 UNL A   1      38.689  29.631  29.406  1.00  0.00    +0.000 C 
ATOM    133  H40 UNL A   1      39.519  31.296  28.418  1.00  0.00    +0.000 H 
ATOM    134  H41 UNL A   1      37.437  32.529  28.425  1.00  0.00    +0.000 H 
ATOM    121  H28 UNL A   1      35.391  29.070  29.653  1.00  0.00    +0.000 H 
ATOM    122  H29 UNL A   1      37.535  28.062  30.249  1.00  0.00    +0.000 H 
ATOM     92  C67 UNL A   1      38.653  30.872  28.785  1.00  0.00    +0.000 C 
ATOM     93  C68 UNL A   1      37.458  31.524  28.664  1.00  0.00    +0.000 C 
ATOM     31  C25 UNL A   1      36.271  30.829  28.863  1.00  0.00    +0.000 C 
ATOM     32  C26 UNL A   1      36.276  29.560  29.453  1.00  0.00    +0.000 C 
BRANCH   31   29
ATOM     29  C24 UNL A   1      35.032  31.463  28.381  1.00  0.00    +0.000 C 
ATOM     30  O2  UNL A   1      34.578  31.177  27.276  1.00  0.00    +0.000 O 
BRANCH   29   28
ATOM     28  N4  UNL A   1      34.395  32.380  29.201  1.00  0.00    +0.000 N 
ATOM    120  H27 UNL A   1      33.510  32.126  29.550  1.00  0.00    +0.000 H 
BRANCH   28   27
ATOM     27  C23 UNL A   1      34.912  33.693  29.598  1.00  0.00    +0.000 C 
ATOM    118  H25 UNL A   1      35.889  33.814  29.179  1.00  0.00    +0.000 H 
ATOM    119  H26 UNL A   1      34.226  34.429  29.233  1.00  0.00    +0.000 H 
BRANCH   27   26
ATOM     26  C22 UNL A   1      35.006  33.868  31.106  1.00  0.00    +0.000 C 
ATOM    116  H23 UNL A   1      35.971  34.266  31.336  1.00  0.00    +0.000 H 
ATOM    117  H24 UNL A   1      34.203  34.519  31.386  1.00  0.00    +0.000 H 
BRANCH   26   25
ATOM     25  C21 UNL A   1      34.816  32.576  31.913  1.00  0.00    +0.000 C 
ATOM    114  H21 UNL A   1      33.874  32.644  32.416  1.00  0.00    +0.000 H 
ATOM    115  H22 UNL A   1      34.887  31.786  31.194  1.00  0.00    +0.000 H 
BRANCH   25   24
ATOM    113  H20 UNL A   1      35.342  31.939  33.835  1.00  0.00    +0.000 H 
ATOM    112  H19 UNL A   1      36.479  33.129  33.109  1.00  0.00    +0.000 H 
ATOM     24  C20 UNL A   1      35.884  32.251  32.968  1.00  0.00    +0.000 C 
BRANCH   24   23
ATOM    111  H18 UNL A   1      36.536  30.716  31.687  1.00  0.00    +0.000 H 
ATOM    110  H17 UNL A   1      36.752  30.365  33.425  1.00  0.00    +0.000 H 
ATOM     23  C19 UNL A   1      36.834  31.092  32.643  1.00  0.00    +0.000 C 
BRANCH   23   22
ATOM    108  H15 UNL A   1      38.655  31.800  33.475  1.00  0.00    +0.000 H 
ATOM    109  H16 UNL A   1      38.834  30.634  32.154  1.00  0.00    +0.000 H 
ATOM     22  C18 UNL A   1      38.299  31.488  32.515  1.00  0.00    +0.000 C 
BRANCH   22   21
ATOM    107  H14 UNL A   1      38.120  32.495  30.665  1.00  0.00    +0.000 H 
ATOM     21  N3  UNL A   1      38.507  32.569  31.567  1.00  0.00    +0.000 N 
BRANCH   21    2
ATOM      1  O1  UNL A   1      38.752  34.827  31.857  1.00  0.00    +0.000 O 
ATOM      2  C1  UNL A   1      39.233  33.696  31.899  1.00  0.00    +0.000 C 
BRANCH    2    3
ATOM      3  C2  UNL A   1      40.695  33.483  32.235  1.00  0.00    +0.000 C 
ATOM     94  H1  UNL A   1      41.273  33.757  31.377  1.00  0.00    +0.000 H 
ATOM     95  H2  UNL A   1      40.790  32.451  32.503  1.00  0.00    +0.000 H 
BRANCH    3    4
ATOM      4  N1  UNL A   1      41.188  34.242  33.374  1.00  0.00    +0.000 N 
ATOM      5  C3  UNL A   1      41.973  35.360  33.255  1.00  0.00    +0.000 C 
ATOM      6  N2  UNL A   1      42.197  35.925  34.417  1.00  0.00    +0.000 N 
ATOM      7  C4  UNL A   1      41.531  35.146  35.328  1.00  0.00    +0.000 C 
ATOM     14  C11 UNL A   1      40.879  34.084  34.712  1.00  0.00    +0.000 C 
ATOM     96  H3  UNL A   1      42.342  35.714  32.359  1.00  0.00    +0.000 H 
BRANCH    7    8
ATOM     97  H4  UNL A   1      39.765  36.641  36.651  1.00  0.00    +0.000 H 
ATOM     98  H5  UNL A   1      39.611  36.986  39.049  1.00  0.00    +0.000 H 
ATOM     99  H6  UNL A   1      41.262  36.002  40.529  1.00  0.00    +0.000 H 
ATOM    100  H7  UNL A   1      43.085  34.689  39.613  1.00  0.00    +0.000 H 
ATOM    101  H8  UNL A   1      43.233  34.328  37.220  1.00  0.00    +0.000 H 
ATOM      8  C5  UNL A   1      41.495  35.433  36.749  1.00  0.00    +0.000 C 
ATOM      9  C6  UNL A   1      40.464  36.215  37.279  1.00  0.00    +0.000 C 
ATOM     10  C7  UNL A   1      40.378  36.419  38.659  1.00  0.00    +0.000 C 
ATOM     11  C8  UNL A   1      41.331  35.856  39.509  1.00  0.00    +0.000 C 
ATOM     12  C9  UNL A   1      42.375  35.097  38.983  1.00  0.00    +0.000 C 
ATOM     13  C10 UNL A   1      42.458  34.887  37.607  1.00  0.00    +0.000 C 
ENDBRANCH    7    8
BRANCH   14   15
ATOM    102  H9  UNL A   1      41.446  31.511  35.169  1.00  0.00    +0.000 H 
ATOM    103  H10 UNL A   1      39.965  29.771  35.981  1.00  0.00    +0.000 H 
ATOM    104  H11 UNL A   1      37.690  30.311  36.625  1.00  0.00    +0.000 H 
ATOM    105  H12 UNL A   1      36.873  32.583  36.388  1.00  0.00    +0.000 H 
ATOM    106  H13 UNL A   1      38.322  34.297  35.480  1.00  0.00    +0.000 H 
ATOM     15  C12 UNL A   1      40.015  33.058  35.293  1.00  0.00    +0.000 C 
ATOM     16  C13 UNL A   1      40.474  31.742  35.424  1.00  0.00    +0.000 C 
ATOM     17  C14 UNL A   1      39.622  30.740  35.897  1.00  0.00    +0.000 C 
ATOM     18  C15 UNL A   1      38.311  31.047  36.257  1.00  0.00    +0.000 C 
ATOM     19  C16 UNL A   1      37.842  32.351  36.119  1.00  0.00    +0.000 C 
ATOM     20  C17 UNL A   1      38.685  33.341  35.616  1.00  0.00    +0.000 C 
ENDBRANCH   14   15
ENDBRANCH    3    4
ENDBRANCH    2    3
ENDBRANCH   21    2
ENDBRANCH   22   21
ENDBRANCH   23   22
ENDBRANCH   24   23
ENDBRANCH   25   24
ENDBRANCH   26   25
ENDBRANCH   27   26
ENDBRANCH   28   27
ENDBRANCH   29   28
ENDBRANCH   31   29
ENDBRANCH   35   34
BRANCH   39   40
ATOM     40  C33 UNL A   1      43.031  27.771  34.464  1.00  0.00    +0.000 C 
ATOM     41  C34 UNL A   1      43.278  26.497  33.904  1.00  0.00    +0.000 C 
ATOM     42  F1  UNL A   1      43.429  26.351  32.580  1.00  0.00    +0.000 F 
ATOM     43  C35 UNL A   1      43.273  25.333  34.678  1.00  0.00    +0.000 C 
ATOM     44  F2  UNL A   1      43.374  24.137  34.082  1.00  0.00    +0.000 F 
ATOM     45  C36 UNL A   1      43.088  25.400  36.045  1.00  0.00    +0.000 C 
ATOM     46  F3  UNL A   1      43.017  24.282  36.781  1.00  0.00    +0.000 F 
ATOM     47  C37 UNL A   1      42.926  26.631  36.642  1.00  0.00    +0.000 C 
ATOM     48  F4  UNL A   1      42.725  26.715  37.965  1.00  0.00    +0.000 F 
ATOM     49  C38 UNL A   1      42.878  27.790  35.868  1.00  0.00    +0.000 C 
ATOM     50  F5  UNL A   1      42.565  28.899  36.543  1.00  0.00    +0.000 F 
ENDBRANCH   39   40
BRANCH   56   57
ATOM     65  F9  UNL A   1      48.079  32.242  27.280  1.00  0.00    +0.000 F 
ATOM     66  C49 UNL A   1      46.548  30.790  28.342  1.00  0.00    +0.000 C 
ATOM     67  F10 UNL A   1      47.556  30.300  29.080  1.00  0.00    +0.000 F 
ATOM     57  C44 UNL A   1      45.240  30.329  28.549  1.00  0.00    +0.000 C 
ATOM     58  C45 UNL A   1      44.220  30.914  27.779  1.00  0.00    +0.000 C 
ATOM     59  F6  UNL A   1      42.936  30.589  27.979  1.00  0.00    +0.000 F 
ATOM     60  C46 UNL A   1      44.506  31.887  26.821  1.00  0.00    +0.000 C 
ATOM     61  F7  UNL A   1      43.517  32.420  26.086  1.00  0.00    +0.000 F 
ATOM     62  C47 UNL A   1      45.807  32.329  26.645  1.00  0.00    +0.000 C 
ATOM     63  F8  UNL A   1      46.078  33.291  25.753  1.00  0.00    +0.000 F 
ATOM     64  C48 UNL A   1      46.825  31.787  27.413  1.00  0.00    +0.000 C 
ENDBRANCH   56   57
BRANCH   71   72
ATOM     72  C53 UNL A   1      43.060  24.831  26.404  1.00  0.00    +0.000 C 
ATOM     73  C54 UNL A   1      43.896  24.637  25.291  1.00  0.00    +0.000 C 
ATOM     74  F11 UNL A   1      44.515  25.684  24.724  1.00  0.00    +0.000 F 
ATOM     75  C55 UNL A   1      44.174  23.360  24.793  1.00  0.00    +0.000 C 
ATOM     76  F12 UNL A   1      45.031  23.210  23.774  1.00  0.00    +0.000 F 
ATOM     77  C56 UNL A   1      43.616  22.241  25.390  1.00  0.00    +0.000 C 
ATOM     78  F13 UNL A   1      43.936  21.012  24.959  1.00  0.00    +0.000 F 
ATOM     79  C57 UNL A   1      42.760  22.400  26.465  1.00  0.00    +0.000 C 
ATOM     80  F14 UNL A   1      42.245  21.322  27.074  1.00  0.00    +0.000 F 
ATOM     81  C58 UNL A   1      42.484  23.674  26.963  1.00  0.00    +0.000 C 
ATOM     82  F15 UNL A   1      41.726  23.752  28.066  1.00  0.00    +0.000 F 
ENDBRANCH   71   72
TORSDOF 18
ENDMDL
