MODEL 1
REMARK VINA RESULT:     -10.2      0.000      0.000
ROOT
ATOM    129  H34 UNL A   1      38.690  26.829  27.730  1.00  0.00    +0.000 H 
ATOM    130  H35 UNL A   1      42.447  27.487  29.384  1.00  0.00    +0.000 H 
ATOM    131  H36 UNL A   1      45.228  23.489  28.140  1.00  0.00    +0.000 H 
ATOM    132  H37 UNL A   1      47.128  24.553  29.485  1.00  0.00    +0.000 H 
ATOM    133  H38 UNL A   1      41.445  32.642  31.275  1.00  0.00    +0.000 H 
ATOM    134  H39 UNL A   1      39.405  31.411  30.340  1.00  0.00    +0.000 H 
ATOM     37  C28 UNL A   1      40.018  28.864  29.218  1.00  0.00    +0.000 C 
ATOM     38  C29 UNL A   1      40.944  29.791  29.956  1.00  0.00    +0.000 C 
ATOM     39  N5  UNL A   1      42.212  29.638  30.245  1.00  0.00    +0.000 N 
ATOM     40  C30 UNL A   1      42.596  30.805  30.891  1.00  0.00    +0.000 C 
ATOM     41  C31 UNL A   1      43.798  31.114  31.434  1.00  0.00    +0.000 C 
ATOM     53  C38 UNL A   1      44.937  30.233  31.438  1.00  0.00    +0.000 C 
ATOM     54  C39 UNL A   1      46.178  30.429  32.018  1.00  0.00    +0.000 C 
ATOM     55  C40 UNL A   1      46.976  29.316  31.731  1.00  0.00    +0.000 C 
ATOM     56  C41 UNL A   1      46.217  28.408  31.009  1.00  0.00    +0.000 C 
ATOM     57  N6  UNL A   1      44.970  28.986  30.833  1.00  0.00    +0.000 N 
ATOM     58  C42 UNL A   1      46.600  27.110  30.517  1.00  0.00    +0.000 C 
ATOM     70  C49 UNL A   1      45.794  26.272  29.820  1.00  0.00    +0.000 C 
ATOM     71  N7  UNL A   1      44.471  26.450  29.440  1.00  0.00    +0.000 N 
ATOM     72  C50 UNL A   1      44.137  25.370  28.778  1.00  0.00    +0.000 C 
ATOM     73  C51 UNL A   1      42.816  25.008  28.157  1.00  0.00    +0.000 C 
ATOM     85  C58 UNL A   1      41.775  25.853  28.281  1.00  0.00    +0.000 C 
ATOM     86  C59 UNL A   1      40.437  25.635  27.740  1.00  0.00    +0.000 C 
ATOM     87  C60 UNL A   1      39.675  26.707  28.014  1.00  0.00    +0.000 C 
ATOM     88  C61 UNL A   1      40.463  27.673  28.779  1.00  0.00    +0.000 C 
ATOM     89  N8  UNL A   1      41.694  27.077  28.900  1.00  0.00    +0.000 N 
ATOM     90  C62 UNL A   1      45.225  24.392  28.640  1.00  0.00    +0.000 C 
ATOM     91  C63 UNL A   1      46.199  24.973  29.325  1.00  0.00    +0.000 C 
ATOM     92  C64 UNL A   1      41.441  31.676  30.912  1.00  0.00    +0.000 C 
ATOM     93  C65 UNL A   1      40.377  31.072  30.405  1.00  0.00    +0.000 C 
ATOM    125  H30 UNL A   1      46.467  31.254  32.567  1.00  0.00    +0.000 H 
ATOM    126  H31 UNL A   1      47.962  29.191  32.010  1.00  0.00    +0.000 H 
ATOM    127  H32 UNL A   1      44.219  28.572  30.348  1.00  0.00    +0.000 H 
ATOM    128  H33 UNL A   1      40.127  24.794  27.230  1.00  0.00    +0.000 H 
ENDROOT
BRANCH   37   36
ATOM     33  C24 UNL A   1      36.009  30.132  28.379  1.00  0.00    +0.000 C 
ATOM     34  C25 UNL A   1      36.981  30.207  27.377  1.00  0.00    +0.000 C 
ATOM     35  C26 UNL A   1      38.284  29.772  27.636  1.00  0.00    +0.000 C 
ATOM     36  C27 UNL A   1      38.629  29.288  28.909  1.00  0.00    +0.000 C 
ATOM    135  H40 UNL A   1      37.886  28.853  30.840  1.00  0.00    +0.000 H 
ATOM    136  H41 UNL A   1      35.591  29.443  30.331  1.00  0.00    +0.000 H 
ATOM    123  H28 UNL A   1      36.738  30.584  26.447  1.00  0.00    +0.000 H 
ATOM    124  H29 UNL A   1      38.995  29.807  26.890  1.00  0.00    +0.000 H 
ATOM     94  C66 UNL A   1      37.640  29.199  29.899  1.00  0.00    +0.000 C 
ATOM     95  C67 UNL A   1      36.328  29.576  29.621  1.00  0.00    +0.000 C 
BRANCH   33   31
ATOM     31  C23 UNL A   1      34.633  30.594  28.076  1.00  0.00    +0.000 C 
ATOM     32  O3  UNL A   1      34.250  31.676  28.498  1.00  0.00    +0.000 O 
BRANCH   31   30
ATOM    122  H27 UNL A   1      34.205  29.017  26.913  1.00  0.00    +0.000 H 
ATOM     30  N4  UNL A   1      33.793  29.816  27.315  1.00  0.00    +0.000 N 
BRANCH   30   29
ATOM    121  H26 UNL A   1      32.271  30.958  26.539  1.00  0.00    +0.000 H 
ATOM     29  C22 UNL A   1      32.382  30.009  27.020  1.00  0.00    +0.000 C 
ATOM    120  H25 UNL A   1      31.830  29.974  27.936  1.00  0.00    +0.000 H 
BRANCH   29   28
ATOM     28  C21 UNL A   1      31.844  28.934  26.078  1.00  0.00    +0.000 C 
ATOM    118  H23 UNL A   1      32.385  28.030  26.262  1.00  0.00    +0.000 H 
ATOM    119  H24 UNL A   1      30.797  28.853  26.283  1.00  0.00    +0.000 H 
BRANCH   28   27
ATOM     27  C20 UNL A   1      31.963  29.264  24.584  1.00  0.00    +0.000 C 
ATOM    116  H21 UNL A   1      31.488  30.208  24.417  1.00  0.00    +0.000 H 
ATOM    117  H22 UNL A   1      33.010  29.261  24.365  1.00  0.00    +0.000 H 
BRANCH   27   26
ATOM     26  C19 UNL A   1      31.331  28.244  23.629  1.00  0.00    +0.000 C 
ATOM    115  H20 UNL A   1      31.670  27.280  23.945  1.00  0.00    +0.000 H 
ATOM    114  H19 UNL A   1      31.636  28.486  22.631  1.00  0.00    +0.000 H 
BRANCH   26   25
ATOM     25  C18 UNL A   1      29.801  28.206  23.666  1.00  0.00    +0.000 C 
ATOM    113  H18 UNL A   1      29.460  28.608  22.735  1.00  0.00    +0.000 H 
ATOM    112  H17 UNL A   1      29.472  28.776  24.509  1.00  0.00    +0.000 H 
BRANCH   25   24
ATOM    110  H15 UNL A   1      28.148  26.860  23.906  1.00  0.00    +0.000 H 
ATOM    111  H16 UNL A   1      29.436  26.243  22.890  1.00  0.00    +0.000 H 
ATOM     24  C17 UNL A   1      29.209  26.790  23.781  1.00  0.00    +0.000 C 
BRANCH   24   23
ATOM    109  H14 UNL A   1      29.642  26.522  25.800  1.00  0.00    +0.000 H 
ATOM     23  N3  UNL A   1      29.781  26.101  24.920  1.00  0.00    +0.000 N 
BRANCH   23   21
ATOM     21  C16 UNL A   1      30.497  24.923  24.913  1.00  0.00    +0.000 C 
ATOM     22  O2  UNL A   1      30.389  24.168  23.949  1.00  0.00    +0.000 O 
BRANCH   21    2
ATOM      2  C2  UNL A   1      31.258  24.401  26.121  1.00  0.00    +0.000 C 
BRANCH    2    1
ATOM      1  C1  UNL A   1      30.926  22.971  26.474  1.00  0.00    +0.000 C 
ATOM     98  H3  UNL A   1      30.284  22.956  27.330  1.00  0.00    +0.000 H 
ATOM     97  H2  UNL A   1      30.430  22.506  25.647  1.00  0.00    +0.000 H 
ATOM     96  H1  UNL A   1      31.827  22.439  26.696  1.00  0.00    +0.000 H 
ENDBRANCH    2    1
BRANCH    2    3
ATOM      3  N1  UNL A   1      32.184  24.989  26.823  1.00  0.00    +0.000 N 
BRANCH    3    4
ATOM      4  O1  UNL A   1      32.894  25.952  26.116  1.00  0.00    +0.000 O 
BRANCH    4    5
ATOM     99  H4  UNL A   1      34.455  24.644  26.167  1.00  0.00    +0.000 H 
ATOM    100  H5  UNL A   1      34.726  26.222  25.343  1.00  0.00    +0.000 H 
ATOM      5  C3  UNL A   1      34.070  25.393  25.506  1.00  0.00    +0.000 C 
BRANCH    5    6
ATOM    101  H6  UNL A   1      33.367  26.547  23.146  1.00  0.00    +0.000 H 
ATOM      6  C4  UNL A   1      33.885  24.751  24.140  1.00  0.00    +0.000 C 
ATOM      7  C5  UNL A   1      33.461  25.525  23.047  1.00  0.00    +0.000 C 
ATOM      8  C6  UNL A   1      33.164  24.917  21.826  1.00  0.00    +0.000 C 
ATOM    102  H7  UNL A   1      32.875  25.492  21.019  1.00  0.00    +0.000 H 
ATOM     10  C8  UNL A   1      33.702  22.760  22.774  1.00  0.00    +0.000 C 
ATOM     11  C9  UNL A   1      34.090  23.361  23.976  1.00  0.00    +0.000 C 
ATOM    104  H9  UNL A   1      33.742  21.733  22.680  1.00  0.00    +0.000 H 
ATOM      9  C7  UNL A   1      33.259  23.534  21.699  1.00  0.00    +0.000 C 
ATOM    103  H8  UNL A   1      33.002  23.080  20.808  1.00  0.00    +0.000 H 
BRANCH   11   12
ATOM    105  H10 UNL A   1      34.136  22.788  25.938  1.00  0.00    +0.000 H 
ATOM     12  N2  UNL A   1      34.589  22.624  25.079  1.00  0.00    +0.000 N 
BRANCH   12   13
ATOM    106  H11 UNL A   1      39.022  21.657  25.311  1.00  0.00    +0.000 H 
ATOM    107  H12 UNL A   1      38.663  19.275  25.017  1.00  0.00    +0.000 H 
ATOM    108  H13 UNL A   1      36.412  18.423  24.726  1.00  0.00    +0.000 H 
ATOM     13  C10 UNL A   1      35.648  21.684  25.119  1.00  0.00    +0.000 C 
ATOM     14  C11 UNL A   1      36.972  22.159  25.241  1.00  0.00    +0.000 C 
ATOM     15 Cl1  UNL A   1      37.305  23.850  25.427  1.00  0.00    +0.000 Cl
ATOM     16  C12 UNL A   1      38.064  21.287  25.205  1.00  0.00    +0.000 C 
ATOM     17  C13 UNL A   1      37.860  19.923  25.028  1.00  0.00    +0.000 C 
ATOM     18  C14 UNL A   1      36.565  19.435  24.866  1.00  0.00    +0.000 C 
ATOM     19  C15 UNL A   1      35.469  20.306  24.891  1.00  0.00    +0.000 C 
ATOM     20 Cl2  UNL A   1      33.913  19.618  24.580  1.00  0.00    +0.000 Cl
ENDBRANCH   12   13
ENDBRANCH   11   12
ENDBRANCH    5    6
ENDBRANCH    4    5
ENDBRANCH    3    4
ENDBRANCH    2    3
ENDBRANCH   21    2
ENDBRANCH   23   21
ENDBRANCH   24   23
ENDBRANCH   25   24
ENDBRANCH   26   25
ENDBRANCH   27   26
ENDBRANCH   28   27
ENDBRANCH   29   28
ENDBRANCH   30   29
ENDBRANCH   31   30
ENDBRANCH   33   31
ENDBRANCH   37   36
BRANCH   41   42
ATOM     42  C32 UNL A   1      43.944  32.464  32.075  1.00  0.00    +0.000 C 
ATOM     43  C33 UNL A   1      43.680  32.661  33.439  1.00  0.00    +0.000 C 
ATOM     44  F1  UNL A   1      43.244  31.642  34.196  1.00  0.00    +0.000 F 
ATOM     45  C34 UNL A   1      43.826  33.916  34.024  1.00  0.00    +0.000 C 
ATOM     46  F2  UNL A   1      43.523  34.090  35.317  1.00  0.00    +0.000 F 
ATOM     47  C35 UNL A   1      44.272  34.989  33.266  1.00  0.00    +0.000 C 
ATOM     48  F3  UNL A   1      44.418  36.195  33.832  1.00  0.00    +0.000 F 
ATOM     49  C36 UNL A   1      44.559  34.813  31.922  1.00  0.00    +0.000 C 
ATOM     50  F4  UNL A   1      45.001  35.846  31.191  1.00  0.00    +0.000 F 
ATOM     51  C37 UNL A   1      44.387  33.564  31.327  1.00  0.00    +0.000 C 
ATOM     52  F5  UNL A   1      44.660  33.430  30.021  1.00  0.00    +0.000 F 
ENDBRANCH   41   42
BRANCH   58   59
ATOM     65  F8  UNL A   1      51.837  25.261  31.547  1.00  0.00    +0.000 F 
ATOM     66  C47 UNL A   1      50.330  26.452  30.172  1.00  0.00    +0.000 C 
ATOM     67  F9  UNL A   1      51.316  26.726  29.306  1.00  0.00    +0.000 F 
ATOM     68  C48 UNL A   1      49.043  26.924  29.932  1.00  0.00    +0.000 C 
ATOM     69  F10 UNL A   1      48.820  27.660  28.832  1.00  0.00    +0.000 F 
ATOM     59  C43 UNL A   1      47.992  26.633  30.813  1.00  0.00    +0.000 C 
ATOM     60  C44 UNL A   1      48.276  25.856  31.945  1.00  0.00    +0.000 C 
ATOM     61  F6  UNL A   1      47.307  25.564  32.826  1.00  0.00    +0.000 F 
ATOM     62  C45 UNL A   1      49.570  25.407  32.196  1.00  0.00    +0.000 C 
ATOM     63  F7  UNL A   1      49.829  24.703  33.307  1.00  0.00    +0.000 F 
ATOM     64  C46 UNL A   1      50.594  25.699  31.307  1.00  0.00    +0.000 C 
ENDBRANCH   58   59
BRANCH   73   74
ATOM     74  C52 UNL A   1      42.639  23.718  27.443  1.00  0.00    +0.000 C 
ATOM     75  C53 UNL A   1      43.034  23.578  26.106  1.00  0.00    +0.000 C 
ATOM     76  F11 UNL A   1      43.556  24.625  25.450  1.00  0.00    +0.000 F 
ATOM     77  C54 UNL A   1      42.861  22.376  25.425  1.00  0.00    +0.000 C 
ATOM     78  F12 UNL A   1      43.209  22.282  24.135  1.00  0.00    +0.000 F 
ATOM     79  C55 UNL A   1      42.313  21.281  26.077  1.00  0.00    +0.000 C 
ATOM     80  F13 UNL A   1      42.150  20.123  25.424  1.00  0.00    +0.000 F 
ATOM     81  C56 UNL A   1      41.929  21.390  27.405  1.00  0.00    +0.000 C 
ATOM     82  F14 UNL A   1      41.412  20.331  28.042  1.00  0.00    +0.000 F 
ATOM     83  C57 UNL A   1      42.079  22.600  28.079  1.00  0.00    +0.000 C 
ATOM     84  F15 UNL A   1      41.691  22.681  29.360  1.00  0.00    +0.000 F 
ENDBRANCH   73   74
TORSDOF 22
ENDMDL
MODEL 2
REMARK VINA RESULT:     -10.1      4.277      9.672
ROOT
ATOM    129  H34 UNL A   1      40.652  27.435  27.401  1.00  0.00    +0.000 H 
ATOM    130  H35 UNL A   1      40.881  29.012  31.241  1.00  0.00    +0.000 H 
ATOM    131  H36 UNL A   1      36.930  32.084  31.714  1.00  0.00    +0.000 H 
ATOM    132  H37 UNL A   1      37.802  32.633  34.057  1.00  0.00    +0.000 H 
ATOM    133  H38 UNL A   1      45.240  25.972  32.948  1.00  0.00    +0.000 H 
ATOM    134  H39 UNL A   1      44.665  25.749  30.463  1.00  0.00    +0.000 H 
ATOM     37  C28 UNL A   1      42.319  27.175  29.698  1.00  0.00    +0.000 C 
ATOM     38  C29 UNL A   1      43.005  27.185  31.036  1.00  0.00    +0.000 C 
ATOM     39  N5  UNL A   1      42.688  27.840  32.125  1.00  0.00    +0.000 N 
ATOM     40  C30 UNL A   1      43.620  27.457  33.080  1.00  0.00    +0.000 C 
ATOM     41  C31 UNL A   1      43.752  27.896  34.355  1.00  0.00    +0.000 C 
ATOM     53  C38 UNL A   1      42.906  28.891  34.962  1.00  0.00    +0.000 C 
ATOM     54  C39 UNL A   1      42.997  29.448  36.226  1.00  0.00    +0.000 C 
ATOM     55  C40 UNL A   1      41.936  30.345  36.386  1.00  0.00    +0.000 C 
ATOM     56  C41 UNL A   1      41.208  30.379  35.207  1.00  0.00    +0.000 C 
ATOM     57  N6  UNL A   1      41.812  29.478  34.344  1.00  0.00    +0.000 N 
ATOM     58  C42 UNL A   1      40.050  31.173  34.890  1.00  0.00    +0.000 C 
ATOM     70  C49 UNL A   1      39.394  31.154  33.704  1.00  0.00    +0.000 C 
ATOM     71  N7  UNL A   1      39.671  30.411  32.565  1.00  0.00    +0.000 N 
ATOM     72  C50 UNL A   1      38.750  30.733  31.691  1.00  0.00    +0.000 C 
ATOM     73  C51 UNL A   1      38.575  30.253  30.275  1.00  0.00    +0.000 C 
ATOM     85  C58 UNL A   1      39.469  29.390  29.758  1.00  0.00    +0.000 C 
ATOM     86  C59 UNL A   1      39.434  28.845  28.404  1.00  0.00    +0.000 C 
ATOM     87  C60 UNL A   1      40.451  27.981  28.253  1.00  0.00    +0.000 C 
ATOM     88  C61 UNL A   1      41.230  27.938  29.492  1.00  0.00    +0.000 C 
ATOM     89  N8  UNL A   1      40.580  28.815  30.324  1.00  0.00    +0.000 N 
ATOM     90  C62 UNL A   1      37.763  31.701  32.188  1.00  0.00    +0.000 C 
ATOM     91  C63 UNL A   1      38.224  31.954  33.405  1.00  0.00    +0.000 C 
ATOM     92  C64 UNL A   1      44.487  26.481  32.458  1.00  0.00    +0.000 C 
ATOM     93  C65 UNL A   1      44.190  26.325  31.176  1.00  0.00    +0.000 C 
ATOM    125  H30 UNL A   1      43.723  29.238  36.928  1.00  0.00    +0.000 H 
ATOM    126  H31 UNL A   1      41.729  30.891  37.238  1.00  0.00    +0.000 H 
ATOM    127  H32 UNL A   1      41.508  29.284  33.427  1.00  0.00    +0.000 H 
ATOM    128  H33 UNL A   1      38.739  29.084  27.680  1.00  0.00    +0.000 H 
ENDROOT
BRANCH   37   36
ATOM     33  C24 UNL A   1      43.628  24.548  26.571  1.00  0.00    +0.000 C 
ATOM     34  C25 UNL A   1      44.132  25.851  26.636  1.00  0.00    +0.000 C 
ATOM     35  C26 UNL A   1      43.729  26.704  27.667  1.00  0.00    +0.000 C 
ATOM     36  C27 UNL A   1      42.795  26.269  28.622  1.00  0.00    +0.000 C 
ATOM    135  H40 UNL A   1      41.619  24.628  29.251  1.00  0.00    +0.000 H 
ATOM    136  H41 UNL A   1      42.457  23.100  27.565  1.00  0.00    +0.000 H 
ATOM    123  H28 UNL A   1      44.801  26.183  25.923  1.00  0.00    +0.000 H 
ATOM    124  H29 UNL A   1      44.118  27.657  27.727  1.00  0.00    +0.000 H 
ATOM     94  C66 UNL A   1      42.312  24.954  28.558  1.00  0.00    +0.000 C 
ATOM     95  C67 UNL A   1      42.762  24.085  27.566  1.00  0.00    +0.000 C 
BRANCH   33   31
ATOM     31  C23 UNL A   1      44.077  23.662  25.472  1.00  0.00    +0.000 C 
ATOM     32  O3  UNL A   1      44.441  24.148  24.410  1.00  0.00    +0.000 O 
BRANCH   31   30
ATOM    122  H27 UNL A   1      43.282  21.911  26.041  1.00  0.00    +0.000 H 
ATOM     30  N4  UNL A   1      44.096  22.298  25.646  1.00  0.00    +0.000 N 
BRANCH   30   29
ATOM    121  H26 UNL A   1      45.363  20.782  26.210  1.00  0.00    +0.000 H 
ATOM     29  C22 UNL A   1      45.151  21.349  25.328  1.00  0.00    +0.000 C 
ATOM    120  H25 UNL A   1      46.015  21.888  24.999  1.00  0.00    +0.000 H 
BRANCH   29   28
ATOM     28  C21 UNL A   1      44.730  20.374  24.230  1.00  0.00    +0.000 C 
ATOM    118  H23 UNL A   1      43.768  20.675  23.869  1.00  0.00    +0.000 H 
ATOM    119  H24 UNL A   1      45.496  20.415  23.483  1.00  0.00    +0.000 H 
BRANCH   28   27
ATOM     27  C20 UNL A   1      44.637  18.906  24.667  1.00  0.00    +0.000 C 
ATOM    116  H21 UNL A   1      44.112  18.369  23.905  1.00  0.00    +0.000 H 
ATOM    117  H22 UNL A   1      45.644  18.579  24.812  1.00  0.00    +0.000 H 
BRANCH   27   26
ATOM     26  C19 UNL A   1      43.918  18.657  25.998  1.00  0.00    +0.000 C 
ATOM    115  H20 UNL A   1      44.215  19.446  26.657  1.00  0.00    +0.000 H 
ATOM    114  H19 UNL A   1      44.202  17.688  26.355  1.00  0.00    +0.000 H 
BRANCH   26   25
ATOM     25  C18 UNL A   1      42.391  18.708  25.912  1.00  0.00    +0.000 C 
ATOM    113  H18 UNL A   1      42.030  17.773  26.288  1.00  0.00    +0.000 H 
ATOM    112  H17 UNL A   1      42.118  18.877  24.891  1.00  0.00    +0.000 H 
BRANCH   25   24
ATOM    110  H15 UNL A   1      41.269  19.364  27.619  1.00  0.00    +0.000 H 
ATOM    111  H16 UNL A   1      42.509  20.488  27.099  1.00  0.00    +0.000 H 
ATOM     24  C17 UNL A   1      41.748  19.810  26.772  1.00  0.00    +0.000 C 
BRANCH   24   23
ATOM    109  H14 UNL A   1      40.694  20.297  25.043  1.00  0.00    +0.000 H 
ATOM     23  N3  UNL A   1      40.766  20.539  25.995  1.00  0.00    +0.000 N 
BRANCH   23   21
ATOM     21  C16 UNL A   1      39.919  21.533  26.438  1.00  0.00    +0.000 C 
ATOM     22  O2  UNL A   1      40.180  22.112  27.491  1.00  0.00    +0.000 O 
BRANCH   21    2
ATOM      2  C2  UNL A   1      38.566  21.820  25.806  1.00  0.00    +0.000 C 
BRANCH    2    1
ATOM      1  C1  UNL A   1      37.931  20.611  25.161  1.00  0.00    +0.000 C 
ATOM     98  H3  UNL A   1      38.532  19.747  25.355  1.00  0.00    +0.000 H 
ATOM     97  H2  UNL A   1      36.951  20.464  25.567  1.00  0.00    +0.000 H 
ATOM     96  H1  UNL A   1      37.860  20.766  24.105  1.00  0.00    +0.000 H 
ENDBRANCH    2    1
BRANCH    2    3
ATOM      3  N1  UNL A   1      37.875  22.924  25.815  1.00  0.00    +0.000 N 
BRANCH    3    4
ATOM      4  O1  UNL A   1      37.118  23.118  24.666  1.00  0.00    +0.000 O 
BRANCH    4    5
ATOM     99  H4  UNL A   1      35.797  24.662  24.529  1.00  0.00    +0.000 H 
ATOM    100  H5  UNL A   1      35.773  23.686  26.041  1.00  0.00    +0.000 H 
ATOM      5  C3  UNL A   1      35.836  23.690  24.974  1.00  0.00    +0.000 C 
BRANCH    5    6
ATOM    101  H6  UNL A   1      35.163  21.094  25.426  1.00  0.00    +0.000 H 
ATOM      6  C4  UNL A   1      34.617  22.916  24.497  1.00  0.00    +0.000 C 
ATOM      7  C5  UNL A   1      34.483  21.550  24.799  1.00  0.00    +0.000 C 
ATOM      8  C6  UNL A   1      33.434  20.807  24.254  1.00  0.00    +0.000 C 
ATOM    102  H7  UNL A   1      33.327  19.810  24.498  1.00  0.00    +0.000 H 
ATOM     10  C8  UNL A   1      32.647  22.776  23.095  1.00  0.00    +0.000 C 
ATOM     11  C9  UNL A   1      33.636  23.556  23.703  1.00  0.00    +0.000 C 
ATOM    104  H9  UNL A   1      31.993  23.211  22.426  1.00  0.00    +0.000 H 
ATOM      9  C7  UNL A   1      32.534  21.414  23.383  1.00  0.00    +0.000 C 
ATOM    103  H8  UNL A   1      31.782  20.855  22.949  1.00  0.00    +0.000 H 
BRANCH   11   12
ATOM    105  H10 UNL A   1      34.677  25.269  23.301  1.00  0.00    +0.000 H 
ATOM     12  N2  UNL A   1      33.763  24.950  23.479  1.00  0.00    +0.000 N 
BRANCH   12   13
ATOM    106  H11 UNL A   1      30.982  27.782  25.690  1.00  0.00    +0.000 H 
ATOM    107  H12 UNL A   1      29.873  28.508  23.657  1.00  0.00    +0.000 H 
ATOM    108  H13 UNL A   1      30.541  27.574  21.522  1.00  0.00    +0.000 H 
ATOM     13  C10 UNL A   1      32.758  25.948  23.475  1.00  0.00    +0.000 C 
ATOM     14  C11 UNL A   1      32.319  26.474  24.710  1.00  0.00    +0.000 C 
ATOM     15 Cl1  UNL A   1      33.047  25.982  26.204  1.00  0.00    +0.000 Cl
ATOM     16  C12 UNL A   1      31.276  27.401  24.776  1.00  0.00    +0.000 C 
ATOM     17  C13 UNL A   1      30.633  27.811  23.613  1.00  0.00    +0.000 C 
ATOM     18  C14 UNL A   1      31.022  27.277  22.386  1.00  0.00    +0.000 C 
ATOM     19  C15 UNL A   1      32.061  26.340  22.316  1.00  0.00    +0.000 C 
ATOM     20 Cl2  UNL A   1      32.401  25.661  20.762  1.00  0.00    +0.000 Cl
ENDBRANCH   12   13
ENDBRANCH   11   12
ENDBRANCH    5    6
ENDBRANCH    4    5
ENDBRANCH    3    4
ENDBRANCH    2    3
ENDBRANCH   21    2
ENDBRANCH   23   21
ENDBRANCH   24   23
ENDBRANCH   25   24
ENDBRANCH   26   25
ENDBRANCH   27   26
ENDBRANCH   28   27
ENDBRANCH   29   28
ENDBRANCH   30   29
ENDBRANCH   31   30
ENDBRANCH   33   31
ENDBRANCH   37   36
BRANCH   41   42
ATOM     42  C32 UNL A   1      44.857  27.305  35.182  1.00  0.00    +0.000 C 
ATOM     43  C33 UNL A   1      44.656  26.154  35.959  1.00  0.00    +0.000 C 
ATOM     44  F1  UNL A   1      43.445  25.579  36.013  1.00  0.00    +0.000 F 
ATOM     45  C34 UNL A   1      45.691  25.610  36.715  1.00  0.00    +0.000 C 
ATOM     46  F2  UNL A   1      45.464  24.538  37.485  1.00  0.00    +0.000 F 
ATOM     47  C35 UNL A   1      46.953  26.185  36.682  1.00  0.00    +0.000 C 
ATOM     48  F3  UNL A   1      47.950  25.656  37.406  1.00  0.00    +0.000 F 
ATOM     49  C36 UNL A   1      47.179  27.310  35.905  1.00  0.00    +0.000 C 
ATOM     50  F4  UNL A   1      48.401  27.858  35.863  1.00  0.00    +0.000 F 
ATOM     51  C37 UNL A   1      46.139  27.873  35.169  1.00  0.00    +0.000 C 
ATOM     52  F5  UNL A   1      46.387  28.970  34.438  1.00  0.00    +0.000 F 
ENDBRANCH   41   42
BRANCH   58   59
ATOM     65  F8  UNL A   1      38.204  34.703  38.894  1.00  0.00    +0.000 F 
ATOM     66  C47 UNL A   1      39.664  34.249  37.093  1.00  0.00    +0.000 C 
ATOM     67  F9  UNL A   1      40.232  35.454  37.233  1.00  0.00    +0.000 F 
ATOM     68  C48 UNL A   1      40.102  33.385  36.094  1.00  0.00    +0.000 C 
ATOM     69  F10 UNL A   1      41.087  33.789  35.278  1.00  0.00    +0.000 F 
ATOM     59  C43 UNL A   1      39.536  32.111  35.942  1.00  0.00    +0.000 C 
ATOM     60  C44 UNL A   1      38.512  31.735  36.824  1.00  0.00    +0.000 C 
ATOM     61  F6  UNL A   1      37.929  30.532  36.708  1.00  0.00    +0.000 F 
ATOM     62  C45 UNL A   1      38.059  32.611  37.806  1.00  0.00    +0.000 C 
ATOM     63  F7  UNL A   1      37.049  32.249  38.610  1.00  0.00    +0.000 F 
ATOM     64  C46 UNL A   1      38.638  33.863  37.945  1.00  0.00    +0.000 C 
ENDBRANCH   58   59
BRANCH   73   74
ATOM     74  C52 UNL A   1      37.453  30.747  29.438  1.00  0.00    +0.000 C 
ATOM     75  C53 UNL A   1      36.363  29.919  29.138  1.00  0.00    +0.000 C 
ATOM     76  F11 UNL A   1      36.339  28.656  29.590  1.00  0.00    +0.000 F 
ATOM     77  C54 UNL A   1      35.312  30.370  28.343  1.00  0.00    +0.000 C 
ATOM     78  F12 UNL A   1      34.303  29.544  28.038  1.00  0.00    +0.000 F 
ATOM     79  C55 UNL A   1      35.319  31.668  27.854  1.00  0.00    +0.000 C 
ATOM     80  F13 UNL A   1      34.306  32.104  27.094  1.00  0.00    +0.000 F 
ATOM     81  C56 UNL A   1      36.379  32.512  28.151  1.00  0.00    +0.000 C 
ATOM     82  F14 UNL A   1      36.381  33.770  27.692  1.00  0.00    +0.000 F 
ATOM     83  C57 UNL A   1      37.442  32.053  28.925  1.00  0.00    +0.000 C 
ATOM     84  F15 UNL A   1      38.459  32.886  29.189  1.00  0.00    +0.000 F 
ENDBRANCH   73   74
TORSDOF 22
ENDMDL
MODEL 3
REMARK VINA RESULT:     -10.1     19.688     24.063
ROOT
ATOM    129  H34 UNL A   1      50.826  21.124  12.440  1.00  0.00    +0.000 H 
ATOM    130  H35 UNL A   1      54.612  20.386  13.990  1.00  0.00    +0.000 H 
ATOM    131  H36 UNL A   1      54.627  22.366  18.611  1.00  0.00    +0.000 H 
ATOM    132  H37 UNL A   1      57.074  21.632  18.777  1.00  0.00    +0.000 H 
ATOM    133  H38 UNL A   1      56.477  17.288   9.738  1.00  0.00    +0.000 H 
ATOM    134  H39 UNL A   1      54.201  18.397   9.359  1.00  0.00    +0.000 H 
ATOM     37  C28 UNL A   1      53.220  19.805  11.635  1.00  0.00    +0.000 C 
ATOM     38  C29 UNL A   1      54.563  19.148  11.469  1.00  0.00    +0.000 C 
ATOM     39  N5  UNL A   1      55.561  19.080  12.312  1.00  0.00    +0.000 N 
ATOM     40  C30 UNL A   1      56.538  18.322  11.681  1.00  0.00    +0.000 C 
ATOM     41  C31 UNL A   1      57.782  18.011  12.120  1.00  0.00    +0.000 C 
ATOM     53  C38 UNL A   1      58.328  18.443  13.379  1.00  0.00    +0.000 C 
ATOM     54  C39 UNL A   1      59.599  18.234  13.887  1.00  0.00    +0.000 C 
ATOM     55  C40 UNL A   1      59.662  18.808  15.161  1.00  0.00    +0.000 C 
ATOM     56  C41 UNL A   1      58.444  19.412  15.430  1.00  0.00    +0.000 C 
ATOM     57  N6  UNL A   1      57.634  19.176  14.330  1.00  0.00    +0.000 N 
ATOM     58  C42 UNL A   1      58.048  20.150  16.601  1.00  0.00    +0.000 C 
ATOM     70  C49 UNL A   1      56.832  20.720  16.788  1.00  0.00    +0.000 C 
ATOM     71  N7  UNL A   1      55.737  20.738  15.936  1.00  0.00    +0.000 N 
ATOM     72  C50 UNL A   1      54.800  21.402  16.567  1.00  0.00    +0.000 C 
ATOM     73  C51 UNL A   1      53.410  21.752  16.107  1.00  0.00    +0.000 C 
ATOM     85  C58 UNL A   1      53.013  21.385  14.874  1.00  0.00    +0.000 C 
ATOM     86  C59 UNL A   1      51.703  21.658  14.290  1.00  0.00    +0.000 C 
ATOM     87  C60 UNL A   1      51.644  21.103  13.069  1.00  0.00    +0.000 C 
ATOM     88  C61 UNL A   1      52.926  20.463  12.771  1.00  0.00    +0.000 C 
ATOM     89  N8  UNL A   1      53.681  20.691  13.895  1.00  0.00    +0.000 N 
ATOM     90  C62 UNL A   1      55.188  21.859  17.908  1.00  0.00    +0.000 C 
ATOM     91  C63 UNL A   1      56.448  21.452  17.977  1.00  0.00    +0.000 C 
ATOM     92  C64 UNL A   1      55.997  17.915  10.403  1.00  0.00    +0.000 C 
ATOM     93  C65 UNL A   1      54.804  18.453  10.195  1.00  0.00    +0.000 C 
ATOM    125  H30 UNL A   1      60.368  17.739  13.408  1.00  0.00    +0.000 H 
ATOM    126  H31 UNL A   1      60.477  18.786  15.794  1.00  0.00    +0.000 H 
ATOM    127  H32 UNL A   1      56.703  19.484  14.238  1.00  0.00    +0.000 H 
ATOM    128  H33 UNL A   1      50.945  22.191  14.743  1.00  0.00    +0.000 H 
ENDROOT
BRANCH   37   36
ATOM     33  C24 UNL A   1      50.286  19.431   8.530  1.00  0.00    +0.000 C 
ATOM     34  C25 UNL A   1      50.492  18.370   9.417  1.00  0.00    +0.000 C 
ATOM     35  C26 UNL A   1      51.429  18.495  10.447  1.00  0.00    +0.000 C 
ATOM     36  C27 UNL A   1      52.187  19.670  10.576  1.00  0.00    +0.000 C 
ATOM    135  H40 UNL A   1      52.515  21.599   9.775  1.00  0.00    +0.000 H 
ATOM    136  H41 UNL A   1      50.766  21.443   8.103  1.00  0.00    +0.000 H 
ATOM    123  H28 UNL A   1      49.954  17.496   9.312  1.00  0.00    +0.000 H 
ATOM    124  H29 UNL A   1      51.564  17.721  11.114  1.00  0.00    +0.000 H 
ATOM     94  C66 UNL A   1      51.957  20.735   9.693  1.00  0.00    +0.000 C 
ATOM     95  C67 UNL A   1      50.979  20.632   8.705  1.00  0.00    +0.000 C 
BRANCH   33   31
ATOM     31  C23 UNL A   1      49.282  19.276   7.451  1.00  0.00    +0.000 C 
ATOM     32  O3  UNL A   1      48.356  20.071   7.364  1.00  0.00    +0.000 O 
BRANCH   31   30
ATOM    122  H27 UNL A   1      50.159  18.311   5.927  1.00  0.00    +0.000 H 
ATOM     30  N4  UNL A   1      49.394  18.249   6.544  1.00  0.00    +0.000 N 
BRANCH   30   29
ATOM    121  H26 UNL A   1      47.670  17.217   6.978  1.00  0.00    +0.000 H 
ATOM     29  C22 UNL A   1      48.539  17.086   6.367  1.00  0.00    +0.000 C 
ATOM    120  H25 UNL A   1      49.083  16.210   6.653  1.00  0.00    +0.000 H 
BRANCH   29   28
ATOM     28  C21 UNL A   1      48.080  16.930   4.919  1.00  0.00    +0.000 C 
ATOM    118  H23 UNL A   1      48.948  16.923   4.294  1.00  0.00    +0.000 H 
ATOM    119  H24 UNL A   1      47.520  16.019   4.879  1.00  0.00    +0.000 H 
BRANCH   28   27
ATOM     27  C20 UNL A   1      47.139  18.033   4.415  1.00  0.00    +0.000 C 
ATOM    116  H21 UNL A   1      46.643  18.456   5.263  1.00  0.00    +0.000 H 
ATOM    117  H22 UNL A   1      47.757  18.726   3.885  1.00  0.00    +0.000 H 
BRANCH   27   26
ATOM     26  C19 UNL A   1      46.064  17.581   3.418  1.00  0.00    +0.000 C 
ATOM    115  H20 UNL A   1      45.753  16.605   3.726  1.00  0.00    +0.000 H 
ATOM    114  H19 UNL A   1      46.492  17.592   2.437  1.00  0.00    +0.000 H 
BRANCH   26   25
ATOM     25  C18 UNL A   1      44.809  18.457   3.403  1.00  0.00    +0.000 C 
ATOM    113  H18 UNL A   1      44.123  18.024   4.101  1.00  0.00    +0.000 H 
ATOM    112  H17 UNL A   1      44.426  18.477   2.404  1.00  0.00    +0.000 H 
BRANCH   25   24
ATOM    110  H15 UNL A   1      44.637  20.043   4.837  1.00  0.00    +0.000 H 
ATOM    111  H16 UNL A   1      46.099  20.101   3.873  1.00  0.00    +0.000 H 
ATOM     24  C17 UNL A   1      45.047  19.908   3.857  1.00  0.00    +0.000 C 
BRANCH   24   23
ATOM    109  H14 UNL A   1      44.135  21.698   3.313  1.00  0.00    +0.000 H 
ATOM     23  N3  UNL A   1      44.408  20.829   2.939  1.00  0.00    +0.000 N 
BRANCH   23   21
ATOM     21  C16 UNL A   1      44.140  20.628   1.603  1.00  0.00    +0.000 C 
ATOM     22  O2  UNL A   1      45.048  20.775   0.785  1.00  0.00    +0.000 O 
BRANCH   21    2
ATOM      2  C2  UNL A   1      42.737  20.433   1.052  1.00  0.00    +0.000 C 
BRANCH    2    1
ATOM      1  C1  UNL A   1      42.685  19.560  -0.179  1.00  0.00    +0.000 C 
ATOM     98  H3  UNL A   1      42.929  18.553   0.089  1.00  0.00    +0.000 H 
ATOM     97  H2  UNL A   1      41.700  19.590  -0.596  1.00  0.00    +0.000 H 
ATOM     96  H1  UNL A   1      43.390  19.918  -0.900  1.00  0.00    +0.000 H 
ENDBRANCH    2    1
BRANCH    2    3
ATOM      3  N1  UNL A   1      41.602  20.852   1.535  1.00  0.00    +0.000 N 
BRANCH    3    4
ATOM      4  O1  UNL A   1      40.510  20.089   1.136  1.00  0.00    +0.000 O 
BRANCH    4    5
ATOM     99  H4  UNL A   1      39.167  20.656  -0.286  1.00  0.00    +0.000 H 
ATOM    100  H5  UNL A   1      39.757  21.925   0.845  1.00  0.00    +0.000 H 
ATOM      5  C3  UNL A   1      39.414  20.920   0.721  1.00  0.00    +0.000 C 
BRANCH    5    6
ATOM    101  H6  UNL A   1      38.969  19.576   3.043  1.00  0.00    +0.000 H 
ATOM      6  C4  UNL A   1      38.141  20.825   1.548  1.00  0.00    +0.000 C 
ATOM      7  C5  UNL A   1      38.105  20.024   2.702  1.00  0.00    +0.000 C 
ATOM      8  C6  UNL A   1      36.906  19.830   3.389  1.00  0.00    +0.000 C 
ATOM    102  H7  UNL A   1      36.889  19.261   4.249  1.00  0.00    +0.000 H 
ATOM     10  C8  UNL A   1      35.763  21.223   1.778  1.00  0.00    +0.000 C 
ATOM     11  C9  UNL A   1      36.971  21.502   1.130  1.00  0.00    +0.000 C 
ATOM    104  H9  UNL A   1      34.885  21.624   1.414  1.00  0.00    +0.000 H 
ATOM      9  C7  UNL A   1      35.732  20.408   2.911  1.00  0.00    +0.000 C 
ATOM    103  H8  UNL A   1      34.839  20.232   3.396  1.00  0.00    +0.000 H 
BRANCH   11   12
ATOM    105  H10 UNL A   1      37.586  23.182   0.141  1.00  0.00    +0.000 H 
ATOM     12  N2  UNL A   1      37.061  22.360   0.005  1.00  0.00    +0.000 N 
BRANCH   12   13
ATOM    106  H11 UNL A   1      37.542  21.739  -4.470  1.00  0.00    +0.000 H 
ATOM    107  H12 UNL A   1      35.165  21.969  -4.901  1.00  0.00    +0.000 H 
ATOM    108  H13 UNL A   1      33.644  22.406  -3.064  1.00  0.00    +0.000 H 
ATOM     13  C10 UNL A   1      36.503  22.200  -1.287  1.00  0.00    +0.000 C 
ATOM     14  C11 UNL A   1      37.372  21.992  -2.380  1.00  0.00    +0.000 C 
ATOM     15 Cl1  UNL A   1      39.084  21.844  -2.150  1.00  0.00    +0.000 Cl
ATOM     16  C12 UNL A   1      36.888  21.907  -3.689  1.00  0.00    +0.000 C 
ATOM     17  C13 UNL A   1      35.527  22.048  -3.938  1.00  0.00    +0.000 C 
ATOM     18  C14 UNL A   1      34.654  22.293  -2.880  1.00  0.00    +0.000 C 
ATOM     19  C15 UNL A   1      35.137  22.389  -1.569  1.00  0.00    +0.000 C 
ATOM     20 Cl2  UNL A   1      33.989  22.796  -0.340  1.00  0.00    +0.000 Cl
ENDBRANCH   12   13
ENDBRANCH   11   12
ENDBRANCH    5    6
ENDBRANCH    4    5
ENDBRANCH    3    4
ENDBRANCH    2    3
ENDBRANCH   21    2
ENDBRANCH   23   21
ENDBRANCH   24   23
ENDBRANCH   25   24
ENDBRANCH   26   25
ENDBRANCH   27   26
ENDBRANCH   28   27
ENDBRANCH   29   28
ENDBRANCH   30   29
ENDBRANCH   31   30
ENDBRANCH   33   31
ENDBRANCH   37   36
BRANCH   41   42
ATOM     42  C32 UNL A   1      58.641  17.163  11.227  1.00  0.00    +0.000 C 
ATOM     43  C33 UNL A   1      58.688  15.767  11.366  1.00  0.00    +0.000 C 
ATOM     44  F1  UNL A   1      57.991  15.161  12.340  1.00  0.00    +0.000 F 
ATOM     45  C34 UNL A   1      59.482  14.990  10.526  1.00  0.00    +0.000 C 
ATOM     46  F2  UNL A   1      59.547  13.664  10.707  1.00  0.00    +0.000 F 
ATOM     47  C35 UNL A   1      60.215  15.589   9.512  1.00  0.00    +0.000 C 
ATOM     48  F3  UNL A   1      60.974  14.838   8.701  1.00  0.00    +0.000 F 
ATOM     49  C36 UNL A   1      60.167  16.963   9.344  1.00  0.00    +0.000 C 
ATOM     50  F4  UNL A   1      60.866  17.541   8.357  1.00  0.00    +0.000 F 
ATOM     51  C37 UNL A   1      59.395  17.746  10.200  1.00  0.00    +0.000 C 
ATOM     52  F5  UNL A   1      59.381  19.076  10.019  1.00  0.00    +0.000 F 
ENDBRANCH   41   42
BRANCH   58   59
ATOM     65  F8  UNL A   1      61.930  20.806  20.651  1.00  0.00    +0.000 F 
ATOM     66  C47 UNL A   1      60.777  21.662  18.775  1.00  0.00    +0.000 C 
ATOM     67  F9  UNL A   1      61.491  22.795  18.837  1.00  0.00    +0.000 F 
ATOM     68  C48 UNL A   1      59.805  21.506  17.792  1.00  0.00    +0.000 C 
ATOM     69  F10 UNL A   1      59.596  22.510  16.926  1.00  0.00    +0.000 F 
ATOM     59  C43 UNL A   1      59.060  20.322  17.695  1.00  0.00    +0.000 C 
ATOM     60  C44 UNL A   1      59.321  19.302  18.621  1.00  0.00    +0.000 C 
ATOM     61  F6  UNL A   1      58.623  18.156  18.579  1.00  0.00    +0.000 F 
ATOM     62  C45 UNL A   1      60.276  19.471  19.620  1.00  0.00    +0.000 C 
ATOM     63  F7  UNL A   1      60.478  18.501  20.523  1.00  0.00    +0.000 F 
ATOM     64  C46 UNL A   1      61.007  20.647  19.692  1.00  0.00    +0.000 C 
ENDBRANCH   58   59
BRANCH   73   74
ATOM     74  C52 UNL A   1      52.491  22.522  16.981  1.00  0.00    +0.000 C 
ATOM     75  C53 UNL A   1      51.723  21.878  17.960  1.00  0.00    +0.000 C 
ATOM     76  F11 UNL A   1      51.796  20.546  18.097  1.00  0.00    +0.000 F 
ATOM     77  C54 UNL A   1      50.849  22.592  18.776  1.00  0.00    +0.000 C 
ATOM     78  F12 UNL A   1      50.096  21.946  19.676  1.00  0.00    +0.000 F 
ATOM     79  C55 UNL A   1      50.747  23.969  18.647  1.00  0.00    +0.000 C 
ATOM     80  F13 UNL A   1      49.910  24.657  19.435  1.00  0.00    +0.000 F 
ATOM     81  C56 UNL A   1      51.509  24.632  17.697  1.00  0.00    +0.000 C 
ATOM     82  F14 UNL A   1      51.423  25.964  17.579  1.00  0.00    +0.000 F 
ATOM     83  C57 UNL A   1      52.365  23.915  16.863  1.00  0.00    +0.000 C 
ATOM     84  F15 UNL A   1      53.083  24.578  15.946  1.00  0.00    +0.000 F 
ENDBRANCH   73   74
TORSDOF 22
ENDMDL
MODEL 4
REMARK VINA RESULT:     -10.0     19.961     23.692
ROOT
ATOM    129  H34 UNL A   1      53.750  19.352   9.179  1.00  0.00    +0.000 H 
ATOM    130  H35 UNL A   1      55.328  19.945  12.979  1.00  0.00    +0.000 H 
ATOM    131  H36 UNL A   1      60.065  18.273  12.788  1.00  0.00    +0.000 H 
ATOM    132  H37 UNL A   1      60.234  18.858  15.275  1.00  0.00    +0.000 H 
ATOM    133  H38 UNL A   1      50.927  22.635  15.113  1.00  0.00    +0.000 H 
ATOM    134  H39 UNL A   1      50.572  21.651  12.776  1.00  0.00    +0.000 H 
ATOM     37  C28 UNL A   1      52.911  20.460  11.667  1.00  0.00    +0.000 C 
ATOM     38  C29 UNL A   1      52.732  21.017  13.053  1.00  0.00    +0.000 C 
ATOM     39  N5  UNL A   1      53.590  21.076  14.040  1.00  0.00    +0.000 N 
ATOM     40  C30 UNL A   1      52.932  21.727  15.074  1.00  0.00    +0.000 C 
ATOM     41  C31 UNL A   1      53.376  21.986  16.328  1.00  0.00    +0.000 C 
ATOM     53  C38 UNL A   1      54.671  21.602  16.824  1.00  0.00    +0.000 C 
ATOM     54  C39 UNL A   1      55.191  21.762  18.097  1.00  0.00    +0.000 C 
ATOM     55  C40 UNL A   1      56.500  21.269  18.101  1.00  0.00    +0.000 C 
ATOM     56  C41 UNL A   1      56.781  20.763  16.842  1.00  0.00    +0.000 C 
ATOM     57  N6  UNL A   1      55.652  20.978  16.068  1.00  0.00    +0.000 N 
ATOM     58  C42 UNL A   1      57.989  20.130  16.379  1.00  0.00    +0.000 C 
ATOM     70  C49 UNL A   1      58.186  19.652  15.126  1.00  0.00    +0.000 C 
ATOM     71  N7  UNL A   1      57.315  19.649  14.046  1.00  0.00    +0.000 N 
ATOM     72  C50 UNL A   1      57.967  19.089  13.057  1.00  0.00    +0.000 C 
ATOM     73  C51 UNL A   1      57.502  18.800  11.656  1.00  0.00    +0.000 C 
ATOM     85  C58 UNL A   1      56.240  19.111  11.304  1.00  0.00    +0.000 C 
ATOM     86  C59 UNL A   1      55.648  18.885   9.989  1.00  0.00    +0.000 C 
ATOM     87  C60 UNL A   1      54.392  19.362   9.986  1.00  0.00    +0.000 C 
ATOM     88  C61 UNL A   1      54.081  19.897  11.312  1.00  0.00    +0.000 C 
ATOM     89  N8  UNL A   1      55.233  19.695  12.032  1.00  0.00    +0.000 N 
ATOM     90  C62 UNL A   1      59.342  18.696  13.393  1.00  0.00    +0.000 C 
ATOM     91  C63 UNL A   1      59.412  19.025  14.675  1.00  0.00    +0.000 C 
ATOM     92  C64 UNL A   1      51.619  22.084  14.582  1.00  0.00    +0.000 C 
ATOM     93  C65 UNL A   1      51.422  21.612  13.360  1.00  0.00    +0.000 C 
ATOM    125  H30 UNL A   1      54.698  22.174  18.905  1.00  0.00    +0.000 H 
ATOM    126  H31 UNL A   1      57.147  21.280  18.905  1.00  0.00    +0.000 H 
ATOM    127  H32 UNL A   1      55.561  20.726  15.120  1.00  0.00    +0.000 H 
ATOM    128  H33 UNL A   1      56.118  18.432   9.190  1.00  0.00    +0.000 H 
ENDROOT
BRANCH   37   36
ATOM     33  C24 UNL A   1      49.823  20.853   8.718  1.00  0.00    +0.000 C 
ATOM     34  C25 UNL A   1      49.881  19.701   9.509  1.00  0.00    +0.000 C 
ATOM     35  C26 UNL A   1      50.870  19.578  10.489  1.00  0.00    +0.000 C 
ATOM     36  C27 UNL A   1      51.825  20.592  10.663  1.00  0.00    +0.000 C 
ATOM    135  H40 UNL A   1      52.448  22.499   9.993  1.00  0.00    +0.000 H 
ATOM    136  H41 UNL A   1      50.627  22.783   8.418  1.00  0.00    +0.000 H 
ATOM    123  H28 UNL A   1      49.195  18.943   9.369  1.00  0.00    +0.000 H 
ATOM    124  H29 UNL A   1      50.898  18.738  11.087  1.00  0.00    +0.000 H 
ATOM     94  C66 UNL A   1      51.745  21.751   9.878  1.00  0.00    +0.000 C 
ATOM     95  C67 UNL A   1      50.722  21.900   8.944  1.00  0.00    +0.000 C 
BRANCH   33   31
ATOM     31  C23 UNL A   1      48.761  20.962   7.690  1.00  0.00    +0.000 C 
ATOM     32  O3  UNL A   1      48.062  21.964   7.644  1.00  0.00    +0.000 O 
BRANCH   31   30
ATOM    122  H27 UNL A   1      48.176  19.120   7.152  1.00  0.00    +0.000 H 
ATOM     30  N4  UNL A   1      48.567  19.946   6.785  1.00  0.00    +0.000 N 
BRANCH   30   29
ATOM    121  H26 UNL A   1      49.632  19.197   5.194  1.00  0.00    +0.000 H 
ATOM     29  C22 UNL A   1      48.861  19.920   5.360  1.00  0.00    +0.000 C 
ATOM    120  H25 UNL A   1      49.175  20.896   5.054  1.00  0.00    +0.000 H 
BRANCH   29   28
ATOM     28  C21 UNL A   1      47.643  19.511   4.534  1.00  0.00    +0.000 C 
ATOM    118  H23 UNL A   1      47.885  19.638   3.500  1.00  0.00    +0.000 H 
ATOM    119  H24 UNL A   1      47.428  18.497   4.800  1.00  0.00    +0.000 H 
BRANCH   28   27
ATOM     27  C20 UNL A   1      46.365  20.309   4.825  1.00  0.00    +0.000 C 
ATOM    116  H21 UNL A   1      45.931  19.920   5.722  1.00  0.00    +0.000 H 
ATOM    117  H22 UNL A   1      46.668  21.332   4.900  1.00  0.00    +0.000 H 
BRANCH   27   26
ATOM     26  C19 UNL A   1      45.295  20.268   3.728  1.00  0.00    +0.000 C 
ATOM    115  H20 UNL A   1      45.417  21.159   3.148  1.00  0.00    +0.000 H 
ATOM    114  H19 UNL A   1      44.335  20.206   4.198  1.00  0.00    +0.000 H 
BRANCH   26   25
ATOM     25  C18 UNL A   1      45.430  19.092   2.757  1.00  0.00    +0.000 C 
ATOM    113  H18 UNL A   1      46.453  18.780   2.792  1.00  0.00    +0.000 H 
ATOM    112  H17 UNL A   1      45.130  19.423   1.785  1.00  0.00    +0.000 H 
BRANCH   25   24
ATOM    110  H15 UNL A   1      44.013  18.083   4.014  1.00  0.00    +0.000 H 
ATOM    111  H16 UNL A   1      43.918  17.637   2.323  1.00  0.00    +0.000 H 
ATOM     24  C17 UNL A   1      44.580  17.865   3.132  1.00  0.00    +0.000 C 
BRANCH   24   23
ATOM    109  H14 UNL A   1      45.726  16.214   2.591  1.00  0.00    +0.000 H 
ATOM     23  N3  UNL A   1      45.435  16.723   3.382  1.00  0.00    +0.000 N 
BRANCH   23   21
ATOM     21  C16 UNL A   1      45.888  16.268   4.601  1.00  0.00    +0.000 C 
ATOM     22  O2  UNL A   1      45.484  16.813   5.627  1.00  0.00    +0.000 O 
BRANCH   21    2
ATOM      2  C2  UNL A   1      47.019  15.262   4.750  1.00  0.00    +0.000 C 
BRANCH    2    1
ATOM      1  C1  UNL A   1      46.544  13.841   4.939  1.00  0.00    +0.000 C 
ATOM     98  H3  UNL A   1      46.759  13.524   5.938  1.00  0.00    +0.000 H 
ATOM     97  H2  UNL A   1      45.489  13.792   4.768  1.00  0.00    +0.000 H 
ATOM     96  H1  UNL A   1      47.048  13.201   4.245  1.00  0.00    +0.000 H 
ENDBRANCH    2    1
BRANCH    2    3
ATOM      3  N1  UNL A   1      48.304  15.455   4.664  1.00  0.00    +0.000 N 
BRANCH    3    4
ATOM      4  O1  UNL A   1      48.810  16.288   5.656  1.00  0.00    +0.000 O 
BRANCH    4    5
ATOM     99  H4  UNL A   1      49.980  17.859   5.097  1.00  0.00    +0.000 H 
ATOM    100  H5  UNL A   1      50.410  16.236   4.447  1.00  0.00    +0.000 H 
ATOM      5  C3  UNL A   1      50.098  16.813   5.292  1.00  0.00    +0.000 C 
BRANCH    5    6
ATOM    101  H6  UNL A   1      49.913  16.431   7.978  1.00  0.00    +0.000 H 
ATOM      6  C4  UNL A   1      51.208  16.657   6.319  1.00  0.00    +0.000 C 
ATOM      7  C5  UNL A   1      50.897  16.521   7.682  1.00  0.00    +0.000 C 
ATOM      8  C6  UNL A   1      51.912  16.509   8.640  1.00  0.00    +0.000 C 
ATOM    102  H7  UNL A   1      51.680  16.386   9.637  1.00  0.00    +0.000 H 
ATOM     10  C8  UNL A   1      53.558  16.776   6.891  1.00  0.00    +0.000 C 
ATOM     11  C9  UNL A   1      52.562  16.699   5.911  1.00  0.00    +0.000 C 
ATOM    104  H9  UNL A   1      54.541  16.918   6.609  1.00  0.00    +0.000 H 
ATOM      9  C7  UNL A   1      53.238  16.663   8.245  1.00  0.00    +0.000 C 
ATOM    103  H8  UNL A   1      53.986  16.694   8.956  1.00  0.00    +0.000 H 
BRANCH   11   12
ATOM    105  H10 UNL A   1      52.428  17.514   4.041  1.00  0.00    +0.000 H 
ATOM     12  N2  UNL A   1      52.841  16.761   4.523  1.00  0.00    +0.000 N 
BRANCH   12   13
ATOM    106  H11 UNL A   1      56.805  15.669   2.589  1.00  0.00    +0.000 H 
ATOM    107  H12 UNL A   1      55.871  13.757   1.422  1.00  0.00    +0.000 H 
ATOM    108  H13 UNL A   1      53.517  13.231   1.663  1.00  0.00    +0.000 H 
ATOM     13  C10 UNL A   1      53.632  15.892   3.731  1.00  0.00    +0.000 C 
ATOM     14  C11 UNL A   1      54.995  16.203   3.538  1.00  0.00    +0.000 C 
ATOM     15 Cl1  UNL A   1      55.723  17.569   4.318  1.00  0.00    +0.000 Cl
ATOM     16  C12 UNL A   1      55.807  15.430   2.703  1.00  0.00    +0.000 C 
ATOM     17  C13 UNL A   1      55.271  14.339   2.027  1.00  0.00    +0.000 C 
ATOM     18  C14 UNL A   1      53.919  14.035   2.171  1.00  0.00    +0.000 C 
ATOM     19  C15 UNL A   1      53.100  14.814   2.999  1.00  0.00    +0.000 C 
ATOM     20 Cl2  UNL A   1      51.416  14.418   3.031  1.00  0.00    +0.000 Cl
ENDBRANCH   12   13
ENDBRANCH   11   12
ENDBRANCH    5    6
ENDBRANCH    4    5
ENDBRANCH    3    4
ENDBRANCH    2    3
ENDBRANCH   21    2
ENDBRANCH   23   21
ENDBRANCH   24   23
ENDBRANCH   25   24
ENDBRANCH   26   25
ENDBRANCH   27   26
ENDBRANCH   28   27
ENDBRANCH   29   28
ENDBRANCH   30   29
ENDBRANCH   31   30
ENDBRANCH   33   31
ENDBRANCH   37   36
BRANCH   41   42
ATOM     42  C32 UNL A   1      52.449  22.717  17.255  1.00  0.00    +0.000 C 
ATOM     43  C33 UNL A   1      52.354  24.117  17.243  1.00  0.00    +0.000 C 
ATOM     44  F1  UNL A   1      53.133  24.839  16.423  1.00  0.00    +0.000 F 
ATOM     45  C34 UNL A   1      51.485  24.784  18.102  1.00  0.00    +0.000 C 
ATOM     46  F2  UNL A   1      51.445  26.123  18.106  1.00  0.00    +0.000 F 
ATOM     47  C35 UNL A   1      50.670  24.064  18.963  1.00  0.00    +0.000 C 
ATOM     48  F3  UNL A   1      49.828  24.708  19.785  1.00  0.00    +0.000 F 
ATOM     49  C36 UNL A   1      50.731  22.680  18.977  1.00  0.00    +0.000 C 
ATOM     50  F4  UNL A   1      49.935  21.983  19.800  1.00  0.00    +0.000 F 
ATOM     51  C37 UNL A   1      51.620  22.011  18.139  1.00  0.00    +0.000 C 
ATOM     52  F5  UNL A   1      51.666  20.671  18.186  1.00  0.00    +0.000 F 
ENDBRANCH   41   42
BRANCH   58   59
ATOM     65  F8  UNL A   1      62.282  19.535  20.001  1.00  0.00    +0.000 F 
ATOM     66  C47 UNL A   1      61.004  20.906  18.563  1.00  0.00    +0.000 C 
ATOM     67  F9  UNL A   1      61.786  21.956  18.848  1.00  0.00    +0.000 F 
ATOM     68  C48 UNL A   1      59.932  21.055  17.688  1.00  0.00    +0.000 C 
ATOM     69  F10 UNL A   1      59.699  22.262  17.152  1.00  0.00    +0.000 F 
ATOM     59  C43 UNL A   1      59.112  19.965  17.360  1.00  0.00    +0.000 C 
ATOM     60  C44 UNL A   1      59.401  18.723  17.944  1.00  0.00    +0.000 C 
ATOM     61  F6  UNL A   1      58.636  17.655  17.673  1.00  0.00    +0.000 F 
ATOM     62  C45 UNL A   1      60.458  18.584  18.839  1.00  0.00    +0.000 C 
ATOM     63  F7  UNL A   1      60.690  17.398  19.420  1.00  0.00    +0.000 F 
ATOM     64  C46 UNL A   1      61.262  19.672  19.143  1.00  0.00    +0.000 C 
ENDBRANCH   58   59
BRANCH   73   74
ATOM     74  C52 UNL A   1      58.404  18.148  10.674  1.00  0.00    +0.000 C 
ATOM     75  C53 UNL A   1      59.248  18.913   9.857  1.00  0.00    +0.000 C 
ATOM     76  F11 UNL A   1      59.227  20.251   9.941  1.00  0.00    +0.000 F 
ATOM     77  C54 UNL A   1      60.089  18.309   8.925  1.00  0.00    +0.000 C 
ATOM     78  F12 UNL A   1      60.854  19.067   8.128  1.00  0.00    +0.000 F 
ATOM     79  C55 UNL A   1      60.122  16.928   8.810  1.00  0.00    +0.000 C 
ATOM     80  F13 UNL A   1      60.934  16.348   7.917  1.00  0.00    +0.000 F 
ATOM     81  C56 UNL A   1      59.308  16.149   9.619  1.00  0.00    +0.000 C 
ATOM     82  F14 UNL A   1      59.347  14.813   9.521  1.00  0.00    +0.000 F 
ATOM     83  C57 UNL A   1      58.448  16.753  10.535  1.00  0.00    +0.000 C 
ATOM     84  F15 UNL A   1      57.665  15.977  11.298  1.00  0.00    +0.000 F 
ENDBRANCH   73   74
TORSDOF 22
ENDMDL
MODEL 5
REMARK VINA RESULT:     -10.0     38.550     44.623
ROOT
ATOM    129  H34 UNL A   1      11.376  51.657   5.046  1.00  0.00    +0.000 H 
ATOM    130  H35 UNL A   1      14.440  52.513   2.370  1.00  0.00    +0.000 H 
ATOM    131  H36 UNL A   1      15.693  57.312   3.188  1.00  0.00    +0.000 H 
ATOM    132  H37 UNL A   1      17.377  57.064   1.277  1.00  0.00    +0.000 H 
ATOM    133  H38 UNL A   1      15.005  47.347   0.332  1.00  0.00    +0.000 H 
ATOM    134  H39 UNL A   1      13.014  47.684   1.906  1.00  0.00    +0.000 H 
ATOM     37  C28 UNL A   1      12.893  50.287   3.059  1.00  0.00    +0.000 C 
ATOM     38  C29 UNL A   1      13.848  49.791   2.009  1.00  0.00    +0.000 C 
ATOM     39  N5  UNL A   1      14.815  50.429   1.400  1.00  0.00    +0.000 N 
ATOM     40  C30 UNL A   1      15.415  49.498   0.564  1.00  0.00    +0.000 C 
ATOM     41  C31 UNL A   1      16.429  49.681  -0.316  1.00  0.00    +0.000 C 
ATOM     53  C38 UNL A   1      17.085  50.942  -0.545  1.00  0.00    +0.000 C 
ATOM     54  C39 UNL A   1      18.080  51.245  -1.459  1.00  0.00    +0.000 C 
ATOM     55  C40 UNL A   1      18.431  52.589  -1.295  1.00  0.00    +0.000 C 
ATOM     56  C41 UNL A   1      17.626  53.135  -0.308  1.00  0.00    +0.000 C 
ATOM     57  N6  UNL A   1      16.808  52.112   0.146  1.00  0.00    +0.000 N 
ATOM     58  C42 UNL A   1      17.603  54.488   0.184  1.00  0.00    +0.000 C 
ATOM     70  C49 UNL A   1      16.775  54.949   1.154  1.00  0.00    +0.000 C 
ATOM     71  N7  UNL A   1      15.796  54.268   1.862  1.00  0.00    +0.000 N 
ATOM     72  C50 UNL A   1      15.279  55.140   2.693  1.00  0.00    +0.000 C 
ATOM     73  C51 UNL A   1      14.162  54.959   3.684  1.00  0.00    +0.000 C 
ATOM     85  C58 UNL A   1      13.542  53.767   3.768  1.00  0.00    +0.000 C 
ATOM     86  C59 UNL A   1      12.442  53.447   4.673  1.00  0.00    +0.000 C 
ATOM     87  C60 UNL A   1      12.109  52.155   4.517  1.00  0.00    +0.000 C 
ATOM     88  C61 UNL A   1      12.951  51.567   3.474  1.00  0.00    +0.000 C 
ATOM     89  N8  UNL A   1      13.763  52.600   3.079  1.00  0.00    +0.000 N 
ATOM     90  C62 UNL A   1      15.893  56.472   2.623  1.00  0.00    +0.000 C 
ATOM     91  C63 UNL A   1      16.772  56.313   1.643  1.00  0.00    +0.000 C 
ATOM     92  C64 UNL A   1      14.734  48.239   0.775  1.00  0.00    +0.000 C 
ATOM     93  C65 UNL A   1      13.716  48.381   1.611  1.00  0.00    +0.000 C 
ATOM    125  H30 UNL A   1      18.491  50.592  -2.144  1.00  0.00    +0.000 H 
ATOM    126  H31 UNL A   1      19.165  53.090  -1.820  1.00  0.00    +0.000 H 
ATOM    127  H32 UNL A   1      16.131  52.203   0.856  1.00  0.00    +0.000 H 
ATOM    128  H33 UNL A   1      11.994  54.105   5.328  1.00  0.00    +0.000 H 
ENDROOT
BRANCH   37   36
ATOM     33  C24 UNL A   1      10.124  47.619   4.957  1.00  0.00    +0.000 C 
ATOM     34  C25 UNL A   1       9.720  48.353   3.838  1.00  0.00    +0.000 C 
ATOM     35  C26 UNL A   1      10.625  49.206   3.199  1.00  0.00    +0.000 C 
ATOM     36  C27 UNL A   1      11.930  49.352   3.695  1.00  0.00    +0.000 C 
ATOM    135  H40 UNL A   1      13.286  48.702   5.183  1.00  0.00    +0.000 H 
ATOM    136  H41 UNL A   1      11.767  47.095   6.177  1.00  0.00    +0.000 H 
ATOM    123  H28 UNL A   1       8.754  48.267   3.483  1.00  0.00    +0.000 H 
ATOM    124  H29 UNL A   1      10.332  49.730   2.361  1.00  0.00    +0.000 H 
ATOM     94  C66 UNL A   1      12.330  48.596   4.806  1.00  0.00    +0.000 C 
ATOM     95  C67 UNL A   1      11.446  47.699   5.404  1.00  0.00    +0.000 C 
BRANCH   33   31
ATOM     31  C23 UNL A   1       9.147  46.717   5.611  1.00  0.00    +0.000 C 
ATOM     32  O3  UNL A   1       9.113  45.533   5.305  1.00  0.00    +0.000 O 
BRANCH   31   30
ATOM    122  H27 UNL A   1       7.391  46.796   6.578  1.00  0.00    +0.000 H 
ATOM     30  N4  UNL A   1       8.287  47.204   6.567  1.00  0.00    +0.000 N 
BRANCH   30   29
ATOM    121  H26 UNL A   1       9.573  48.322   7.717  1.00  0.00    +0.000 H 
ATOM     29  C22 UNL A   1       8.517  48.238   7.564  1.00  0.00    +0.000 C 
ATOM    120  H25 UNL A   1       8.017  47.963   8.469  1.00  0.00    +0.000 H 
BRANCH   29   28
ATOM     28  C21 UNL A   1       7.996  49.598   7.105  1.00  0.00    +0.000 C 
ATOM    118  H23 UNL A   1       7.411  49.450   6.222  1.00  0.00    +0.000 H 
ATOM    119  H24 UNL A   1       7.436  49.997   7.925  1.00  0.00    +0.000 H 
BRANCH   28   27
ATOM     27  C20 UNL A   1       9.083  50.635   6.787  1.00  0.00    +0.000 C 
ATOM    116  H21 UNL A   1       9.280  50.592   5.737  1.00  0.00    +0.000 H 
ATOM    117  H22 UNL A   1       8.696  51.576   7.117  1.00  0.00    +0.000 H 
BRANCH   27   26
ATOM     26  C19 UNL A   1      10.414  50.446   7.525  1.00  0.00    +0.000 C 
ATOM    115  H20 UNL A   1      11.089  49.998   6.826  1.00  0.00    +0.000 H 
ATOM    114  H19 UNL A   1      10.237  49.832   8.383  1.00  0.00    +0.000 H 
BRANCH   26   25
ATOM     25  C18 UNL A   1      11.067  51.748   7.994  1.00  0.00    +0.000 C 
ATOM    113  H18 UNL A   1      11.012  52.433   7.173  1.00  0.00    +0.000 H 
ATOM    112  H17 UNL A   1      12.073  51.532   8.286  1.00  0.00    +0.000 H 
BRANCH   25   24
ATOM    110  H15 UNL A   1       9.295  52.388   9.020  1.00  0.00    +0.000 H 
ATOM    111  H16 UNL A   1      10.601  51.896  10.079  1.00  0.00    +0.000 H 
ATOM     24  C17 UNL A   1      10.354  52.420   9.180  1.00  0.00    +0.000 C 
BRANCH   24   23
ATOM    109  H14 UNL A   1      10.396  54.433   8.653  1.00  0.00    +0.000 H 
ATOM     23  N3  UNL A   1      10.779  53.799   9.302  1.00  0.00    +0.000 N 
BRANCH   23   21
ATOM     21  C16 UNL A   1      11.657  54.326  10.224  1.00  0.00    +0.000 C 
ATOM     22  O2  UNL A   1      11.253  55.181  11.011  1.00  0.00    +0.000 O 
BRANCH   21    2
ATOM      2  C2  UNL A   1      13.154  54.062  10.196  1.00  0.00    +0.000 C 
BRANCH    2    1
ATOM      1  C1  UNL A   1      13.870  54.756   9.062  1.00  0.00    +0.000 C 
ATOM     98  H3  UNL A   1      13.334  55.642   8.792  1.00  0.00    +0.000 H 
ATOM     97  H2  UNL A   1      14.860  55.017   9.371  1.00  0.00    +0.000 H 
ATOM     96  H1  UNL A   1      13.921  54.100   8.218  1.00  0.00    +0.000 H 
ENDBRANCH    2    1
BRANCH    2    3
ATOM      3  N1  UNL A   1      13.885  53.394  11.042  1.00  0.00    +0.000 N 
BRANCH    3    4
ATOM      4  O1  UNL A   1      13.455  52.087  11.241  1.00  0.00    +0.000 O 
BRANCH    4    5
ATOM     99  H4  UNL A   1      13.854  51.755   9.271  1.00  0.00    +0.000 H 
ATOM    100  H5  UNL A   1      13.299  50.350  10.250  1.00  0.00    +0.000 H 
ATOM      5  C3  UNL A   1      13.921  51.218  10.195  1.00  0.00    +0.000 C 
BRANCH    5    6
ATOM    101  H6  UNL A   1      15.496  51.068  12.406  1.00  0.00    +0.000 H 
ATOM      6  C4  UNL A   1      15.345  50.703  10.327  1.00  0.00    +0.000 C 
ATOM      7  C5  UNL A   1      16.008  50.763  11.564  1.00  0.00    +0.000 C 
ATOM      8  C6  UNL A   1      17.355  50.413  11.661  1.00  0.00    +0.000 C 
ATOM    102  H7  UNL A   1      17.831  50.436  12.576  1.00  0.00    +0.000 H 
ATOM     10  C8  UNL A   1      17.400  49.948   9.290  1.00  0.00    +0.000 C 
ATOM     11  C9  UNL A   1      16.028  50.207   9.191  1.00  0.00    +0.000 C 
ATOM    104  H9  UNL A   1      17.933  49.692   8.444  1.00  0.00    +0.000 H 
ATOM      9  C7  UNL A   1      18.056  50.032  10.520  1.00  0.00    +0.000 C 
ATOM    103  H8  UNL A   1      19.062  49.811  10.584  1.00  0.00    +0.000 H 
BRANCH   11   12
ATOM    105  H10 UNL A   1      14.544  50.703   7.876  1.00  0.00    +0.000 H 
ATOM     12  N2  UNL A   1      15.308  50.090   7.976  1.00  0.00    +0.000 N 
BRANCH   12   13
ATOM    106  H11 UNL A   1      16.352  49.388   3.610  1.00  0.00    +0.000 H 
ATOM    107  H12 UNL A   1      15.968  46.997   3.755  1.00  0.00    +0.000 H 
ATOM    108  H13 UNL A   1      15.253  46.017   5.854  1.00  0.00    +0.000 H 
ATOM     13  C10 UNL A   1      15.534  49.215   6.885  1.00  0.00    +0.000 C 
ATOM     14  C11 UNL A   1      15.906  49.767   5.640  1.00  0.00    +0.000 C 
ATOM     15 Cl1  UNL A   1      16.171  51.470   5.455  1.00  0.00    +0.000 Cl
ATOM     16  C12 UNL A   1      16.065  48.964   4.506  1.00  0.00    +0.000 C 
ATOM     17  C13 UNL A   1      15.836  47.594   4.586  1.00  0.00    +0.000 C 
ATOM     18  C14 UNL A   1      15.431  47.032   5.795  1.00  0.00    +0.000 C 
ATOM     19  C15 UNL A   1      15.261  47.835   6.930  1.00  0.00    +0.000 C 
ATOM     20 Cl2  UNL A   1      14.657  47.061   8.354  1.00  0.00    +0.000 Cl
ENDBRANCH   12   13
ENDBRANCH   11   12
ENDBRANCH    5    6
ENDBRANCH    4    5
ENDBRANCH    3    4
ENDBRANCH    2    3
ENDBRANCH   21    2
ENDBRANCH   23   21
ENDBRANCH   24   23
ENDBRANCH   25   24
ENDBRANCH   26   25
ENDBRANCH   27   26
ENDBRANCH   28   27
ENDBRANCH   29   28
ENDBRANCH   30   29
ENDBRANCH   31   30
ENDBRANCH   33   31
ENDBRANCH   37   36
BRANCH   41   42
ATOM     42  C32 UNL A   1      16.892  48.488  -1.100  1.00  0.00    +0.000 C 
ATOM     43  C33 UNL A   1      16.222  48.068  -2.260  1.00  0.00    +0.000 C 
ATOM     44  F1  UNL A   1      15.115  48.707  -2.669  1.00  0.00    +0.000 F 
ATOM     45  C34 UNL A   1      16.666  46.964  -2.983  1.00  0.00    +0.000 C 
ATOM     46  F2  UNL A   1      15.984  46.553  -4.061  1.00  0.00    +0.000 F 
ATOM     47  C35 UNL A   1      17.805  46.282  -2.583  1.00  0.00    +0.000 C 
ATOM     48  F3  UNL A   1      18.234  45.223  -3.285  1.00  0.00    +0.000 F 
ATOM     49  C36 UNL A   1      18.494  46.692  -1.453  1.00  0.00    +0.000 C 
ATOM     50  F4  UNL A   1      19.602  46.041  -1.072  1.00  0.00    +0.000 F 
ATOM     51  C37 UNL A   1      18.037  47.779  -0.710  1.00  0.00    +0.000 C 
ATOM     52  F5  UNL A   1      18.719  48.143   0.387  1.00  0.00    +0.000 F 
ENDBRANCH   41   42
BRANCH   58   59
ATOM     65  F8  UNL A   1      21.190  58.132  -2.214  1.00  0.00    +0.000 F 
ATOM     66  C47 UNL A   1      19.202  56.861  -2.321  1.00  0.00    +0.000 C 
ATOM     67  F9  UNL A   1      18.960  57.318  -3.558  1.00  0.00    +0.000 F 
ATOM     68  C48 UNL A   1      18.308  55.980  -1.719  1.00  0.00    +0.000 C 
ATOM     69  F10 UNL A   1      17.209  55.613  -2.395  1.00  0.00    +0.000 F 
ATOM     59  C43 UNL A   1      18.551  55.473  -0.434  1.00  0.00    +0.000 C 
ATOM     60  C44 UNL A   1      19.717  55.884   0.228  1.00  0.00    +0.000 C 
ATOM     61  F6  UNL A   1      19.984  55.438   1.465  1.00  0.00    +0.000 F 
ATOM     62  C45 UNL A   1      20.595  56.786  -0.367  1.00  0.00    +0.000 C 
ATOM     63  F7  UNL A   1      21.681  57.200   0.301  1.00  0.00    +0.000 F 
ATOM     64  C46 UNL A   1      20.341  57.268  -1.642  1.00  0.00    +0.000 C 
ENDBRANCH   58   59
BRANCH   73   74
ATOM     74  C52 UNL A   1      13.716  56.087   4.541  1.00  0.00    +0.000 C 
ATOM     75  C53 UNL A   1      12.617  56.875   4.176  1.00  0.00    +0.000 C 
ATOM     76  F11 UNL A   1      11.970  56.628   3.027  1.00  0.00    +0.000 F 
ATOM     77  C54 UNL A   1      12.200  57.942   4.968  1.00  0.00    +0.000 C 
ATOM     78  F12 UNL A   1      11.172  58.705   4.574  1.00  0.00    +0.000 F 
ATOM     79  C55 UNL A   1      12.859  58.225   6.155  1.00  0.00    +0.000 C 
ATOM     80  F13 UNL A   1      12.456  59.248   6.919  1.00  0.00    +0.000 F 
ATOM     81  C56 UNL A   1      13.940  57.449   6.546  1.00  0.00    +0.000 C 
ATOM     82  F14 UNL A   1      14.570  57.711   7.699  1.00  0.00    +0.000 F 
ATOM     83  C57 UNL A   1      14.373  56.397   5.742  1.00  0.00    +0.000 C 
ATOM     84  F15 UNL A   1      15.427  55.668   6.138  1.00  0.00    +0.000 F 
ENDBRANCH   73   74
TORSDOF 22
ENDMDL
MODEL 6
REMARK VINA RESULT:      -9.9     19.501     23.973
ROOT
ATOM    129  H34 UNL A   1      50.825  21.326  12.482  1.00  0.00    +0.000 H 
ATOM    130  H35 UNL A   1      54.598  20.550  14.046  1.00  0.00    +0.000 H 
ATOM    131  H36 UNL A   1      54.549  22.352  18.738  1.00  0.00    +0.000 H 
ATOM    132  H37 UNL A   1      56.998  21.626  18.904  1.00  0.00    +0.000 H 
ATOM    133  H38 UNL A   1      56.530  17.627   9.700  1.00  0.00    +0.000 H 
ATOM    134  H39 UNL A   1      54.252  18.737   9.338  1.00  0.00    +0.000 H 
ATOM     37  C28 UNL A   1      53.236  20.052  11.654  1.00  0.00    +0.000 C 
ATOM     38  C29 UNL A   1      54.585  19.409  11.478  1.00  0.00    +0.000 C 
ATOM     39  N5  UNL A   1      55.575  19.315  12.330  1.00  0.00    +0.000 N 
ATOM     40  C30 UNL A   1      56.563  18.587  11.681  1.00  0.00    +0.000 C 
ATOM     41  C31 UNL A   1      57.804  18.266  12.122  1.00  0.00    +0.000 C 
ATOM     53  C38 UNL A   1      58.333  18.653  13.404  1.00  0.00    +0.000 C 
ATOM     54  C39 UNL A   1      59.599  18.432  13.917  1.00  0.00    +0.000 C 
ATOM     55  C40 UNL A   1      59.644  18.957  15.213  1.00  0.00    +0.000 C 
ATOM     56  C41 UNL A   1      58.420  19.544  15.491  1.00  0.00    +0.000 C 
ATOM     57  N6  UNL A   1      57.623  19.345  14.374  1.00  0.00    +0.000 N 
ATOM     58  C42 UNL A   1      58.006  20.234  16.685  1.00  0.00    +0.000 C 
ATOM     70  C49 UNL A   1      56.785  20.790  16.879  1.00  0.00    +0.000 C 
ATOM     71  N7  UNL A   1      55.699  20.834  16.016  1.00  0.00    +0.000 N 
ATOM     72  C50 UNL A   1      54.751  21.468  16.661  1.00  0.00    +0.000 C 
ATOM     73  C51 UNL A   1      53.365  21.827  16.199  1.00  0.00    +0.000 C 
ATOM     85  C58 UNL A   1      52.983  21.505  14.948  1.00  0.00    +0.000 C 
ATOM     86  C59 UNL A   1      51.678  21.793  14.361  1.00  0.00    +0.000 C 
ATOM     87  C60 UNL A   1      51.636  21.285  13.118  1.00  0.00    +0.000 C 
ATOM     88  C61 UNL A   1      52.926  20.664  12.811  1.00  0.00    +0.000 C 
ATOM     89  N8  UNL A   1      53.666  20.853  13.951  1.00  0.00    +0.000 N 
ATOM     90  C62 UNL A   1      55.121  21.876  18.023  1.00  0.00    +0.000 C 
ATOM     91  C63 UNL A   1      56.382  21.473  18.091  1.00  0.00    +0.000 C 
ATOM     92  C64 UNL A   1      56.039  18.226  10.382  1.00  0.00    +0.000 C 
ATOM     93  C65 UNL A   1      54.844  18.764  10.182  1.00  0.00    +0.000 C 
ATOM    125  H30 UNL A   1      60.377  17.960  13.429  1.00  0.00    +0.000 H 
ATOM    126  H31 UNL A   1      60.452  18.916  15.854  1.00  0.00    +0.000 H 
ATOM    127  H32 UNL A   1      56.692  19.651  14.283  1.00  0.00    +0.000 H 
ATOM    128  H33 UNL A   1      50.912  22.304  14.825  1.00  0.00    +0.000 H 
ENDROOT
BRANCH   37   36
ATOM     33  C24 UNL A   1      50.244  19.739   8.598  1.00  0.00    +0.000 C 
ATOM     34  C25 UNL A   1      50.911  20.953   8.791  1.00  0.00    +0.000 C 
ATOM     35  C26 UNL A   1      51.905  21.055   9.768  1.00  0.00    +0.000 C 
ATOM     36  C27 UNL A   1      52.216  19.951  10.579  1.00  0.00    +0.000 C 
ATOM    135  H40 UNL A   1      51.772  17.919  10.959  1.00  0.00    +0.000 H 
ATOM    136  H41 UNL A   1      50.176  17.701   9.147  1.00  0.00    +0.000 H 
ATOM    123  H28 UNL A   1      50.669  21.773   8.213  1.00  0.00    +0.000 H 
ATOM    124  H29 UNL A   1      52.411  21.944   9.895  1.00  0.00    +0.000 H 
ATOM     94  C66 UNL A   1      51.556  18.734  10.363  1.00  0.00    +0.000 C 
ATOM     95  C67 UNL A   1      50.609  18.616   9.347  1.00  0.00    +0.000 C 
BRANCH   33   31
ATOM     31  C23 UNL A   1      49.199  19.655   7.550  1.00  0.00    +0.000 C 
ATOM     32  O3  UNL A   1      48.056  20.010   7.804  1.00  0.00    +0.000 O 
BRANCH   31   30
ATOM    122  H27 UNL A   1      49.097  18.334   6.045  1.00  0.00    +0.000 H 
ATOM     30  N4  UNL A   1      49.513  19.191   6.295  1.00  0.00    +0.000 N 
BRANCH   30   29
ATOM    121  H26 UNL A   1      50.220  20.846   5.304  1.00  0.00    +0.000 H 
ATOM     29  C22 UNL A   1      50.373  19.788   5.286  1.00  0.00    +0.000 C 
ATOM    120  H25 UNL A   1      50.121  19.378   4.330  1.00  0.00    +0.000 H 
BRANCH   29   28
ATOM     28  C21 UNL A   1      51.851  19.518   5.564  1.00  0.00    +0.000 C 
ATOM    118  H23 UNL A   1      52.359  20.459   5.600  1.00  0.00    +0.000 H 
ATOM    119  H24 UNL A   1      51.888  18.980   6.488  1.00  0.00    +0.000 H 
BRANCH   28   27
ATOM     27  C20 UNL A   1      52.555  18.635   4.526  1.00  0.00    +0.000 C 
ATOM    116  H21 UNL A   1      52.021  18.722   3.603  1.00  0.00    +0.000 H 
ATOM    117  H22 UNL A   1      53.564  18.988   4.476  1.00  0.00    +0.000 H 
BRANCH   27   26
ATOM     26  C19 UNL A   1      52.649  17.146   4.878  1.00  0.00    +0.000 C 
ATOM    115  H20 UNL A   1      53.671  16.862   4.735  1.00  0.00    +0.000 H 
ATOM    114  H19 UNL A   1      51.975  16.608   4.243  1.00  0.00    +0.000 H 
BRANCH   26   25
ATOM     25  C18 UNL A   1      52.302  16.817   6.333  1.00  0.00    +0.000 C 
ATOM    113  H18 UNL A   1      52.092  17.748   6.816  1.00  0.00    +0.000 H 
ATOM    112  H17 UNL A   1      53.133  16.302   6.767  1.00  0.00    +0.000 H 
BRANCH   25   24
ATOM    110  H15 UNL A   1      51.340  14.908   6.513  1.00  0.00    +0.000 H 
ATOM    111  H16 UNL A   1      50.563  16.192   7.417  1.00  0.00    +0.000 H 
ATOM     24  C17 UNL A   1      51.050  15.939   6.498  1.00  0.00    +0.000 C 
BRANCH   24   23
ATOM    109  H14 UNL A   1      49.999  17.100   5.127  1.00  0.00    +0.000 H 
ATOM     23  N3  UNL A   1      50.133  16.163   5.399  1.00  0.00    +0.000 N 
BRANCH   23   21
ATOM     21  C16 UNL A   1      49.429  15.215   4.689  1.00  0.00    +0.000 C 
ATOM     22  O2  UNL A   1      50.047  14.309   4.132  1.00  0.00    +0.000 O 
BRANCH   21    2
ATOM      2  C2  UNL A   1      47.945  15.334   4.380  1.00  0.00    +0.000 C 
BRANCH    2    1
ATOM      1  C1  UNL A   1      47.122  14.185   4.912  1.00  0.00    +0.000 C 
ATOM     98  H3  UNL A   1      47.774  13.411   5.259  1.00  0.00    +0.000 H 
ATOM     97  H2  UNL A   1      46.512  14.528   5.722  1.00  0.00    +0.000 H 
ATOM     96  H1  UNL A   1      46.498  13.802   4.132  1.00  0.00    +0.000 H 
ENDBRANCH    2    1
BRANCH    2    3
ATOM      3  N1  UNL A   1      47.305  16.307   3.797  1.00  0.00    +0.000 N 
BRANCH    3    4
ATOM      4  O1  UNL A   1      45.975  16.012   3.518  1.00  0.00    +0.000 O 
BRANCH    4    5
ATOM     99  H4  UNL A   1      45.210  16.649   5.295  1.00  0.00    +0.000 H 
ATOM    100  H5  UNL A   1      44.109  16.657   3.871  1.00  0.00    +0.000 H 
ATOM      5  C3  UNL A   1      45.084  16.867   4.255  1.00  0.00    +0.000 C 
BRANCH    5    6
ATOM    101  H6  UNL A   1      47.132  18.452   5.084  1.00  0.00    +0.000 H 
ATOM      6  C4  UNL A   1      45.276  18.364   4.071  1.00  0.00    +0.000 C 
ATOM      7  C5  UNL A   1      46.392  19.009   4.630  1.00  0.00    +0.000 C 
ATOM      8  C6  UNL A   1      46.504  20.399   4.576  1.00  0.00    +0.000 C 
ATOM    102  H7  UNL A   1      47.337  20.865   4.967  1.00  0.00    +0.000 H 
ATOM     10  C8  UNL A   1      44.389  20.520   3.413  1.00  0.00    +0.000 C 
ATOM     11  C9  UNL A   1      44.304  19.123   3.378  1.00  0.00    +0.000 C 
ATOM    104  H9  UNL A   1      43.629  21.088   3.008  1.00  0.00    +0.000 H 
ATOM      9  C7  UNL A   1      45.491  21.154   3.991  1.00  0.00    +0.000 C 
ATOM    103  H8  UNL A   1      45.555  22.184   3.986  1.00  0.00    +0.000 H 
BRANCH   11   12
ATOM    105  H10 UNL A   1      43.455  17.551   2.385  1.00  0.00    +0.000 H 
ATOM     12  N2  UNL A   1      43.230  18.433   2.762  1.00  0.00    +0.000 N 
BRANCH   12   13
ATOM    106  H11 UNL A   1      38.895  18.331   4.117  1.00  0.00    +0.000 H 
ATOM    107  H12 UNL A   1      38.125  19.644   2.227  1.00  0.00    +0.000 H 
ATOM    108  H13 UNL A   1      39.711  20.390   0.552  1.00  0.00    +0.000 H 
ATOM     13  C10 UNL A   1      41.880  18.833   2.613  1.00  0.00    +0.000 C 
ATOM     14  C11 UNL A   1      40.929  18.373   3.549  1.00  0.00    +0.000 C 
ATOM     15 Cl1  UNL A   1      41.403  17.409   4.910  1.00  0.00    +0.000 Cl
ATOM     16  C12 UNL A   1      39.570  18.667   3.411  1.00  0.00    +0.000 C 
ATOM     17  C13 UNL A   1      39.126  19.412   2.323  1.00  0.00    +0.000 C 
ATOM     18  C14 UNL A   1      40.040  19.844   1.365  1.00  0.00    +0.000 C 
ATOM     19  C15 UNL A   1      41.402  19.542   1.495  1.00  0.00    +0.000 C 
ATOM     20 Cl2  UNL A   1      42.440  20.036   0.202  1.00  0.00    +0.000 Cl
ENDBRANCH   12   13
ENDBRANCH   11   12
ENDBRANCH    5    6
ENDBRANCH    4    5
ENDBRANCH    3    4
ENDBRANCH    2    3
ENDBRANCH   21    2
ENDBRANCH   23   21
ENDBRANCH   24   23
ENDBRANCH   25   24
ENDBRANCH   26   25
ENDBRANCH   27   26
ENDBRANCH   28   27
ENDBRANCH   29   28
ENDBRANCH   30   29
ENDBRANCH   31   30
ENDBRANCH   33   31
ENDBRANCH   37   36
BRANCH   41   42
ATOM     42  C32 UNL A   1      58.677  17.458  11.208  1.00  0.00    +0.000 C 
ATOM     43  C33 UNL A   1      58.691  16.055  11.257  1.00  0.00    +0.000 C 
ATOM     44  F1  UNL A   1      57.946  15.404  12.164  1.00  0.00    +0.000 F 
ATOM     45  C34 UNL A   1      59.500  15.316  10.398  1.00  0.00    +0.000 C 
ATOM     46  F2  UNL A   1      59.531  13.980  10.494  1.00  0.00    +0.000 F 
ATOM     47  C35 UNL A   1      60.282  15.961   9.452  1.00  0.00    +0.000 C 
ATOM     48  F3  UNL A   1      61.056  15.247   8.622  1.00  0.00    +0.000 F 
ATOM     49  C36 UNL A   1      60.269  17.345   9.372  1.00  0.00    +0.000 C 
ATOM     50  F4  UNL A   1      61.015  17.969   8.450  1.00  0.00    +0.000 F 
ATOM     51  C37 UNL A   1      59.482  18.089  10.248  1.00  0.00    +0.000 C 
ATOM     52  F5  UNL A   1      59.501  19.427  10.154  1.00  0.00    +0.000 F 
ENDBRANCH   41   42
BRANCH   58   59
ATOM     65  F8  UNL A   1      61.838  20.758  20.800  1.00  0.00    +0.000 F 
ATOM     66  C47 UNL A   1      60.687  21.686  18.958  1.00  0.00    +0.000 C 
ATOM     67  F9  UNL A   1      61.379  22.827  19.083  1.00  0.00    +0.000 F 
ATOM     68  C48 UNL A   1      59.726  21.561  17.959  1.00  0.00    +0.000 C 
ATOM     69  F10 UNL A   1      59.507  22.602  17.141  1.00  0.00    +0.000 F 
ATOM     59  C43 UNL A   1      59.005  20.369  17.796  1.00  0.00    +0.000 C 
ATOM     60  C44 UNL A   1      59.276  19.310  18.673  1.00  0.00    +0.000 C 
ATOM     61  F6  UNL A   1      58.600  18.155  18.567  1.00  0.00    +0.000 F 
ATOM     62  C45 UNL A   1      60.218  19.447  19.689  1.00  0.00    +0.000 C 
ATOM     63  F7  UNL A   1      60.430  18.436  20.544  1.00  0.00    +0.000 F 
ATOM     64  C46 UNL A   1      60.927  20.630  19.826  1.00  0.00    +0.000 C 
ENDBRANCH   58   59
BRANCH   73   74
ATOM     74  C52 UNL A   1      52.431  22.558  17.092  1.00  0.00    +0.000 C 
ATOM     75  C53 UNL A   1      52.321  23.954  17.027  1.00  0.00    +0.000 C 
ATOM     76  F11 UNL A   1      53.084  24.645  16.166  1.00  0.00    +0.000 F 
ATOM     77  C54 UNL A   1      51.457  24.649  17.869  1.00  0.00    +0.000 C 
ATOM     78  F12 UNL A   1      51.402  25.986  17.813  1.00  0.00    +0.000 F 
ATOM     79  C55 UNL A   1      50.666  23.959  18.775  1.00  0.00    +0.000 C 
ATOM     80  F13 UNL A   1      49.832  24.627  19.583  1.00  0.00    +0.000 F 
ATOM     81  C56 UNL A   1      50.745  22.577  18.848  1.00  0.00    +0.000 C 
ATOM     82  F14 UNL A   1      49.973  21.906  19.713  1.00  0.00    +0.000 F 
ATOM     83  C57 UNL A   1      51.628  21.883  18.022  1.00  0.00    +0.000 C 
ATOM     84  F15 UNL A   1      51.692  20.547  18.119  1.00  0.00    +0.000 F 
ENDBRANCH   73   74
TORSDOF 22
ENDMDL
MODEL 7
REMARK VINA RESULT:      -9.9     19.164     23.576
ROOT
ATOM    129  H34 UNL A   1      50.841  21.182  12.476  1.00  0.00    +0.000 H 
ATOM    130  H35 UNL A   1      54.620  20.451  14.046  1.00  0.00    +0.000 H 
ATOM    131  H36 UNL A   1      54.572  22.338  18.705  1.00  0.00    +0.000 H 
ATOM    132  H37 UNL A   1      57.025  21.626  18.880  1.00  0.00    +0.000 H 
ATOM    133  H38 UNL A   1      56.556  17.457   9.751  1.00  0.00    +0.000 H 
ATOM    134  H39 UNL A   1      54.272  18.551   9.373  1.00  0.00    +0.000 H 
ATOM     37  C28 UNL A   1      53.256  19.904  11.666  1.00  0.00    +0.000 C 
ATOM     38  C29 UNL A   1      54.606  19.264  11.500  1.00  0.00    +0.000 C 
ATOM     39  N5  UNL A   1      55.598  19.189  12.352  1.00  0.00    +0.000 N 
ATOM     40  C30 UNL A   1      56.588  18.453  11.714  1.00  0.00    +0.000 C 
ATOM     41  C31 UNL A   1      57.831  18.146  12.159  1.00  0.00    +0.000 C 
ATOM     53  C38 UNL A   1      58.361  18.559  13.432  1.00  0.00    +0.000 C 
ATOM     54  C39 UNL A   1      59.630  18.351  13.947  1.00  0.00    +0.000 C 
ATOM     55  C40 UNL A   1      59.675  18.901  15.233  1.00  0.00    +0.000 C 
ATOM     56  C41 UNL A   1      58.448  19.487  15.502  1.00  0.00    +0.000 C 
ATOM     57  N6  UNL A   1      57.651  19.265  14.390  1.00  0.00    +0.000 N 
ATOM     58  C42 UNL A   1      58.034  20.197  16.684  1.00  0.00    +0.000 C 
ATOM     70  C49 UNL A   1      56.810  20.752  16.870  1.00  0.00    +0.000 C 
ATOM     71  N7  UNL A   1      55.723  20.776  16.009  1.00  0.00    +0.000 N 
ATOM     72  C50 UNL A   1      54.774  21.417  16.644  1.00  0.00    +0.000 C 
ATOM     73  C51 UNL A   1      53.385  21.762  16.178  1.00  0.00    +0.000 C 
ATOM     85  C58 UNL A   1      53.002  21.416  14.934  1.00  0.00    +0.000 C 
ATOM     86  C59 UNL A   1      51.695  21.688  14.344  1.00  0.00    +0.000 C 
ATOM     87  C60 UNL A   1      51.653  21.156  13.111  1.00  0.00    +0.000 C 
ATOM     88  C61 UNL A   1      52.944  20.536  12.813  1.00  0.00    +0.000 C 
ATOM     89  N8  UNL A   1      53.686  20.749  13.948  1.00  0.00    +0.000 N 
ATOM     90  C62 UNL A   1      55.145  21.852  17.997  1.00  0.00    +0.000 C 
ATOM     91  C63 UNL A   1      56.408  21.456  18.071  1.00  0.00    +0.000 C 
ATOM     92  C64 UNL A   1      56.063  18.066  10.423  1.00  0.00    +0.000 C 
ATOM     93  C65 UNL A   1      54.866  18.596  10.215  1.00  0.00    +0.000 C 
ATOM    125  H30 UNL A   1      60.408  17.875  13.466  1.00  0.00    +0.000 H 
ATOM    126  H31 UNL A   1      60.484  18.875  15.873  1.00  0.00    +0.000 H 
ATOM    127  H32 UNL A   1      56.718  19.565  14.296  1.00  0.00    +0.000 H 
ATOM    128  H33 UNL A   1      50.928  22.204  14.800  1.00  0.00    +0.000 H 
ENDROOT
BRANCH   37   36
ATOM     33  C24 UNL A   1      50.354  19.561   8.527  1.00  0.00    +0.000 C 
ATOM     34  C25 UNL A   1      50.547  18.494   9.410  1.00  0.00    +0.000 C 
ATOM     35  C26 UNL A   1      51.472  18.608  10.451  1.00  0.00    +0.000 C 
ATOM     36  C27 UNL A   1      52.234  19.779  10.596  1.00  0.00    +0.000 C 
ATOM    135  H40 UNL A   1      52.579  21.712   9.810  1.00  0.00    +0.000 H 
ATOM    136  H41 UNL A   1      50.848  21.573   8.118  1.00  0.00    +0.000 H 
ATOM    123  H28 UNL A   1      50.006  17.622   9.294  1.00  0.00    +0.000 H 
ATOM    124  H29 UNL A   1      51.597  17.829  11.115  1.00  0.00    +0.000 H 
ATOM     94  C66 UNL A   1      52.018  20.850   9.717  1.00  0.00    +0.000 C 
ATOM     95  C67 UNL A   1      51.050  20.758   8.718  1.00  0.00    +0.000 C 
BRANCH   33   31
ATOM     31  C23 UNL A   1      49.361  19.417   7.437  1.00  0.00    +0.000 C 
ATOM     32  O3  UNL A   1      48.187  19.690   7.644  1.00  0.00    +0.000 O 
BRANCH   31   30
ATOM    122  H27 UNL A   1      49.872  19.695   5.517  1.00  0.00    +0.000 H 
ATOM     30  N4  UNL A   1      49.758  18.988   6.192  1.00  0.00    +0.000 N 
BRANCH   30   29
ATOM    121  H26 UNL A   1      50.149  17.011   6.594  1.00  0.00    +0.000 H 
ATOM     29  C22 UNL A   1      50.031  17.635   5.734  1.00  0.00    +0.000 C 
ATOM    120  H25 UNL A   1      50.920  17.644   5.139  1.00  0.00    +0.000 H 
BRANCH   29   28
ATOM     28  C21 UNL A   1      48.883  17.073   4.897  1.00  0.00    +0.000 C 
ATOM    118  H23 UNL A   1      48.379  17.894   4.431  1.00  0.00    +0.000 H 
ATOM    119  H24 UNL A   1      49.326  16.394   4.198  1.00  0.00    +0.000 H 
BRANCH   28   27
ATOM     27  C20 UNL A   1      47.845  16.261   5.683  1.00  0.00    +0.000 C 
ATOM    116  H21 UNL A   1      47.587  15.404   5.098  1.00  0.00    +0.000 H 
ATOM    117  H22 UNL A   1      48.305  16.024   6.619  1.00  0.00    +0.000 H 
BRANCH   27   26
ATOM     26  C19 UNL A   1      46.548  17.004   6.028  1.00  0.00    +0.000 C 
ATOM    115  H20 UNL A   1      46.566  17.921   5.478  1.00  0.00    +0.000 H 
ATOM    114  H19 UNL A   1      46.521  17.154   7.088  1.00  0.00    +0.000 H 
BRANCH   26   25
ATOM     25  C18 UNL A   1      45.270  16.269   5.615  1.00  0.00    +0.000 C 
ATOM    113  H18 UNL A   1      44.936  16.721   4.704  1.00  0.00    +0.000 H 
ATOM    112  H17 UNL A   1      44.558  16.362   6.409  1.00  0.00    +0.000 H 
BRANCH   25   24
ATOM    110  H15 UNL A   1      45.684  14.642   4.280  1.00  0.00    +0.000 H 
ATOM    111  H16 UNL A   1      46.287  14.407   5.908  1.00  0.00    +0.000 H 
ATOM     24  C17 UNL A   1      45.471  14.772   5.321  1.00  0.00    +0.000 C 
BRANCH   24   23
ATOM    109  H14 UNL A   1      44.147  13.171   5.201  1.00  0.00    +0.000 H 
ATOM     23  N3  UNL A   1      44.273  14.032   5.661  1.00  0.00    +0.000 N 
BRANCH   23   21
ATOM     21  C16 UNL A   1      43.290  14.395   6.556  1.00  0.00    +0.000 C 
ATOM     22  O2  UNL A   1      43.180  13.765   7.607  1.00  0.00    +0.000 O 
BRANCH   21    2
ATOM      2  C2  UNL A   1      42.197  15.401   6.234  1.00  0.00    +0.000 C 
BRANCH    2    1
ATOM      1  C1  UNL A   1      41.291  15.707   7.403  1.00  0.00    +0.000 C 
ATOM     98  H3  UNL A   1      41.538  15.064   8.222  1.00  0.00    +0.000 H 
ATOM     97  H2  UNL A   1      41.422  16.728   7.698  1.00  0.00    +0.000 H 
ATOM     96  H1  UNL A   1      40.273  15.545   7.117  1.00  0.00    +0.000 H 
ENDBRANCH    2    1
BRANCH    2    3
ATOM      3  N1  UNL A   1      41.994  16.066   5.132  1.00  0.00    +0.000 N 
BRANCH    3    4
ATOM      4  O1  UNL A   1      41.678  17.404   5.338  1.00  0.00    +0.000 O 
BRANCH    4    5
ATOM     99  H4  UNL A   1      40.300  18.631   4.476  1.00  0.00    +0.000 H 
ATOM    100  H5  UNL A   1      40.794  17.167   3.553  1.00  0.00    +0.000 H 
ATOM      5  C3  UNL A   1      41.098  17.992   4.161  1.00  0.00    +0.000 C 
BRANCH    5    6
ATOM    101  H6  UNL A   1      43.753  18.494   4.473  1.00  0.00    +0.000 H 
ATOM      6  C4  UNL A   1      42.030  18.815   3.286  1.00  0.00    +0.000 C 
ATOM      7  C5  UNL A   1      43.373  18.997   3.657  1.00  0.00    +0.000 C 
ATOM      8  C6  UNL A   1      44.196  19.857   2.928  1.00  0.00    +0.000 C 
ATOM    102  H7  UNL A   1      45.187  19.970   3.191  1.00  0.00    +0.000 H 
ATOM     10  C8  UNL A   1      42.349  20.369   1.456  1.00  0.00    +0.000 C 
ATOM     11  C9  UNL A   1      41.535  19.443   2.119  1.00  0.00    +0.000 C 
ATOM    104  H9  UNL A   1      41.964  20.916   0.670  1.00  0.00    +0.000 H 
ATOM      9  C7  UNL A   1      43.676  20.561   1.845  1.00  0.00    +0.000 C 
ATOM    103  H8  UNL A   1      44.273  21.227   1.330  1.00  0.00    +0.000 H 
BRANCH   11   12
ATOM    105  H10 UNL A   1      39.896  18.250   1.860  1.00  0.00    +0.000 H 
ATOM     12  N2  UNL A   1      40.197  19.178   1.732  1.00  0.00    +0.000 N 
BRANCH   12   13
ATOM    106  H11 UNL A   1      36.509  21.790   2.193  1.00  0.00    +0.000 H 
ATOM    107  H12 UNL A   1      36.402  22.304  -0.176  1.00  0.00    +0.000 H 
ATOM    108  H13 UNL A   1      38.041  21.355  -1.690  1.00  0.00    +0.000 H 
ATOM     13  C10 UNL A   1      39.234  20.062   1.187  1.00  0.00    +0.000 C 
ATOM     14  C11 UNL A   1      38.240  20.590   2.040  1.00  0.00    +0.000 C 
ATOM     15 Cl1  UNL A   1      38.238  20.244   3.739  1.00  0.00    +0.000 Cl
ATOM     16  C12 UNL A   1      37.215  21.403   1.547  1.00  0.00    +0.000 C 
ATOM     17  C13 UNL A   1      37.148  21.691   0.188  1.00  0.00    +0.000 C 
ATOM     18  C14 UNL A   1      38.095  21.149  -0.679  1.00  0.00    +0.000 C 
ATOM     19  C15 UNL A   1      39.117  20.326  -0.190  1.00  0.00    +0.000 C 
ATOM     20 Cl2  UNL A   1      40.181  19.621  -1.358  1.00  0.00    +0.000 Cl
ENDBRANCH   12   13
ENDBRANCH   11   12
ENDBRANCH    5    6
ENDBRANCH    4    5
ENDBRANCH    3    4
ENDBRANCH    2    3
ENDBRANCH   21    2
ENDBRANCH   23   21
ENDBRANCH   24   23
ENDBRANCH   25   24
ENDBRANCH   26   25
ENDBRANCH   27   26
ENDBRANCH   28   27
ENDBRANCH   29   28
ENDBRANCH   30   29
ENDBRANCH   31   30
ENDBRANCH   33   31
ENDBRANCH   37   36
BRANCH   41   42
ATOM     42  C32 UNL A   1      58.706  17.324  11.258  1.00  0.00    +0.000 C 
ATOM     43  C33 UNL A   1      58.723  15.923  11.330  1.00  0.00    +0.000 C 
ATOM     44  F1  UNL A   1      57.980  15.285  12.247  1.00  0.00    +0.000 F 
ATOM     45  C34 UNL A   1      59.533  15.171  10.482  1.00  0.00    +0.000 C 
ATOM     46  F2  UNL A   1      59.568  13.837  10.601  1.00  0.00    +0.000 F 
ATOM     47  C35 UNL A   1      60.314  15.803   9.526  1.00  0.00    +0.000 C 
ATOM     48  F3  UNL A   1      61.089  15.077   8.707  1.00  0.00    +0.000 F 
ATOM     49  C36 UNL A   1      60.298  17.185   9.423  1.00  0.00    +0.000 C 
ATOM     50  F4  UNL A   1      61.043  17.795   8.491  1.00  0.00    +0.000 F 
ATOM     51  C37 UNL A   1      59.509  17.941  10.288  1.00  0.00    +0.000 C 
ATOM     52  F5  UNL A   1      59.526  19.278  10.172  1.00  0.00    +0.000 F 
ENDBRANCH   41   42
BRANCH   58   59
ATOM     65  F8  UNL A   1      61.871  20.812  20.782  1.00  0.00    +0.000 F 
ATOM     66  C47 UNL A   1      60.715  21.700  18.923  1.00  0.00    +0.000 C 
ATOM     67  F9  UNL A   1      61.405  22.845  19.024  1.00  0.00    +0.000 F 
ATOM     68  C48 UNL A   1      59.753  21.554  17.928  1.00  0.00    +0.000 C 
ATOM     69  F10 UNL A   1      59.530  22.578  17.090  1.00  0.00    +0.000 F 
ATOM     59  C43 UNL A   1      59.034  20.357  17.790  1.00  0.00    +0.000 C 
ATOM     60  C44 UNL A   1      59.309  19.316  18.688  1.00  0.00    +0.000 C 
ATOM     61  F6  UNL A   1      58.635  18.158  18.607  1.00  0.00    +0.000 F 
ATOM     62  C45 UNL A   1      60.253  19.476  19.699  1.00  0.00    +0.000 C 
ATOM     63  F7  UNL A   1      60.468  18.483  20.574  1.00  0.00    +0.000 F 
ATOM     64  C46 UNL A   1      60.959  20.663  19.812  1.00  0.00    +0.000 C 
ENDBRANCH   58   59
BRANCH   73   74
ATOM     74  C52 UNL A   1      52.450  22.506  17.059  1.00  0.00    +0.000 C 
ATOM     75  C53 UNL A   1      51.684  21.836  18.022  1.00  0.00    +0.000 C 
ATOM     76  F11 UNL A   1      51.775  20.502  18.138  1.00  0.00    +0.000 F 
ATOM     77  C54 UNL A   1      50.796  22.524  18.844  1.00  0.00    +0.000 C 
ATOM     78  F12 UNL A   1      50.046  21.853  19.728  1.00  0.00    +0.000 F 
ATOM     79  C55 UNL A   1      50.675  23.901  18.737  1.00  0.00    +0.000 C 
ATOM     80  F13 UNL A   1      49.824  24.565  19.531  1.00  0.00    +0.000 F 
ATOM     81  C56 UNL A   1      51.434  24.590  17.802  1.00  0.00    +0.000 C 
ATOM     82  F14 UNL A   1      51.331  25.922  17.705  1.00  0.00    +0.000 F 
ATOM     83  C57 UNL A   1      52.305  23.898  16.963  1.00  0.00    +0.000 C 
ATOM     84  F15 UNL A   1      53.020  24.586  16.061  1.00  0.00    +0.000 F 
ENDBRANCH   73   74
TORSDOF 22
ENDMDL
MODEL 8
REMARK VINA RESULT:      -9.9     34.355     38.606
ROOT
ATOM    129  H34 UNL A   1      12.405  27.684  -0.444  1.00  0.00    +0.000 H 
ATOM    130  H35 UNL A   1      11.983  24.581   2.290  1.00  0.00    +0.000 H 
ATOM    131  H36 UNL A   1      14.775  20.791   0.525  1.00  0.00    +0.000 H 
ATOM    132  H37 UNL A   1      13.956  19.426   2.530  1.00  0.00    +0.000 H 
ATOM    133  H38 UNL A   1       8.962  27.405   6.039  1.00  0.00    +0.000 H 
ATOM    134  H39 UNL A   1       9.385  28.635   3.834  1.00  0.00    +0.000 H 
ATOM     37  C28 UNL A   1      11.090  27.220   2.041  1.00  0.00    +0.000 C 
ATOM     38  C29 UNL A   1      10.540  26.742   3.358  1.00  0.00    +0.000 C 
ATOM     39  N5  UNL A   1      10.716  25.593   3.961  1.00  0.00    +0.000 N 
ATOM     40  C30 UNL A   1      10.030  25.690   5.164  1.00  0.00    +0.000 C 
ATOM     41  C31 UNL A   1       9.864  24.745   6.121  1.00  0.00    +0.000 C 
ATOM     53  C38 UNL A   1      10.394  23.409   6.040  1.00  0.00    +0.000 C 
ATOM     54  C39 UNL A   1      10.227  22.359   6.927  1.00  0.00    +0.000 C 
ATOM     55  C40 UNL A   1      10.957  21.264   6.451  1.00  0.00    +0.000 C 
ATOM     56  C41 UNL A   1      11.543  21.618   5.246  1.00  0.00    +0.000 C 
ATOM     57  N6  UNL A   1      11.193  22.939   5.009  1.00  0.00    +0.000 N 
ATOM     58  C42 UNL A   1      12.361  20.814   4.375  1.00  0.00    +0.000 C 
ATOM     70  C49 UNL A   1      12.895  21.234   3.202  1.00  0.00    +0.000 C 
ATOM     71  N7  UNL A   1      12.782  22.471   2.585  1.00  0.00    +0.000 N 
ATOM     72  C50 UNL A   1      13.483  22.390   1.482  1.00  0.00    +0.000 C 
ATOM     73  C51 UNL A   1      13.692  23.426   0.410  1.00  0.00    +0.000 C 
ATOM     85  C58 UNL A   1      13.082  24.621   0.522  1.00  0.00    +0.000 C 
ATOM     86  C59 UNL A   1      13.185  25.717  -0.436  1.00  0.00    +0.000 C 
ATOM     87  C60 UNL A   1      12.487  26.768   0.024  1.00  0.00    +0.000 C 
ATOM     88  C61 UNL A   1      11.860  26.406   1.296  1.00  0.00    +0.000 C 
ATOM     89  N8  UNL A   1      12.259  25.110   1.507  1.00  0.00    +0.000 N 
ATOM     90  C62 UNL A   1      14.146  21.093   1.286  1.00  0.00    +0.000 C 
ATOM     91  C63 UNL A   1      13.724  20.413   2.343  1.00  0.00    +0.000 C 
ATOM     92  C64 UNL A   1       9.474  27.024   5.228  1.00  0.00    +0.000 C 
ATOM     93  C65 UNL A   1       9.706  27.693   4.108  1.00  0.00    +0.000 C 
ATOM    125  H30 UNL A   1       9.663  22.380   7.790  1.00  0.00    +0.000 H 
ATOM    126  H31 UNL A   1      11.044  20.347   6.917  1.00  0.00    +0.000 H 
ATOM    127  H32 UNL A   1      11.471  23.464   4.224  1.00  0.00    +0.000 H 
ATOM    128  H33 UNL A   1      13.709  25.689  -1.324  1.00  0.00    +0.000 H 
ENDROOT
BRANCH   37   36
ATOM     33  C24 UNL A   1      10.314  31.238   0.760  1.00  0.00    +0.000 C 
ATOM     34  C25 UNL A   1      11.318  30.994   1.703  1.00  0.00    +0.000 C 
ATOM     35  C26 UNL A   1      11.594  29.684   2.106  1.00  0.00    +0.000 C 
ATOM     36  C27 UNL A   1      10.845  28.614   1.592  1.00  0.00    +0.000 C 
ATOM    135  H40 UNL A   1       9.292  28.088   0.255  1.00  0.00    +0.000 H 
ATOM    136  H41 UNL A   1       8.941  30.341  -0.569  1.00  0.00    +0.000 H 
ATOM    123  H28 UNL A   1      11.856  31.781   2.101  1.00  0.00    +0.000 H 
ATOM    124  H29 UNL A   1      12.349  29.504   2.784  1.00  0.00    +0.000 H 
ATOM     94  C66 UNL A   1       9.854  28.868   0.633  1.00  0.00    +0.000 C 
ATOM     95  C67 UNL A   1       9.623  30.168   0.186  1.00  0.00    +0.000 C 
BRANCH   33   31
ATOM     31  C23 UNL A   1      10.047  32.635   0.345  1.00  0.00    +0.000 C 
ATOM     32  O3  UNL A   1       8.898  33.052   0.320  1.00  0.00    +0.000 O 
BRANCH   31   30
ATOM    122  H27 UNL A   1      11.403  34.068   0.710  1.00  0.00    +0.000 H 
ATOM     30  N4  UNL A   1      11.087  33.465  -0.001  1.00  0.00    +0.000 N 
BRANCH   30   29
ATOM    121  H26 UNL A   1      11.433  34.458  -1.767  1.00  0.00    +0.000 H 
ATOM     29  C22 UNL A   1      11.785  33.577  -1.272  1.00  0.00    +0.000 C 
ATOM    120  H25 UNL A   1      11.586  32.702  -1.855  1.00  0.00    +0.000 H 
BRANCH   29   28
ATOM     28  C21 UNL A   1      13.295  33.712  -1.084  1.00  0.00    +0.000 C 
ATOM    118  H23 UNL A   1      13.777  33.068  -1.790  1.00  0.00    +0.000 H 
ATOM    119  H24 UNL A   1      13.523  34.748  -1.228  1.00  0.00    +0.000 H 
BRANCH   28   27
ATOM     27  C20 UNL A   1      13.808  33.352   0.317  1.00  0.00    +0.000 C 
ATOM    116  H21 UNL A   1      14.412  34.163   0.665  1.00  0.00    +0.000 H 
ATOM    117  H22 UNL A   1      12.937  33.175   0.912  1.00  0.00    +0.000 H 
BRANCH   27   26
ATOM     26  C19 UNL A   1      14.645  32.070   0.405  1.00  0.00    +0.000 C 
ATOM    115  H20 UNL A   1      14.517  31.690   1.397  1.00  0.00    +0.000 H 
ATOM    114  H19 UNL A   1      15.663  32.318   0.183  1.00  0.00    +0.000 H 
BRANCH   26   25
ATOM     25  C18 UNL A   1      14.203  30.959  -0.551  1.00  0.00    +0.000 C 
ATOM    113  H18 UNL A   1      13.619  31.427  -1.316  1.00  0.00    +0.000 H 
ATOM    112  H17 UNL A   1      13.650  30.235   0.009  1.00  0.00    +0.000 H 
BRANCH   25   24
ATOM    110  H15 UNL A   1      15.137  29.194  -1.334  1.00  0.00    +0.000 H 
ATOM    111  H16 UNL A   1      15.492  30.654  -2.235  1.00  0.00    +0.000 H 
ATOM     24  C17 UNL A   1      15.364  30.238  -1.258  1.00  0.00    +0.000 C 
BRANCH   24   23
ATOM    109  H14 UNL A   1      16.491  30.714   0.426  1.00  0.00    +0.000 H 
ATOM     23  N3  UNL A   1      16.590  30.408  -0.505  1.00  0.00    +0.000 N 
BRANCH   23   21
ATOM     21  C16 UNL A   1      17.878  30.189  -0.943  1.00  0.00    +0.000 C 
ATOM     22  O2  UNL A   1      18.128  29.158  -1.564  1.00  0.00    +0.000 O 
BRANCH   21    2
ATOM      2  C2  UNL A   1      19.059  31.051  -0.527  1.00  0.00    +0.000 C 
BRANCH    2    1
ATOM      1  C1  UNL A   1      18.704  32.120   0.479  1.00  0.00    +0.000 C 
ATOM     98  H3  UNL A   1      17.791  31.856   0.971  1.00  0.00    +0.000 H 
ATOM     97  H2  UNL A   1      19.488  32.204   1.202  1.00  0.00    +0.000 H 
ATOM     96  H1  UNL A   1      18.580  33.057  -0.024  1.00  0.00    +0.000 H 
ENDBRANCH    2    1
BRANCH    2    3
ATOM      3  N1  UNL A   1      20.312  30.941  -0.863  1.00  0.00    +0.000 N 
BRANCH    3    4
ATOM      4  O1  UNL A   1      20.541  31.098  -2.225  1.00  0.00    +0.000 O 
BRANCH    4    5
ATOM     99  H4  UNL A   1      21.766  30.353  -3.672  1.00  0.00    +0.000 H 
ATOM    100  H5  UNL A   1      20.663  29.195  -2.847  1.00  0.00    +0.000 H 
ATOM      5  C3  UNL A   1      21.335  30.021  -2.750  1.00  0.00    +0.000 C 
BRANCH    5    6
ATOM    101  H6  UNL A   1      23.623  31.287  -2.003  1.00  0.00    +0.000 H 
ATOM      6  C4  UNL A   1      22.466  29.520  -1.866  1.00  0.00    +0.000 C 
ATOM      7  C5  UNL A   1      23.599  30.320  -1.645  1.00  0.00    +0.000 C 
ATOM      8  C6  UNL A   1      24.694  29.814  -0.943  1.00  0.00    +0.000 C 
ATOM    102  H7  UNL A   1      25.514  30.414  -0.763  1.00  0.00    +0.000 H 
ATOM     10  C8  UNL A   1      23.546  27.704  -0.682  1.00  0.00    +0.000 C 
ATOM     11  C9  UNL A   1      22.405  28.224  -1.303  1.00  0.00    +0.000 C 
ATOM    104  H9  UNL A   1      23.552  26.722  -0.366  1.00  0.00    +0.000 H 
ATOM      9  C7  UNL A   1      24.677  28.500  -0.486  1.00  0.00    +0.000 C 
ATOM    103  H8  UNL A   1      25.502  28.113  -0.002  1.00  0.00    +0.000 H 
BRANCH   11   12
ATOM    105  H10 UNL A   1      20.597  27.816  -2.167  1.00  0.00    +0.000 H 
ATOM     12  N2  UNL A   1      21.216  27.471  -1.483  1.00  0.00    +0.000 N 
BRANCH   12   13
ATOM    106  H11 UNL A   1      19.336  25.400   2.096  1.00  0.00    +0.000 H 
ATOM    107  H12 UNL A   1      19.791  23.179   1.230  1.00  0.00    +0.000 H 
ATOM    108  H13 UNL A   1      20.933  22.925  -0.894  1.00  0.00    +0.000 H 
ATOM     13  C10 UNL A   1      20.796  26.294  -0.818  1.00  0.00    +0.000 C 
ATOM     14  C11 UNL A   1      20.171  26.414   0.442  1.00  0.00    +0.000 C 
ATOM     15 Cl1  UNL A   1      19.838  27.967   1.135  1.00  0.00    +0.000 Cl
ATOM     16  C12 UNL A   1      19.806  25.286   1.183  1.00  0.00    +0.000 C 
ATOM     17  C13 UNL A   1      20.074  24.013   0.692  1.00  0.00    +0.000 C 
ATOM     18  C14 UNL A   1      20.725  23.870  -0.532  1.00  0.00    +0.000 C 
ATOM     19  C15 UNL A   1      21.102  24.997  -1.273  1.00  0.00    +0.000 C 
ATOM     20 Cl2  UNL A   1      21.994  24.716  -2.728  1.00  0.00    +0.000 Cl
ENDBRANCH   12   13
ENDBRANCH   11   12
ENDBRANCH    5    6
ENDBRANCH    4    5
ENDBRANCH    3    4
ENDBRANCH    2    3
ENDBRANCH   21    2
ENDBRANCH   23   21
ENDBRANCH   24   23
ENDBRANCH   25   24
ENDBRANCH   26   25
ENDBRANCH   27   26
ENDBRANCH   28   27
ENDBRANCH   29   28
ENDBRANCH   30   29
ENDBRANCH   31   30
ENDBRANCH   33   31
ENDBRANCH   37   36
BRANCH   41   42
ATOM     42  C32 UNL A   1       9.072  25.122   7.339  1.00  0.00    +0.000 C 
ATOM     43  C33 UNL A   1       7.671  25.036   7.358  1.00  0.00    +0.000 C 
ATOM     44  F1  UNL A   1       7.003  24.654   6.259  1.00  0.00    +0.000 F 
ATOM     45  C34 UNL A   1       6.948  25.381   8.497  1.00  0.00    +0.000 C 
ATOM     46  F2  UNL A   1       5.610  25.337   8.477  1.00  0.00    +0.000 F 
ATOM     47  C35 UNL A   1       7.612  25.784   9.647  1.00  0.00    +0.000 C 
ATOM     48  F3  UNL A   1       6.914  26.109  10.745  1.00  0.00    +0.000 F 
ATOM     49  C36 UNL A   1       8.996  25.855   9.657  1.00  0.00    +0.000 C 
ATOM     50  F4  UNL A   1       9.638  26.231  10.771  1.00  0.00    +0.000 F 
ATOM     51  C37 UNL A   1       9.721  25.537   8.510  1.00  0.00    +0.000 C 
ATOM     52  F5  UNL A   1      11.059  25.630   8.548  1.00  0.00    +0.000 F 
ENDBRANCH   41   42
BRANCH   58   59
ATOM     65  F8  UNL A   1      13.457  15.476   5.857  1.00  0.00    +0.000 F 
ATOM     66  C47 UNL A   1      14.035  17.765   5.913  1.00  0.00    +0.000 C 
ATOM     67  F9  UNL A   1      15.123  17.487   6.644  1.00  0.00    +0.000 F 
ATOM     68  C48 UNL A   1      13.751  19.082   5.564  1.00  0.00    +0.000 C 
ATOM     69  F10 UNL A   1      14.576  20.053   5.983  1.00  0.00    +0.000 F 
ATOM     59  C43 UNL A   1      12.629  19.395   4.782  1.00  0.00    +0.000 C 
ATOM     60  C44 UNL A   1      11.801  18.343   4.366  1.00  0.00    +0.000 C 
ATOM     61  F6  UNL A   1      10.707  18.594   3.630  1.00  0.00    +0.000 F 
ATOM     62  C45 UNL A   1      12.074  17.030   4.739  1.00  0.00    +0.000 C 
ATOM     63  F7  UNL A   1      11.244  16.044   4.368  1.00  0.00    +0.000 F 
ATOM     64  C46 UNL A   1      13.193  16.741   5.505  1.00  0.00    +0.000 C 
ENDBRANCH   58   59
BRANCH   73   74
ATOM     74  C52 UNL A   1      14.531  23.132  -0.779  1.00  0.00    +0.000 C 
ATOM     75  C53 UNL A   1      13.969  22.564  -1.930  1.00  0.00    +0.000 C 
ATOM     76  F11 UNL A   1      12.664  22.258  -1.956  1.00  0.00    +0.000 F 
ATOM     77  C54 UNL A   1      14.752  22.274  -3.046  1.00  0.00    +0.000 C 
ATOM     78  F12 UNL A   1      14.197  21.693  -4.118  1.00  0.00    +0.000 F 
ATOM     79  C55 UNL A   1      16.106  22.570  -3.040  1.00  0.00    +0.000 C 
ATOM     80  F13 UNL A   1      16.858  22.296  -4.115  1.00  0.00    +0.000 F 
ATOM     81  C56 UNL A   1      16.682  23.148  -1.918  1.00  0.00    +0.000 C 
ATOM     82  F14 UNL A   1      17.987  23.448  -1.915  1.00  0.00    +0.000 F 
ATOM     83  C57 UNL A   1      15.905  23.415  -0.793  1.00  0.00    +0.000 C 
ATOM     84  F15 UNL A   1      16.488  23.964   0.282  1.00  0.00    +0.000 F 
ENDBRANCH   73   74
TORSDOF 22
ENDMDL
MODEL 9
REMARK VINA RESULT:      -9.9     21.101     25.172
ROOT
ATOM    129  H34 UNL A   1      26.519  34.128  43.738  1.00  0.00    +0.000 H 
ATOM    130  H35 UNL A   1      28.435  37.267  45.678  1.00  0.00    +0.000 H 
ATOM    131  H36 UNL A   1      33.109  37.389  43.831  1.00  0.00    +0.000 H 
ATOM    132  H37 UNL A   1      33.560  39.319  45.451  1.00  0.00    +0.000 H 
ATOM    133  H38 UNL A   1      23.981  39.139  48.473  1.00  0.00    +0.000 H 
ATOM    134  H39 UNL A   1      23.629  36.937  47.215  1.00  0.00    +0.000 H 
ATOM     37  C28 UNL A   1      25.877  36.136  45.657  1.00  0.00    +0.000 C 
ATOM     38  C29 UNL A   1      25.784  37.299  46.605  1.00  0.00    +0.000 C 
ATOM     39  N5  UNL A   1      26.695  38.184  46.924  1.00  0.00    +0.000 N 
ATOM     40  C30 UNL A   1      26.076  39.064  47.801  1.00  0.00    +0.000 C 
ATOM     41  C31 UNL A   1      26.613  40.123  48.455  1.00  0.00    +0.000 C 
ATOM     53  C38 UNL A   1      27.990  40.529  48.347  1.00  0.00    +0.000 C 
ATOM     54  C39 UNL A   1      28.645  41.548  49.016  1.00  0.00    +0.000 C 
ATOM     55  C40 UNL A   1      29.967  41.591  48.561  1.00  0.00    +0.000 C 
ATOM     56  C41 UNL A   1      30.148  40.571  47.640  1.00  0.00    +0.000 C 
ATOM     57  N6  UNL A   1      28.925  39.931  47.515  1.00  0.00    +0.000 N 
ATOM     58  C42 UNL A   1      31.345  40.208  46.928  1.00  0.00    +0.000 C 
ATOM     70  C49 UNL A   1      31.444  39.186  46.042  1.00  0.00    +0.000 C 
ATOM     71  N7  UNL A   1      30.469  38.286  45.637  1.00  0.00    +0.000 N 
ATOM     72  C50 UNL A   1      31.046  37.499  44.763  1.00  0.00    +0.000 C 
ATOM     73  C51 UNL A   1      30.471  36.325  44.017  1.00  0.00    +0.000 C 
ATOM     85  C58 UNL A   1      29.196  35.958  44.248  1.00  0.00    +0.000 C 
ATOM     86  C59 UNL A   1      28.507  34.842  43.608  1.00  0.00    +0.000 C 
ATOM     87  C60 UNL A   1      27.237  34.805  44.043  1.00  0.00    +0.000 C 
ATOM     88  C61 UNL A   1      27.034  35.875  45.020  1.00  0.00    +0.000 C 
ATOM     89  N8  UNL A   1      28.253  36.501  45.086  1.00  0.00    +0.000 N 
ATOM     90  C62 UNL A   1      32.452  37.829  44.494  1.00  0.00    +0.000 C 
ATOM     91  C63 UNL A   1      32.655  38.840  45.328  1.00  0.00    +0.000 C 
ATOM     92  C64 UNL A   1      24.701  38.635  47.931  1.00  0.00    +0.000 C 
ATOM     93  C65 UNL A   1      24.485  37.511  47.262  1.00  0.00    +0.000 C 
ATOM    125  H30 UNL A   1      28.230  42.169  49.727  1.00  0.00    +0.000 H 
ATOM    126  H31 UNL A   1      30.688  42.268  48.861  1.00  0.00    +0.000 H 
ATOM    127  H32 UNL A   1      28.747  39.165  46.922  1.00  0.00    +0.000 H 
ATOM    128  H33 UNL A   1      28.927  34.188  42.931  1.00  0.00    +0.000 H 
ENDROOT
BRANCH   37   36
ATOM     33  C24 UNL A   1      22.392  33.762  44.879  1.00  0.00    +0.000 C 
ATOM     34  C25 UNL A   1      22.595  34.946  44.163  1.00  0.00    +0.000 C 
ATOM     35  C26 UNL A   1      23.742  35.711  44.393  1.00  0.00    +0.000 C 
ATOM     36  C27 UNL A   1      24.676  35.313  45.364  1.00  0.00    +0.000 C 
ATOM    135  H40 UNL A   1      25.147  33.817  46.783  1.00  0.00    +0.000 H 
ATOM    136  H41 UNL A   1      23.249  32.406  46.253  1.00  0.00    +0.000 H 
ATOM    123  H28 UNL A   1      21.900  35.254  43.465  1.00  0.00    +0.000 H 
ATOM    124  H29 UNL A   1      23.903  36.572  43.849  1.00  0.00    +0.000 H 
ATOM     94  C66 UNL A   1      24.471  34.114  46.061  1.00  0.00    +0.000 C 
ATOM     95  C67 UNL A   1      23.359  33.320  45.787  1.00  0.00    +0.000 C 
BRANCH   33   31
ATOM     31  C23 UNL A   1      21.171  32.966  44.611  1.00  0.00    +0.000 C 
ATOM     32  O3  UNL A   1      21.226  32.006  43.854  1.00  0.00    +0.000 O 
BRANCH   31   30
ATOM    122  H27 UNL A   1      19.800  32.835  46.069  1.00  0.00    +0.000 H 
ATOM     30  N4  UNL A   1      19.982  33.295  45.217  1.00  0.00    +0.000 N 
BRANCH   30   29
ATOM    121  H26 UNL A   1      19.334  34.759  43.929  1.00  0.00    +0.000 H 
ATOM     29  C22 UNL A   1      18.957  34.227  44.777  1.00  0.00    +0.000 C 
ATOM    120  H25 UNL A   1      18.728  34.896  45.581  1.00  0.00    +0.000 H 
BRANCH   29   28
ATOM     28  C21 UNL A   1      17.677  33.509  44.353  1.00  0.00    +0.000 C 
ATOM    118  H23 UNL A   1      17.530  32.677  45.010  1.00  0.00    +0.000 H 
ATOM    119  H24 UNL A   1      16.894  34.237  44.407  1.00  0.00    +0.000 H 
BRANCH   28   27
ATOM     27  C20 UNL A   1      17.675  32.985  42.911  1.00  0.00    +0.000 C 
ATOM    116  H21 UNL A   1      16.725  33.218  42.477  1.00  0.00    +0.000 H 
ATOM    117  H22 UNL A   1      18.501  33.459  42.425  1.00  0.00    +0.000 H 
BRANCH   27   26
ATOM     26  C19 UNL A   1      17.906  31.477  42.755  1.00  0.00    +0.000 C 
ATOM    115  H20 UNL A   1      18.923  31.355  42.445  1.00  0.00    +0.000 H 
ATOM    114  H19 UNL A   1      17.205  31.102  42.038  1.00  0.00    +0.000 H 
BRANCH   26   25
ATOM     25  C18 UNL A   1      17.743  30.675  44.049  1.00  0.00    +0.000 C 
ATOM    113  H18 UNL A   1      16.729  30.807  44.367  1.00  0.00    +0.000 H 
ATOM    112  H17 UNL A   1      18.452  31.042  44.762  1.00  0.00    +0.000 H 
BRANCH   25   24
ATOM    110  H15 UNL A   1      19.004  28.971  43.721  1.00  0.00    +0.000 H 
ATOM    111  H16 UNL A   1      17.638  28.661  44.773  1.00  0.00    +0.000 H 
ATOM     24  C17 UNL A   1      17.964  29.161  43.885  1.00  0.00    +0.000 C 
BRANCH   24   23
ATOM    109  H14 UNL A   1      17.602  28.804  41.866  1.00  0.00    +0.000 H 
ATOM     23  N3  UNL A   1      17.203  28.666  42.756  1.00  0.00    +0.000 N 
BRANCH   23   21
ATOM     21  C16 UNL A   1      15.984  28.023  42.785  1.00  0.00    +0.000 C 
ATOM     22  O2  UNL A   1      15.006  28.578  42.286  1.00  0.00    +0.000 O 
BRANCH   21    2
ATOM      2  C2  UNL A   1      15.729  26.753  43.581  1.00  0.00    +0.000 C 
BRANCH    2    1
ATOM      1  C1  UNL A   1      15.462  27.001  45.046  1.00  0.00    +0.000 C 
ATOM     98  H3  UNL A   1      14.459  27.353  45.171  1.00  0.00    +0.000 H 
ATOM     97  H2  UNL A   1      15.591  26.089  45.591  1.00  0.00    +0.000 H 
ATOM     96  H1  UNL A   1      16.146  27.737  45.414  1.00  0.00    +0.000 H 
ENDBRANCH    2    1
BRANCH    2    3
ATOM      3  N1  UNL A   1      15.642  25.525  43.158  1.00  0.00    +0.000 N 
BRANCH    3    4
ATOM      4  O1  UNL A   1      14.590  25.311  42.274  1.00  0.00    +0.000 O 
BRANCH    4    5
ATOM     99  H4  UNL A   1      13.670  23.494  42.249  1.00  0.00    +0.000 H 
ATOM    100  H5  UNL A   1      15.468  23.511  42.160  1.00  0.00    +0.000 H 
ATOM      5  C3  UNL A   1      14.547  23.944  41.832  1.00  0.00    +0.000 C 
BRANCH    5    6
ATOM    101  H6  UNL A   1      15.189  25.660  39.822  1.00  0.00    +0.000 H 
ATOM      6  C4  UNL A   1      14.510  23.720  40.328  1.00  0.00    +0.000 C 
ATOM      7  C5  UNL A   1      14.833  24.767  39.449  1.00  0.00    +0.000 C 
ATOM      8  C6  UNL A   1      14.675  24.605  38.072  1.00  0.00    +0.000 C 
ATOM    102  H7  UNL A   1      14.936  25.368  37.428  1.00  0.00    +0.000 H 
ATOM     10  C8  UNL A   1      13.863  22.358  38.433  1.00  0.00    +0.000 C 
ATOM     11  C9  UNL A   1      14.101  22.470  39.808  1.00  0.00    +0.000 C 
ATOM    104  H9  UNL A   1      13.459  21.487  38.055  1.00  0.00    +0.000 H 
ATOM      9  C7  UNL A   1      14.166  23.411  37.568  1.00  0.00    +0.000 C 
ATOM    103  H8  UNL A   1      14.011  23.305  36.553  1.00  0.00    +0.000 H 
BRANCH   11   12
ATOM    105  H10 UNL A   1      14.582  21.227  41.358  1.00  0.00    +0.000 H 
ATOM     12  N2  UNL A   1      13.855  21.413  40.720  1.00  0.00    +0.000 N 
BRANCH   12   13
ATOM    106  H11 UNL A   1      10.180  20.057  43.022  1.00  0.00    +0.000 H 
ATOM    107  H12 UNL A   1       9.678  18.277  41.451  1.00  0.00    +0.000 H 
ATOM    108  H13 UNL A   1      11.120  17.918  39.535  1.00  0.00    +0.000 H 
ATOM     13  C10 UNL A   1      12.710  20.589  40.844  1.00  0.00    +0.000 C 
ATOM     14  C11 UNL A   1      11.880  20.748  41.975  1.00  0.00    +0.000 C 
ATOM     15 Cl1  UNL A   1      12.193  21.981  43.153  1.00  0.00    +0.000 Cl
ATOM     16  C12 UNL A   1      10.781  19.912  42.195  1.00  0.00    +0.000 C 
ATOM     17  C13 UNL A   1      10.497  18.886  41.300  1.00  0.00    +0.000 C 
ATOM     18  C14 UNL A   1      11.325  18.685  40.197  1.00  0.00    +0.000 C 
ATOM     19  C15 UNL A   1      12.432  19.514  39.979  1.00  0.00    +0.000 C 
ATOM     20 Cl2  UNL A   1      13.455  19.121  38.640  1.00  0.00    +0.000 Cl
ENDBRANCH   12   13
ENDBRANCH   11   12
ENDBRANCH    5    6
ENDBRANCH    4    5
ENDBRANCH    3    4
ENDBRANCH    2    3
ENDBRANCH   21    2
ENDBRANCH   23   21
ENDBRANCH   24   23
ENDBRANCH   25   24
ENDBRANCH   26   25
ENDBRANCH   27   26
ENDBRANCH   28   27
ENDBRANCH   29   28
ENDBRANCH   30   29
ENDBRANCH   31   30
ENDBRANCH   33   31
ENDBRANCH   37   36
BRANCH   41   42
ATOM     42  C32 UNL A   1      25.707  40.918  49.350  1.00  0.00    +0.000 C 
ATOM     43  C33 UNL A   1      25.522  40.573  50.697  1.00  0.00    +0.000 C 
ATOM     44  F1  UNL A   1      26.123  39.487  51.206  1.00  0.00    +0.000 F 
ATOM     45  C34 UNL A   1      24.685  41.323  51.520  1.00  0.00    +0.000 C 
ATOM     46  F2  UNL A   1      24.486  40.949  52.791  1.00  0.00    +0.000 F 
ATOM     47  C35 UNL A   1      24.047  42.450  51.022  1.00  0.00    +0.000 C 
ATOM     48  F3  UNL A   1      23.247  43.174  51.817  1.00  0.00    +0.000 F 
ATOM     49  C36 UNL A   1      24.233  42.820  49.699  1.00  0.00    +0.000 C 
ATOM     50  F4  UNL A   1      23.626  43.915  49.220  1.00  0.00    +0.000 F 
ATOM     51  C37 UNL A   1      25.047  42.056  48.866  1.00  0.00    +0.000 C 
ATOM     52  F5  UNL A   1      25.195  42.434  47.587  1.00  0.00    +0.000 F 
ENDBRANCH   41   42
BRANCH   58   59
ATOM     65  F8  UNL A   1      35.988  43.229  48.029  1.00  0.00    +0.000 F 
ATOM     66  C47 UNL A   1      34.554  41.429  48.562  1.00  0.00    +0.000 C 
ATOM     67  F9  UNL A   1      35.326  41.107  49.610  1.00  0.00    +0.000 F 
ATOM     68  C48 UNL A   1      33.422  40.673  48.275  1.00  0.00    +0.000 C 
ATOM     69  F10 UNL A   1      33.132  39.622  49.057  1.00  0.00    +0.000 F 
ATOM     59  C43 UNL A   1      32.588  41.004  47.197  1.00  0.00    +0.000 C 
ATOM     60  C44 UNL A   1      32.932  42.115  46.414  1.00  0.00    +0.000 C 
ATOM     61  F6  UNL A   1      32.174  42.461  45.362  1.00  0.00    +0.000 F 
ATOM     62  C45 UNL A   1      34.081  42.853  46.688  1.00  0.00    +0.000 C 
ATOM     63  F7  UNL A   1      34.415  43.884  45.899  1.00  0.00    +0.000 F 
ATOM     64  C46 UNL A   1      34.886  42.514  47.764  1.00  0.00    +0.000 C 
ENDBRANCH   58   59
BRANCH   73   74
ATOM     74  C52 UNL A   1      31.301  35.551  43.060  1.00  0.00    +0.000 C 
ATOM     75  C53 UNL A   1      31.984  34.398  43.471  1.00  0.00    +0.000 C 
ATOM     76  F11 UNL A   1      31.909  33.998  44.749  1.00  0.00    +0.000 F 
ATOM     77  C54 UNL A   1      32.775  33.674  42.583  1.00  0.00    +0.000 C 
ATOM     78  F12 UNL A   1      33.449  32.599  43.013  1.00  0.00    +0.000 F 
ATOM     79  C55 UNL A   1      32.877  34.074  41.259  1.00  0.00    +0.000 C 
ATOM     80  F13 UNL A   1      33.634  33.374  40.403  1.00  0.00    +0.000 F 
ATOM     81  C56 UNL A   1      32.198  35.202  40.824  1.00  0.00    +0.000 C 
ATOM     82  F14 UNL A   1      32.284  35.583  39.542  1.00  0.00    +0.000 F 
ATOM     83  C57 UNL A   1      31.427  35.941  41.718  1.00  0.00    +0.000 C 
ATOM     84  F15 UNL A   1      30.788  37.034  41.275  1.00  0.00    +0.000 F 
ENDBRANCH   73   74
TORSDOF 22
ENDMDL
MODEL 10
REMARK VINA RESULT:      -9.8     38.072     43.268
ROOT
ATOM    129  H34 UNL A   1      12.262  52.464   6.909  1.00  0.00    +0.000 H 
ATOM    130  H35 UNL A   1      14.526  51.573   3.538  1.00  0.00    +0.000 H 
ATOM    131  H36 UNL A   1      13.622  46.737   2.502  1.00  0.00    +0.000 H 
ATOM    132  H37 UNL A   1      15.293  46.972   0.577  1.00  0.00    +0.000 H 
ATOM    133  H38 UNL A   1      16.395  56.749   2.606  1.00  0.00    +0.000 H 
ATOM    134  H39 UNL A   1      15.101  56.437   4.793  1.00  0.00    +0.000 H 
ATOM     37  C28 UNL A   1      14.012  53.823   5.117  1.00  0.00    +0.000 C 
ATOM     38  C29 UNL A   1      14.920  54.312   4.023  1.00  0.00    +0.000 C 
ATOM     39  N5  UNL A   1      15.407  53.659   2.997  1.00  0.00    +0.000 N 
ATOM     40  C30 UNL A   1      16.144  54.587   2.274  1.00  0.00    +0.000 C 
ATOM     41  C31 UNL A   1      16.886  54.392   1.157  1.00  0.00    +0.000 C 
ATOM     53  C38 UNL A   1      17.046  53.120   0.503  1.00  0.00    +0.000 C 
ATOM     54  C39 UNL A   1      17.826  52.806  -0.597  1.00  0.00    +0.000 C 
ATOM     55  C40 UNL A   1      17.637  51.453  -0.896  1.00  0.00    +0.000 C 
ATOM     56  C41 UNL A   1      16.773  50.913   0.042  1.00  0.00    +0.000 C 
ATOM     57  N6  UNL A   1      16.414  51.948   0.892  1.00  0.00    +0.000 N 
ATOM     58  C42 UNL A   1      16.308  49.555   0.157  1.00  0.00    +0.000 C 
ATOM     70  C49 UNL A   1      15.462  49.100   1.114  1.00  0.00    +0.000 C 
ATOM     71  N7  UNL A   1      14.878  49.794   2.164  1.00  0.00    +0.000 N 
ATOM     72  C50 UNL A   1      14.135  48.925   2.803  1.00  0.00    +0.000 C 
ATOM     73  C51 UNL A   1      13.296  49.117   4.037  1.00  0.00    +0.000 C 
ATOM     85  C58 UNL A   1      13.276  50.322   4.638  1.00  0.00    +0.000 C 
ATOM     86  C59 UNL A   1      12.518  50.656   5.840  1.00  0.00    +0.000 C 
ATOM     87  C60 UNL A   1      12.698  51.957   6.124  1.00  0.00    +0.000 C 
ATOM     88  C61 UNL A   1      13.613  52.539   5.141  1.00  0.00    +0.000 C 
ATOM     89  N8  UNL A   1      13.913  51.492   4.305  1.00  0.00    +0.000 N 
ATOM     90  C62 UNL A   1      14.144  47.579   2.212  1.00  0.00    +0.000 C 
ATOM     91  C63 UNL A   1      14.998  47.731   1.209  1.00  0.00    +0.000 C 
ATOM     92  C64 UNL A   1      16.005  55.858   2.951  1.00  0.00    +0.000 C 
ATOM     93  C65 UNL A   1      15.311  55.729   4.073  1.00  0.00    +0.000 C 
ATOM    125  H30 UNL A   1      18.441  53.458  -1.108  1.00  0.00    +0.000 H 
ATOM    126  H31 UNL A   1      18.069  50.942  -1.683  1.00  0.00    +0.000 H 
ATOM    127  H32 UNL A   1      15.801  51.863   1.657  1.00  0.00    +0.000 H 
ATOM    128  H33 UNL A   1      11.938  50.000   6.384  1.00  0.00    +0.000 H 
ENDROOT
BRANCH   37   36
ATOM     33  C24 UNL A   1      12.575  56.600   8.053  1.00  0.00    +0.000 C 
ATOM     34  C25 UNL A   1      11.794  56.318   6.927  1.00  0.00    +0.000 C 
ATOM     35  C26 UNL A   1      12.245  55.394   5.980  1.00  0.00    +0.000 C 
ATOM     36  C27 UNL A   1      13.494  54.772   6.136  1.00  0.00    +0.000 C 
ATOM    135  H40 UNL A   1      15.182  54.601   7.398  1.00  0.00    +0.000 H 
ATOM    136  H41 UNL A   1      14.316  56.067   9.123  1.00  0.00    +0.000 H 
ATOM    123  H28 UNL A   1      10.886  56.790   6.797  1.00  0.00    +0.000 H 
ATOM    124  H29 UNL A   1      11.658  55.171   5.162  1.00  0.00    +0.000 H 
ATOM     94  C66 UNL A   1      14.259  55.048   7.278  1.00  0.00    +0.000 C 
ATOM     95  C67 UNL A   1      13.781  55.921   8.253  1.00  0.00    +0.000 C 
BRANCH   33   31
ATOM     31  C23 UNL A   1      12.071  57.577   9.046  1.00  0.00    +0.000 C 
ATOM     32  O3  UNL A   1      12.184  58.776   8.830  1.00  0.00    +0.000 O 
BRANCH   31   30
ATOM    122  H27 UNL A   1      11.388  57.814  10.917  1.00  0.00    +0.000 H 
ATOM     30  N4  UNL A   1      11.469  57.141  10.202  1.00  0.00    +0.000 N 
BRANCH   30   29
ATOM    121  H26 UNL A   1      10.574  55.389   9.610  1.00  0.00    +0.000 H 
ATOM     29  C22 UNL A   1      10.935  55.825  10.517  1.00  0.00    +0.000 C 
ATOM    120  H25 UNL A   1      10.148  55.934  11.233  1.00  0.00    +0.000 H 
BRANCH   29   28
ATOM     28  C21 UNL A   1      12.004  54.900  11.095  1.00  0.00    +0.000 C 
ATOM    118  H23 UNL A   1      11.758  53.895  10.818  1.00  0.00    +0.000 H 
ATOM    119  H24 UNL A   1      12.938  55.235  10.695  1.00  0.00    +0.000 H 
BRANCH   28   27
ATOM     27  C20 UNL A   1      12.149  54.951  12.622  1.00  0.00    +0.000 C 
ATOM    116  H21 UNL A   1      12.209  55.978  12.912  1.00  0.00    +0.000 H 
ATOM    117  H22 UNL A   1      11.296  54.439  13.015  1.00  0.00    +0.000 H 
BRANCH   27   26
ATOM     26  C19 UNL A   1      13.373  54.227  13.195  1.00  0.00    +0.000 C 
ATOM    115  H20 UNL A   1      13.011  53.573  13.960  1.00  0.00    +0.000 H 
ATOM    114  H19 UNL A   1      14.055  54.964  13.565  1.00  0.00    +0.000 H 
BRANCH   26   25
ATOM     25  C18 UNL A   1      14.118  53.349  12.185  1.00  0.00    +0.000 C 
ATOM    113  H18 UNL A   1      14.569  54.011  11.476  1.00  0.00    +0.000 H 
ATOM    112  H17 UNL A   1      13.413  52.681  11.738  1.00  0.00    +0.000 H 
BRANCH   25   24
ATOM    110  H15 UNL A   1      16.184  53.028  12.665  1.00  0.00    +0.000 H 
ATOM    111  H16 UNL A   1      15.063  52.369  13.840  1.00  0.00    +0.000 H 
ATOM     24  C17 UNL A   1      15.255  52.512  12.797  1.00  0.00    +0.000 C 
BRANCH   24   23
ATOM    109  H14 UNL A   1      14.654  50.556  12.417  1.00  0.00    +0.000 H 
ATOM     23  N3  UNL A   1      15.329  51.220  12.146  1.00  0.00    +0.000 N 
BRANCH   23   21
ATOM     21  C16 UNL A   1      16.236  50.814  11.191  1.00  0.00    +0.000 C 
ATOM     22  O2  UNL A   1      17.421  51.112  11.331  1.00  0.00    +0.000 O 
BRANCH   21    2
ATOM      2  C2  UNL A   1      15.829  50.193   9.864  1.00  0.00    +0.000 C 
BRANCH    2    1
ATOM      1  C1  UNL A   1      16.534  48.891   9.564  1.00  0.00    +0.000 C 
ATOM     98  H3  UNL A   1      15.860  48.076   9.725  1.00  0.00    +0.000 H 
ATOM     97  H2  UNL A   1      16.861  48.889   8.545  1.00  0.00    +0.000 H 
ATOM     96  H1  UNL A   1      17.380  48.786  10.211  1.00  0.00    +0.000 H 
ENDBRANCH    2    1
BRANCH    2    3
ATOM      3  N1  UNL A   1      14.926  50.591   9.015  1.00  0.00    +0.000 N 
BRANCH    3    4
ATOM      4  O1  UNL A   1      13.974  49.623   8.716  1.00  0.00    +0.000 O 
BRANCH    4    5
ATOM     99  H4  UNL A   1      12.454  50.633   9.620  1.00  0.00    +0.000 H 
ATOM    100  H5  UNL A   1      13.313  49.388  10.595  1.00  0.00    +0.000 H 
ATOM      5  C3  UNL A   1      12.884  49.653   9.652  1.00  0.00    +0.000 C 
BRANCH    5    6
ATOM    101  H6  UNL A   1      10.993  49.607   7.699  1.00  0.00    +0.000 H 
ATOM      6  C4  UNL A   1      11.766  48.650   9.422  1.00  0.00    +0.000 C 
ATOM      7  C5  UNL A   1      10.850  48.839   8.373  1.00  0.00    +0.000 C 
ATOM      8  C6  UNL A   1       9.748  47.994   8.238  1.00  0.00    +0.000 C 
ATOM    102  H7  UNL A   1       9.091  48.123   7.453  1.00  0.00    +0.000 H 
ATOM     10  C8  UNL A   1      10.453  46.768  10.197  1.00  0.00    +0.000 C 
ATOM     11  C9  UNL A   1      11.611  47.547  10.294  1.00  0.00    +0.000 C 
ATOM    104  H9  UNL A   1      10.274  46.030  10.896  1.00  0.00    +0.000 H 
ATOM      9  C7  UNL A   1       9.536  46.977   9.165  1.00  0.00    +0.000 C 
ATOM    103  H8  UNL A   1       8.700  46.377   9.088  1.00  0.00    +0.000 H 
BRANCH   11   12
ATOM    105  H10 UNL A   1      13.526  47.323  10.976  1.00  0.00    +0.000 H 
ATOM     12  N2  UNL A   1      12.594  47.343  11.295  1.00  0.00    +0.000 N 
BRANCH   12   13
ATOM    106  H11 UNL A   1      11.923  44.652  14.893  1.00  0.00    +0.000 H 
ATOM    107  H12 UNL A   1      11.729  46.518  16.432  1.00  0.00    +0.000 H 
ATOM    108  H13 UNL A   1      11.912  48.788  15.601  1.00  0.00    +0.000 H 
ATOM     13  C10 UNL A   1      12.425  47.165  12.690  1.00  0.00    +0.000 C 
ATOM     14  C11 UNL A   1      12.269  45.855  13.192  1.00  0.00    +0.000 C 
ATOM     15 Cl1  UNL A   1      12.369  44.475  12.147  1.00  0.00    +0.000 Cl
ATOM     16  C12 UNL A   1      12.018  45.620  14.547  1.00  0.00    +0.000 C 
ATOM     17  C13 UNL A   1      11.898  46.689  15.429  1.00  0.00    +0.000 C 
ATOM     18  C14 UNL A   1      12.009  47.993  14.950  1.00  0.00    +0.000 C 
ATOM     19  C15 UNL A   1      12.250  48.232  13.591  1.00  0.00    +0.000 C 
ATOM     20 Cl2  UNL A   1      12.270  49.885  13.079  1.00  0.00    +0.000 Cl
ENDBRANCH   12   13
ENDBRANCH   11   12
ENDBRANCH    5    6
ENDBRANCH    4    5
ENDBRANCH    3    4
ENDBRANCH    2    3
ENDBRANCH   21    2
ENDBRANCH   23   21
ENDBRANCH   24   23
ENDBRANCH   25   24
ENDBRANCH   26   25
ENDBRANCH   27   26
ENDBRANCH   28   27
ENDBRANCH   29   28
ENDBRANCH   30   29
ENDBRANCH   31   30
ENDBRANCH   33   31
ENDBRANCH   37   36
BRANCH   41   42
ATOM     42  C32 UNL A   1      17.585  55.584   0.571  1.00  0.00    +0.000 C 
ATOM     43  C33 UNL A   1      16.958  56.411  -0.373  1.00  0.00    +0.000 C 
ATOM     44  F1  UNL A   1      15.722  56.122  -0.809  1.00  0.00    +0.000 F 
ATOM     45  C34 UNL A   1      17.614  57.519  -0.903  1.00  0.00    +0.000 C 
ATOM     46  F2  UNL A   1      17.014  58.267  -1.838  1.00  0.00    +0.000 F 
ATOM     47  C35 UNL A   1      18.893  57.841  -0.474  1.00  0.00    +0.000 C 
ATOM     48  F3  UNL A   1      19.521  58.912  -0.981  1.00  0.00    +0.000 F 
ATOM     49  C36 UNL A   1      19.523  57.050   0.474  1.00  0.00    +0.000 C 
ATOM     50  F4  UNL A   1      20.755  57.368   0.898  1.00  0.00    +0.000 F 
ATOM     51  C37 UNL A   1      18.881  55.925   0.985  1.00  0.00    +0.000 C 
ATOM     52  F5  UNL A   1      19.523  55.172   1.891  1.00  0.00    +0.000 F 
ENDBRANCH   41   42
BRANCH   58   59
ATOM     65  F8  UNL A   1      18.120  45.742  -3.594  1.00  0.00    +0.000 F 
ATOM     66  C47 UNL A   1      16.500  47.320  -2.914  1.00  0.00    +0.000 C 
ATOM     67  F9  UNL A   1      15.763  47.053  -4.001  1.00  0.00    +0.000 F 
ATOM     68  C48 UNL A   1      16.067  48.275  -1.999  1.00  0.00    +0.000 C 
ATOM     69  F10 UNL A   1      14.914  48.919  -2.235  1.00  0.00    +0.000 F 
ATOM     59  C43 UNL A   1      16.811  48.557  -0.843  1.00  0.00    +0.000 C 
ATOM     60  C44 UNL A   1      18.006  47.852  -0.641  1.00  0.00    +0.000 C 
ATOM     61  F6  UNL A   1      18.760  48.098   0.441  1.00  0.00    +0.000 F 
ATOM     62  C45 UNL A   1      18.450  46.917  -1.572  1.00  0.00    +0.000 C 
ATOM     63  F7  UNL A   1      19.618  46.286  -1.381  1.00  0.00    +0.000 F 
ATOM     64  C46 UNL A   1      17.694  46.647  -2.703  1.00  0.00    +0.000 C 
ENDBRANCH   58   59
BRANCH   73   74
ATOM     74  C52 UNL A   1      12.521  47.990   4.614  1.00  0.00    +0.000 C 
ATOM     75  C53 UNL A   1      12.987  47.303   5.743  1.00  0.00    +0.000 C 
ATOM     76  F11 UNL A   1      14.157  47.649   6.300  1.00  0.00    +0.000 F 
ATOM     77  C54 UNL A   1      12.272  46.237   6.283  1.00  0.00    +0.000 C 
ATOM     78  F12 UNL A   1      12.761  45.572   7.339  1.00  0.00    +0.000 F 
ATOM     79  C55 UNL A   1      11.065  45.853   5.720  1.00  0.00    +0.000 C 
ATOM     80  F13 UNL A   1      10.376  44.830   6.242  1.00  0.00    +0.000 F 
ATOM     81  C56 UNL A   1      10.576  46.527   4.611  1.00  0.00    +0.000 C 
ATOM     82  F14 UNL A   1       9.403  46.168   4.072  1.00  0.00    +0.000 F 
ATOM     83  C57 UNL A   1      11.302  47.578   4.055  1.00  0.00    +0.000 C 
ATOM     84  F15 UNL A   1      10.811  48.207   2.977  1.00  0.00    +0.000 F 
ENDBRANCH   73   74
TORSDOF 22
ENDMDL
