MODEL 1
REMARK VINA RESULT:      -8.9      0.000      0.000
ROOT
ATOM     24  C20 UNL A   1      13.961  53.988   4.953  1.00  0.00    +0.000 C 
ATOM     25  C21 UNL A   1      13.521  52.552   4.999  1.00  0.00    +0.000 C 
ATOM     26  N3  UNL A   1      13.869  51.553   4.226  1.00  0.00    +0.000 N 
ATOM     27  C22 UNL A   1      13.213  50.439   4.732  1.00  0.00    +0.000 C 
ATOM     28  C23 UNL A   1      13.205  49.173   4.250  1.00  0.00    +0.000 C 
ATOM     40  C30 UNL A   1      13.908  48.752   3.068  1.00  0.00    +0.000 C 
ATOM     41  C31 UNL A   1      13.906  47.511   2.457  1.00  0.00    +0.000 C 
ATOM     42  C32 UNL A   1      14.772  47.562   1.358  1.00  0.00    +0.000 C 
ATOM     43  C33 UNL A   1      15.280  48.847   1.260  1.00  0.00    +0.000 C 
ATOM     44  N4  UNL A   1      14.744  49.566   2.317  1.00  0.00    +0.000 N 
ATOM     45  C34 UNL A   1      16.188  49.381   0.277  1.00  0.00    +0.000 C 
ATOM     57  C41 UNL A   1      16.626  50.663   0.237  1.00  0.00    +0.000 C 
ATOM     58  N5  UNL A   1      16.321  51.716   1.086  1.00  0.00    +0.000 N 
ATOM     59  C42 UNL A   1      16.998  52.746   0.642  1.00  0.00    +0.000 C 
ATOM     60  C43 UNL A   1      17.031  54.156   1.162  1.00  0.00    +0.000 C 
ATOM     72  C50 UNL A   1      16.267  54.486   2.222  1.00  0.00    +0.000 C 
ATOM     73  C51 UNL A   1      16.189  55.810   2.832  1.00  0.00    +0.000 C 
ATOM     74  C52 UNL A   1      15.360  55.756   3.887  1.00  0.00    +0.000 C 
ATOM     75  C53 UNL A   1      14.825  54.401   4.006  1.00  0.00    +0.000 C 
ATOM     76  N6  UNL A   1      15.413  53.717   2.972  1.00  0.00    +0.000 N 
ATOM     77  C54 UNL A   1      17.834  52.455  -0.531  1.00  0.00    +0.000 C 
ATOM     78  C55 UNL A   1      17.542  51.182  -0.759  1.00  0.00    +0.000 C 
ATOM     79  C56 UNL A   1      12.482  50.873   5.904  1.00  0.00    +0.000 C 
ATOM     80  C57 UNL A   1      12.587  52.183   6.074  1.00  0.00    +0.000 C 
ATOM    118  H25 UNL A   1      13.361  46.688   2.759  1.00  0.00    +0.000 H 
ATOM    119  H26 UNL A   1      14.994  46.776   0.728  1.00  0.00    +0.000 H 
ATOM    120  H27 UNL A   1      14.928  50.514   2.506  1.00  0.00    +0.000 H 
ATOM    121  H28 UNL A   1      16.690  56.650   2.505  1.00  0.00    +0.000 H 
ATOM    122  H29 UNL A   1      15.138  56.546   4.513  1.00  0.00    +0.000 H 
ATOM    123  H30 UNL A   1      15.239  52.765   2.787  1.00  0.00    +0.000 H 
ATOM    124  H31 UNL A   1      18.478  53.078  -1.043  1.00  0.00    +0.000 H 
ATOM    125  H32 UNL A   1      17.921  50.631  -1.545  1.00  0.00    +0.000 H 
ATOM    126  H33 UNL A   1      11.950  50.245   6.525  1.00  0.00    +0.000 H 
ATOM    127  H34 UNL A   1      12.133  52.787   6.776  1.00  0.00    +0.000 H 
ENDROOT
BRANCH   24   23
ATOM    129  H36 UNL A   1      10.963  57.038   6.645  1.00  0.00    +0.000 H 
ATOM     81  C58 UNL A   1      12.274  55.597   5.838  1.00  0.00    +0.000 C 
ATOM     82  C59 UNL A   1      11.835  56.506   6.797  1.00  0.00    +0.000 C 
ATOM     20  C16 UNL A   1      12.578  56.698   7.965  1.00  0.00    +0.000 C 
ATOM     21  C17 UNL A   1      13.815  56.067   8.123  1.00  0.00    +0.000 C 
ATOM    116  H23 UNL A   1      14.380  56.239   8.969  1.00  0.00    +0.000 H 
ATOM     22  C18 UNL A   1      14.283  55.203   7.131  1.00  0.00    +0.000 C 
ATOM    117  H24 UNL A   1      15.207  54.754   7.236  1.00  0.00    +0.000 H 
ATOM     23  C19 UNL A   1      13.504  54.941   5.993  1.00  0.00    +0.000 C 
ATOM    128  H35 UNL A   1      11.691  55.404   5.008  1.00  0.00    +0.000 H 
BRANCH   20   18
ATOM     18  C15 UNL A   1      12.092  57.596   9.038  1.00  0.00    +0.000 C 
ATOM     19  O2  UNL A   1      12.352  58.790   8.997  1.00  0.00    +0.000 O 
BRANCH   18   17
ATOM     17  N2  UNL A   1      11.350  57.084  10.076  1.00  0.00    +0.000 N 
ATOM    115  H22 UNL A   1      11.128  57.721  10.793  1.00  0.00    +0.000 H 
BRANCH   17   16
ATOM    113  H20 UNL A   1       9.848  55.784  10.644  1.00  0.00    +0.000 H 
ATOM    114  H21 UNL A   1      10.867  55.239   9.311  1.00  0.00    +0.000 H 
ATOM     16  C14 UNL A   1      10.845  55.733  10.259  1.00  0.00    +0.000 C 
BRANCH   16   15
ATOM    111  H18 UNL A   1      12.396  55.602  11.698  1.00  0.00    +0.000 H 
ATOM     15  C13 UNL A   1      11.708  54.931  11.230  1.00  0.00    +0.000 C 
ATOM    112  H19 UNL A   1      11.035  54.469  11.923  1.00  0.00    +0.000 H 
BRANCH   15   14
ATOM    110  H17 UNL A   1      12.377  53.906   9.527  1.00  0.00    +0.000 H 
ATOM    109  H16 UNL A   1      12.141  52.870  10.968  1.00  0.00    +0.000 H 
ATOM     14  C12 UNL A   1      12.510  53.798  10.583  1.00  0.00    +0.000 C 
BRANCH   14   13
ATOM    107  H14 UNL A   1      14.479  54.337   9.993  1.00  0.00    +0.000 H 
ATOM    108  H15 UNL A   1      14.158  54.363  11.755  1.00  0.00    +0.000 H 
ATOM     13  C11 UNL A   1      14.023  53.845  10.828  1.00  0.00    +0.000 C 
BRANCH   13   12
ATOM    105  H12 UNL A   1      13.973  51.715  10.818  1.00  0.00    +0.000 H 
ATOM    106  H13 UNL A   1      15.514  52.443  10.309  1.00  0.00    +0.000 H 
ATOM     12  C10 UNL A   1      14.700  52.479  11.001  1.00  0.00    +0.000 C 
BRANCH   12   11
ATOM     11  C9  UNL A   1      15.291  52.255  12.395  1.00  0.00    +0.000 C 
ATOM    103  H10 UNL A   1      15.383  51.204  12.574  1.00  0.00    +0.000 H 
ATOM    104  H11 UNL A   1      16.252  52.723  12.441  1.00  0.00    +0.000 H 
BRANCH   11   10
ATOM     10  N1  UNL A   1      14.436  52.840  13.411  1.00  0.00    +0.000 N 
ATOM    102  H9  UNL A   1      14.768  53.690  13.782  1.00  0.00    +0.000 H 
BRANCH   10    8
ATOM      9  O1  UNL A   1      12.420  53.252  14.282  1.00  0.00    +0.000 O 
ATOM      8  C8  UNL A   1      13.258  52.419  13.935  1.00  0.00    +0.000 C 
BRANCH    8    7
ATOM    101  H8  UNL A   1      13.547  50.514  14.905  1.00  0.00    +0.000 H 
ATOM      7  C7  UNL A   1      12.983  50.986  14.180  1.00  0.00    +0.000 C 
BRANCH    7    6
ATOM    100  H7  UNL A   1      11.275  49.868  14.086  1.00  0.00    +0.000 H 
ATOM      6  C6  UNL A   1      12.065  50.248  13.540  1.00  0.00    +0.000 C 
BRANCH    6    5
ATOM    130  H37 UNL A   1      14.047  49.079  12.200  1.00  0.00    +0.000 H 
ATOM      3  C3  UNL A   1      11.180  50.085   9.853  1.00  0.00    +0.000 C 
ATOM      4  C4  UNL A   1      11.094  50.328  11.232  1.00  0.00    +0.000 C 
ATOM      5  C5  UNL A   1      12.126  49.952  12.102  1.00  0.00    +0.000 C 
ATOM     99  H6  UNL A   1      10.253  50.792  11.613  1.00  0.00    +0.000 H 
ATOM    136  H43 UNL A   1      12.388  49.248   8.335  1.00  0.00    +0.000 H 
ATOM     83  C60 UNL A   1      13.274  49.351  11.572  1.00  0.00    +0.000 C 
ATOM     84  C61 UNL A   1      13.383  49.115  10.194  1.00  0.00    +0.000 C 
ATOM     93  C69 UNL A   1      12.324  49.458   9.344  1.00  0.00    +0.000 C 
BRANCH    3    2
ATOM     97  H4  UNL A   1       9.200  50.731   9.516  1.00  0.00    +0.000 H 
ATOM      2  C2  UNL A   1      10.070  50.523   8.929  1.00  0.00    +0.000 C 
ATOM     98  H5  UNL A   1      10.412  51.390   8.405  1.00  0.00    +0.000 H 
BRANCH    2    1
ATOM      1  C1  UNL A   1       9.715  49.471   7.891  1.00  0.00    +0.000 C 
ATOM     94  H1  UNL A   1       9.349  49.951   7.007  1.00  0.00    +0.000 H 
ATOM     95  H2  UNL A   1       8.961  48.822   8.284  1.00  0.00    +0.000 H 
ATOM     96  H3  UNL A   1      10.587  48.899   7.650  1.00  0.00    +0.000 H 
ENDBRANCH    2    1
ENDBRANCH    3    2
BRANCH   84   85
ATOM     85  C62 UNL A   1      14.628  48.478   9.678  1.00  0.00    +0.000 C 
ATOM     86  O3  UNL A   1      14.667  47.263   9.506  1.00  0.00    +0.000 O 
BRANCH   85   87
ATOM    131  H38 UNL A   1      15.089  49.867   7.459  1.00  0.00    +0.000 H 
ATOM    132  H39 UNL A   1      17.002  51.259   6.909  1.00  0.00    +0.000 H 
ATOM    133  H40 UNL A   1      18.847  51.459   8.471  1.00  0.00    +0.000 H 
ATOM    134  H41 UNL A   1      18.804  50.242  10.569  1.00  0.00    +0.000 H 
ATOM    135  H42 UNL A   1      16.893  48.850  11.127  1.00  0.00    +0.000 H 
ATOM     87  C63 UNL A   1      15.827  49.288   9.353  1.00  0.00    +0.000 C 
ATOM     88  C64 UNL A   1      15.871  49.959   8.127  1.00  0.00    +0.000 C 
ATOM     89  C65 UNL A   1      16.974  50.753   7.807  1.00  0.00    +0.000 C 
ATOM     90  C66 UNL A   1      18.038  50.863   8.704  1.00  0.00    +0.000 C 
ATOM     91  C67 UNL A   1      18.011  50.168   9.914  1.00  0.00    +0.000 C 
ATOM     92  C68 UNL A   1      16.909  49.373  10.238  1.00  0.00    +0.000 C 
ENDBRANCH   85   87
ENDBRANCH   84   85
ENDBRANCH    6    5
ENDBRANCH    7    6
ENDBRANCH    8    7
ENDBRANCH   10    8
ENDBRANCH   11   10
ENDBRANCH   12   11
ENDBRANCH   13   12
ENDBRANCH   14   13
ENDBRANCH   15   14
ENDBRANCH   16   15
ENDBRANCH   17   16
ENDBRANCH   18   17
ENDBRANCH   20   18
ENDBRANCH   24   23
BRANCH   28   29
ATOM     33  F2  UNL A   1       9.075  46.652   5.033  1.00  0.00    +0.000 F 
ATOM     34  C27 UNL A   1      10.934  46.221   6.424  1.00  0.00    +0.000 C 
ATOM     35  F3  UNL A   1      10.229  45.310   7.109  1.00  0.00    +0.000 F 
ATOM     36  C28 UNL A   1      12.246  46.495   6.780  1.00  0.00    +0.000 C 
ATOM     37  F4  UNL A   1      12.814  45.834   7.799  1.00  0.00    +0.000 F 
ATOM     38  C29 UNL A   1      12.972  47.459   6.086  1.00  0.00    +0.000 C 
ATOM     39  F5  UNL A   1      14.233  47.713   6.465  1.00  0.00    +0.000 F 
ATOM     29  C24 UNL A   1      12.404  48.151   5.005  1.00  0.00    +0.000 C 
ATOM     30  C25 UNL A   1      11.084  47.840   4.647  1.00  0.00    +0.000 C 
ATOM     31  F1  UNL A   1      10.491  48.482   3.630  1.00  0.00    +0.000 F 
ATOM     32  C26 UNL A   1      10.352  46.896   5.362  1.00  0.00    +0.000 C 
ENDBRANCH   28   29
BRANCH   45   46
ATOM     46  C35 UNL A   1      16.672  48.458  -0.801  1.00  0.00    +0.000 C 
ATOM     47  C36 UNL A   1      17.908  47.802  -0.704  1.00  0.00    +0.000 C 
ATOM     48  F6  UNL A   1      18.714  48.032   0.343  1.00  0.00    +0.000 F 
ATOM     49  C37 UNL A   1      18.336  46.934  -1.705  1.00  0.00    +0.000 C 
ATOM     50  F7  UNL A   1      19.539  46.351  -1.614  1.00  0.00    +0.000 F 
ATOM     51  C38 UNL A   1      17.527  46.683  -2.803  1.00  0.00    +0.000 C 
ATOM     52  F8  UNL A   1      17.937  45.843  -3.763  1.00  0.00    +0.000 F 
ATOM     53  C39 UNL A   1      16.293  47.309  -2.910  1.00  0.00    +0.000 C 
ATOM     54  F9  UNL A   1      15.505  47.059  -3.965  1.00  0.00    +0.000 F 
ATOM     55  C40 UNL A   1      15.873  48.197  -1.924  1.00  0.00    +0.000 C 
ATOM     56  F10 UNL A   1      14.680  48.796  -2.060  1.00  0.00    +0.000 F 
ENDBRANCH   45   46
BRANCH   60   61
ATOM     65  F12 UNL A   1      21.023  56.948   1.017  1.00  0.00    +0.000 F 
ATOM     66  C47 UNL A   1      19.463  57.141  -0.745  1.00  0.00    +0.000 C 
ATOM     67  F13 UNL A   1      20.224  58.071  -1.338  1.00  0.00    +0.000 F 
ATOM     68  C48 UNL A   1      18.260  56.757  -1.320  1.00  0.00    +0.000 C 
ATOM     69  F14 UNL A   1      17.867  57.304  -2.478  1.00  0.00    +0.000 F 
ATOM     70  C49 UNL A   1      17.461  55.802  -0.696  1.00  0.00    +0.000 C 
ATOM     71  F15 UNL A   1      16.299  55.454  -1.269  1.00  0.00    +0.000 F 
ATOM     61  C44 UNL A   1      17.861  55.195   0.504  1.00  0.00    +0.000 C 
ATOM     62  C45 UNL A   1      19.086  55.591   1.059  1.00  0.00    +0.000 C 
ATOM     63  F11 UNL A   1      19.501  55.052   2.215  1.00  0.00    +0.000 F 
ATOM     64  C46 UNL A   1      19.873  56.563   0.447  1.00  0.00    +0.000 C 
ENDBRANCH   60   61
TORSDOF 21
ENDMDL
MODEL 2
REMARK VINA RESULT:      -8.7      1.286      7.688
ROOT
ATOM     24  C20 UNL A   1      13.953  53.707   5.171  1.00  0.00    +0.000 C 
ATOM     25  C21 UNL A   1      14.905  54.171   4.106  1.00  0.00    +0.000 C 
ATOM     26  N3  UNL A   1      15.409  53.505   3.097  1.00  0.00    +0.000 N 
ATOM     27  C22 UNL A   1      16.189  54.415   2.396  1.00  0.00    +0.000 C 
ATOM     28  C23 UNL A   1      16.960  54.201   1.304  1.00  0.00    +0.000 C 
ATOM     40  C30 UNL A   1      17.113  52.925   0.658  1.00  0.00    +0.000 C 
ATOM     41  C31 UNL A   1      17.925  52.588  -0.410  1.00  0.00    +0.000 C 
ATOM     42  C32 UNL A   1      17.707  51.240  -0.719  1.00  0.00    +0.000 C 
ATOM     43  C33 UNL A   1      16.790  50.726   0.184  1.00  0.00    +0.000 C 
ATOM     44  N4  UNL A   1      16.431  51.772   1.020  1.00  0.00    +0.000 N 
ATOM     45  C34 UNL A   1      16.276  49.384   0.276  1.00  0.00    +0.000 C 
ATOM     57  C41 UNL A   1      15.389  48.952   1.206  1.00  0.00    +0.000 C 
ATOM     58  N5  UNL A   1      14.795  49.660   2.240  1.00  0.00    +0.000 N 
ATOM     59  C42 UNL A   1      14.008  48.810   2.853  1.00  0.00    +0.000 C 
ATOM     60  C43 UNL A   1      13.137  49.025   4.060  1.00  0.00    +0.000 C 
ATOM     72  C50 UNL A   1      13.126  50.231   4.659  1.00  0.00    +0.000 C 
ATOM     73  C51 UNL A   1      12.340  50.586   5.837  1.00  0.00    +0.000 C 
ATOM     74  C52 UNL A   1      12.550  51.880   6.128  1.00  0.00    +0.000 C 
ATOM     75  C53 UNL A   1      13.511  52.435   5.176  1.00  0.00    +0.000 C 
ATOM     76  N6  UNL A   1      13.803  51.383   4.345  1.00  0.00    +0.000 N 
ATOM     77  C54 UNL A   1      13.995  47.466   2.260  1.00  0.00    +0.000 C 
ATOM     78  C55 UNL A   1      14.881  47.597   1.282  1.00  0.00    +0.000 C 
ATOM     79  C56 UNL A   1      16.057  55.691   3.067  1.00  0.00    +0.000 C 
ATOM     80  C57 UNL A   1      15.327  55.579   4.167  1.00  0.00    +0.000 C 
ATOM    118  H25 UNL A   1      18.580  53.221  -0.896  1.00  0.00    +0.000 H 
ATOM    119  H26 UNL A   1      18.154  50.717  -1.488  1.00  0.00    +0.000 H 
ATOM    120  H27 UNL A   1      15.789  51.706   1.763  1.00  0.00    +0.000 H 
ATOM    121  H28 UNL A   1      11.723  49.946   6.360  1.00  0.00    +0.000 H 
ATOM    122  H29 UNL A   1      12.104  52.399   6.901  1.00  0.00    +0.000 H 
ATOM    123  H30 UNL A   1      14.436  51.450   3.593  1.00  0.00    +0.000 H 
ATOM    124  H31 UNL A   1      13.443  46.639   2.532  1.00  0.00    +0.000 H 
ATOM    125  H32 UNL A   1      15.171  46.830   0.654  1.00  0.00    +0.000 H 
ATOM    126  H33 UNL A   1      16.476  56.573   2.732  1.00  0.00    +0.000 H 
ATOM    127  H34 UNL A   1      15.110  56.292   4.880  1.00  0.00    +0.000 H 
ENDROOT
BRANCH   24   23
ATOM    129  H36 UNL A   1      14.135  55.807   9.258  1.00  0.00    +0.000 H 
ATOM     81  C58 UNL A   1      14.134  54.845   7.382  1.00  0.00    +0.000 C 
ATOM     82  C59 UNL A   1      13.658  55.729   8.346  1.00  0.00    +0.000 C 
ATOM     20  C16 UNL A   1      12.530  56.511   8.078  1.00  0.00    +0.000 C 
ATOM     21  C17 UNL A   1      11.814  56.327   6.891  1.00  0.00    +0.000 C 
ATOM    116  H23 UNL A   1      10.961  56.877   6.710  1.00  0.00    +0.000 H 
ATOM     22  C18 UNL A   1      12.259  55.394   5.951  1.00  0.00    +0.000 C 
ATOM    117  H24 UNL A   1      11.718  55.240   5.085  1.00  0.00    +0.000 H 
ATOM     23  C19 UNL A   1      13.437  54.665   6.179  1.00  0.00    +0.000 C 
ATOM    128  H35 UNL A   1      15.006  54.319   7.554  1.00  0.00    +0.000 H 
BRANCH   20   18
ATOM     18  C15 UNL A   1      12.052  57.519   9.051  1.00  0.00    +0.000 C 
ATOM     19  O2  UNL A   1      12.499  58.656   9.019  1.00  0.00    +0.000 O 
BRANCH   18   17
ATOM     17  N2  UNL A   1      11.106  57.173   9.986  1.00  0.00    +0.000 N 
ATOM    115  H22 UNL A   1      10.330  57.775  10.047  1.00  0.00    +0.000 H 
BRANCH   17   16
ATOM    113  H20 UNL A   1      12.088  55.866  11.249  1.00  0.00    +0.000 H 
ATOM    114  H21 UNL A   1      10.433  56.272  11.706  1.00  0.00    +0.000 H 
ATOM     16  C14 UNL A   1      11.093  56.040  10.897  1.00  0.00    +0.000 C 
BRANCH   16   15
ATOM    111  H18 UNL A   1       9.513  54.790  10.238  1.00  0.00    +0.000 H 
ATOM     15  C13 UNL A   1      10.582  54.771  10.219  1.00  0.00    +0.000 C 
ATOM    112  H19 UNL A   1      10.985  54.774   9.227  1.00  0.00    +0.000 H 
BRANCH   15   14
ATOM    110  H17 UNL A   1      10.175  53.016  11.291  1.00  0.00    +0.000 H 
ATOM    109  H16 UNL A   1      11.795  53.711  11.600  1.00  0.00    +0.000 H 
ATOM     14  C12 UNL A   1      11.049  53.467  10.873  1.00  0.00    +0.000 C 
BRANCH   14   13
ATOM    107  H14 UNL A   1      11.165  52.543   8.963  1.00  0.00    +0.000 H 
ATOM    108  H15 UNL A   1      12.697  52.621   9.885  1.00  0.00    +0.000 H 
ATOM     13  C11 UNL A   1      11.645  52.430   9.913  1.00  0.00    +0.000 C 
BRANCH   13   12
ATOM    105  H12 UNL A   1      12.457  50.512  10.360  1.00  0.00    +0.000 H 
ATOM    106  H13 UNL A   1      11.035  50.979  11.321  1.00  0.00    +0.000 H 
ATOM     12  C10 UNL A   1      11.490  50.968  10.352  1.00  0.00    +0.000 C 
BRANCH   12   11
ATOM     11  C9  UNL A   1      10.577  50.143   9.442  1.00  0.00    +0.000 C 
ATOM    103  H10 UNL A   1       9.644  50.655   9.322  1.00  0.00    +0.000 H 
ATOM    104  H11 UNL A   1      11.055  50.020   8.493  1.00  0.00    +0.000 H 
BRANCH   11   10
ATOM     10  N1  UNL A   1      10.332  48.834  10.018  1.00  0.00    +0.000 N 
ATOM    102  H9  UNL A   1       9.495  48.767  10.533  1.00  0.00    +0.000 H 
BRANCH   10    8
ATOM      9  O1  UNL A   1      10.740  46.744  10.692  1.00  0.00    +0.000 O 
ATOM      8  C8  UNL A   1      11.056  47.688   9.969  1.00  0.00    +0.000 C 
BRANCH    8    7
ATOM    101  H8  UNL A   1      12.130  47.488   8.109  1.00  0.00    +0.000 H 
ATOM      7  C7  UNL A   1      12.268  47.570   9.129  1.00  0.00    +0.000 C 
BRANCH    7    6
ATOM    100  H7  UNL A   1      13.876  46.709  10.051  1.00  0.00    +0.000 H 
ATOM      6  C6  UNL A   1      13.531  47.559   9.579  1.00  0.00    +0.000 C 
BRANCH    6    5
ATOM    130  H37 UNL A   1      14.398  49.205  11.485  1.00  0.00    +0.000 H 
ATOM      3  C3  UNL A   1      15.786  50.200   8.046  1.00  0.00    +0.000 C 
ATOM      4  C4  UNL A   1      14.949  49.082   8.184  1.00  0.00    +0.000 C 
ATOM      5  C5  UNL A   1      14.448  48.700   9.435  1.00  0.00    +0.000 C 
ATOM     99  H6  UNL A   1      14.698  48.532   7.347  1.00  0.00    +0.000 H 
ATOM    136  H43 UNL A   1      16.756  51.750   9.103  1.00  0.00    +0.000 H 
ATOM     83  C60 UNL A   1      14.769  49.470  10.559  1.00  0.00    +0.000 C 
ATOM     84  C61 UNL A   1      15.592  50.599  10.438  1.00  0.00    +0.000 C 
ATOM     93  C69 UNL A   1      16.118  50.943   9.186  1.00  0.00    +0.000 C 
BRANCH    3    2
ATOM     97  H4  UNL A   1      15.556  51.236   6.223  1.00  0.00    +0.000 H 
ATOM      2  C2  UNL A   1      16.292  50.613   6.687  1.00  0.00    +0.000 C 
ATOM     98  H5  UNL A   1      17.217  51.132   6.832  1.00  0.00    +0.000 H 
BRANCH    2    1
ATOM      1  C1  UNL A   1      16.571  49.429   5.775  1.00  0.00    +0.000 C 
ATOM     94  H1  UNL A   1      17.613  49.187   5.813  1.00  0.00    +0.000 H 
ATOM     95  H2  UNL A   1      16.299  49.679   4.771  1.00  0.00    +0.000 H 
ATOM     96  H3  UNL A   1      15.997  48.586   6.100  1.00  0.00    +0.000 H 
ENDBRANCH    2    1
ENDBRANCH    3    2
BRANCH   84   85
ATOM     85  C62 UNL A   1      15.899  51.389  11.663  1.00  0.00    +0.000 C 
ATOM     86  O3  UNL A   1      17.063  51.522  12.029  1.00  0.00    +0.000 O 
BRANCH   85   87
ATOM    131  H38 UNL A   1      15.331  53.983  11.800  1.00  0.00    +0.000 H 
ATOM    132  H39 UNL A   1      13.540  55.082  13.017  1.00  0.00    +0.000 H 
ATOM    133  H40 UNL A   1      12.021  53.775  14.385  1.00  0.00    +0.000 H 
ATOM    134  H41 UNL A   1      12.308  51.373  14.569  1.00  0.00    +0.000 H 
ATOM    135  H42 UNL A   1      14.096  50.267  13.352  1.00  0.00    +0.000 H 
ATOM     87  C63 UNL A   1      14.821  52.037  12.450  1.00  0.00    +0.000 C 
ATOM     88  C64 UNL A   1      14.679  53.426  12.376  1.00  0.00    +0.000 C 
ATOM     89  C65 UNL A   1      13.655  54.059  13.082  1.00  0.00    +0.000 C 
ATOM     90  C66 UNL A   1      12.785  53.307  13.873  1.00  0.00    +0.000 C 
ATOM     91  C67 UNL A   1      12.946  51.925  13.974  1.00  0.00    +0.000 C 
ATOM     92  C68 UNL A   1      13.969  51.287  13.269  1.00  0.00    +0.000 C 
ENDBRANCH   85   87
ENDBRANCH   84   85
ENDBRANCH    6    5
ENDBRANCH    7    6
ENDBRANCH    8    7
ENDBRANCH   10    8
ENDBRANCH   11   10
ENDBRANCH   12   11
ENDBRANCH   13   12
ENDBRANCH   14   13
ENDBRANCH   15   14
ENDBRANCH   16   15
ENDBRANCH   17   16
ENDBRANCH   18   17
ENDBRANCH   20   18
ENDBRANCH   24   23
BRANCH   28   29
ATOM     33  F2  UNL A   1      17.310  58.015  -1.755  1.00  0.00    +0.000 F 
ATOM     34  C27 UNL A   1      19.107  57.587  -0.284  1.00  0.00    +0.000 C 
ATOM     35  F3  UNL A   1      19.783  58.632  -0.782  1.00  0.00    +0.000 F 
ATOM     36  C28 UNL A   1      19.671  56.807   0.715  1.00  0.00    +0.000 C 
ATOM     37  F4  UNL A   1      20.886  57.111   1.195  1.00  0.00    +0.000 F 
ATOM     38  C29 UNL A   1      18.982  55.706   1.215  1.00  0.00    +0.000 C 
ATOM     39  F5  UNL A   1      19.562  54.962   2.168  1.00  0.00    +0.000 F 
ATOM     29  C24 UNL A   1      17.703  55.378   0.740  1.00  0.00    +0.000 C 
ATOM     30  C25 UNL A   1      17.142  56.195  -0.252  1.00  0.00    +0.000 C 
ATOM     31  F1  UNL A   1      15.927  55.918  -0.749  1.00  0.00    +0.000 F 
ATOM     32  C26 UNL A   1      17.846  57.278  -0.771  1.00  0.00    +0.000 C 
ENDBRANCH   28   29
BRANCH   45   46
ATOM     46  C35 UNL A   1      16.774  48.376  -0.716  1.00  0.00    +0.000 C 
ATOM     47  C36 UNL A   1      18.011  47.736  -0.553  1.00  0.00    +0.000 C 
ATOM     48  F6  UNL A   1      18.807  48.057   0.478  1.00  0.00    +0.000 F 
ATOM     49  C37 UNL A   1      18.452  46.789  -1.474  1.00  0.00    +0.000 C 
ATOM     50  F7  UNL A   1      19.657  46.221  -1.324  1.00  0.00    +0.000 F 
ATOM     51  C38 UNL A   1      17.654  46.443  -2.555  1.00  0.00    +0.000 C 
ATOM     52  F8  UNL A   1      18.077  45.528  -3.436  1.00  0.00    +0.000 F 
ATOM     53  C39 UNL A   1      16.419  47.052  -2.725  1.00  0.00    +0.000 C 
ATOM     54  F9  UNL A   1      15.642  46.711  -3.763  1.00  0.00    +0.000 F 
ATOM     55  C40 UNL A   1      15.987  48.018  -1.821  1.00  0.00    +0.000 C 
ATOM     56  F10 UNL A   1      14.793  48.598  -2.017  1.00  0.00    +0.000 F 
ENDBRANCH   45   46
BRANCH   60   61
ATOM     65  F12 UNL A   1       8.929  46.587   4.382  1.00  0.00    +0.000 F 
ATOM     66  C47 UNL A   1      10.766  45.812   5.647  1.00  0.00    +0.000 C 
ATOM     67  F13 UNL A   1      10.025  44.811   6.140  1.00  0.00    +0.000 F 
ATOM     68  C48 UNL A   1      12.089  45.957   6.040  1.00  0.00    +0.000 C 
ATOM     69  F14 UNL A   1      12.631  45.083   6.900  1.00  0.00    +0.000 F 
ATOM     70  C49 UNL A   1      12.856  47.007   5.541  1.00  0.00    +0.000 C 
ATOM     71  F15 UNL A   1      14.130  47.128   5.942  1.00  0.00    +0.000 F 
ATOM     61  C44 UNL A   1      12.321  47.919   4.619  1.00  0.00    +0.000 C 
ATOM     62  C45 UNL A   1      10.986  47.745   4.229  1.00  0.00    +0.000 C 
ATOM     63  F11 UNL A   1      10.426  48.605   3.365  1.00  0.00    +0.000 F 
ATOM     64  C46 UNL A   1      10.213  46.709   4.746  1.00  0.00    +0.000 C 
ENDBRANCH   60   61
TORSDOF 21
ENDMDL
MODEL 3
REMARK VINA RESULT:      -8.7     46.799     52.866
ROOT
ATOM     24  C20 UNL A   1       7.056   3.134  25.987  1.00  0.00    +0.000 C 
ATOM     25  C21 UNL A   1       8.251   3.421  26.852  1.00  0.00    +0.000 C 
ATOM     26  N3  UNL A   1       8.765   4.575  27.199  1.00  0.00    +0.000 N 
ATOM     27  C22 UNL A   1       9.826   4.277  28.043  1.00  0.00    +0.000 C 
ATOM     28  C23 UNL A   1      10.708   5.125  28.623  1.00  0.00    +0.000 C 
ATOM     40  C30 UNL A   1      10.694   6.553  28.447  1.00  0.00    +0.000 C 
ATOM     41  C31 UNL A   1      11.584   7.493  28.933  1.00  0.00    +0.000 C 
ATOM     42  C32 UNL A   1      11.141   8.761  28.540  1.00  0.00    +0.000 C 
ATOM     43  C33 UNL A   1       9.997   8.608  27.773  1.00  0.00    +0.000 C 
ATOM     44  N4  UNL A   1       9.732   7.248  27.727  1.00  0.00    +0.000 N 
ATOM     45  C34 UNL A   1       9.203   9.624  27.132  1.00  0.00    +0.000 C 
ATOM     57  C41 UNL A   1       8.101   9.391  26.377  1.00  0.00    +0.000 C 
ATOM     58  N5  UNL A   1       7.505   8.181  26.056  1.00  0.00    +0.000 N 
ATOM     59  C42 UNL A   1       6.464   8.477  25.316  1.00  0.00    +0.000 C 
ATOM     60  C43 UNL A   1       5.468   7.556  24.668  1.00  0.00    +0.000 C 
ATOM     72  C50 UNL A   1       5.612   6.225  24.810  1.00  0.00    +0.000 C 
ATOM     73  C51 UNL A   1       4.732   5.211  24.236  1.00  0.00    +0.000 C 
ATOM     74  C52 UNL A   1       5.158   3.996  24.618  1.00  0.00    +0.000 C 
ATOM     75  C53 UNL A   1       6.361   4.146  25.436  1.00  0.00    +0.000 C 
ATOM     76  N6  UNL A   1       6.560   5.502  25.491  1.00  0.00    +0.000 N 
ATOM     77  C54 UNL A   1       6.268   9.917  25.104  1.00  0.00    +0.000 C 
ATOM     78  C55 UNL A   1       7.313  10.427  25.741  1.00  0.00    +0.000 C 
ATOM     79  C56 UNL A   1       9.856   2.837  28.193  1.00  0.00    +0.000 C 
ATOM     80  C57 UNL A   1       8.944   2.257  27.426  1.00  0.00    +0.000 C 
ATOM    118  H25 UNL A   1      12.430   7.294  29.490  1.00  0.00    +0.000 H 
ATOM    119  H26 UNL A   1      11.590   9.658  28.780  1.00  0.00    +0.000 H 
ATOM    120  H27 UNL A   1       8.975   6.836  27.253  1.00  0.00    +0.000 H 
ATOM    121  H28 UNL A   1       3.914   5.398  23.636  1.00  0.00    +0.000 H 
ATOM    122  H29 UNL A   1       4.708   3.100  24.372  1.00  0.00    +0.000 H 
ATOM    123  H30 UNL A   1       7.310   5.918  25.975  1.00  0.00    +0.000 H 
ATOM    124  H31 UNL A   1       5.515  10.405  24.594  1.00  0.00    +0.000 H 
ATOM    125  H32 UNL A   1       7.536  11.434  25.780  1.00  0.00    +0.000 H 
ATOM    126  H33 UNL A   1      10.502   2.329  28.817  1.00  0.00    +0.000 H 
ATOM    127  H34 UNL A   1       8.766   1.253  27.271  1.00  0.00    +0.000 H 
ENDROOT
BRANCH   24   23
ATOM    129  H36 UNL A   1       6.993  -0.859  23.706  1.00  0.00    +0.000 H 
ATOM     81  C58 UNL A   1       7.102   0.979  24.733  1.00  0.00    +0.000 C 
ATOM     82  C59 UNL A   1       6.668  -0.328  24.530  1.00  0.00    +0.000 C 
ATOM     20  C16 UNL A   1       5.790  -0.920  25.443  1.00  0.00    +0.000 C 
ATOM     21  C17 UNL A   1       5.259  -0.169  26.495  1.00  0.00    +0.000 C 
ATOM    116  H23 UNL A   1       4.582  -0.596  27.146  1.00  0.00    +0.000 H 
ATOM     22  C18 UNL A   1       5.648   1.162  26.661  1.00  0.00    +0.000 C 
ATOM    117  H24 UNL A   1       5.239   1.725  27.424  1.00  0.00    +0.000 H 
ATOM     23  C19 UNL A   1       6.592   1.738  25.797  1.00  0.00    +0.000 C 
ATOM    128  H35 UNL A   1       7.803   1.392  24.097  1.00  0.00    +0.000 H 
BRANCH   20   18
ATOM     18  C15 UNL A   1       5.379  -2.335  25.296  1.00  0.00    +0.000 C 
ATOM     19  O2  UNL A   1       4.215  -2.607  25.036  1.00  0.00    +0.000 O 
BRANCH   18   17
ATOM     17  N2  UNL A   1       6.305  -3.338  25.454  1.00  0.00    +0.000 N 
ATOM    115  H22 UNL A   1       6.371  -3.975  24.706  1.00  0.00    +0.000 H 
BRANCH   17   16
ATOM    113  H20 UNL A   1       6.807  -3.114  27.445  1.00  0.00    +0.000 H 
ATOM    114  H21 UNL A   1       7.278  -4.645  26.706  1.00  0.00    +0.000 H 
ATOM     16  C14 UNL A   1       7.202  -3.587  26.571  1.00  0.00    +0.000 C 
BRANCH   16   15
ATOM    111  H18 UNL A   1       9.310  -3.812  26.535  1.00  0.00    +0.000 H 
ATOM     15  C13 UNL A   1       8.604  -3.042  26.307  1.00  0.00    +0.000 C 
ATOM    112  H19 UNL A   1       8.624  -2.745  25.279  1.00  0.00    +0.000 H 
BRANCH   15   14
ATOM    110  H17 UNL A   1       8.554  -1.955  28.099  1.00  0.00    +0.000 H 
ATOM    109  H16 UNL A   1       8.571  -0.944  26.622  1.00  0.00    +0.000 H 
ATOM     14  C12 UNL A   1       8.969  -1.800  27.125  1.00  0.00    +0.000 C 
BRANCH   14   13
ATOM    107  H14 UNL A   1      10.676  -0.535  27.166  1.00  0.00    +0.000 H 
ATOM    108  H15 UNL A   1      10.684  -1.893  28.333  1.00  0.00    +0.000 H 
ATOM     13  C11 UNL A   1      10.471  -1.572  27.334  1.00  0.00    +0.000 C 
BRANCH   13   12
ATOM    105  H12 UNL A   1      11.114  -3.423  26.498  1.00  0.00    +0.000 H 
ATOM    106  H13 UNL A   1      11.265  -2.010  25.427  1.00  0.00    +0.000 H 
ATOM     12  C10 UNL A   1      11.390  -2.393  26.419  1.00  0.00    +0.000 C 
BRANCH   12   11
ATOM     11  C9  UNL A   1      12.876  -2.265  26.761  1.00  0.00    +0.000 C 
ATOM    103  H10 UNL A   1      12.976  -1.903  27.763  1.00  0.00    +0.000 H 
ATOM    104  H11 UNL A   1      13.336  -3.226  26.667  1.00  0.00    +0.000 H 
BRANCH   11   10
ATOM     10  N1  UNL A   1      13.529  -1.341  25.852  1.00  0.00    +0.000 N 
ATOM    102  H9  UNL A   1      13.697  -1.706  24.953  1.00  0.00    +0.000 H 
BRANCH   10    8
ATOM      9  O1  UNL A   1      14.985   0.153  26.653  1.00  0.00    +0.000 O 
ATOM      8  C8  UNL A   1      13.947  -0.062  26.028  1.00  0.00    +0.000 C 
BRANCH    8    7
ATOM    101  H8  UNL A   1      13.657   1.893  25.164  1.00  0.00    +0.000 H 
ATOM      7  C7  UNL A   1      13.144   1.090  25.560  1.00  0.00    +0.000 C 
BRANCH    7    6
ATOM    100  H7  UNL A   1      11.344   1.127  26.528  1.00  0.00    +0.000 H 
ATOM      6  C6  UNL A   1      11.807   1.178  25.607  1.00  0.00    +0.000 C 
BRANCH    6    5
ATOM    130  H37 UNL A   1      11.179  -0.663  23.788  1.00  0.00    +0.000 H 
ATOM      3  C3  UNL A   1       9.658   2.749  22.900  1.00  0.00    +0.000 C 
ATOM      4  C4  UNL A   1      10.419   2.587  24.068  1.00  0.00    +0.000 C 
ATOM      5  C5  UNL A   1      10.967   1.343  24.411  1.00  0.00    +0.000 C 
ATOM     99  H6  UNL A   1      10.578   3.399  24.686  1.00  0.00    +0.000 H 
ATOM    136  H43 UNL A   1       8.869   1.741  21.220  1.00  0.00    +0.000 H 
ATOM     83  C60 UNL A   1      10.772   0.255  23.552  1.00  0.00    +0.000 C 
ATOM     84  C61 UNL A   1      10.026   0.403  22.373  1.00  0.00    +0.000 C 
ATOM     93  C69 UNL A   1       9.451   1.642  22.067  1.00  0.00    +0.000 C 
BRANCH    3    2
ATOM     97  H4  UNL A   1       9.088   4.714  23.410  1.00  0.00    +0.000 H 
ATOM      2  C2  UNL A   1       9.101   4.101  22.533  1.00  0.00    +0.000 C 
ATOM     98  H5  UNL A   1       9.729   4.512  21.771  1.00  0.00    +0.000 H 
BRANCH    2    1
ATOM      1  C1  UNL A   1       7.690   4.027  21.971  1.00  0.00    +0.000 C 
ATOM     94  H1  UNL A   1       7.723   4.148  20.908  1.00  0.00    +0.000 H 
ATOM     95  H2  UNL A   1       7.093   4.804  22.400  1.00  0.00    +0.000 H 
ATOM     96  H3  UNL A   1       7.261   3.076  22.209  1.00  0.00    +0.000 H 
ENDBRANCH    2    1
ENDBRANCH    3    2
BRANCH   84   85
ATOM     85  C62 UNL A   1       9.853  -0.783  21.489  1.00  0.00    +0.000 C 
ATOM     86  O3  UNL A   1       9.491  -0.631  20.326  1.00  0.00    +0.000 O 
BRANCH   85   87
ATOM    131  H38 UNL A   1      12.085  -2.197  21.199  1.00  0.00    +0.000 H 
ATOM    132  H39 UNL A   1      12.598  -4.415  22.044  1.00  0.00    +0.000 H 
ATOM    133  H40 UNL A   1      10.926  -5.657  23.288  1.00  0.00    +0.000 H 
ATOM    134  H41 UNL A   1       8.726  -4.703  23.659  1.00  0.00    +0.000 H 
ATOM    135  H42 UNL A   1       8.208  -2.484  22.818  1.00  0.00    +0.000 H 
ATOM     87  C63 UNL A   1      10.122  -2.156  21.982  1.00  0.00    +0.000 C 
ATOM     88  C64 UNL A   1      11.377  -2.723  21.735  1.00  0.00    +0.000 C 
ATOM     89  C65 UNL A   1      11.668  -4.001  22.214  1.00  0.00    +0.000 C 
ATOM     90  C66 UNL A   1      10.704  -4.717  22.924  1.00  0.00    +0.000 C 
ATOM     91  C67 UNL A   1       9.441  -4.166  23.144  1.00  0.00    +0.000 C 
ATOM     92  C68 UNL A   1       9.144  -2.887  22.667  1.00  0.00    +0.000 C 
ENDBRANCH   85   87
ENDBRANCH   84   85
ENDBRANCH    6    5
ENDBRANCH    7    6
ENDBRANCH    8    7
ENDBRANCH   10    8
ENDBRANCH   11   10
ENDBRANCH   12   11
ENDBRANCH   13   12
ENDBRANCH   14   13
ENDBRANCH   15   14
ENDBRANCH   16   15
ENDBRANCH   17   16
ENDBRANCH   18   17
ENDBRANCH   20   18
ENDBRANCH   24   23
BRANCH   28   29
ATOM     33  F2  UNL A   1      14.851   2.586  29.265  1.00  0.00    +0.000 F 
ATOM     34  C27 UNL A   1      13.745   3.431  31.172  1.00  0.00    +0.000 C 
ATOM     35  F3  UNL A   1      14.681   2.896  31.970  1.00  0.00    +0.000 F 
ATOM     36  C28 UNL A   1      12.679   4.127  31.723  1.00  0.00    +0.000 C 
ATOM     37  F4  UNL A   1      12.596   4.282  33.052  1.00  0.00    +0.000 F 
ATOM     38  C29 UNL A   1      11.693   4.661  30.898  1.00  0.00    +0.000 C 
ATOM     39  F5  UNL A   1      10.666   5.314  31.462  1.00  0.00    +0.000 F 
ATOM     29  C24 UNL A   1      11.767   4.526  29.504  1.00  0.00    +0.000 C 
ATOM     30  C25 UNL A   1      12.866   3.840  28.968  1.00  0.00    +0.000 C 
ATOM     31  F1  UNL A   1      12.978   3.673  27.641  1.00  0.00    +0.000 F 
ATOM     32  C26 UNL A   1      13.836   3.282  29.797  1.00  0.00    +0.000 C 
ENDBRANCH   28   29
BRANCH   45   46
ATOM     46  C35 UNL A   1       9.637  11.051  27.288  1.00  0.00    +0.000 C 
ATOM     47  C36 UNL A   1       9.055  11.893  28.248  1.00  0.00    +0.000 C 
ATOM     48  F6  UNL A   1       8.051  11.447  29.018  1.00  0.00    +0.000 F 
ATOM     49  C37 UNL A   1       9.480  13.211  28.393  1.00  0.00    +0.000 C 
ATOM     50  F7  UNL A   1       8.882  14.011  29.286  1.00  0.00    +0.000 F 
ATOM     51  C38 UNL A   1      10.511  13.701  27.605  1.00  0.00    +0.000 C 
ATOM     52  F8  UNL A   1      10.923  14.968  27.750  1.00  0.00    +0.000 F 
ATOM     53  C39 UNL A   1      11.111  12.880  26.661  1.00  0.00    +0.000 C 
ATOM     54  F9  UNL A   1      12.115  13.350  25.907  1.00  0.00    +0.000 F 
ATOM     55  C40 UNL A   1      10.671  11.570  26.496  1.00  0.00    +0.000 C 
ATOM     56  F10 UNL A   1      11.263  10.803  25.567  1.00  0.00    +0.000 F 
ENDBRANCH   45   46
BRANCH   60   61
ATOM     65  F12 UNL A   1       3.658   8.993  20.377  1.00  0.00    +0.000 F 
ATOM     66  C47 UNL A   1       2.245   9.079  22.268  1.00  0.00    +0.000 C 
ATOM     67  F13 UNL A   1       1.243   9.553  21.517  1.00  0.00    +0.000 F 
ATOM     68  C48 UNL A   1       2.063   8.885  23.629  1.00  0.00    +0.000 C 
ATOM     69  F14 UNL A   1       0.877   9.155  24.191  1.00  0.00    +0.000 F 
ATOM     70  C49 UNL A   1       3.111   8.407  24.414  1.00  0.00    +0.000 C 
ATOM     71  F15 UNL A   1       2.910   8.235  25.729  1.00  0.00    +0.000 F 
ATOM     61  C44 UNL A   1       4.354   8.092  23.847  1.00  0.00    +0.000 C 
ATOM     62  C45 UNL A   1       4.510   8.285  22.467  1.00  0.00    +0.000 C 
ATOM     63  F11 UNL A   1       5.688   8.016  21.884  1.00  0.00    +0.000 F 
ATOM     64  C46 UNL A   1       3.471   8.785  21.688  1.00  0.00    +0.000 C 
ENDBRANCH   60   61
TORSDOF 21
ENDMDL
MODEL 4
REMARK VINA RESULT:      -8.7     43.814     47.076
ROOT
ATOM     24  C20 UNL A   1      24.586  38.946  46.667  1.00  0.00    +0.000 C 
ATOM     25  C21 UNL A   1      23.878  40.012  47.454  1.00  0.00    +0.000 C 
ATOM     26  N3  UNL A   1      22.709  39.969  48.042  1.00  0.00    +0.000 N 
ATOM     27  C22 UNL A   1      22.555  41.199  48.667  1.00  0.00    +0.000 C 
ATOM     28  C23 UNL A   1      21.491  41.666  49.363  1.00  0.00    +0.000 C 
ATOM     40  C30 UNL A   1      20.275  40.927  49.575  1.00  0.00    +0.000 C 
ATOM     41  C31 UNL A   1      19.113  41.337  50.203  1.00  0.00    +0.000 C 
ATOM     42  C32 UNL A   1      18.214  40.264  50.207  1.00  0.00    +0.000 C 
ATOM     43  C33 UNL A   1      18.802  39.198  49.544  1.00  0.00    +0.000 C 
ATOM     44  N4  UNL A   1      20.067  39.618  49.164  1.00  0.00    +0.000 N 
ATOM     45  C34 UNL A   1      18.252  37.893  49.278  1.00  0.00    +0.000 C 
ATOM     57  C41 UNL A   1      18.886  36.904  48.601  1.00  0.00    +0.000 C 
ATOM     58  N5  UNL A   1      20.150  36.910  48.030  1.00  0.00    +0.000 N 
ATOM     59  C42 UNL A   1      20.314  35.722  47.502  1.00  0.00    +0.000 C 
ATOM     60  C43 UNL A   1      21.486  35.177  46.735  1.00  0.00    +0.000 C 
ATOM     72  C50 UNL A   1      22.548  35.972  46.502  1.00  0.00    +0.000 C 
ATOM     73  C51 UNL A   1      23.751  35.587  45.770  1.00  0.00    +0.000 C 
ATOM     74  C52 UNL A   1      24.611  36.618  45.770  1.00  0.00    +0.000 C 
ATOM     75  C53 UNL A   1      24.005  37.747  46.476  1.00  0.00    +0.000 C 
ATOM     76  N6  UNL A   1      22.779  37.274  46.870  1.00  0.00    +0.000 N 
ATOM     77  C54 UNL A   1      19.175  34.814  47.701  1.00  0.00    +0.000 C 
ATOM     78  C55 UNL A   1      18.319  35.596  48.345  1.00  0.00    +0.000 C 
ATOM     79  C56 UNL A   1      23.769  41.951  48.426  1.00  0.00    +0.000 C 
ATOM     80  C57 UNL A   1      24.591  41.287  47.626  1.00  0.00    +0.000 C 
ATOM    118  H25 UNL A   1      18.937  42.273  50.600  1.00  0.00    +0.000 H 
ATOM    119  H26 UNL A   1      17.274  40.265  50.631  1.00  0.00    +0.000 H 
ATOM    120  H27 UNL A   1      20.721  39.069  48.675  1.00  0.00    +0.000 H 
ATOM    121  H28 UNL A   1      23.914  34.671  45.324  1.00  0.00    +0.000 H 
ATOM    122  H29 UNL A   1      25.550  36.614  45.341  1.00  0.00    +0.000 H 
ATOM    123  H30 UNL A   1      22.127  37.818  47.370  1.00  0.00    +0.000 H 
ATOM    124  H31 UNL A   1      19.069  33.829  47.416  1.00  0.00    +0.000 H 
ATOM    125  H32 UNL A   1      17.368  35.309  48.627  1.00  0.00    +0.000 H 
ATOM    126  H33 UNL A   1      23.967  42.881  48.825  1.00  0.00    +0.000 H 
ATOM    127  H34 UNL A   1      25.495  41.586  47.229  1.00  0.00    +0.000 H 
ENDROOT
BRANCH   24   23
ATOM    129  H36 UNL A   1      27.746  41.504  44.517  1.00  0.00    +0.000 H 
ATOM     81  C58 UNL A   1      26.265  40.401  45.533  1.00  0.00    +0.000 C 
ATOM     82  C59 UNL A   1      27.544  40.636  45.038  1.00  0.00    +0.000 C 
ATOM     20  C16 UNL A   1      28.555  39.693  45.245  1.00  0.00    +0.000 C 
ATOM     21  C17 UNL A   1      28.260  38.468  45.848  1.00  0.00    +0.000 C 
ATOM    116  H23 UNL A   1      28.999  37.757  45.967  1.00  0.00    +0.000 H 
ATOM     22  C18 UNL A   1      26.960  38.208  46.289  1.00  0.00    +0.000 C 
ATOM    117  H24 UNL A   1      26.736  37.294  46.714  1.00  0.00    +0.000 H 
ATOM     23  C19 UNL A   1      25.959  39.183  46.159  1.00  0.00    +0.000 C 
ATOM    128  H35 UNL A   1      25.537  41.127  45.440  1.00  0.00    +0.000 H 
BRANCH   20   18
ATOM     18  C15 UNL A   1      29.944  39.955  44.802  1.00  0.00    +0.000 C 
ATOM     19  O2  UNL A   1      30.612  40.810  45.365  1.00  0.00    +0.000 O 
BRANCH   18   17
ATOM     17  N2  UNL A   1      30.478  39.235  43.760  1.00  0.00    +0.000 N 
ATOM    115  H22 UNL A   1      30.235  39.549  42.859  1.00  0.00    +0.000 H 
BRANCH   17   16
ATOM    113  H20 UNL A   1      32.352  38.385  43.580  1.00  0.00    +0.000 H 
ATOM    114  H21 UNL A   1      31.292  37.651  44.784  1.00  0.00    +0.000 H 
ATOM     16  C14 UNL A   1      31.353  38.075  43.805  1.00  0.00    +0.000 C 
BRANCH   16   15
ATOM    111  H18 UNL A   1      30.730  37.486  41.866  1.00  0.00    +0.000 H 
ATOM     15  C13 UNL A   1      30.932  37.005  42.800  1.00  0.00    +0.000 C 
ATOM    112  H19 UNL A   1      31.739  36.305  42.746  1.00  0.00    +0.000 H 
BRANCH   15   14
ATOM    110  H17 UNL A   1      29.538  35.482  42.432  1.00  0.00    +0.000 H 
ATOM    109  H16 UNL A   1      28.876  36.893  43.312  1.00  0.00    +0.000 H 
ATOM     14  C12 UNL A   1      29.689  36.206  43.204  1.00  0.00    +0.000 C 
BRANCH   14   13
ATOM    107  H14 UNL A   1      30.444  34.566  44.325  1.00  0.00    +0.000 H 
ATOM    108  H15 UNL A   1      30.221  36.094  45.232  1.00  0.00    +0.000 H 
ATOM     13  C11 UNL A   1      29.817  35.414  44.511  1.00  0.00    +0.000 C 
BRANCH   13   12
ATOM    105  H12 UNL A   1      28.577  34.901  46.166  1.00  0.00    +0.000 H 
ATOM    106  H13 UNL A   1      27.725  35.564  44.752  1.00  0.00    +0.000 H 
ATOM     12  C10 UNL A   1      28.494  34.906  45.099  1.00  0.00    +0.000 C 
BRANCH   12   11
ATOM     11  C9  UNL A   1      28.114  33.497  44.640  1.00  0.00    +0.000 C 
ATOM    103  H10 UNL A   1      27.862  33.521  43.600  1.00  0.00    +0.000 H 
ATOM    104  H11 UNL A   1      28.947  32.845  44.802  1.00  0.00    +0.000 H 
BRANCH   11   10
ATOM     10  N1  UNL A   1      26.978  33.004  45.395  1.00  0.00    +0.000 N 
ATOM    102  H9  UNL A   1      26.158  32.882  44.863  1.00  0.00    +0.000 H 
BRANCH   10    8
ATOM      9  O1  UNL A   1      27.347  31.635  47.122  1.00  0.00    +0.000 O 
ATOM      8  C8  UNL A   1      26.851  32.682  46.707  1.00  0.00    +0.000 C 
BRANCH    8    7
ATOM    101  H8  UNL A   1      25.056  33.285  47.740  1.00  0.00    +0.000 H 
ATOM      7  C7  UNL A   1      26.057  33.514  47.639  1.00  0.00    +0.000 C 
BRANCH    7    6
ATOM    100  H7  UNL A   1      27.551  34.647  48.452  1.00  0.00    +0.000 H 
ATOM      6  C6  UNL A   1      26.529  34.539  48.362  1.00  0.00    +0.000 C 
BRANCH    6    5
ATOM    130  H37 UNL A   1      27.106  37.058  49.006  1.00  0.00    +0.000 H 
ATOM      3  C3  UNL A   1      23.572  36.100  50.159  1.00  0.00    +0.000 C 
ATOM      4  C4  UNL A   1      24.376  35.176  49.475  1.00  0.00    +0.000 C 
ATOM      5  C5  UNL A   1      25.662  35.518  49.036  1.00  0.00    +0.000 C 
ATOM     99  H6  UNL A   1      24.013  34.227  49.292  1.00  0.00    +0.000 H 
ATOM    136  H43 UNL A   1      23.481  38.082  50.882  1.00  0.00    +0.000 H 
ATOM     83  C60 UNL A   1      26.156  36.797  49.315  1.00  0.00    +0.000 C 
ATOM     84  C61 UNL A   1      25.372  37.728  50.011  1.00  0.00    +0.000 C 
ATOM     93  C69 UNL A   1      24.073  37.384  50.406  1.00  0.00    +0.000 C 
BRANCH    3    2
ATOM     97  H4  UNL A   1      21.617  35.389  49.810  1.00  0.00    +0.000 H 
ATOM      2  C2  UNL A   1      22.201  35.704  50.649  1.00  0.00    +0.000 C 
ATOM     98  H5  UNL A   1      22.329  34.916  51.361  1.00  0.00    +0.000 H 
BRANCH    2    1
ATOM      1  C1  UNL A   1      21.473  36.839  51.350  1.00  0.00    +0.000 C 
ATOM     94  H1  UNL A   1      21.211  37.591  50.634  1.00  0.00    +0.000 H 
ATOM     95  H2  UNL A   1      22.109  37.265  52.097  1.00  0.00    +0.000 H 
ATOM     96  H3  UNL A   1      20.584  36.462  51.812  1.00  0.00    +0.000 H 
ENDBRANCH    2    1
ENDBRANCH    3    2
BRANCH   84   85
ATOM     85  C62 UNL A   1      25.946  39.074  50.289  1.00  0.00    +0.000 C 
ATOM     86  O3  UNL A   1      25.329  39.869  50.993  1.00  0.00    +0.000 O 
BRANCH   85   87
ATOM    131  H38 UNL A   1      26.561  41.348  49.056  1.00  0.00    +0.000 H 
ATOM    132  H39 UNL A   1      28.714  42.079  48.204  1.00  0.00    +0.000 H 
ATOM    133  H40 UNL A   1      30.646  40.621  48.375  1.00  0.00    +0.000 H 
ATOM    134  H41 UNL A   1      30.424  38.416  49.362  1.00  0.00    +0.000 H 
ATOM    135  H42 UNL A   1      28.273  37.680  50.219  1.00  0.00    +0.000 H 
ATOM     87  C63 UNL A   1      27.264  39.476  49.741  1.00  0.00    +0.000 C 
ATOM     88  C64 UNL A   1      27.385  40.731  49.136  1.00  0.00    +0.000 C 
ATOM     89  C65 UNL A   1      28.621  41.148  48.639  1.00  0.00    +0.000 C 
ATOM     90  C66 UNL A   1      29.730  40.306  48.732  1.00  0.00    +0.000 C 
ATOM     91  C67 UNL A   1      29.604  39.040  49.306  1.00  0.00    +0.000 C 
ATOM     92  C68 UNL A   1      28.370  38.619  49.805  1.00  0.00    +0.000 C 
ENDBRANCH   85   87
ENDBRANCH   84   85
ENDBRANCH    6    5
ENDBRANCH    7    6
ENDBRANCH    8    7
ENDBRANCH   10    8
ENDBRANCH   11   10
ENDBRANCH   12   11
ENDBRANCH   13   12
ENDBRANCH   14   13
ENDBRANCH   15   14
ENDBRANCH   16   15
ENDBRANCH   17   16
ENDBRANCH   18   17
ENDBRANCH   20   18
ENDBRANCH   24   23
BRANCH   28   29
ATOM     33  F2  UNL A   1      22.600  44.730  53.024  1.00  0.00    +0.000 F 
ATOM     34  C27 UNL A   1      21.801  45.644  50.998  1.00  0.00    +0.000 C 
ATOM     35  F3  UNL A   1      21.885  46.881  51.506  1.00  0.00    +0.000 F 
ATOM     36  C28 UNL A   1      21.334  45.453  49.706  1.00  0.00    +0.000 C 
ATOM     37  F4  UNL A   1      20.984  46.511  48.959  1.00  0.00    +0.000 F 
ATOM     38  C29 UNL A   1      21.221  44.167  49.186  1.00  0.00    +0.000 C 
ATOM     39  F5  UNL A   1      20.749  44.015  47.940  1.00  0.00    +0.000 F 
ATOM     29  C24 UNL A   1      21.596  43.047  49.943  1.00  0.00    +0.000 C 
ATOM     30  C25 UNL A   1      22.089  43.265  51.238  1.00  0.00    +0.000 C 
ATOM     31  F1  UNL A   1      22.450  42.226  52.007  1.00  0.00    +0.000 F 
ATOM     32  C26 UNL A   1      22.173  44.551  51.765  1.00  0.00    +0.000 C 
ENDBRANCH   28   29
BRANCH   45   46
ATOM     46  C35 UNL A   1      16.863  37.608  49.764  1.00  0.00    +0.000 C 
ATOM     47  C36 UNL A   1      16.579  37.467  51.131  1.00  0.00    +0.000 C 
ATOM     48  F6  UNL A   1      17.567  37.534  52.036  1.00  0.00    +0.000 F 
ATOM     49  C37 UNL A   1      15.281  37.220  51.568  1.00  0.00    +0.000 C 
ATOM     50  F7  UNL A   1      15.038  37.046  52.875  1.00  0.00    +0.000 F 
ATOM     51  C38 UNL A   1      14.241  37.138  50.654  1.00  0.00    +0.000 C 
ATOM     52  F8  UNL A   1      12.991  36.905  51.078  1.00  0.00    +0.000 F 
ATOM     53  C39 UNL A   1      14.498  37.291  49.299  1.00  0.00    +0.000 C 
ATOM     54  F9  UNL A   1      13.492  37.223  48.416  1.00  0.00    +0.000 F 
ATOM     55  C40 UNL A   1      15.798  37.512  48.856  1.00  0.00    +0.000 C 
ATOM     56  F10 UNL A   1      16.018  37.645  47.539  1.00  0.00    +0.000 F 
ENDBRANCH   45   46
BRANCH   60   61
ATOM     65  F12 UNL A   1      20.374  31.987  43.222  1.00  0.00    +0.000 F 
ATOM     66  C47 UNL A   1      21.464  31.181  45.156  1.00  0.00    +0.000 C 
ATOM     67  F13 UNL A   1      21.456  29.937  44.661  1.00  0.00    +0.000 F 
ATOM     68  C48 UNL A   1      22.009  31.428  46.407  1.00  0.00    +0.000 C 
ATOM     69  F14 UNL A   1      22.545  30.424  47.115  1.00  0.00    +0.000 F 
ATOM     70  C49 UNL A   1      22.003  32.720  46.930  1.00  0.00    +0.000 C 
ATOM     71  F15 UNL A   1      22.530  32.930  48.145  1.00  0.00    +0.000 F 
ATOM     61  C44 UNL A   1      21.472  33.793  46.199  1.00  0.00    +0.000 C 
ATOM     62  C45 UNL A   1      20.938  33.520  44.933  1.00  0.00    +0.000 C 
ATOM     63  F11 UNL A   1      20.402  34.512  44.206  1.00  0.00    +0.000 F 
ATOM     64  C46 UNL A   1      20.923  32.226  44.422  1.00  0.00    +0.000 C 
ENDBRANCH   60   61
TORSDOF 21
ENDMDL
MODEL 5
REMARK VINA RESULT:      -8.6     45.937     52.100
ROOT
ATOM     24  C20 UNL A   1       7.294   2.987  26.017  1.00  0.00    +0.000 C 
ATOM     25  C21 UNL A   1       8.471   3.309  26.894  1.00  0.00    +0.000 C 
ATOM     26  N3  UNL A   1       8.944   4.477  27.250  1.00  0.00    +0.000 N 
ATOM     27  C22 UNL A   1      10.007   4.210  28.102  1.00  0.00    +0.000 C 
ATOM     28  C23 UNL A   1      10.855   5.084  28.694  1.00  0.00    +0.000 C 
ATOM     40  C30 UNL A   1      10.796   6.512  28.524  1.00  0.00    +0.000 C 
ATOM     41  C31 UNL A   1      11.651   7.478  29.023  1.00  0.00    +0.000 C 
ATOM     42  C32 UNL A   1      11.170   8.733  28.631  1.00  0.00    +0.000 C 
ATOM     43  C33 UNL A   1      10.038   8.546  27.854  1.00  0.00    +0.000 C 
ATOM     44  N4  UNL A   1       9.818   7.179  27.799  1.00  0.00    +0.000 N 
ATOM     45  C34 UNL A   1       9.217   9.539  27.210  1.00  0.00    +0.000 C 
ATOM     57  C41 UNL A   1       8.130   9.273  26.444  1.00  0.00    +0.000 C 
ATOM     58  N5  UNL A   1       7.576   8.046  26.112  1.00  0.00    +0.000 N 
ATOM     59  C42 UNL A   1       6.533   8.311  25.364  1.00  0.00    +0.000 C 
ATOM     60  C43 UNL A   1       5.573   7.361  24.704  1.00  0.00    +0.000 C 
ATOM     72  C50 UNL A   1       5.760   6.035  24.841  1.00  0.00    +0.000 C 
ATOM     73  C51 UNL A   1       4.918   4.995  24.255  1.00  0.00    +0.000 C 
ATOM     74  C52 UNL A   1       5.381   3.793  24.634  1.00  0.00    +0.000 C 
ATOM     75  C53 UNL A   1       6.571   3.979  25.464  1.00  0.00    +0.000 C 
ATOM     76  N6  UNL A   1       6.724   5.341  25.527  1.00  0.00    +0.000 N 
ATOM     77  C54 UNL A   1       6.291   9.745  25.157  1.00  0.00    +0.000 C 
ATOM     78  C55 UNL A   1       7.314  10.286  25.806  1.00  0.00    +0.000 C 
ATOM     79  C56 UNL A   1      10.083   2.771  28.246  1.00  0.00    +0.000 C 
ATOM     80  C57 UNL A   1       9.197   2.166  27.468  1.00  0.00    +0.000 C 
ATOM    118  H25 UNL A   1      12.498   7.305  29.586  1.00  0.00    +0.000 H 
ATOM    119  H26 UNL A   1      11.587   9.643  28.879  1.00  0.00    +0.000 H 
ATOM    120  H27 UNL A   1       9.079   6.744  27.316  1.00  0.00    +0.000 H 
ATOM    121  H28 UNL A   1       4.100   5.158  23.648  1.00  0.00    +0.000 H 
ATOM    122  H29 UNL A   1       4.963   2.884  24.381  1.00  0.00    +0.000 H 
ATOM    123  H30 UNL A   1       7.457   5.778  26.020  1.00  0.00    +0.000 H 
ATOM    124  H31 UNL A   1       5.528  10.210  24.642  1.00  0.00    +0.000 H 
ATOM    125  H32 UNL A   1       7.503  11.300  25.851  1.00  0.00    +0.000 H 
ATOM    126  H33 UNL A   1      10.740   2.282  28.873  1.00  0.00    +0.000 H 
ATOM    127  H34 UNL A   1       9.054   1.157  27.308  1.00  0.00    +0.000 H 
ENDROOT
BRANCH   24   23
ATOM    129  H36 UNL A   1       7.317  -0.969  23.672  1.00  0.00    +0.000 H 
ATOM     81  C58 UNL A   1       7.386   0.856  24.726  1.00  0.00    +0.000 C 
ATOM     82  C59 UNL A   1       6.996  -0.464  24.513  1.00  0.00    +0.000 C 
ATOM     20  C16 UNL A   1       6.167  -1.103  25.440  1.00  0.00    +0.000 C 
ATOM     21  C17 UNL A   1       5.638  -0.390  26.519  1.00  0.00    +0.000 C 
ATOM    116  H23 UNL A   1       4.996  -0.852  27.181  1.00  0.00    +0.000 H 
ATOM     22  C18 UNL A   1       5.981   0.953  26.696  1.00  0.00    +0.000 C 
ATOM    117  H24 UNL A   1       5.572   1.488  27.480  1.00  0.00    +0.000 H 
ATOM     23  C19 UNL A   1       6.878   1.578  25.816  1.00  0.00    +0.000 C 
ATOM    128  H35 UNL A   1       8.052   1.304  24.079  1.00  0.00    +0.000 H 
BRANCH   20   18
ATOM     18  C15 UNL A   1       5.805  -2.530  25.281  1.00  0.00    +0.000 C 
ATOM     19  O2  UNL A   1       4.792  -2.837  24.668  1.00  0.00    +0.000 O 
BRANCH   18   17
ATOM     17  N2  UNL A   1       6.607  -3.505  25.824  1.00  0.00    +0.000 N 
ATOM    115  H22 UNL A   1       6.193  -4.393  25.914  1.00  0.00    +0.000 H 
BRANCH   17   16
ATOM    113  H20 UNL A   1       8.156  -2.419  26.654  1.00  0.00    +0.000 H 
ATOM    114  H21 UNL A   1       8.135  -4.140  27.042  1.00  0.00    +0.000 H 
ATOM     16  C14 UNL A   1       7.985  -3.406  26.279  1.00  0.00    +0.000 C 
BRANCH   16   15
ATOM    111  H18 UNL A   1       9.441  -4.630  25.343  1.00  0.00    +0.000 H 
ATOM     15  C13 UNL A   1       8.978  -3.684  25.153  1.00  0.00    +0.000 C 
ATOM    112  H19 UNL A   1       8.416  -3.667  24.243  1.00  0.00    +0.000 H 
BRANCH   15   14
ATOM    110  H17 UNL A   1      10.388  -2.381  25.997  1.00  0.00    +0.000 H 
ATOM    109  H16 UNL A   1       9.678  -1.806  24.458  1.00  0.00    +0.000 H 
ATOM     14  C12 UNL A   1      10.081  -2.633  25.004  1.00  0.00    +0.000 C 
BRANCH   14   13
ATOM    107  H14 UNL A   1      11.937  -3.669  24.972  1.00  0.00    +0.000 H 
ATOM    108  H15 UNL A   1      11.007  -3.687  23.442  1.00  0.00    +0.000 H 
ATOM     13  C11 UNL A   1      11.345  -3.110  24.277  1.00  0.00    +0.000 C 
BRANCH   13   12
ATOM    105  H12 UNL A   1      12.549  -2.293  22.720  1.00  0.00    +0.000 H 
ATOM    106  H13 UNL A   1      11.627  -1.106  23.672  1.00  0.00    +0.000 H 
ATOM     12  C10 UNL A   1      12.224  -1.994  23.695  1.00  0.00    +0.000 C 
BRANCH   12   11
ATOM     11  C9  UNL A   1      13.460  -1.678  24.539  1.00  0.00    +0.000 C 
ATOM    103  H10 UNL A   1      13.323  -2.072  25.525  1.00  0.00    +0.000 H 
ATOM    104  H11 UNL A   1      14.316  -2.125  24.079  1.00  0.00    +0.000 H 
BRANCH   11   10
ATOM     10  N1  UNL A   1      13.666  -0.244  24.622  1.00  0.00    +0.000 N 
ATOM    102  H9  UNL A   1      14.166   0.139  23.865  1.00  0.00    +0.000 H 
BRANCH   10    8
ATOM      9  O1  UNL A   1      13.957   0.777  26.588  1.00  0.00    +0.000 O 
ATOM      8  C8  UNL A   1      13.288   0.658  25.562  1.00  0.00    +0.000 C 
BRANCH    8    7
ATOM    101  H8  UNL A   1      11.918   2.245  26.070  1.00  0.00    +0.000 H 
ATOM      7  C7  UNL A   1      12.044   1.448  25.426  1.00  0.00    +0.000 C 
BRANCH    7    6
ATOM    100  H7  UNL A   1      10.378   0.477  24.748  1.00  0.00    +0.000 H 
ATOM      6  C6  UNL A   1      11.067   1.216  24.537  1.00  0.00    +0.000 C 
BRANCH    6    5
ATOM    130  H37 UNL A   1       9.271   3.091  23.943  1.00  0.00    +0.000 H 
ATOM      3  C3  UNL A   1      11.590   2.386  20.964  1.00  0.00    +0.000 C 
ATOM      4  C4  UNL A   1      11.758   1.704  22.179  1.00  0.00    +0.000 C 
ATOM      5  C5  UNL A   1      10.928   1.962  23.278  1.00  0.00    +0.000 C 
ATOM     99  H6  UNL A   1      12.508   0.999  22.264  1.00  0.00    +0.000 H 
ATOM    136  H43 UNL A   1      10.453   3.869  19.979  1.00  0.00    +0.000 H 
ATOM     83  C60 UNL A   1       9.896   2.899  23.144  1.00  0.00    +0.000 C 
ATOM     84  C61 UNL A   1       9.705   3.579  21.932  1.00  0.00    +0.000 C 
ATOM     93  C69 UNL A   1      10.569   3.339  20.857  1.00  0.00    +0.000 C 
BRANCH    3    2
ATOM     97  H4  UNL A   1      13.492   2.265  20.059  1.00  0.00    +0.000 H 
ATOM      2  C2  UNL A   1      12.475   2.074  19.784  1.00  0.00    +0.000 C 
ATOM     98  H5  UNL A   1      12.321   1.046  19.529  1.00  0.00    +0.000 H 
BRANCH    2    1
ATOM      1  C1  UNL A   1      12.140   2.905  18.556  1.00  0.00    +0.000 C 
ATOM     94  H1  UNL A   1      11.520   3.729  18.843  1.00  0.00    +0.000 H 
ATOM     95  H2  UNL A   1      11.620   2.297  17.845  1.00  0.00    +0.000 H 
ATOM     96  H3  UNL A   1      13.043   3.274  18.117  1.00  0.00    +0.000 H 
ENDBRANCH    2    1
ENDBRANCH    3    2
BRANCH   84   85
ATOM     85  C62 UNL A   1       8.588   4.561  21.838  1.00  0.00    +0.000 C 
ATOM     86  O3  UNL A   1       7.426   4.174  21.925  1.00  0.00    +0.000 O 
BRANCH   85   87
ATOM    131  H38 UNL A   1       8.206   6.513  23.602  1.00  0.00    +0.000 H 
ATOM    132  H39 UNL A   1       8.684   8.883  23.370  1.00  0.00    +0.000 H 
ATOM    133  H40 UNL A   1       9.575   9.743  21.284  1.00  0.00    +0.000 H 
ATOM    134  H41 UNL A   1       9.958   8.247  19.413  1.00  0.00    +0.000 H 
ATOM    135  H42 UNL A   1       9.485   5.874  19.640  1.00  0.00    +0.000 H 
ATOM     87  C63 UNL A   1       8.851   6.008  21.652  1.00  0.00    +0.000 C 
ATOM     88  C64 UNL A   1       8.594   6.879  22.717  1.00  0.00    +0.000 C 
ATOM     89  C65 UNL A   1       8.860   8.242  22.581  1.00  0.00    +0.000 C 
ATOM     90  C66 UNL A   1       9.368   8.737  21.379  1.00  0.00    +0.000 C 
ATOM     91  C67 UNL A   1       9.594   7.875  20.305  1.00  0.00    +0.000 C 
ATOM     92  C68 UNL A   1       9.329   6.510  20.436  1.00  0.00    +0.000 C 
ENDBRANCH   85   87
ENDBRANCH   84   85
ENDBRANCH    6    5
ENDBRANCH    7    6
ENDBRANCH    8    7
ENDBRANCH   10    8
ENDBRANCH   11   10
ENDBRANCH   12   11
ENDBRANCH   13   12
ENDBRANCH   14   13
ENDBRANCH   15   14
ENDBRANCH   16   15
ENDBRANCH   17   16
ENDBRANCH   18   17
ENDBRANCH   20   18
ENDBRANCH   24   23
BRANCH   28   29
ATOM     33  F2  UNL A   1      15.048   2.636  29.364  1.00  0.00    +0.000 F 
ATOM     34  C27 UNL A   1      13.925   3.479  31.262  1.00  0.00    +0.000 C 
ATOM     35  F3  UNL A   1      14.870   2.972  32.065  1.00  0.00    +0.000 F 
ATOM     36  C28 UNL A   1      12.845   4.160  31.805  1.00  0.00    +0.000 C 
ATOM     37  F4  UNL A   1      12.758   4.327  33.132  1.00  0.00    +0.000 F 
ATOM     38  C29 UNL A   1      11.848   4.665  30.974  1.00  0.00    +0.000 C 
ATOM     39  F5  UNL A   1      10.808   5.303  31.530  1.00  0.00    +0.000 F 
ATOM     29  C24 UNL A   1      11.925   4.516  29.581  1.00  0.00    +0.000 C 
ATOM     30  C25 UNL A   1      13.038   3.846  29.053  1.00  0.00    +0.000 C 
ATOM     31  F1  UNL A   1      13.154   3.667  27.728  1.00  0.00    +0.000 F 
ATOM     32  C26 UNL A   1      14.019   3.317  29.889  1.00  0.00    +0.000 C 
ENDBRANCH   28   29
BRANCH   45   46
ATOM     46  C35 UNL A   1       9.602  10.979  27.376  1.00  0.00    +0.000 C 
ATOM     47  C36 UNL A   1       8.955  11.808  28.305  1.00  0.00    +0.000 C 
ATOM     48  F6  UNL A   1       7.931  11.336  29.033  1.00  0.00    +0.000 F 
ATOM     49  C37 UNL A   1       9.335  13.138  28.460  1.00  0.00    +0.000 C 
ATOM     50  F7  UNL A   1       8.676  13.925  29.322  1.00  0.00    +0.000 F 
ATOM     51  C38 UNL A   1      10.385  13.654  27.715  1.00  0.00    +0.000 C 
ATOM     52  F8  UNL A   1      10.754  14.933  27.870  1.00  0.00    +0.000 F 
ATOM     53  C39 UNL A   1      11.049  12.846  26.804  1.00  0.00    +0.000 C 
ATOM     54  F9  UNL A   1      12.071  13.341  26.091  1.00  0.00    +0.000 F 
ATOM     55  C40 UNL A   1      10.654  11.523  26.627  1.00  0.00    +0.000 C 
ATOM     56  F10 UNL A   1      11.308  10.769  25.730  1.00  0.00    +0.000 F 
ENDBRANCH   45   46
BRANCH   60   61
ATOM     65  F12 UNL A   1       3.660   8.483  20.364  1.00  0.00    +0.000 F 
ATOM     66  C47 UNL A   1       2.321   8.787  22.284  1.00  0.00    +0.000 C 
ATOM     67  F13 UNL A   1       1.309   9.231  21.528  1.00  0.00    +0.000 F 
ATOM     68  C48 UNL A   1       2.181   8.720  23.663  1.00  0.00    +0.000 C 
ATOM     69  F14 UNL A   1       1.026   9.083  24.237  1.00  0.00    +0.000 F 
ATOM     70  C49 UNL A   1       3.239   8.274  24.453  1.00  0.00    +0.000 C 
ATOM     71  F15 UNL A   1       3.080   8.226  25.783  1.00  0.00    +0.000 F 
ATOM     61  C44 UNL A   1       4.449   7.864  23.875  1.00  0.00    +0.000 C 
ATOM     62  C45 UNL A   1       4.562   7.930  22.479  1.00  0.00    +0.000 C 
ATOM     63  F11 UNL A   1       5.708   7.566  21.884  1.00  0.00    +0.000 F 
ATOM     64  C46 UNL A   1       3.513   8.398  21.693  1.00  0.00    +0.000 C 
ENDBRANCH   60   61
TORSDOF 21
ENDMDL
MODEL 6
REMARK VINA RESULT:      -8.6     46.203     52.367
ROOT
ATOM     24  C20 UNL A   1       7.435   2.971  26.019  1.00  0.00    +0.000 C 
ATOM     25  C21 UNL A   1       8.603   3.297  26.907  1.00  0.00    +0.000 C 
ATOM     26  N3  UNL A   1       9.067   4.466  27.270  1.00  0.00    +0.000 N 
ATOM     27  C22 UNL A   1      10.124   4.202  28.130  1.00  0.00    +0.000 C 
ATOM     28  C23 UNL A   1      10.963   5.079  28.732  1.00  0.00    +0.000 C 
ATOM     40  C30 UNL A   1      10.899   6.506  28.565  1.00  0.00    +0.000 C 
ATOM     41  C31 UNL A   1      11.745   7.475  29.073  1.00  0.00    +0.000 C 
ATOM     42  C32 UNL A   1      11.261   8.729  28.681  1.00  0.00    +0.000 C 
ATOM     43  C33 UNL A   1      10.137   8.538  27.893  1.00  0.00    +0.000 C 
ATOM     44  N4  UNL A   1       9.924   7.170  27.833  1.00  0.00    +0.000 N 
ATOM     45  C34 UNL A   1       9.317   9.529  27.245  1.00  0.00    +0.000 C 
ATOM     57  C41 UNL A   1       8.238   9.260  26.470  1.00  0.00    +0.000 C 
ATOM     58  N5  UNL A   1       7.692   8.031  26.129  1.00  0.00    +0.000 N 
ATOM     59  C42 UNL A   1       6.654   8.293  25.374  1.00  0.00    +0.000 C 
ATOM     60  C43 UNL A   1       5.705   7.341  24.702  1.00  0.00    +0.000 C 
ATOM     72  C50 UNL A   1       5.896   6.015  24.838  1.00  0.00    +0.000 C 
ATOM     73  C51 UNL A   1       5.065   4.973  24.242  1.00  0.00    +0.000 C 
ATOM     74  C52 UNL A   1       5.530   3.772  24.622  1.00  0.00    +0.000 C 
ATOM     75  C53 UNL A   1       6.712   3.961  25.463  1.00  0.00    +0.000 C 
ATOM     76  N6  UNL A   1       6.859   5.323  25.530  1.00  0.00    +0.000 N 
ATOM     77  C54 UNL A   1       6.408   9.727  25.168  1.00  0.00    +0.000 C 
ATOM     78  C55 UNL A   1       7.422  10.271  25.827  1.00  0.00    +0.000 C 
ATOM     79  C56 UNL A   1      10.205   2.763  28.272  1.00  0.00    +0.000 C 
ATOM     80  C57 UNL A   1       9.330   2.156  27.485  1.00  0.00    +0.000 C 
ATOM    118  H25 UNL A   1      12.588   7.304  29.643  1.00  0.00    +0.000 H 
ATOM    119  H26 UNL A   1      11.672   9.640  28.935  1.00  0.00    +0.000 H 
ATOM    120  H27 UNL A   1       9.191   6.734  27.343  1.00  0.00    +0.000 H 
ATOM    121  H28 UNL A   1       4.251   5.133  23.629  1.00  0.00    +0.000 H 
ATOM    122  H29 UNL A   1       5.118   2.861  24.363  1.00  0.00    +0.000 H 
ATOM    123  H30 UNL A   1       7.585   5.763  26.030  1.00  0.00    +0.000 H 
ATOM    124  H31 UNL A   1       5.646  10.189  24.648  1.00  0.00    +0.000 H 
ATOM    125  H32 UNL A   1       7.606  11.285  25.876  1.00  0.00    +0.000 H 
ATOM    126  H33 UNL A   1      10.860   2.275  28.903  1.00  0.00    +0.000 H 
ATOM    127  H34 UNL A   1       9.192   1.147  27.320  1.00  0.00    +0.000 H 
ENDROOT
BRANCH   24   23
ATOM    129  H36 UNL A   1       7.461  -0.965  23.641  1.00  0.00    +0.000 H 
ATOM     81  C58 UNL A   1       7.528   0.851  24.709  1.00  0.00    +0.000 C 
ATOM     82  C59 UNL A   1       7.146  -0.469  24.490  1.00  0.00    +0.000 C 
ATOM     20  C16 UNL A   1       6.332  -1.123  25.420  1.00  0.00    +0.000 C 
ATOM     21  C17 UNL A   1       5.810  -0.422  26.511  1.00  0.00    +0.000 C 
ATOM    116  H23 UNL A   1       5.180  -0.895  27.177  1.00  0.00    +0.000 H 
ATOM     22  C18 UNL A   1       6.145   0.921  26.697  1.00  0.00    +0.000 C 
ATOM    117  H24 UNL A   1       5.742   1.446  27.489  1.00  0.00    +0.000 H 
ATOM     23  C19 UNL A   1       7.027   1.561  25.811  1.00  0.00    +0.000 C 
ATOM    128  H35 UNL A   1       8.183   1.311  24.058  1.00  0.00    +0.000 H 
BRANCH   20   18
ATOM     18  C15 UNL A   1       5.979  -2.551  25.254  1.00  0.00    +0.000 C 
ATOM     19  O2  UNL A   1       4.886  -2.859  24.802  1.00  0.00    +0.000 O 
BRANCH   18   17
ATOM     17  N2  UNL A   1       6.881  -3.526  25.608  1.00  0.00    +0.000 N 
ATOM    115  H22 UNL A   1       6.552  -4.451  25.546  1.00  0.00    +0.000 H 
BRANCH   17   16
ATOM    113  H20 UNL A   1       8.392  -2.388  26.439  1.00  0.00    +0.000 H 
ATOM    114  H21 UNL A   1       8.438  -4.112  26.814  1.00  0.00    +0.000 H 
ATOM     16  C14 UNL A   1       8.256  -3.378  26.058  1.00  0.00    +0.000 C 
BRANCH   16   15
ATOM    111  H18 UNL A   1       9.769  -4.527  25.117  1.00  0.00    +0.000 H 
ATOM     15  C13 UNL A   1       9.253  -3.611  24.925  1.00  0.00    +0.000 C 
ATOM    112  H19 UNL A   1       8.683  -3.631  24.019  1.00  0.00    +0.000 H 
BRANCH   15   14
ATOM    110  H17 UNL A   1      11.013  -2.648  25.536  1.00  0.00    +0.000 H 
ATOM    109  H16 UNL A   1       9.789  -1.561  24.813  1.00  0.00    +0.000 H 
ATOM     14  C12 UNL A   1      10.296  -2.501  24.757  1.00  0.00    +0.000 C 
BRANCH   14   13
ATOM    107  H14 UNL A   1      11.091  -3.547  23.086  1.00  0.00    +0.000 H 
ATOM    108  H15 UNL A   1      10.588  -1.856  22.780  1.00  0.00    +0.000 H 
ATOM     13  C11 UNL A   1      11.083  -2.537  23.441  1.00  0.00    +0.000 C 
BRANCH   13   12
ATOM    105  H12 UNL A   1      13.157  -2.741  22.997  1.00  0.00    +0.000 H 
ATOM    106  H13 UNL A   1      12.567  -1.067  23.128  1.00  0.00    +0.000 H 
ATOM     12  C10 UNL A   1      12.537  -2.056  23.537  1.00  0.00    +0.000 C 
BRANCH   12   11
ATOM     11  C9  UNL A   1      13.063  -1.960  24.971  1.00  0.00    +0.000 C 
ATOM    103  H10 UNL A   1      12.236  -1.970  25.650  1.00  0.00    +0.000 H 
ATOM    104  H11 UNL A   1      13.706  -2.793  25.159  1.00  0.00    +0.000 H 
BRANCH   11   10
ATOM     10  N1  UNL A   1      13.817  -0.734  25.156  1.00  0.00    +0.000 N 
ATOM    102  H9  UNL A   1      14.633  -0.673  24.609  1.00  0.00    +0.000 H 
BRANCH   10    8
ATOM      9  O1  UNL A   1      14.275   0.502  26.960  1.00  0.00    +0.000 O 
ATOM      8  C8  UNL A   1      13.590   0.342  25.951  1.00  0.00    +0.000 C 
BRANCH    8    7
ATOM    101  H8  UNL A   1      12.524   2.207  26.148  1.00  0.00    +0.000 H 
ATOM      7  C7  UNL A   1      12.482   1.287  25.683  1.00  0.00    +0.000 C 
BRANCH    7    6
ATOM    100  H7  UNL A   1      10.746   0.335  25.179  1.00  0.00    +0.000 H 
ATOM      6  C6  UNL A   1      11.430   1.049  24.887  1.00  0.00    +0.000 C 
BRANCH    6    5
ATOM    130  H37 UNL A   1       9.548   2.851  24.338  1.00  0.00    +0.000 H 
ATOM      3  C3  UNL A   1      11.731   2.135  21.262  1.00  0.00    +0.000 C 
ATOM      4  C4  UNL A   1      11.983   1.492  22.483  1.00  0.00    +0.000 C 
ATOM      5  C5  UNL A   1      11.203   1.756  23.617  1.00  0.00    +0.000 C 
ATOM     99  H6  UNL A   1      12.758   0.813  22.548  1.00  0.00    +0.000 H 
ATOM    136  H43 UNL A   1      10.498   3.555  20.299  1.00  0.00    +0.000 H 
ATOM     83  C60 UNL A   1      10.136   2.656  23.513  1.00  0.00    +0.000 C 
ATOM     84  C61 UNL A   1       9.861   3.296  22.296  1.00  0.00    +0.000 C 
ATOM     93  C69 UNL A   1      10.676   3.053  21.183  1.00  0.00    +0.000 C 
BRANCH    3    2
ATOM     97  H4  UNL A   1      13.577   2.102  20.241  1.00  0.00    +0.000 H 
ATOM      2  C2  UNL A   1      12.564   1.817  20.045  1.00  0.00    +0.000 C 
ATOM     98  H5  UNL A   1      12.476   0.767  19.861  1.00  0.00    +0.000 H 
BRANCH    2    1
ATOM      1  C1  UNL A   1      12.088   2.542  18.797  1.00  0.00    +0.000 C 
ATOM     94  H1  UNL A   1      11.424   1.908  18.247  1.00  0.00    +0.000 H 
ATOM     95  H2  UNL A   1      12.930   2.792  18.186  1.00  0.00    +0.000 H 
ATOM     96  H3  UNL A   1      11.574   3.438  19.078  1.00  0.00    +0.000 H 
ENDBRANCH    2    1
ENDBRANCH    3    2
BRANCH   84   85
ATOM     85  C62 UNL A   1       8.710   4.240  22.234  1.00  0.00    +0.000 C 
ATOM     86  O3  UNL A   1       8.817   5.367  22.711  1.00  0.00    +0.000 O 
BRANCH   85   87
ATOM    131  H38 UNL A   1       7.710   1.791  21.971  1.00  0.00    +0.000 H 
ATOM    132  H39 UNL A   1       5.594   1.113  20.992  1.00  0.00    +0.000 H 
ATOM    133  H40 UNL A   1       4.113   2.775  20.029  1.00  0.00    +0.000 H 
ATOM    134  H41 UNL A   1       4.757   5.114  20.009  1.00  0.00    +0.000 H 
ATOM    135  H42 UNL A   1       6.871   5.800  20.989  1.00  0.00    +0.000 H 
ATOM     87  C63 UNL A   1       7.430   3.852  21.593  1.00  0.00    +0.000 C 
ATOM     88  C64 UNL A   1       7.076   2.499  21.568  1.00  0.00    +0.000 C 
ATOM     89  C65 UNL A   1       5.863   2.108  20.998  1.00  0.00    +0.000 C 
ATOM     90  C66 UNL A   1       5.014   3.065  20.439  1.00  0.00    +0.000 C 
ATOM     91  C67 UNL A   1       5.382   4.411  20.434  1.00  0.00    +0.000 C 
ATOM     92  C68 UNL A   1       6.594   4.807  21.003  1.00  0.00    +0.000 C 
ENDBRANCH   85   87
ENDBRANCH   84   85
ENDBRANCH    6    5
ENDBRANCH    7    6
ENDBRANCH    8    7
ENDBRANCH   10    8
ENDBRANCH   11   10
ENDBRANCH   12   11
ENDBRANCH   13   12
ENDBRANCH   14   13
ENDBRANCH   15   14
ENDBRANCH   16   15
ENDBRANCH   17   16
ENDBRANCH   18   17
ENDBRANCH   20   18
ENDBRANCH   24   23
BRANCH   28   29
ATOM     33  F2  UNL A   1      15.173   2.666  29.430  1.00  0.00    +0.000 F 
ATOM     34  C27 UNL A   1      14.018   3.481  31.322  1.00  0.00    +0.000 C 
ATOM     35  F3  UNL A   1      14.960   2.976  32.132  1.00  0.00    +0.000 F 
ATOM     36  C28 UNL A   1      12.925   4.146  31.858  1.00  0.00    +0.000 C 
ATOM     37  F4  UNL A   1      12.821   4.300  33.185  1.00  0.00    +0.000 F 
ATOM     38  C29 UNL A   1      11.933   4.648  31.020  1.00  0.00    +0.000 C 
ATOM     39  F5  UNL A   1      10.880   5.271  31.569  1.00  0.00    +0.000 F 
ATOM     29  C24 UNL A   1      12.029   4.513  29.627  1.00  0.00    +0.000 C 
ATOM     30  C25 UNL A   1      13.155   3.859  29.106  1.00  0.00    +0.000 C 
ATOM     31  F1  UNL A   1      13.288   3.693  27.781  1.00  0.00    +0.000 F 
ATOM     32  C26 UNL A   1      14.130   3.332  29.948  1.00  0.00    +0.000 C 
ENDBRANCH   28   29
BRANCH   45   46
ATOM     46  C35 UNL A   1       9.693  10.970  27.418  1.00  0.00    +0.000 C 
ATOM     47  C36 UNL A   1      10.694  11.566  26.637  1.00  0.00    +0.000 C 
ATOM     48  F6  UNL A   1      11.378  10.835  25.744  1.00  0.00    +0.000 F 
ATOM     49  C37 UNL A   1      11.020  12.909  26.798  1.00  0.00    +0.000 C 
ATOM     50  F7  UNL A   1      12.009  13.449  26.071  1.00  0.00    +0.000 F 
ATOM     51  C38 UNL A   1      10.335  13.688  27.719  1.00  0.00    +0.000 C 
ATOM     52  F8  UNL A   1      10.646  14.983  27.868  1.00  0.00    +0.000 F 
ATOM     53  C39 UNL A   1       9.330  13.122  28.490  1.00  0.00    +0.000 C 
ATOM     54  F9  UNL A   1       8.659  13.876  29.373  1.00  0.00    +0.000 F 
ATOM     55  C40 UNL A   1       9.019  11.773  28.350  1.00  0.00    +0.000 C 
ATOM     56  F10 UNL A   1       8.050  11.251  29.118  1.00  0.00    +0.000 F 
ENDBRANCH   45   46
BRANCH   60   61
ATOM     65  F12 UNL A   1       1.100   8.865  24.229  1.00  0.00    +0.000 F 
ATOM     66  C47 UNL A   1       2.462   8.816  22.300  1.00  0.00    +0.000 C 
ATOM     67  F13 UNL A   1       1.449   9.276  21.554  1.00  0.00    +0.000 F 
ATOM     68  C48 UNL A   1       3.686   8.533  21.713  1.00  0.00    +0.000 C 
ATOM     69  F14 UNL A   1       3.862   8.738  20.400  1.00  0.00    +0.000 F 
ATOM     70  C49 UNL A   1       4.735   8.039  22.485  1.00  0.00    +0.000 C 
ATOM     71  F15 UNL A   1       5.906   7.767  21.891  1.00  0.00    +0.000 F 
ATOM     61  C44 UNL A   1       4.586   7.840  23.865  1.00  0.00    +0.000 C 
ATOM     62  C45 UNL A   1       3.343   8.144  24.438  1.00  0.00    +0.000 C 
ATOM     63  F11 UNL A   1       3.148   7.951  25.751  1.00  0.00    +0.000 F 
ATOM     64  C46 UNL A   1       2.288   8.615  23.661  1.00  0.00    +0.000 C 
ENDBRANCH   60   61
TORSDOF 21
ENDMDL
MODEL 7
REMARK VINA RESULT:      -8.6     65.607     70.726
ROOT
ATOM     24  C20 UNL A   1      29.120 -13.966  31.192  1.00  0.00    +0.000 C 
ATOM     25  C21 UNL A   1      28.829 -14.082  32.661  1.00  0.00    +0.000 C 
ATOM     26  N3  UNL A   1      27.809 -13.624  33.343  1.00  0.00    +0.000 N 
ATOM     27  C22 UNL A   1      28.007 -14.050  34.650  1.00  0.00    +0.000 C 
ATOM     28  C23 UNL A   1      27.256 -13.788  35.746  1.00  0.00    +0.000 C 
ATOM     40  C30 UNL A   1      26.068 -12.976  35.739  1.00  0.00    +0.000 C 
ATOM     41  C31 UNL A   1      25.278 -12.592  36.807  1.00  0.00    +0.000 C 
ATOM     42  C32 UNL A   1      24.206 -11.840  36.311  1.00  0.00    +0.000 C 
ATOM     43  C33 UNL A   1      24.353 -11.720  34.939  1.00  0.00    +0.000 C 
ATOM     44  N4  UNL A   1      25.498 -12.424  34.600  1.00  0.00    +0.000 N 
ATOM     45  C34 UNL A   1      23.512 -11.017  34.003  1.00  0.00    +0.000 C 
ATOM     57  C41 UNL A   1      23.735 -10.929  32.669  1.00  0.00    +0.000 C 
ATOM     58  N5  UNL A   1      24.773 -11.464  31.921  1.00  0.00    +0.000 N 
ATOM     59  C42 UNL A   1      24.541 -11.115  30.680  1.00  0.00    +0.000 C 
ATOM     60  C43 UNL A   1      25.353 -11.400  29.446  1.00  0.00    +0.000 C 
ATOM     72  C50 UNL A   1      26.503 -12.091  29.560  1.00  0.00    +0.000 C 
ATOM     73  C51 UNL A   1      27.397 -12.436  28.458  1.00  0.00    +0.000 C 
ATOM     74  C52 UNL A   1      28.422 -13.160  28.937  1.00  0.00    +0.000 C 
ATOM     75  C53 UNL A   1      28.272 -13.301  30.385  1.00  0.00    +0.000 C 
ATOM     76  N6  UNL A   1      27.109 -12.629  30.667  1.00  0.00    +0.000 N 
ATOM     77  C54 UNL A   1      23.310 -10.336  30.495  1.00  0.00    +0.000 C 
ATOM     78  C55 UNL A   1      22.876 -10.220  31.743  1.00  0.00    +0.000 C 
ATOM     79  C56 UNL A   1      29.219 -14.842  34.658  1.00  0.00    +0.000 C 
ATOM     80  C57 UNL A   1      29.800 -14.837  33.468  1.00  0.00    +0.000 C 
ATOM    118  H25 UNL A   1      25.447 -12.821  37.799  1.00  0.00    +0.000 H 
ATOM    119  H26 UNL A   1      23.438 -11.442  36.872  1.00  0.00    +0.000 H 
ATOM    120  H27 UNL A   1      25.854 -12.519  33.688  1.00  0.00    +0.000 H 
ATOM    121  H28 UNL A   1      27.262 -12.168  27.471  1.00  0.00    +0.000 H 
ATOM    122  H29 UNL A   1      29.191 -13.553  28.373  1.00  0.00    +0.000 H 
ATOM    123  H30 UNL A   1      26.744 -12.544  31.578  1.00  0.00    +0.000 H 
ATOM    124  H31 UNL A   1      22.892  -9.973  29.624  1.00  0.00    +0.000 H 
ATOM    125  H32 UNL A   1      22.034  -9.691  32.019  1.00  0.00    +0.000 H 
ATOM    126  H33 UNL A   1      29.582 -15.343  35.483  1.00  0.00    +0.000 H 
ATOM    127  H34 UNL A   1      30.699 -15.255  33.180  1.00  0.00    +0.000 H 
ENDROOT
BRANCH   24   23
ATOM    129  H36 UNL A   1      33.499 -14.024  29.787  1.00  0.00    +0.000 H 
ATOM     81  C58 UNL A   1      31.513 -13.946  30.492  1.00  0.00    +0.000 C 
ATOM     82  C59 UNL A   1      32.630 -14.563  29.936  1.00  0.00    +0.000 C 
ATOM     20  C16 UNL A   1      32.575 -15.913  29.577  1.00  0.00    +0.000 C 
ATOM     21  C17 UNL A   1      31.370 -16.615  29.670  1.00  0.00    +0.000 C 
ATOM    116  H23 UNL A   1      31.320 -17.601  29.370  1.00  0.00    +0.000 H 
ATOM     22  C18 UNL A   1      30.233 -15.977  30.171  1.00  0.00    +0.000 C 
ATOM    117  H24 UNL A   1      29.337 -16.488  30.219  1.00  0.00    +0.000 H 
ATOM     23  C19 UNL A   1      30.303 -14.645  30.610  1.00  0.00    +0.000 C 
ATOM    128  H35 UNL A   1      31.576 -12.970  30.820  1.00  0.00    +0.000 H 
BRANCH   20   18
ATOM     18  C15 UNL A   1      33.772 -16.615  29.061  1.00  0.00    +0.000 C 
ATOM     19  O2  UNL A   1      34.394 -17.374  29.790  1.00  0.00    +0.000 O 
BRANCH   18   17
ATOM     17  N2  UNL A   1      34.181 -16.411  27.765  1.00  0.00    +0.000 N 
ATOM    115  H22 UNL A   1      35.033 -15.929  27.660  1.00  0.00    +0.000 H 
BRANCH   17   16
ATOM    113  H20 UNL A   1      34.277 -17.100  25.820  1.00  0.00    +0.000 H 
ATOM    114  H21 UNL A   1      32.870 -17.623  26.747  1.00  0.00    +0.000 H 
ATOM     16  C14 UNL A   1      33.529 -16.810  26.528  1.00  0.00    +0.000 C 
BRANCH   16   15
ATOM    111  H18 UNL A   1      32.713 -15.776  24.866  1.00  0.00    +0.000 H 
ATOM     15  C13 UNL A   1      32.699 -15.676  25.931  1.00  0.00    +0.000 C 
ATOM    112  H19 UNL A   1      31.717 -15.767  26.348  1.00  0.00    +0.000 H 
BRANCH   15   14
ATOM    110  H17 UNL A   1      34.179 -14.191  25.881  1.00  0.00    +0.000 H 
ATOM    109  H16 UNL A   1      33.157 -14.167  27.350  1.00  0.00    +0.000 H 
ATOM     14  C12 UNL A   1      33.192 -14.270  26.286  1.00  0.00    +0.000 C 
BRANCH   14   13
ATOM    107  H14 UNL A   1      33.010 -12.248  25.658  1.00  0.00    +0.000 H 
ATOM    108  H15 UNL A   1      32.096 -13.449  24.695  1.00  0.00    +0.000 H 
ATOM     13  C11 UNL A   1      32.387 -13.119  25.670  1.00  0.00    +0.000 C 
BRANCH   13   12
ATOM    105  H12 UNL A   1      31.112 -13.217  27.375  1.00  0.00    +0.000 H 
ATOM    106  H13 UNL A   1      31.039 -11.696  26.454  1.00  0.00    +0.000 H 
ATOM     12  C10 UNL A   1      31.088 -12.764  26.406  1.00  0.00    +0.000 C 
BRANCH   12   11
ATOM     11  C9  UNL A   1      29.823 -13.235  25.686  1.00  0.00    +0.000 C 
ATOM    103  H10 UNL A   1      30.038 -14.134  25.147  1.00  0.00    +0.000 H 
ATOM    104  H11 UNL A   1      29.058 -13.414  26.413  1.00  0.00    +0.000 H 
BRANCH   11   10
ATOM     10  N1  UNL A   1      29.359 -12.222  24.757  1.00  0.00    +0.000 N 
ATOM    102  H9  UNL A   1      29.823 -12.224  23.888  1.00  0.00    +0.000 H 
BRANCH   10    8
ATOM      9  O1  UNL A   1      27.225 -11.620  25.032  1.00  0.00    +0.000 O 
ATOM      8  C8  UNL A   1      28.395 -11.274  24.878  1.00  0.00    +0.000 C 
BRANCH    8    7
ATOM    101  H8  UNL A   1      28.765  -9.448  23.790  1.00  0.00    +0.000 H 
ATOM      7  C7  UNL A   1      28.702  -9.832  24.746  1.00  0.00    +0.000 C 
BRANCH    7    6
ATOM    100  H7  UNL A   1      28.312  -8.140  25.824  1.00  0.00    +0.000 H 
ATOM      6  C6  UNL A   1      28.906  -8.983  25.763  1.00  0.00    +0.000 C 
BRANCH    6    5
ATOM    130  H37 UNL A   1      31.541  -8.683  25.525  1.00  0.00    +0.000 H 
ATOM      3  C3  UNL A   1      30.587  -9.886  29.044  1.00  0.00    +0.000 C 
ATOM      4  C4  UNL A   1      29.598  -9.644  28.078  1.00  0.00    +0.000 C 
ATOM      5  C5  UNL A   1      29.932  -9.191  26.795  1.00  0.00    +0.000 C 
ATOM     99  H6  UNL A   1      28.606  -9.803  28.318  1.00  0.00    +0.000 H 
ATOM    136  H43 UNL A   1      32.664  -9.817  29.420  1.00  0.00    +0.000 H 
ATOM     83  C60 UNL A   1      31.281  -9.007  26.470  1.00  0.00    +0.000 C 
ATOM     84  C61 UNL A   1      32.283  -9.258  27.419  1.00  0.00    +0.000 C 
ATOM     93  C69 UNL A   1      31.930  -9.671  28.709  1.00  0.00    +0.000 C 
BRANCH    3    2
ATOM     97  H4  UNL A   1      29.911 -11.424  30.320  1.00  0.00    +0.000 H 
ATOM      2  C2  UNL A   1      30.210 -10.401  30.411  1.00  0.00    +0.000 C 
ATOM     98  H5  UNL A   1      31.066 -10.293  31.043  1.00  0.00    +0.000 H 
BRANCH    2    1
ATOM      1  C1  UNL A   1      29.072  -9.617  31.045  1.00  0.00    +0.000 C 
ATOM     94  H1  UNL A   1      28.156  -9.847  30.541  1.00  0.00    +0.000 H 
ATOM     95  H2  UNL A   1      29.272  -8.569  30.963  1.00  0.00    +0.000 H 
ATOM     96  H3  UNL A   1      28.987  -9.883  32.078  1.00  0.00    +0.000 H 
ENDBRANCH    2    1
ENDBRANCH    3    2
BRANCH   84   85
ATOM     85  C62 UNL A   1      33.704  -9.054  27.022  1.00  0.00    +0.000 C 
ATOM     86  O3  UNL A   1      34.329  -8.092  27.459  1.00  0.00    +0.000 O 
BRANCH   85   87
ATOM    131  H38 UNL A   1      35.440 -10.958  27.680  1.00  0.00    +0.000 H 
ATOM    132  H39 UNL A   1      36.538 -12.574  26.238  1.00  0.00    +0.000 H 
ATOM    133  H40 UNL A   1      36.144 -12.532  23.845  1.00  0.00    +0.000 H 
ATOM    134  H41 UNL A   1      34.682 -10.853  22.880  1.00  0.00    +0.000 H 
ATOM    135  H42 UNL A   1      33.578  -9.235  24.317  1.00  0.00    +0.000 H 
ATOM     87  C63 UNL A   1      34.392 -10.002  26.112  1.00  0.00    +0.000 C 
ATOM     88  C64 UNL A   1      35.266 -10.945  26.661  1.00  0.00    +0.000 C 
ATOM     89  C65 UNL A   1      35.904 -11.869  25.832  1.00  0.00    +0.000 C 
ATOM     90  C66 UNL A   1      35.681 -11.841  24.455  1.00  0.00    +0.000 C 
ATOM     91  C67 UNL A   1      34.835 -10.879  23.901  1.00  0.00    +0.000 C 
ATOM     92  C68 UNL A   1      34.194  -9.953  24.726  1.00  0.00    +0.000 C 
ENDBRANCH   85   87
ENDBRANCH   84   85
ENDBRANCH    6    5
ENDBRANCH    7    6
ENDBRANCH    8    7
ENDBRANCH   10    8
ENDBRANCH   11   10
ENDBRANCH   12   11
ENDBRANCH   13   12
ENDBRANCH   14   13
ENDBRANCH   15   14
ENDBRANCH   16   15
ENDBRANCH   17   16
ENDBRANCH   18   17
ENDBRANCH   20   18
ENDBRANCH   24   23
BRANCH   28   29
ATOM     33  F2  UNL A   1      27.028 -17.262  39.197  1.00  0.00    +0.000 F 
ATOM     34  C27 UNL A   1      28.569 -15.495  39.482  1.00  0.00    +0.000 C 
ATOM     35  F3  UNL A   1      28.973 -16.016  40.649  1.00  0.00    +0.000 F 
ATOM     36  C28 UNL A   1      29.127 -14.313  39.019  1.00  0.00    +0.000 C 
ATOM     37  F4  UNL A   1      30.084 -13.702  39.731  1.00  0.00    +0.000 F 
ATOM     38  C29 UNL A   1      28.691 -13.757  37.820  1.00  0.00    +0.000 C 
ATOM     39  F5  UNL A   1      29.238 -12.603  37.408  1.00  0.00    +0.000 F 
ATOM     29  C24 UNL A   1      27.702 -14.387  37.049  1.00  0.00    +0.000 C 
ATOM     30  C25 UNL A   1      27.170 -15.594  37.524  1.00  0.00    +0.000 C 
ATOM     31  F1  UNL A   1      26.213 -16.231  36.831  1.00  0.00    +0.000 F 
ATOM     32  C26 UNL A   1      27.588 -16.133  38.738  1.00  0.00    +0.000 C 
ENDBRANCH   28   29
BRANCH   45   46
ATOM     46  C35 UNL A   1      22.308 -10.307  34.545  1.00  0.00    +0.000 C 
ATOM     47  C36 UNL A   1      21.029 -10.880  34.482  1.00  0.00    +0.000 C 
ATOM     48  F6  UNL A   1      20.850 -12.066  33.881  1.00  0.00    +0.000 F 
ATOM     49  C37 UNL A   1      19.923 -10.216  35.004  1.00  0.00    +0.000 C 
ATOM     50  F7  UNL A   1      18.703 -10.761  34.896  1.00  0.00    +0.000 F 
ATOM     51  C38 UNL A   1      20.077  -8.984  35.624  1.00  0.00    +0.000 C 
ATOM     52  F8  UNL A   1      19.012  -8.349  36.132  1.00  0.00    +0.000 F 
ATOM     53  C39 UNL A   1      21.336  -8.408  35.711  1.00  0.00    +0.000 C 
ATOM     54  F9  UNL A   1      21.489  -7.223  36.320  1.00  0.00    +0.000 F 
ATOM     55  C40 UNL A   1      22.440  -9.057  35.167  1.00  0.00    +0.000 C 
ATOM     56  F10 UNL A   1      23.643  -8.470  35.257  1.00  0.00    +0.000 F 
ENDBRANCH   45   46
BRANCH   60   61
ATOM     65  F12 UNL A   1      22.573 -11.762  25.460  1.00  0.00    +0.000 F 
ATOM     66  C47 UNL A   1      24.077  -9.947  25.609  1.00  0.00    +0.000 C 
ATOM     67  F13 UNL A   1      23.677  -9.497  24.413  1.00  0.00    +0.000 F 
ATOM     68  C48 UNL A   1      25.064  -9.272  26.312  1.00  0.00    +0.000 C 
ATOM     69  F14 UNL A   1      25.605  -8.157  25.802  1.00  0.00    +0.000 F 
ATOM     70  C49 UNL A   1      25.493  -9.749  27.549  1.00  0.00    +0.000 C 
ATOM     71  F15 UNL A   1      26.453  -9.081  28.205  1.00  0.00    +0.000 F 
ATOM     61  C44 UNL A   1      24.924 -10.898  28.117  1.00  0.00    +0.000 C 
ATOM     62  C45 UNL A   1      23.921 -11.557  27.393  1.00  0.00    +0.000 C 
ATOM     63  F11 UNL A   1      23.362 -12.672  27.888  1.00  0.00    +0.000 F 
ATOM     64  C46 UNL A   1      23.510 -11.093  26.147  1.00  0.00    +0.000 C 
ENDBRANCH   60   61
TORSDOF 21
ENDMDL
MODEL 8
REMARK VINA RESULT:      -8.5     43.789     47.139
ROOT
ATOM     24  C20 UNL A   1      24.853  38.517  46.424  1.00  0.00    +0.000 C 
ATOM     25  C21 UNL A   1      24.198  39.635  47.184  1.00  0.00    +0.000 C 
ATOM     26  N3  UNL A   1      23.030  39.662  47.775  1.00  0.00    +0.000 N 
ATOM     27  C22 UNL A   1      22.935  40.914  48.368  1.00  0.00    +0.000 C 
ATOM     28  C23 UNL A   1      21.896  41.449  49.052  1.00  0.00    +0.000 C 
ATOM     40  C30 UNL A   1      20.647  40.773  49.285  1.00  0.00    +0.000 C 
ATOM     41  C31 UNL A   1      19.507  41.254  49.904  1.00  0.00    +0.000 C 
ATOM     42  C32 UNL A   1      18.560  40.224  49.938  1.00  0.00    +0.000 C 
ATOM     43  C33 UNL A   1      19.095  39.115  49.302  1.00  0.00    +0.000 C 
ATOM     44  N4  UNL A   1      20.377  39.465  48.910  1.00  0.00    +0.000 N 
ATOM     45  C34 UNL A   1      18.484  37.831  49.071  1.00  0.00    +0.000 C 
ATOM     57  C41 UNL A   1      19.070  36.796  48.420  1.00  0.00    +0.000 C 
ATOM     58  N5  UNL A   1      20.331  36.727  47.847  1.00  0.00    +0.000 N 
ATOM     59  C42 UNL A   1      20.437  35.519  47.351  1.00  0.00    +0.000 C 
ATOM     60  C43 UNL A   1      21.581  34.900  46.596  1.00  0.00    +0.000 C 
ATOM     72  C50 UNL A   1      22.678  35.638  46.342  1.00  0.00    +0.000 C 
ATOM     73  C51 UNL A   1      23.859  35.178  45.618  1.00  0.00    +0.000 C 
ATOM     74  C52 UNL A   1      24.767  36.168  45.589  1.00  0.00    +0.000 C 
ATOM     75  C53 UNL A   1      24.216  37.341  46.266  1.00  0.00    +0.000 C 
ATOM     76  N6  UNL A   1      22.970  36.937  46.674  1.00  0.00    +0.000 N 
ATOM     77  C54 UNL A   1      19.258  34.672  47.576  1.00  0.00    +0.000 C 
ATOM     78  C55 UNL A   1      18.441  35.510  48.199  1.00  0.00    +0.000 C 
ATOM     79  C56 UNL A   1      24.182  41.602  48.105  1.00  0.00    +0.000 C 
ATOM     80  C57 UNL A   1      24.970  40.880  47.322  1.00  0.00    +0.000 C 
ATOM    118  H25 UNL A   1      19.377  42.207  50.277  1.00  0.00    +0.000 H 
ATOM    119  H26 UNL A   1      17.622  40.281  50.363  1.00  0.00    +0.000 H 
ATOM    120  H27 UNL A   1      21.003  38.873  48.434  1.00  0.00    +0.000 H 
ATOM    121  H28 UNL A   1      23.978  34.244  45.197  1.00  0.00    +0.000 H 
ATOM    122  H29 UNL A   1      25.704  36.108  45.159  1.00  0.00    +0.000 H 
ATOM    123  H30 UNL A   1      22.346  37.524  47.161  1.00  0.00    +0.000 H 
ATOM    124  H31 UNL A   1      19.106  33.685  47.317  1.00  0.00    +0.000 H 
ATOM    125  H32 UNL A   1      17.479  35.274  48.491  1.00  0.00    +0.000 H 
ATOM    126  H33 UNL A   1      24.425  42.532  48.478  1.00  0.00    +0.000 H 
ATOM    127  H34 UNL A   1      25.886  41.125  46.915  1.00  0.00    +0.000 H 
ENDROOT
BRANCH   24   23
ATOM    129  H36 UNL A   1      28.244  41.009  44.569  1.00  0.00    +0.000 H 
ATOM     81  C58 UNL A   1      26.666  39.934  45.461  1.00  0.00    +0.000 C 
ATOM     82  C59 UNL A   1      27.954  40.099  44.961  1.00  0.00    +0.000 C 
ATOM     20  C16 UNL A   1      28.855  39.030  44.988  1.00  0.00    +0.000 C 
ATOM     21  C17 UNL A   1      28.433  37.767  45.411  1.00  0.00    +0.000 C 
ATOM    116  H23 UNL A   1      29.087  36.970  45.395  1.00  0.00    +0.000 H 
ATOM     22  C18 UNL A   1      27.120  37.587  45.855  1.00  0.00    +0.000 C 
ATOM    117  H24 UNL A   1      26.800  36.650  46.146  1.00  0.00    +0.000 H 
ATOM     23  C19 UNL A   1      26.235  38.676  45.908  1.00  0.00    +0.000 C 
ATOM    128  H35 UNL A   1      26.024  40.741  45.505  1.00  0.00    +0.000 H 
BRANCH   20   18
ATOM     18  C15 UNL A   1      30.255  39.202  44.539  1.00  0.00    +0.000 C 
ATOM     19  O2  UNL A   1      30.805  40.288  44.660  1.00  0.00    +0.000 O 
BRANCH   18   17
ATOM     17  N2  UNL A   1      30.934  38.140  43.990  1.00  0.00    +0.000 N 
ATOM    115  H22 UNL A   1      31.316  37.502  44.634  1.00  0.00    +0.000 H 
BRANCH   17   16
ATOM    113  H20 UNL A   1      30.481  38.398  41.991  1.00  0.00    +0.000 H 
ATOM    114  H21 UNL A   1      32.177  38.075  42.355  1.00  0.00    +0.000 H 
ATOM     16  C14 UNL A   1      31.162  37.829  42.588  1.00  0.00    +0.000 C 
BRANCH   16   15
ATOM    111  H18 UNL A   1      31.006  36.205  41.234  1.00  0.00    +0.000 H 
ATOM     15  C13 UNL A   1      30.956  36.345  42.294  1.00  0.00    +0.000 C 
ATOM    112  H19 UNL A   1      31.724  35.822  42.824  1.00  0.00    +0.000 H 
BRANCH   15   14
ATOM    110  H17 UNL A   1      28.972  35.765  41.939  1.00  0.00    +0.000 H 
ATOM    109  H16 UNL A   1      29.273  36.402  43.585  1.00  0.00    +0.000 H 
ATOM     14  C12 UNL A   1      29.622  35.778  42.788  1.00  0.00    +0.000 C 
BRANCH   14   13
ATOM    107  H14 UNL A   1      29.150  33.714  42.610  1.00  0.00    +0.000 H 
ATOM    108  H15 UNL A   1      30.714  34.090  43.395  1.00  0.00    +0.000 H 
ATOM     13  C11 UNL A   1      29.676  34.335  43.305  1.00  0.00    +0.000 C 
BRANCH   13   12
ATOM    105  H12 UNL A   1      29.648  33.380  45.209  1.00  0.00    +0.000 H 
ATOM    106  H13 UNL A   1      29.072  35.063  45.192  1.00  0.00    +0.000 H 
ATOM     12  C10 UNL A   1      29.065  34.116  44.696  1.00  0.00    +0.000 C 
BRANCH   12   11
ATOM     11  C9  UNL A   1      27.611  33.640  44.663  1.00  0.00    +0.000 C 
ATOM    103  H10 UNL A   1      26.985  34.393  45.096  1.00  0.00    +0.000 H 
ATOM    104  H11 UNL A   1      27.328  33.464  43.647  1.00  0.00    +0.000 H 
BRANCH   11   10
ATOM     10  N1  UNL A   1      27.462  32.407  45.413  1.00  0.00    +0.000 N 
ATOM    102  H9  UNL A   1      27.997  31.655  45.069  1.00  0.00    +0.000 H 
BRANCH   10    8
ATOM      9  O1  UNL A   1      26.483  30.934  46.778  1.00  0.00    +0.000 O 
ATOM      8  C8  UNL A   1      26.715  32.112  46.506  1.00  0.00    +0.000 C 
BRANCH    8    7
ATOM    101  H8  UNL A   1      25.069  33.244  47.320  1.00  0.00    +0.000 H 
ATOM      7  C7  UNL A   1      26.098  33.171  47.335  1.00  0.00    +0.000 C 
BRANCH    7    6
ATOM    100  H7  UNL A   1      27.784  33.931  48.205  1.00  0.00    +0.000 H 
ATOM      6  C6  UNL A   1      26.763  34.044  48.106  1.00  0.00    +0.000 C 
BRANCH    6    5
ATOM    130  H37 UNL A   1      24.323  34.085  49.170  1.00  0.00    +0.000 H 
ATOM      3  C3  UNL A   1      26.092  37.465  49.608  1.00  0.00    +0.000 C 
ATOM      4  C4  UNL A   1      26.739  36.396  48.970  1.00  0.00    +0.000 C 
ATOM      5  C5  UNL A   1      26.110  35.153  48.817  1.00  0.00    +0.000 C 
ATOM     99  H6  UNL A   1      27.697  36.527  48.607  1.00  0.00    +0.000 H 
ATOM    136  H43 UNL A   1      24.316  38.047  50.592  1.00  0.00    +0.000 H 
ATOM     83  C60 UNL A   1      24.801  34.992  49.286  1.00  0.00    +0.000 C 
ATOM     84  C61 UNL A   1      24.134  36.055  49.913  1.00  0.00    +0.000 C 
ATOM     93  C69 UNL A   1      24.792  37.278  50.095  1.00  0.00    +0.000 C 
BRANCH    3    2
ATOM     97  H4  UNL A   1      27.780  38.643  50.069  1.00  0.00    +0.000 H 
ATOM      2  C2  UNL A   1      26.775  38.803  49.737  1.00  0.00    +0.000 C 
ATOM     98  H5  UNL A   1      26.745  39.274  48.777  1.00  0.00    +0.000 H 
BRANCH    2    1
ATOM      1  C1  UNL A   1      26.080  39.729  50.722  1.00  0.00    +0.000 C 
ATOM     94  H1  UNL A   1      25.019  39.647  50.602  1.00  0.00    +0.000 H 
ATOM     95  H2  UNL A   1      26.383  40.738  50.539  1.00  0.00    +0.000 H 
ATOM     96  H3  UNL A   1      26.347  39.453  51.721  1.00  0.00    +0.000 H 
ENDBRANCH    2    1
ENDBRANCH    3    2
BRANCH   84   85
ATOM     85  C62 UNL A   1      22.739  35.836  50.389  1.00  0.00    +0.000 C 
ATOM     86  O3  UNL A   1      22.118  34.842  50.024  1.00  0.00    +0.000 O 
BRANCH   85   87
ATOM    131  H38 UNL A   1      20.842  35.317  52.178  1.00  0.00    +0.000 H 
ATOM    132  H39 UNL A   1      19.786  36.834  53.753  1.00  0.00    +0.000 H 
ATOM    133  H40 UNL A   1      20.398  39.182  53.775  1.00  0.00    +0.000 H 
ATOM    134  H41 UNL A   1      22.037  40.028  52.199  1.00  0.00    +0.000 H 
ATOM    135  H42 UNL A   1      23.099  38.516  50.623  1.00  0.00    +0.000 H 
ATOM     87  C63 UNL A   1      22.082  36.794  51.311  1.00  0.00    +0.000 C 
ATOM     88  C64 UNL A   1      21.108  36.315  52.193  1.00  0.00    +0.000 C 
ATOM     89  C65 UNL A   1      20.495  37.189  53.093  1.00  0.00    +0.000 C 
ATOM     90  C66 UNL A   1      20.843  38.540  53.101  1.00  0.00    +0.000 C 
ATOM     91  C67 UNL A   1      21.791  39.026  52.199  1.00  0.00    +0.000 C 
ATOM     92  C68 UNL A   1      22.407  38.156  51.297  1.00  0.00    +0.000 C 
ENDBRANCH   85   87
ENDBRANCH   84   85
ENDBRANCH    6    5
ENDBRANCH    7    6
ENDBRANCH    8    7
ENDBRANCH   10    8
ENDBRANCH   11   10
ENDBRANCH   12   11
ENDBRANCH   13   12
ENDBRANCH   14   13
ENDBRANCH   15   14
ENDBRANCH   16   15
ENDBRANCH   17   16
ENDBRANCH   18   17
ENDBRANCH   20   18
ENDBRANCH   24   23
BRANCH   28   29
ATOM     33  F2  UNL A   1      21.486  46.316  48.647  1.00  0.00    +0.000 F 
ATOM     34  C27 UNL A   1      22.382  45.427  50.643  1.00  0.00    +0.000 C 
ATOM     35  F3  UNL A   1      22.545  46.662  51.137  1.00  0.00    +0.000 F 
ATOM     36  C28 UNL A   1      22.768  44.323  51.389  1.00  0.00    +0.000 C 
ATOM     37  F4  UNL A   1      23.286  44.493  52.614  1.00  0.00    +0.000 F 
ATOM     38  C29 UNL A   1      22.623  43.041  50.867  1.00  0.00    +0.000 C 
ATOM     39  F5  UNL A   1      23.021  41.996  51.607  1.00  0.00    +0.000 F 
ATOM     29  C24 UNL A   1      22.067  42.838  49.595  1.00  0.00    +0.000 C 
ATOM     30  C25 UNL A   1      21.661  43.967  48.868  1.00  0.00    +0.000 C 
ATOM     31  F1  UNL A   1      21.135  43.828  47.642  1.00  0.00    +0.000 F 
ATOM     32  C26 UNL A   1      21.835  45.250  49.381  1.00  0.00    +0.000 C 
ENDBRANCH   28   29
BRANCH   45   46
ATOM     46  C35 UNL A   1      17.084  37.624  49.567  1.00  0.00    +0.000 C 
ATOM     47  C36 UNL A   1      16.007  37.477  48.682  1.00  0.00    +0.000 C 
ATOM     48  F6  UNL A   1      16.203  37.575  47.358  1.00  0.00    +0.000 F 
ATOM     49  C37 UNL A   1      14.715  37.269  49.157  1.00  0.00    +0.000 C 
ATOM     50  F7  UNL A   1      13.693  37.174  48.296  1.00  0.00    +0.000 F 
ATOM     51  C38 UNL A   1      14.482  37.172  50.521  1.00  0.00    +0.000 C 
ATOM     52  F8  UNL A   1      13.239  36.964  50.977  1.00  0.00    +0.000 F 
ATOM     53  C39 UNL A   1      15.537  37.296  51.414  1.00  0.00    +0.000 C 
ATOM     54  F9  UNL A   1      15.314  37.192  52.732  1.00  0.00    +0.000 F 
ATOM     55  C40 UNL A   1      16.825  37.532  50.943  1.00  0.00    +0.000 C 
ATOM     56  F10 UNL A   1      17.823  37.659  51.830  1.00  0.00    +0.000 F 
ENDBRANCH   45   46
BRANCH   60   61
ATOM     65  F12 UNL A   1      20.175  31.656  43.242  1.00  0.00    +0.000 F 
ATOM     66  C47 UNL A   1      21.366  30.870  45.123  1.00  0.00    +0.000 C 
ATOM     67  F13 UNL A   1      21.297  29.614  44.661  1.00  0.00    +0.000 F 
ATOM     68  C48 UNL A   1      21.994  31.133  46.331  1.00  0.00    +0.000 C 
ATOM     69  F14 UNL A   1      22.550  30.132  47.028  1.00  0.00    +0.000 F 
ATOM     70  C49 UNL A   1      22.052  32.436  46.821  1.00  0.00    +0.000 C 
ATOM     71  F15 UNL A   1      22.659  32.662  47.994  1.00  0.00    +0.000 F 
ATOM     61  C44 UNL A   1      21.501  33.505  46.098  1.00  0.00    +0.000 C 
ATOM     62  C45 UNL A   1      20.881  33.215  44.875  1.00  0.00    +0.000 C 
ATOM     63  F11 UNL A   1      20.323  34.203  44.159  1.00  0.00    +0.000 F 
ATOM     64  C46 UNL A   1      20.804  31.910  44.398  1.00  0.00    +0.000 C 
ENDBRANCH   60   61
TORSDOF 21
ENDMDL
MODEL 9
REMARK VINA RESULT:      -8.5     59.011     64.519
ROOT
ATOM     24  C20 UNL A   1      43.681  15.947  49.901  1.00  0.00    +0.000 C 
ATOM     25  C21 UNL A   1      44.309  17.309  49.818  1.00  0.00    +0.000 C 
ATOM     26  N3  UNL A   1      44.853  17.909  48.788  1.00  0.00    +0.000 N 
ATOM     27  C22 UNL A   1      45.233  19.166  49.242  1.00  0.00    +0.000 C 
ATOM     28  C23 UNL A   1      45.887  20.143  48.570  1.00  0.00    +0.000 C 
ATOM     40  C30 UNL A   1      46.325  20.034  47.204  1.00  0.00    +0.000 C 
ATOM     41  C31 UNL A   1      47.057  20.939  46.457  1.00  0.00    +0.000 C 
ATOM     42  C32 UNL A   1      47.208  20.420  45.165  1.00  0.00    +0.000 C 
ATOM     43  C33 UNL A   1      46.607  19.172  45.122  1.00  0.00    +0.000 C 
ATOM     44  N4  UNL A   1      46.066  18.950  46.378  1.00  0.00    +0.000 N 
ATOM     45  C34 UNL A   1      46.528  18.252  44.017  1.00  0.00    +0.000 C 
ATOM     57  C41 UNL A   1      45.935  17.033  44.058  1.00  0.00    +0.000 C 
ATOM     58  N5  UNL A   1      45.296  16.410  45.120  1.00  0.00    +0.000 N 
ATOM     59  C42 UNL A   1      44.880  15.255  44.663  1.00  0.00    +0.000 C 
ATOM     60  C43 UNL A   1      44.147  14.158  45.384  1.00  0.00    +0.000 C 
ATOM     72  C50 UNL A   1      43.858  14.307  46.691  1.00  0.00    +0.000 C 
ATOM     73  C51 UNL A   1      43.160  13.330  47.521  1.00  0.00    +0.000 C 
ATOM     74  C52 UNL A   1      43.014  13.832  48.758  1.00  0.00    +0.000 C 
ATOM     75  C53 UNL A   1      43.638  15.154  48.814  1.00  0.00    +0.000 C 
ATOM     76  N6  UNL A   1      44.118  15.350  47.544  1.00  0.00    +0.000 N 
ATOM     77  C54 UNL A   1      45.189  15.023  43.246  1.00  0.00    +0.000 C 
ATOM     78  C55 UNL A   1      45.864  16.121  42.935  1.00  0.00    +0.000 C 
ATOM     79  C56 UNL A   1      44.817  19.260  50.625  1.00  0.00    +0.000 C 
ATOM     80  C57 UNL A   1      44.301  18.115  51.048  1.00  0.00    +0.000 C 
ATOM    118  H25 UNL A   1      47.428  21.842  46.792  1.00  0.00    +0.000 H 
ATOM    119  H26 UNL A   1      47.687  20.886  44.380  1.00  0.00    +0.000 H 
ATOM    120  H27 UNL A   1      45.572  18.142  46.646  1.00  0.00    +0.000 H 
ATOM    121  H28 UNL A   1      42.831  12.403  47.208  1.00  0.00    +0.000 H 
ATOM    122  H29 UNL A   1      42.538  13.361  49.543  1.00  0.00    +0.000 H 
ATOM    123  H30 UNL A   1      44.602  16.163  47.270  1.00  0.00    +0.000 H 
ATOM    124  H31 UNL A   1      44.945  14.217  42.649  1.00  0.00    +0.000 H 
ATOM    125  H32 UNL A   1      46.284  16.303  42.010  1.00  0.00    +0.000 H 
ATOM    126  H33 UNL A   1      44.912  20.107  51.206  1.00  0.00    +0.000 H 
ATOM    127  H34 UNL A   1      43.976  17.857  51.992  1.00  0.00    +0.000 H 
ENDROOT
BRANCH   24   23
ATOM    129  H36 UNL A   1      40.147  15.803  52.841  1.00  0.00    +0.000 H 
ATOM     81  C58 UNL A   1      41.713  15.870  51.431  1.00  0.00    +0.000 C 
ATOM     82  C59 UNL A   1      41.098  15.470  52.614  1.00  0.00    +0.000 C 
ATOM     20  C16 UNL A   1      41.770  14.618  53.495  1.00  0.00    +0.000 C 
ATOM     21  C17 UNL A   1      43.097  14.257  53.247  1.00  0.00    +0.000 C 
ATOM    116  H23 UNL A   1      43.605  13.658  53.917  1.00  0.00    +0.000 H 
ATOM     22  C18 UNL A   1      43.734  14.710  52.090  1.00  0.00    +0.000 C 
ATOM    117  H24 UNL A   1      44.722  14.463  51.917  1.00  0.00    +0.000 H 
ATOM     23  C19 UNL A   1      43.038  15.498  51.160  1.00  0.00    +0.000 C 
ATOM    128  H35 UNL A   1      41.191  16.443  50.749  1.00  0.00    +0.000 H 
BRANCH   20   18
ATOM     18  C15 UNL A   1      41.109  14.110  54.719  1.00  0.00    +0.000 C 
ATOM     19  O2  UNL A   1      41.344  14.633  55.799  1.00  0.00    +0.000 O 
BRANCH   18   17
ATOM     17  N2  UNL A   1      40.232  13.055  54.637  1.00  0.00    +0.000 N 
ATOM    115  H22 UNL A   1      40.436  12.288  55.219  1.00  0.00    +0.000 H 
BRANCH   17   16
ATOM    113  H20 UNL A   1      38.332  12.307  54.325  1.00  0.00    +0.000 H 
ATOM    114  H21 UNL A   1      38.653  13.894  53.624  1.00  0.00    +0.000 H 
ATOM     16  C14 UNL A   1      39.044  12.916  53.810  1.00  0.00    +0.000 C 
BRANCH   16   15
ATOM    111  H18 UNL A   1      38.497  11.730  52.140  1.00  0.00    +0.000 H 
ATOM     15  C13 UNL A   1      39.362  12.270  52.463  1.00  0.00    +0.000 C 
ATOM    112  H19 UNL A   1      39.630  13.067  51.801  1.00  0.00    +0.000 H 
BRANCH   15   14
ATOM    110  H17 UNL A   1      40.140  10.327  52.336  1.00  0.00    +0.000 H 
ATOM    109  H16 UNL A   1      41.052  11.419  53.422  1.00  0.00    +0.000 H 
ATOM     14  C12 UNL A   1      40.549  11.304  52.484  1.00  0.00    +0.000 C 
BRANCH   14   13
ATOM    107  H14 UNL A   1      41.144  11.166  50.449  1.00  0.00    +0.000 H 
ATOM    108  H15 UNL A   1      41.813  12.551  51.364  1.00  0.00    +0.000 H 
ATOM     13  C11 UNL A   1      41.579  11.507  51.366  1.00  0.00    +0.000 C 
BRANCH   13   12
ATOM    105  H12 UNL A   1      43.229  10.387  50.617  1.00  0.00    +0.000 H 
ATOM    106  H13 UNL A   1      43.602  11.482  51.969  1.00  0.00    +0.000 H 
ATOM     12  C10 UNL A   1      42.911  10.772  51.563  1.00  0.00    +0.000 C 
BRANCH   12   11
ATOM     11  C9  UNL A   1      42.834   9.609  52.555  1.00  0.00    +0.000 C 
ATOM    103  H10 UNL A   1      43.796   9.464  53.002  1.00  0.00    +0.000 H 
ATOM    104  H11 UNL A   1      42.109   9.843  53.305  1.00  0.00    +0.000 H 
BRANCH   11   10
ATOM     10  N1  UNL A   1      42.434   8.390  51.878  1.00  0.00    +0.000 N 
ATOM    102  H9  UNL A   1      41.710   8.509  51.221  1.00  0.00    +0.000 H 
BRANCH   10    8
ATOM      9  O1  UNL A   1      43.192   6.683  53.105  1.00  0.00    +0.000 O 
ATOM      8  C8  UNL A   1      42.885   7.115  51.995  1.00  0.00    +0.000 C 
BRANCH    8    7
ATOM    101  H8  UNL A   1      42.257   5.863  50.354  1.00  0.00    +0.000 H 
ATOM      7  C7  UNL A   1      43.097   6.254  50.810  1.00  0.00    +0.000 C 
BRANCH    7    6
ATOM    100  H7  UNL A   1      44.452   4.964  49.988  1.00  0.00    +0.000 H 
ATOM      6  C6  UNL A   1      44.287   5.940  50.277  1.00  0.00    +0.000 C 
BRANCH    6    5
ATOM    130  H37 UNL A   1      44.181   8.248  48.953  1.00  0.00    +0.000 H 
ATOM      3  C3  UNL A   1      47.699   7.602  50.350  1.00  0.00    +0.000 C 
ATOM      4  C4  UNL A   1      46.660   6.687  50.577  1.00  0.00    +0.000 C 
ATOM      5  C5  UNL A   1      45.368   6.918  50.086  1.00  0.00    +0.000 C 
ATOM     99  H6  UNL A   1      46.850   5.828  51.117  1.00  0.00    +0.000 H 
ATOM    136  H43 UNL A   1      48.180   9.458  49.465  1.00  0.00    +0.000 H 
ATOM     83  C60 UNL A   1      45.126   8.071  49.330  1.00  0.00    +0.000 C 
ATOM     84  C61 UNL A   1      46.157   8.989  49.080  1.00  0.00    +0.000 C 
ATOM     93  C69 UNL A   1      47.432   8.763  49.614  1.00  0.00    +0.000 C 
BRANCH    3    2
ATOM     97  H4  UNL A   1      49.011   6.786  51.786  1.00  0.00    +0.000 H 
ATOM      2  C2  UNL A   1      49.089   7.321  50.863  1.00  0.00    +0.000 C 
ATOM     98  H5  UNL A   1      49.599   6.750  50.115  1.00  0.00    +0.000 H 
BRANCH    2    1
ATOM      1  C1  UNL A   1      49.898   8.586  51.101  1.00  0.00    +0.000 C 
ATOM     94  H1  UNL A   1      49.436   9.406  50.592  1.00  0.00    +0.000 H 
ATOM     95  H2  UNL A   1      50.892   8.449  50.731  1.00  0.00    +0.000 H 
ATOM     96  H3  UNL A   1      49.935   8.794  52.150  1.00  0.00    +0.000 H 
ENDBRANCH    2    1
ENDBRANCH    3    2
BRANCH   84   85
ATOM     85  C62 UNL A   1      45.850  10.197  48.264  1.00  0.00    +0.000 C 
ATOM     86  O3  UNL A   1      45.225  10.083  47.214  1.00  0.00    +0.000 O 
BRANCH   85   87
ATOM    131  H38 UNL A   1      47.104  12.045  46.821  1.00  0.00    +0.000 H 
ATOM    132  H39 UNL A   1      47.759  14.291  47.471  1.00  0.00    +0.000 H 
ATOM    133  H40 UNL A   1      47.333  15.076  49.727  1.00  0.00    +0.000 H 
ATOM    134  H41 UNL A   1      46.285  13.608  51.350  1.00  0.00    +0.000 H 
ATOM    135  H42 UNL A   1      45.625  11.361  50.705  1.00  0.00    +0.000 H 
ATOM     87  C63 UNL A   1      46.276  11.549  48.702  1.00  0.00    +0.000 C 
ATOM     88  C64 UNL A   1      46.916  12.383  47.779  1.00  0.00    +0.000 C 
ATOM     89  C65 UNL A   1      47.300  13.670  48.155  1.00  0.00    +0.000 C 
ATOM     90  C66 UNL A   1      47.059  14.119  49.455  1.00  0.00    +0.000 C 
ATOM     91  C67 UNL A   1      46.451  13.277  50.386  1.00  0.00    +0.000 C 
ATOM     92  C68 UNL A   1      46.064  11.988  50.015  1.00  0.00    +0.000 C 
ENDBRANCH   85   87
ENDBRANCH   84   85
ENDBRANCH    6    5
ENDBRANCH    7    6
ENDBRANCH    8    7
ENDBRANCH   10    8
ENDBRANCH   11   10
ENDBRANCH   12   11
ENDBRANCH   13   12
ENDBRANCH   14   13
ENDBRANCH   15   14
ENDBRANCH   16   15
ENDBRANCH   17   16
ENDBRANCH   18   17
ENDBRANCH   20   18
ENDBRANCH   24   23
BRANCH   28   29
ATOM     33  F2  UNL A   1      48.629  22.851  51.599  1.00  0.00    +0.000 F 
ATOM     34  C27 UNL A   1      46.689  23.824  50.670  1.00  0.00    +0.000 C 
ATOM     35  F3  UNL A   1      46.928  24.966  51.329  1.00  0.00    +0.000 F 
ATOM     36  C28 UNL A   1      45.566  23.709  49.863  1.00  0.00    +0.000 C 
ATOM     37  F4  UNL A   1      44.730  24.749  49.729  1.00  0.00    +0.000 F 
ATOM     38  C29 UNL A   1      45.302  22.515  49.198  1.00  0.00    +0.000 C 
ATOM     39  F5  UNL A   1      44.199  22.430  48.439  1.00  0.00    +0.000 F 
ATOM     29  C24 UNL A   1      46.171  21.419  49.310  1.00  0.00    +0.000 C 
ATOM     30  C25 UNL A   1      47.312  21.565  50.111  1.00  0.00    +0.000 C 
ATOM     31  F1  UNL A   1      48.169  20.543  50.262  1.00  0.00    +0.000 F 
ATOM     32  C26 UNL A   1      47.558  22.752  50.799  1.00  0.00    +0.000 C 
ENDBRANCH   28   29
BRANCH   45   46
ATOM     46  C35 UNL A   1      47.170  18.657  42.723  1.00  0.00    +0.000 C 
ATOM     47  C36 UNL A   1      48.550  18.519  42.514  1.00  0.00    +0.000 C 
ATOM     48  F6  UNL A   1      49.340  18.066  43.500  1.00  0.00    +0.000 F 
ATOM     49  C37 UNL A   1      49.129  18.884  41.302  1.00  0.00    +0.000 C 
ATOM     50  F7  UNL A   1      50.455  18.785  41.138  1.00  0.00    +0.000 F 
ATOM     51  C38 UNL A   1      48.338  19.362  40.268  1.00  0.00    +0.000 C 
ATOM     52  F8  UNL A   1      48.895  19.707  39.099  1.00  0.00    +0.000 F 
ATOM     53  C39 UNL A   1      46.968  19.490  40.448  1.00  0.00    +0.000 C 
ATOM     54  F9  UNL A   1      46.200  19.942  39.446  1.00  0.00    +0.000 F 
ATOM     55  C40 UNL A   1      46.390  19.151  41.668  1.00  0.00    +0.000 C 
ATOM     56  F10 UNL A   1      45.064  19.296  41.816  1.00  0.00    +0.000 F 
ENDBRANCH   45   46
BRANCH   60   61
ATOM     65  F12 UNL A   1      45.312   9.777  43.595  1.00  0.00    +0.000 F 
ATOM     66  C47 UNL A   1      43.074  10.505  43.392  1.00  0.00    +0.000 C 
ATOM     67  F13 UNL A   1      42.743   9.365  42.771  1.00  0.00    +0.000 F 
ATOM     68  C48 UNL A   1      42.116  11.485  43.604  1.00  0.00    +0.000 C 
ATOM     69  F14 UNL A   1      40.853  11.284  43.205  1.00  0.00    +0.000 F 
ATOM     70  C49 UNL A   1      42.463  12.678  44.235  1.00  0.00    +0.000 C 
ATOM     71  F15 UNL A   1      41.519  13.611  44.422  1.00  0.00    +0.000 F 
ATOM     61  C44 UNL A   1      43.772  12.903  44.686  1.00  0.00    +0.000 C 
ATOM     62  C45 UNL A   1      44.720  11.893  44.470  1.00  0.00    +0.000 C 
ATOM     63  F11 UNL A   1      45.989  12.072  44.867  1.00  0.00    +0.000 F 
ATOM     64  C46 UNL A   1      44.377  10.711  43.819  1.00  0.00    +0.000 C 
ENDBRANCH   60   61
TORSDOF 21
ENDMDL
MODEL 10
REMARK VINA RESULT:      -8.5     43.735     46.971
ROOT
ATOM     24  C20 UNL A   1      26.007  39.241  46.481  1.00  0.00    +0.000 C 
ATOM     25  C21 UNL A   1      25.150  40.291  47.128  1.00  0.00    +0.000 C 
ATOM     26  N3  UNL A   1      23.926  40.195  47.584  1.00  0.00    +0.000 N 
ATOM     27  C22 UNL A   1      23.626  41.439  48.124  1.00  0.00    +0.000 C 
ATOM     28  C23 UNL A   1      22.463  41.864  48.672  1.00  0.00    +0.000 C 
ATOM     40  C30 UNL A   1      21.278  41.055  48.786  1.00  0.00    +0.000 C 
ATOM     41  C31 UNL A   1      20.029  41.413  49.259  1.00  0.00    +0.000 C 
ATOM     42  C32 UNL A   1      19.204  40.283  49.219  1.00  0.00    +0.000 C 
ATOM     43  C33 UNL A   1      19.928  39.231  48.682  1.00  0.00    +0.000 C 
ATOM     44  N4  UNL A   1      21.200  39.717  48.423  1.00  0.00    +0.000 N 
ATOM     45  C34 UNL A   1      19.495  37.881  48.425  1.00  0.00    +0.000 C 
ATOM     57  C41 UNL A   1      20.262  36.908  47.875  1.00  0.00    +0.000 C 
ATOM     58  N5  UNL A   1      21.580  36.973  47.448  1.00  0.00    +0.000 N 
ATOM     59  C42 UNL A   1      21.875  35.776  47.004  1.00  0.00    +0.000 C 
ATOM     60  C43 UNL A   1      23.159  35.278  46.401  1.00  0.00    +0.000 C 
ATOM     72  C50 UNL A   1      24.189  36.132  46.246  1.00  0.00    +0.000 C 
ATOM     73  C51 UNL A   1      25.489  35.797  45.673  1.00  0.00    +0.000 C 
ATOM     74  C52 UNL A   1      26.278  36.882  45.714  1.00  0.00    +0.000 C 
ATOM     75  C53 UNL A   1      25.527  37.998  46.289  1.00  0.00    +0.000 C 
ATOM     76  N6  UNL A   1      24.296  37.462  46.569  1.00  0.00    +0.000 N 
ATOM     77  C54 UNL A   1      20.780  34.804  47.123  1.00  0.00    +0.000 C 
ATOM     78  C55 UNL A   1      19.809  35.555  47.626  1.00  0.00    +0.000 C 
ATOM     79  C56 UNL A   1      24.811  42.259  47.980  1.00  0.00    +0.000 C 
ATOM     80  C57 UNL A   1      25.758  41.617  47.312  1.00  0.00    +0.000 C 
ATOM    118  H25 UNL A   1      19.752  42.352  49.585  1.00  0.00    +0.000 H 
ATOM    119  H26 UNL A   1      18.224  40.240  49.536  1.00  0.00    +0.000 H 
ATOM    120  H27 UNL A   1      21.938  39.193  48.039  1.00  0.00    +0.000 H 
ATOM    121  H28 UNL A   1      25.758  34.874  45.296  1.00  0.00    +0.000 H 
ATOM    122  H29 UNL A   1      27.258  36.922  45.393  1.00  0.00    +0.000 H 
ATOM    123  H30 UNL A   1      23.558  37.982  46.965  1.00  0.00    +0.000 H 
ATOM    124  H31 UNL A   1      20.769  33.802  46.879  1.00  0.00    +0.000 H 
ATOM    125  H32 UNL A   1      18.852  35.216  47.816  1.00  0.00    +0.000 H 
ATOM    126  H33 UNL A   1      24.904  43.218  48.349  1.00  0.00    +0.000 H 
ATOM    127  H34 UNL A   1      26.681  41.958  47.002  1.00  0.00    +0.000 H 
ENDROOT
BRANCH   24   23
ATOM    129  H36 UNL A   1      30.524  39.268  47.349  1.00  0.00    +0.000 H 
ATOM     81  C58 UNL A   1      28.448  39.183  46.990  1.00  0.00    +0.000 C 
ATOM     82  C59 UNL A   1      29.771  39.474  46.672  1.00  0.00    +0.000 C 
ATOM     20  C16 UNL A   1      30.081  40.048  45.436  1.00  0.00    +0.000 C 
ATOM     21  C17 UNL A   1      29.058  40.433  44.565  1.00  0.00    +0.000 C 
ATOM    116  H23 UNL A   1      29.285  40.891  43.669  1.00  0.00    +0.000 H 
ATOM     22  C18 UNL A   1      27.726  40.197  44.913  1.00  0.00    +0.000 C 
ATOM    117  H24 UNL A   1      26.968  40.502  44.281  1.00  0.00    +0.000 H 
ATOM     23  C19 UNL A   1      27.412  39.546  46.116  1.00  0.00    +0.000 C 
ATOM    128  H35 UNL A   1      28.227  38.697  47.874  1.00  0.00    +0.000 H 
BRANCH   20   18
ATOM     18  C15 UNL A   1      31.486  40.291  45.038  1.00  0.00    +0.000 C 
ATOM     19  O2  UNL A   1      32.059  41.304  45.415  1.00  0.00    +0.000 O 
BRANCH   18   17
ATOM     17  N2  UNL A   1      32.142  39.378  44.248  1.00  0.00    +0.000 N 
ATOM    115  H22 UNL A   1      32.782  38.794  44.716  1.00  0.00    +0.000 H 
BRANCH   17   16
ATOM    113  H20 UNL A   1      31.559  40.010  42.369  1.00  0.00    +0.000 H 
ATOM    114  H21 UNL A   1      33.002  38.997  42.421  1.00  0.00    +0.000 H 
ATOM     16  C14 UNL A   1      32.021  39.155  42.816  1.00  0.00    +0.000 C 
BRANCH   16   15
ATOM    111  H18 UNL A   1      30.223  38.248  42.155  1.00  0.00    +0.000 H 
ATOM     15  C13 UNL A   1      31.180  37.920  42.502  1.00  0.00    +0.000 C 
ATOM    112  H19 UNL A   1      31.724  37.361  41.770  1.00  0.00    +0.000 H 
BRANCH   15   14
ATOM    110  H17 UNL A   1      31.157  37.560  44.568  1.00  0.00    +0.000 H 
ATOM    109  H16 UNL A   1      31.618  36.143  43.576  1.00  0.00    +0.000 H 
ATOM     14  C12 UNL A   1      30.961  36.980  43.691  1.00  0.00    +0.000 C 
BRANCH   14   13
ATOM    107  H14 UNL A   1      29.418  36.093  44.852  1.00  0.00    +0.000 H 
ATOM    108  H15 UNL A   1      28.882  37.257  43.602  1.00  0.00    +0.000 H 
ATOM     13  C11 UNL A   1      29.533  36.444  43.847  1.00  0.00    +0.000 C 
BRANCH   13   12
ATOM    105  H12 UNL A   1      28.203  35.513  42.467  1.00  0.00    +0.000 H 
ATOM    106  H13 UNL A   1      29.934  35.234  42.164  1.00  0.00    +0.000 H 
ATOM     12  C10 UNL A   1      29.158  35.298  42.898  1.00  0.00    +0.000 C 
BRANCH   12   11
ATOM     11  C9  UNL A   1      29.080  33.931  43.582  1.00  0.00    +0.000 C 
ATOM    103  H10 UNL A   1      28.514  33.262  42.967  1.00  0.00    +0.000 H 
ATOM    104  H11 UNL A   1      30.072  33.556  43.719  1.00  0.00    +0.000 H 
BRANCH   11   10
ATOM     10  N1  UNL A   1      28.438  34.046  44.878  1.00  0.00    +0.000 N 
ATOM    102  H9  UNL A   1      28.223  34.970  45.144  1.00  0.00    +0.000 H 
BRANCH   10    8
ATOM      9  O1  UNL A   1      27.447  32.116  45.411  1.00  0.00    +0.000 O 
ATOM      8  C8  UNL A   1      28.082  33.102  45.784  1.00  0.00    +0.000 C 
BRANCH    8    7
ATOM    101  H8  UNL A   1      29.336  33.111  47.539  1.00  0.00    +0.000 H 
ATOM      7  C7  UNL A   1      28.363  33.265  47.228  1.00  0.00    +0.000 C 
BRANCH    7    6
ATOM    100  H7  UNL A   1      26.724  32.914  48.397  1.00  0.00    +0.000 H 
ATOM      6  C6  UNL A   1      27.464  33.595  48.165  1.00  0.00    +0.000 C 
BRANCH    6    5
ATOM    130  H37 UNL A   1      25.386  34.927  49.166  1.00  0.00    +0.000 H 
ATOM      3  C3  UNL A   1      28.667  36.845  49.713  1.00  0.00    +0.000 C 
ATOM      4  C4  UNL A   1      28.667  35.597  49.073  1.00  0.00    +0.000 C 
ATOM      5  C5  UNL A   1      27.478  34.880  48.880  1.00  0.00    +0.000 C 
ATOM     99  H6  UNL A   1      29.559  35.200  48.738  1.00  0.00    +0.000 H 
ATOM    136  H43 UNL A   1      27.442  38.282  50.661  1.00  0.00    +0.000 H 
ATOM     83  C60 UNL A   1      26.270  35.441  49.311  1.00  0.00    +0.000 C 
ATOM     84  C61 UNL A   1      26.251  36.694  49.940  1.00  0.00    +0.000 C 
ATOM     93  C69 UNL A   1      27.452  37.378  50.162  1.00  0.00    +0.000 C 
BRANCH    3    2
ATOM     97  H4  UNL A   1      30.620  37.033  50.487  1.00  0.00    +0.000 H 
ATOM      2  C2  UNL A   1      29.953  37.615  49.886  1.00  0.00    +0.000 C 
ATOM     98  H5  UNL A   1      30.353  37.795  48.911  1.00  0.00    +0.000 H 
BRANCH    2    1
ATOM      1  C1  UNL A   1      29.749  38.965  50.554  1.00  0.00    +0.000 C 
ATOM     94  H1  UNL A   1      29.194  39.606  49.900  1.00  0.00    +0.000 H 
ATOM     95  H2  UNL A   1      30.700  39.407  50.765  1.00  0.00    +0.000 H 
ATOM     96  H3  UNL A   1      29.208  38.833  51.468  1.00  0.00    +0.000 H 
ENDBRANCH    2    1
ENDBRANCH    3    2
BRANCH   84   85
ATOM     85  C62 UNL A   1      24.939  37.250  50.374  1.00  0.00    +0.000 C 
ATOM     86  O3  UNL A   1      24.641  38.407  50.091  1.00  0.00    +0.000 O 
BRANCH   85   87
ATOM    131  H38 UNL A   1      22.443  36.640  49.689  1.00  0.00    +0.000 H 
ATOM    132  H39 UNL A   1      20.844  35.244  50.868  1.00  0.00    +0.000 H 
ATOM    133  H40 UNL A   1      21.438  34.252  53.000  1.00  0.00    +0.000 H 
ATOM    134  H41 UNL A   1      23.615  34.681  53.979  1.00  0.00    +0.000 H 
ATOM    135  H42 UNL A   1      25.222  36.075  52.804  1.00  0.00    +0.000 H 
ATOM     87  C63 UNL A   1      23.969  36.427  51.137  1.00  0.00    +0.000 C 
ATOM     88  C64 UNL A   1      22.698  36.211  50.593  1.00  0.00    +0.000 C 
ATOM     89  C65 UNL A   1      21.776  35.415  51.274  1.00  0.00    +0.000 C 
ATOM     90  C66 UNL A   1      22.116  34.850  52.504  1.00  0.00    +0.000 C 
ATOM     91  C67 UNL A   1      23.372  35.091  53.064  1.00  0.00    +0.000 C 
ATOM     92  C68 UNL A   1      24.298  35.886  52.386  1.00  0.00    +0.000 C 
ENDBRANCH   85   87
ENDBRANCH   84   85
ENDBRANCH    6    5
ENDBRANCH    7    6
ENDBRANCH    8    7
ENDBRANCH   10    8
ENDBRANCH   11   10
ENDBRANCH   12   11
ENDBRANCH   13   12
ENDBRANCH   14   13
ENDBRANCH   15   14
ENDBRANCH   16   15
ENDBRANCH   17   16
ENDBRANCH   18   17
ENDBRANCH   20   18
ENDBRANCH   24   23
BRANCH   28   29
ATOM     33  F2  UNL A   1      21.713  46.665  48.031  1.00  0.00    +0.000 F 
ATOM     34  C27 UNL A   1      22.317  45.900  50.182  1.00  0.00    +0.000 C 
ATOM     35  F3  UNL A   1      22.283  47.154  50.653  1.00  0.00    +0.000 F 
ATOM     36  C28 UNL A   1      22.659  44.851  51.023  1.00  0.00    +0.000 C 
ATOM     37  F4  UNL A   1      22.937  45.091  52.312  1.00  0.00    +0.000 F 
ATOM     38  C29 UNL A   1      22.719  43.551  50.529  1.00  0.00    +0.000 C 
ATOM     39  F5  UNL A   1      23.070  42.560  51.363  1.00  0.00    +0.000 F 
ATOM     29  C24 UNL A   1      22.415  43.273  49.187  1.00  0.00    +0.000 C 
ATOM     30  C25 UNL A   1      22.048  44.346  48.362  1.00  0.00    +0.000 C 
ATOM     31  F1  UNL A   1      21.760  44.136  47.068  1.00  0.00    +0.000 F 
ATOM     32  C26 UNL A   1      22.017  45.649  48.852  1.00  0.00    +0.000 C 
ENDBRANCH   28   29
BRANCH   45   46
ATOM     46  C35 UNL A   1      18.079  37.525  48.768  1.00  0.00    +0.000 C 
ATOM     47  C36 UNL A   1      17.641  37.462  50.100  1.00  0.00    +0.000 C 
ATOM     48  F6  UNL A   1      18.505  37.670  51.105  1.00  0.00    +0.000 F 
ATOM     49  C37 UNL A   1      16.320  37.147  50.402  1.00  0.00    +0.000 C 
ATOM     50  F7  UNL A   1      15.932  37.050  51.682  1.00  0.00    +0.000 F 
ATOM     51  C38 UNL A   1      15.407  36.919  49.383  1.00  0.00    +0.000 C 
ATOM     52  F8  UNL A   1      14.133  36.622  49.676  1.00  0.00    +0.000 F 
ATOM     53  C39 UNL A   1      15.815  36.993  48.059  1.00  0.00    +0.000 C 
ATOM     54  F9  UNL A   1      14.931  36.783  47.074  1.00  0.00    +0.000 F 
ATOM     55  C40 UNL A   1      17.142  37.282  47.754  1.00  0.00    +0.000 C 
ATOM     56  F10 UNL A   1      17.510  37.335  46.465  1.00  0.00    +0.000 F 
ENDBRANCH   45   46
BRANCH   60   61
ATOM     65  F12 UNL A   1      22.379  31.801  43.076  1.00  0.00    +0.000 F 
ATOM     66  C47 UNL A   1      23.560  31.223  45.037  1.00  0.00    +0.000 C 
ATOM     67  F13 UNL A   1      23.684  29.960  44.609  1.00  0.00    +0.000 F 
ATOM     68  C48 UNL A   1      24.083  31.595  46.267  1.00  0.00    +0.000 C 
ATOM     69  F14 UNL A   1      24.728  30.694  47.020  1.00  0.00    +0.000 F 
ATOM     70  C49 UNL A   1      23.940  32.905  46.720  1.00  0.00    +0.000 C 
ATOM     71  F15 UNL A   1      24.449  33.237  47.916  1.00  0.00    +0.000 F 
ATOM     61  C44 UNL A   1      23.292  33.874  45.940  1.00  0.00    +0.000 C 
ATOM     62  C45 UNL A   1      22.783  33.477  44.696  1.00  0.00    +0.000 C 
ATOM     63  F11 UNL A   1      22.138  34.364  43.924  1.00  0.00    +0.000 F 
ATOM     64  C46 UNL A   1      22.905  32.162  44.255  1.00  0.00    +0.000 C 
ENDBRANCH   60   61
TORSDOF 21
ENDMDL
